MODEL        1
REMARK 921   NORMALIZED FREE ENERGY PREDICTED BY IDOCK:   -6.75 KCAL/MOL
REMARK 922        TOTAL FREE ENERGY PREDICTED BY IDOCK:  -12.65 KCAL/MOL
REMARK 923 INTER-LIGAND FREE ENERGY PREDICTED BY IDOCK:  -10.69 KCAL/MOL
REMARK 924 INTRA-LIGAND FREE ENERGY PREDICTED BY IDOCK:   -1.96 KCAL/MOL
REMARK 927      BINDING AFFINITY PREDICTED BY RF-SCORE:    0.00 PKD
ROOT
HETATM    1  N   UNK A   1     -13.796   9.028  73.220  1.00  0.00    -1.163 NA 
HETATM    2  H2  UNK A   1     -14.795   9.205  73.116  1.00  0.00     0.000 HD 
HETATM    3  C   UNK A   1     -13.063   9.267  71.983  1.00  0.00    -0.436 C  
HETATM    4  H1  UNK A   1     -13.605   8.083  73.553  1.00  0.00     0.000 HD 
ENDROOT
BRANCH   3   5
HETATM    5  C   UNK A   1     -13.349  10.679  71.486  1.00  0.00    -0.359 C  
BRANCH   5   6
HETATM    6  C   UNK A   1     -12.115  11.325  70.842  1.00  0.00    -0.406 C  
BRANCH   6   7
HETATM    7  C   UNK A   1     -12.263  11.296  69.318  1.00  0.00    -0.290 C  
BRANCH   7   8
HETATM    8  C   UNK A   1     -10.954  11.365  68.513  1.00  0.00    -0.221 C  
BRANCH   8   9
HETATM    9  N   UNK A   1     -10.720  12.680  67.842  1.00  0.00    -0.213 NA 
HETATM   10  H   UNK A   1     -10.211  12.546  66.969  1.00  0.00     0.000 HD 
BRANCH   9  11
HETATM   11  C   UNK A   1     -11.955  13.491  67.601  1.00  0.00    -0.336 C  
HETATM   12  C   UNK A   1     -12.066  13.737  66.085  1.00  0.00    -0.441 C  
HETATM   13  O   UNK A   1     -13.111  13.947  65.487  1.00  0.00    -0.699 OA 
HETATM   14  O   UNK A   1     -10.856  13.705  65.474  1.00  0.00    -0.284 OA 
BRANCH  11  15
HETATM   15  C   UNK A   1     -11.913  14.851  68.334  1.00  0.00    -0.255 C  
BRANCH  15  16
HETATM   16  C   UNK A   1     -11.141  14.799  69.663  1.00  0.00    -0.299 C  
BRANCH  16  17
HETATM   17  C   UNK A   1     -12.013  15.107  70.860  1.00  0.00    -0.378 A  
HETATM   18  C   UNK A   1     -13.368  14.747  70.858  1.00  0.00    -0.372 A  
HETATM   19  C   UNK A   1     -13.649  15.666  73.075  1.00  0.00    -0.619 A  
HETATM   20  C   UNK A   1     -14.179  15.024  71.960  1.00  0.00    -0.649 A  
HETATM   21  C   UNK A   1     -12.300  16.015  73.097  1.00  0.00    -0.637 A  
HETATM   22  C   UNK A   1     -11.486  15.737  71.998  1.00  0.00    -0.459 A  
ENDBRANCH  16  17
ENDBRANCH  15  16
ENDBRANCH  11  15
ENDBRANCH   9  11
ENDBRANCH   8   9
BRANCH   8  23
HETATM   23  C   UNK A   1     -10.836  10.236  67.428  1.00  0.00    -0.277 C  
ATOM     24  OXT PRO A   2      -9.708   8.668  71.373  1.00  0.00    -0.196 OA 
HETATM   25  O   UNK A   1     -11.034  10.495  66.240  1.00  0.00    -0.063 OA 
ATOM     26  N   PRO A   2     -10.436   8.960  67.827  1.00  0.00    -0.246 N  
ATOM     27  CD  PRO A   2     -10.195   7.908  66.845  1.00  0.00    -0.310 C  
ATOM     28  O   PRO A   2      -8.401   9.099  69.580  1.00  0.00    -0.115 OA 
ATOM     29  C   PRO A   2      -9.571   8.746  70.163  1.00  0.00    -0.173 C  
ATOM     30  CA  PRO A   2     -10.662   8.376  69.159  1.00  0.00    -0.106 C  
ATOM     31  CB  PRO A   2     -10.678   6.859  68.947  1.00  0.00    -0.254 C  
ATOM     32  CG  PRO A   2     -10.831   6.669  67.444  1.00  0.00    -0.434 C  
ENDBRANCH   8  23
ENDBRANCH   7   8
ENDBRANCH   6   7
ENDBRANCH   5   6
ENDBRANCH   3   5
TORSDOF 10
ENDMDL
MODEL        2
REMARK 921   NORMALIZED FREE ENERGY PREDICTED BY IDOCK:   -6.62 KCAL/MOL
REMARK 922        TOTAL FREE ENERGY PREDICTED BY IDOCK:  -12.44 KCAL/MOL
REMARK 923 INTER-LIGAND FREE ENERGY PREDICTED BY IDOCK:  -10.61 KCAL/MOL
REMARK 924 INTRA-LIGAND FREE ENERGY PREDICTED BY IDOCK:   -1.83 KCAL/MOL
REMARK 927      BINDING AFFINITY PREDICTED BY RF-SCORE:    0.00 PKD
ROOT
HETATM    1  N   UNK A   1     -13.746  15.552  73.425  1.00  0.00    -0.615 NA 
HETATM    2  H2  UNK A   1     -13.653  16.472  73.856  1.00  0.00     0.000 HD 
HETATM    3  C   UNK A   1     -13.388  15.567  72.012  1.00  0.00    -0.472 C  
HETATM    4  H1  UNK A   1     -14.686  15.169  73.534  1.00  0.00     0.000 HD 
ENDROOT
BRANCH   3   5
HETATM    5  C   UNK A   1     -11.984  16.139  71.849  1.00  0.00    -0.583 C  
BRANCH   5   6
HETATM    6  C   UNK A   1     -11.135  15.315  70.873  1.00  0.00    -0.343 C  
BRANCH   6   7
HETATM    7  C   UNK A   1     -12.032  14.761  69.762  1.00  0.00    -0.368 C  
BRANCH   7   8
HETATM    8  C   UNK A   1     -11.609  13.407  69.167  1.00  0.00    -0.315 C  
BRANCH   8   9
HETATM    9  N   UNK A   1     -12.155  13.143  67.801  1.00  0.00    -0.288 NA 
HETATM   10  H   UNK A   1     -13.164  13.001  67.846  1.00  0.00     0.000 HD 
BRANCH   9  11
HETATM   11  C   UNK A   1     -11.824  14.186  66.780  1.00  0.00    -0.425 C  
HETATM   12  C   UNK A   1     -12.356  13.696  65.420  1.00  0.00    -0.476 C  
HETATM   13  O   UNK A   1     -12.672  14.425  64.491  1.00  0.00    -0.663 OA 
HETATM   14  O   UNK A   1     -12.430  12.344  65.359  1.00  0.00    -0.637 OA 
BRANCH  11  15
HETATM   15  C   UNK A   1     -10.303  14.434  66.670  1.00  0.00    -0.275 C  
BRANCH  15  16
HETATM   16  C   UNK A   1      -9.949  15.653  65.802  1.00  0.00    -0.390 C  
BRANCH  16  17
HETATM   17  C   UNK A   1     -10.040  16.959  66.559  1.00  0.00    -0.320 A  
HETATM   18  C   UNK A   1     -10.366  18.144  65.887  1.00  0.00    -0.284 A  
HETATM   19  C   UNK A   1     -10.217  19.394  67.949  1.00  0.00    -0.530 A  
HETATM   20  C   UNK A   1     -10.455  19.354  66.579  1.00  0.00    -0.572 A  
HETATM   21  C   UNK A   1      -9.906  18.220  68.633  1.00  0.00    -0.400 A  
HETATM   22  C   UNK A   1      -9.819  17.010  67.945  1.00  0.00    -0.269 A  
ENDBRANCH  16  17
ENDBRANCH  15  16
ENDBRANCH  11  15
ENDBRANCH   9  11
ENDBRANCH   8   9
BRANCH   8  23
HETATM   23  C   UNK A   1     -11.979  12.187  70.084  1.00  0.00    -0.314 C  
ATOM     24  OXT PRO A   2      -8.797  11.057  67.274  1.00  0.00    -0.134 OA 
HETATM   25  O   UNK A   1     -12.908  12.276  70.890  1.00  0.00    -0.220 OA 
ATOM     26  N   PRO A   2     -11.286  10.987  69.919  1.00  0.00    -0.285 N  
ATOM     27  CD  PRO A   2     -11.671   9.791  70.660  1.00  0.00    -0.300 C  
ATOM     28  O   PRO A   2     -10.965  10.420  67.309  1.00  0.00    -0.288 OA 
ATOM     29  C   PRO A   2      -9.817  10.822  67.903  1.00  0.00    -0.167 C  
ATOM     30  CA  PRO A   2      -9.904  10.865  69.428  1.00  0.00    -0.027 C  
ATOM     31  CB  PRO A   2      -9.373   9.553  70.014  1.00  0.00    -0.265 C  
ATOM     32  CG  PRO A   2     -10.358   9.181  71.113  1.00  0.00    -0.387 C  
ENDBRANCH   8  23
ENDBRANCH   7   8
ENDBRANCH   6   7
ENDBRANCH   5   6
ENDBRANCH   3   5
TORSDOF 10
ENDMDL
MODEL        3
REMARK 921   NORMALIZED FREE ENERGY PREDICTED BY IDOCK:   -6.61 KCAL/MOL
REMARK 922        TOTAL FREE ENERGY PREDICTED BY IDOCK:  -12.43 KCAL/MOL
REMARK 923 INTER-LIGAND FREE ENERGY PREDICTED BY IDOCK:  -10.90 KCAL/MOL
REMARK 924 INTRA-LIGAND FREE ENERGY PREDICTED BY IDOCK:   -1.53 KCAL/MOL
REMARK 927      BINDING AFFINITY PREDICTED BY RF-SCORE:    0.00 PKD
ROOT
HETATM    1  N   UNK A   1     -12.443  14.207  63.219  1.00  0.00    -1.098 NA 
HETATM    2  H2  UNK A   1     -13.383  13.820  63.135  1.00  0.00     0.000 HD 
HETATM    3  C   UNK A   1     -12.002  14.290  64.605  1.00  0.00    -0.455 C  
HETATM    4  H1  UNK A   1     -12.364  15.125  62.780  1.00  0.00     0.000 HD 
ENDROOT
BRANCH   3   5
HETATM    5  C   UNK A   1     -12.120  12.918  65.260  1.00  0.00    -0.496 C  
BRANCH   5   6
HETATM    6  C   UNK A   1     -11.581  12.915  66.696  1.00  0.00    -0.428 C  
BRANCH   6   7
HETATM    7  C   UNK A   1     -11.814  14.291  67.328  1.00  0.00    -0.444 C  
BRANCH   7   8
HETATM    8  C   UNK A   1     -10.671  14.831  68.205  1.00  0.00    -0.247 C  
BRANCH   8   9
HETATM    9  N   UNK A   1     -10.808  14.501  69.656  1.00  0.00    -0.401 NA 
HETATM   10  H   UNK A   1     -10.386  15.234  70.227  1.00  0.00     0.000 HD 
BRANCH   9  11
HETATM   11  C   UNK A   1     -12.209  14.233  70.110  1.00  0.00    -0.345 C  
HETATM   12  C   UNK A   1     -12.601  15.346  71.101  1.00  0.00    -0.422 C  
HETATM   13  O   UNK A   1     -13.745  15.714  71.320  1.00  0.00    -0.568 OA 
HETATM   14  O   UNK A   1     -11.520  15.877  71.724  1.00  0.00    -0.407 OA 
BRANCH  11  15
HETATM   15  C   UNK A   1     -12.345  12.862  70.808  1.00  0.00    -0.385 C  
BRANCH  15  16
HETATM   16  C   UNK A   1     -11.747  11.704  69.991  1.00  0.00    -0.402 C  
BRANCH  16  17
HETATM   17  C   UNK A   1     -11.759  10.390  70.740  1.00  0.00    -0.464 A  
HETATM   18  C   UNK A   1     -12.744  10.135  71.703  1.00  0.00    -0.549 A  
HETATM   19  C   UNK A   1     -11.802   7.953  72.138  1.00  0.00    -0.384 A  
HETATM   20  C   UNK A   1     -12.766   8.923  72.397  1.00  0.00    -0.436 A  
HETATM   21  C   UNK A   1     -10.826   8.187  71.172  1.00  0.00    -0.268 A  
HETATM   22  C   UNK A   1     -10.804   9.396  70.476  1.00  0.00    -0.336 A  
ENDBRANCH  16  17
ENDBRANCH  15  16
ENDBRANCH  11  15
ENDBRANCH   9  11
ENDBRANCH   8   9
BRANCH   8  23
HETATM   23  C   UNK A   1     -10.475  16.384  68.075  1.00  0.00    -0.303 C  
ATOM     24  OXT PRO A   2      -6.678  14.308  67.315  1.00  0.00    -0.259 OA 
HETATM   25  O   UNK A   1     -11.406  17.150  68.328  1.00  0.00    -0.121 OA 
ATOM     26  N   PRO A   2      -9.213  16.875  67.737  1.00  0.00    -0.228 N  
ATOM     27  CD  PRO A   2      -8.947  18.310  67.720  1.00  0.00    -0.267 C  
ATOM     28  O   PRO A   2      -7.286  15.573  69.087  1.00  0.00    -0.145 OA 
ATOM     29  C   PRO A   2      -7.332  15.229  67.778  1.00  0.00    -0.163 C  
ATOM     30  CA  PRO A   2      -8.207  16.157  66.937  1.00  0.00    -0.238 C  
ATOM     31  CB  PRO A   2      -7.340  17.243  66.293  1.00  0.00    -0.342 C  
ATOM     32  CG  PRO A   2      -8.130  18.535  66.463  1.00  0.00    -0.299 C  
ENDBRANCH   8  23
ENDBRANCH   7   8
ENDBRANCH   6   7
ENDBRANCH   5   6
ENDBRANCH   3   5
TORSDOF 10
ENDMDL
MODEL        4
REMARK 921   NORMALIZED FREE ENERGY PREDICTED BY IDOCK:   -6.57 KCAL/MOL
REMARK 922        TOTAL FREE ENERGY PREDICTED BY IDOCK:  -12.37 KCAL/MOL
REMARK 923 INTER-LIGAND FREE ENERGY PREDICTED BY IDOCK:  -10.56 KCAL/MOL
REMARK 924 INTRA-LIGAND FREE ENERGY PREDICTED BY IDOCK:   -1.81 KCAL/MOL
REMARK 927      BINDING AFFINITY PREDICTED BY RF-SCORE:    0.00 PKD
ROOT
HETATM    1  N   UNK A   1     -11.539  16.256  63.856  1.00  0.00    -1.573 NA 
HETATM    2  H2  UNK A   1     -12.517  16.545  63.891  1.00  0.00     0.000 HD 
HETATM    3  C   UNK A   1     -11.269  15.118  64.726  1.00  0.00    -0.388 C  
HETATM    4  H1  UNK A   1     -10.903  17.020  64.086  1.00  0.00     0.000 HD 
ENDROOT
BRANCH   3   5
HETATM    5  C   UNK A   1     -12.220  13.977  64.382  1.00  0.00    -0.457 C  
BRANCH   5   6
HETATM    6  C   UNK A   1     -12.371  12.983  65.540  1.00  0.00    -0.527 C  
BRANCH   6   7
HETATM    7  C   UNK A   1     -11.741  13.576  66.804  1.00  0.00    -0.430 C  
BRANCH   7   8
HETATM    8  C   UNK A   1     -10.803  12.644  67.590  1.00  0.00    -0.221 C  
BRANCH   8   9
HETATM    9  N   UNK A   1      -9.860  13.358  68.505  1.00  0.00    -0.338 NA 
HETATM   10  H   UNK A   1      -8.967  12.868  68.543  1.00  0.00     0.000 HD 
BRANCH   9  11
HETATM   11  C   UNK A   1      -9.645  14.803  68.181  1.00  0.00    -0.209 C  
HETATM   12  C   UNK A   1      -8.242  14.940  67.559  1.00  0.00    -0.182 C  
HETATM   13  O   UNK A   1      -7.904  15.827  66.789  1.00  0.00    -0.234 OA 
HETATM   14  O   UNK A   1      -7.404  13.957  67.971  1.00  0.00    -0.109 OA 
BRANCH  11  15
HETATM   15  C   UNK A   1      -9.733  15.702  69.435  1.00  0.00    -0.292 C  
BRANCH  15  16
HETATM   16  C   UNK A   1     -11.142  16.272  69.674  1.00  0.00    -0.333 C  
BRANCH  16  17
HETATM   17  C   UNK A   1     -11.875  15.571  70.796  1.00  0.00    -0.406 A  
HETATM   18  C   UNK A   1     -12.515  14.346  70.566  1.00  0.00    -0.416 A  
HETATM   19  C   UNK A   1     -13.239  14.253  72.869  1.00  0.00    -0.593 A  
HETATM   20  C   UNK A   1     -13.191  13.691  71.597  1.00  0.00    -0.447 A  
HETATM   21  C   UNK A   1     -12.594  15.463  73.116  1.00  0.00    -0.580 A  
HETATM   22  C   UNK A   1     -11.915  16.118  72.088  1.00  0.00    -0.623 A  
ENDBRANCH  16  17
ENDBRANCH  15  16
ENDBRANCH  11  15
ENDBRANCH   9  11
ENDBRANCH   8   9
BRANCH   8  23
HETATM   23  C   UNK A   1      -9.960  11.694  66.665  1.00  0.00    -0.203 C  
ATOM     24  OXT PRO A   2     -11.248   9.543  70.273  1.00  0.00    -0.246 OA 
HETATM   25  O   UNK A   1      -9.439  12.132  65.638  1.00  0.00    -0.209 OA 
ATOM     26  N   PRO A   2      -9.757  10.373  67.066  1.00  0.00    -0.173 N  
ATOM     27  CD  PRO A   2      -8.884   9.485  66.306  1.00  0.00    -0.149 C  
ATOM     28  O   PRO A   2      -9.180  10.247  69.690  1.00  0.00    -0.199 OA 
ATOM     29  C   PRO A   2     -10.429   9.806  69.406  1.00  0.00    -0.223 C  
ATOM     30  CA  PRO A   2     -10.673   9.592  67.913  1.00  0.00    -0.228 C  
ATOM     31  CB  PRO A   2     -10.418   8.125  67.552  1.00  0.00    -0.326 C  
ATOM     32  CG  PRO A   2      -9.633   8.167  66.248  1.00  0.00    -0.248 C  
ENDBRANCH   8  23
ENDBRANCH   7   8
ENDBRANCH   6   7
ENDBRANCH   5   6
ENDBRANCH   3   5
TORSDOF 10
ENDMDL
MODEL        5
REMARK 921   NORMALIZED FREE ENERGY PREDICTED BY IDOCK:   -6.56 KCAL/MOL
REMARK 922        TOTAL FREE ENERGY PREDICTED BY IDOCK:  -12.35 KCAL/MOL
REMARK 923 INTER-LIGAND FREE ENERGY PREDICTED BY IDOCK:  -10.82 KCAL/MOL
REMARK 924 INTRA-LIGAND FREE ENERGY PREDICTED BY IDOCK:   -1.54 KCAL/MOL
REMARK 927      BINDING AFFINITY PREDICTED BY RF-SCORE:    0.00 PKD
ROOT
HETATM    1  N   UNK A   1     -13.761  16.299  73.615  1.00  0.00    -0.812 NA 
HETATM    2  H2  UNK A   1     -14.436  15.575  73.368  1.00  0.00     0.000 HD 
HETATM    3  C   UNK A   1     -12.410  15.770  73.753  1.00  0.00    -0.597 C  
HETATM    4  H1  UNK A   1     -14.022  16.793  74.469  1.00  0.00     0.000 HD 
ENDROOT
BRANCH   3   5
HETATM    5  C   UNK A   1     -12.020  15.032  72.477  1.00  0.00    -0.432 C  
BRANCH   5   6
HETATM    6  C   UNK A   1     -11.728  15.995  71.320  1.00  0.00    -0.516 C  
BRANCH   6   7
HETATM    7  C   UNK A   1     -11.998  15.286  69.989  1.00  0.00    -0.375 C  
BRANCH   7   8
HETATM    8  C   UNK A   1     -11.344  15.916  68.747  1.00  0.00    -0.378 C  
BRANCH   8   9
HETATM    9  N   UNK A   1     -11.805  15.330  67.451  1.00  0.00    -0.244 NA 
HETATM   10  H   UNK A   1     -11.795  16.039  66.719  1.00  0.00     0.000 HD 
BRANCH   9  11
HETATM   11  C   UNK A   1     -11.050  14.116  67.007  1.00  0.00    -0.307 C  
HETATM   12  C   UNK A   1     -11.109  14.064  65.469  1.00  0.00    -0.309 C  
HETATM   13  O   UNK A   1     -10.279  13.520  64.757  1.00  0.00    -0.379 OA 
HETATM   14  O   UNK A   1     -12.208  14.691  64.980  1.00  0.00    -0.381 OA 
BRANCH  11  15
HETATM   15  C   UNK A   1     -11.649  12.813  67.581  1.00  0.00    -0.412 C  
BRANCH  15  16
HETATM   16  C   UNK A   1     -10.635  11.983  68.387  1.00  0.00    -0.236 C  
BRANCH  16  17
HETATM   17  C   UNK A   1     -11.268  11.250  69.549  1.00  0.00    -0.337 A  
HETATM   18  C   UNK A   1     -12.281  11.859  70.301  1.00  0.00    -0.353 A  
HETATM   19  C   UNK A   1     -12.458   9.902  71.708  1.00  0.00    -0.487 A  
HETATM   20  C   UNK A   1     -12.873  11.188  71.373  1.00  0.00    -0.544 A  
HETATM   21  C   UNK A   1     -11.463   9.278  70.958  1.00  0.00    -0.387 A  
HETATM   22  C   UNK A   1     -10.872   9.946  69.885  1.00  0.00    -0.316 A  
ENDBRANCH  16  17
ENDBRANCH  15  16
ENDBRANCH  11  15
ENDBRANCH   9  11
ENDBRANCH   8   9
BRANCH   8  23
HETATM   23  C   UNK A   1      -9.775  15.856  68.777  1.00  0.00    -0.216 C  
ATOM     24  OXT PRO A   2     -11.111  19.513  66.742  1.00  0.00    -0.374 OA 
HETATM   25  O   UNK A   1      -9.201  14.867  69.237  1.00  0.00    -0.178 OA 
ATOM     26  N   PRO A   2      -9.052  16.908  68.213  1.00  0.00    -0.228 N  
ATOM     27  CD  PRO A   2      -7.598  16.846  68.108  1.00  0.00    -0.188 C  
ATOM     28  O   PRO A   2     -10.136  17.668  65.873  1.00  0.00    -0.519 OA 
ATOM     29  C   PRO A   2     -10.359  18.560  66.867  1.00  0.00    -0.397 C  
ATOM     30  CA  PRO A   2      -9.515  18.302  68.114  1.00  0.00    -0.303 C  
ATOM     31  CB  PRO A   2      -8.245  19.156  68.066  1.00  0.00    -0.339 C  
ATOM     32  CG  PRO A   2      -7.124  18.228  68.515  1.00  0.00    -0.277 C  
ENDBRANCH   8  23
ENDBRANCH   7   8
ENDBRANCH   6   7
ENDBRANCH   5   6
ENDBRANCH   3   5
TORSDOF 10
ENDMDL
MODEL        6
REMARK 921   NORMALIZED FREE ENERGY PREDICTED BY IDOCK:   -6.54 KCAL/MOL
REMARK 922        TOTAL FREE ENERGY PREDICTED BY IDOCK:  -12.32 KCAL/MOL
REMARK 923 INTER-LIGAND FREE ENERGY PREDICTED BY IDOCK:  -10.36 KCAL/MOL
REMARK 924 INTRA-LIGAND FREE ENERGY PREDICTED BY IDOCK:   -1.96 KCAL/MOL
REMARK 927      BINDING AFFINITY PREDICTED BY RF-SCORE:    0.00 PKD
ROOT
HETATM    1  N   UNK A   1     -14.358   8.887  72.945  1.00  0.00    -1.124 NA 
HETATM    2  H2  UNK A   1     -15.102   8.731  72.264  1.00  0.00     0.000 HD 
HETATM    3  C   UNK A   1     -13.047   8.987  72.316  1.00  0.00    -0.445 C  
HETATM    4  H1  UNK A   1     -14.337   8.163  73.664  1.00  0.00     0.000 HD 
ENDROOT
BRANCH   3   5
HETATM    5  C   UNK A   1     -13.079  10.068  71.242  1.00  0.00    -0.493 C  
BRANCH   5   6
HETATM    6  C   UNK A   1     -11.679  10.390  70.706  1.00  0.00    -0.464 C  
BRANCH   6   7
HETATM    7  C   UNK A   1     -11.773  10.746  69.219  1.00  0.00    -0.374 C  
BRANCH   7   8
HETATM    8  C   UNK A   1     -10.450  11.130  68.533  1.00  0.00    -0.191 C  
BRANCH   8   9
HETATM    9  N   UNK A   1     -10.485  12.453  67.838  1.00  0.00    -0.210 NA 
HETATM   10  H   UNK A   1      -9.933  12.416  66.981  1.00  0.00     0.000 HD 
BRANCH   9  11
HETATM   11  C   UNK A   1     -11.858  12.974  67.548  1.00  0.00    -0.355 C  
HETATM   12  C   UNK A   1     -11.983  13.143  66.022  1.00  0.00    -0.433 C  
HETATM   13  O   UNK A   1     -13.033  13.106  65.400  1.00  0.00    -0.617 OA 
HETATM   14  O   UNK A   1     -10.779  13.349  65.433  1.00  0.00    -0.286 OA 
BRANCH  11  15
HETATM   15  C   UNK A   1     -12.122  14.334  68.231  1.00  0.00    -0.278 C  
BRANCH  15  16
HETATM   16  C   UNK A   1     -11.160  14.625  69.395  1.00  0.00    -0.293 C  
BRANCH  16  17
HETATM   17  C   UNK A   1     -11.874  14.803  70.717  1.00  0.00    -0.370 A  
HETATM   18  C   UNK A   1     -12.823  13.862  71.138  1.00  0.00    -0.423 A  
HETATM   19  C   UNK A   1     -13.208  15.112  73.170  1.00  0.00    -0.603 A  
HETATM   20  C   UNK A   1     -13.485  14.016  72.359  1.00  0.00    -0.639 A  
HETATM   21  C   UNK A   1     -12.255  16.047  72.770  1.00  0.00    -0.617 A  
HETATM   22  C   UNK A   1     -11.590  15.894  71.553  1.00  0.00    -0.537 A  
ENDBRANCH  16  17
ENDBRANCH  15  16
ENDBRANCH  11  15
ENDBRANCH   9  11
ENDBRANCH   8   9
BRANCH   8  23
HETATM   23  C   UNK A   1      -9.953  10.052  67.504  1.00  0.00    -0.190 C  
ATOM     24  OXT PRO A   2      -8.017   9.435  71.399  1.00  0.00    -0.318 OA 
HETATM   25  O   UNK A   1     -10.321  10.101  66.329  1.00  0.00    -0.226 OA 
ATOM     26  N   PRO A   2      -9.040   9.088  67.931  1.00  0.00    -0.135 N  
ATOM     27  CD  PRO A   2      -8.456   8.139  66.989  1.00  0.00    -0.120 C  
ATOM     28  O   PRO A   2      -7.127  10.194  69.465  1.00  0.00    -0.074 OA 
ATOM     29  C   PRO A   2      -8.007   9.452  70.178  1.00  0.00    -0.150 C  
ATOM     30  CA  PRO A   2      -8.915   8.585  69.309  1.00  0.00    -0.146 C  
ATOM     31  CB  PRO A   2      -8.322   7.178  69.183  1.00  0.00    -0.129 C  
ATOM     32  CG  PRO A   2      -8.485   6.808  67.714  1.00  0.00    -0.122 C  
ENDBRANCH   8  23
ENDBRANCH   7   8
ENDBRANCH   6   7
ENDBRANCH   5   6
ENDBRANCH   3   5
TORSDOF 10
ENDMDL
MODEL        7
REMARK 921   NORMALIZED FREE ENERGY PREDICTED BY IDOCK:   -6.54 KCAL/MOL
REMARK 922        TOTAL FREE ENERGY PREDICTED BY IDOCK:  -12.31 KCAL/MOL
REMARK 923 INTER-LIGAND FREE ENERGY PREDICTED BY IDOCK:  -11.11 KCAL/MOL
REMARK 924 INTRA-LIGAND FREE ENERGY PREDICTED BY IDOCK:   -1.20 KCAL/MOL
REMARK 927      BINDING AFFINITY PREDICTED BY RF-SCORE:    0.00 PKD
ROOT
HETATM    1  N   UNK A   1     -10.574  19.727  66.315  1.00  0.00    -0.485 NA 
HETATM    2  H2  UNK A   1     -10.629  19.406  65.348  1.00  0.00     0.000 HD 
HETATM    3  C   UNK A   1     -10.732  18.635  67.267  1.00  0.00    -0.394 C  
HETATM    4  H1  UNK A   1     -11.257  20.458  66.518  1.00  0.00     0.000 HD 
ENDROOT
BRANCH   3   5
HETATM    5  C   UNK A   1      -9.712  17.543  66.965  1.00  0.00    -0.284 C  
BRANCH   5   6
HETATM    6  C   UNK A   1     -10.368  16.291  66.369  1.00  0.00    -0.319 C  
BRANCH   6   7
HETATM    7  C   UNK A   1      -9.610  15.047  66.842  1.00  0.00    -0.251 C  
BRANCH   7   8
HETATM    8  C   UNK A   1     -10.476  13.893  67.376  1.00  0.00    -0.263 C  
BRANCH   8   9
HETATM    9  N   UNK A   1     -10.567  13.838  68.867  1.00  0.00    -0.341 NA 
HETATM   10  H   UNK A   1      -9.989  14.568  69.283  1.00  0.00     0.000 HD 
BRANCH   9  11
HETATM   11  C   UNK A   1     -11.959  13.904  69.414  1.00  0.00    -0.354 C  
HETATM   12  C   UNK A   1     -12.095  15.228  70.191  1.00  0.00    -0.358 C  
HETATM   13  O   UNK A   1     -13.146  15.822  70.377  1.00  0.00    -0.399 OA 
HETATM   14  O   UNK A   1     -10.902  15.666  70.663  1.00  0.00    -0.324 OA 
BRANCH  11  15
HETATM   15  C   UNK A   1     -12.270  12.726  70.363  1.00  0.00    -0.371 C  
BRANCH  15  16
HETATM   16  C   UNK A   1     -12.148  11.351  69.683  1.00  0.00    -0.373 C  
BRANCH  16  17
HETATM   17  C   UNK A   1     -11.937  10.225  70.670  1.00  0.00    -0.436 A  
HETATM   18  C   UNK A   1     -12.988   9.803  71.496  1.00  0.00    -0.504 A  
HETATM   19  C   UNK A   1     -11.565   8.132  72.507  1.00  0.00    -0.468 A  
HETATM   20  C   UNK A   1     -12.802   8.761  72.407  1.00  0.00    -0.434 A  
HETATM   21  C   UNK A   1     -10.516   8.532  71.682  1.00  0.00    -0.345 A  
HETATM   22  C   UNK A   1     -10.699   9.570  70.768  1.00  0.00    -0.391 A  
ENDBRANCH  16  17
ENDBRANCH  15  16
ENDBRANCH  11  15
ENDBRANCH   9  11
ENDBRANCH   8   9
BRANCH   8  23
HETATM   23  C   UNK A   1     -10.010  12.483  66.864  1.00  0.00    -0.224 C  
ATOM     24  OXT PRO A   2     -12.569  14.415  63.861  1.00  0.00    -0.814 OA 
HETATM   25  O   UNK A   1      -9.346  11.746  67.596  1.00  0.00    -0.173 OA 
ATOM     26  N   PRO A   2     -10.420  12.059  65.600  1.00  0.00    -0.247 N  
ATOM     27  CD  PRO A   2     -10.116  10.713  65.126  1.00  0.00    -0.307 C  
ATOM     28  O   PRO A   2     -13.014  12.641  65.190  1.00  0.00    -0.754 OA 
ATOM     29  C   PRO A   2     -12.180  13.438  64.481  1.00  0.00    -0.398 C  
ATOM     30  CA  PRO A   2     -10.734  12.944  64.466  1.00  0.00    -0.371 C  
ATOM     31  CB  PRO A   2     -10.486  12.106  63.208  1.00  0.00    -0.360 C  
ATOM     32  CG  PRO A   2      -9.686  10.901  63.684  1.00  0.00    -0.374 C  
ENDBRANCH   8  23
ENDBRANCH   7   8
ENDBRANCH   6   7
ENDBRANCH   5   6
ENDBRANCH   3   5
TORSDOF 10
ENDMDL
MODEL        8
REMARK 921   NORMALIZED FREE ENERGY PREDICTED BY IDOCK:   -6.44 KCAL/MOL
REMARK 922        TOTAL FREE ENERGY PREDICTED BY IDOCK:  -12.16 KCAL/MOL
REMARK 923 INTER-LIGAND FREE ENERGY PREDICTED BY IDOCK:  -10.13 KCAL/MOL
REMARK 924 INTRA-LIGAND FREE ENERGY PREDICTED BY IDOCK:   -2.03 KCAL/MOL
REMARK 927      BINDING AFFINITY PREDICTED BY RF-SCORE:    0.00 PKD
ROOT
HETATM    1  N   UNK A   1     -11.298  16.467  63.896  1.00  0.00    -1.559 NA 
HETATM    2  H2  UNK A   1     -10.478  16.113  63.403  1.00  0.00     0.000 HD 
HETATM    3  C   UNK A   1     -12.190  15.396  64.321  1.00  0.00    -0.126 C  
HETATM    4  H1  UNK A   1     -11.819  17.145  63.340  1.00  0.00     0.000 HD 
ENDROOT
BRANCH   3   5
HETATM    5  C   UNK A   1     -11.410  14.383  65.152  1.00  0.00    -0.359 C  
BRANCH   5   6
HETATM    6  C   UNK A   1     -12.325  13.563  66.070  1.00  0.00    -0.486 C  
BRANCH   6   7
HETATM    7  C   UNK A   1     -11.472  12.643  66.948  1.00  0.00    -0.402 C  
BRANCH   7   8
HETATM    8  C   UNK A   1     -11.047  13.216  68.311  1.00  0.00    -0.266 C  
BRANCH   8   9
HETATM    9  N   UNK A   1      -9.594  13.047  68.617  1.00  0.00    -0.407 NA 
HETATM   10  H   UNK A   1      -9.363  12.057  68.702  1.00  0.00     0.000 HD 
BRANCH   9  11
HETATM   11  C   UNK A   1      -8.666  13.713  67.649  1.00  0.00    -0.182 C  
HETATM   12  C   UNK A   1      -7.257  13.135  67.877  1.00  0.00    -0.133 C  
HETATM   13  O   UNK A   1      -6.377  13.087  67.030  1.00  0.00    -0.194 OA 
HETATM   14  O   UNK A   1      -7.090  12.683  69.145  1.00  0.00    -0.070 OA 
BRANCH  11  15
HETATM   15  C   UNK A   1      -8.622  15.245  67.842  1.00  0.00    -0.153 C  
BRANCH  15  16
HETATM   16  C   UNK A   1      -8.391  16.015  66.530  1.00  0.00    -0.348 C  
BRANCH  16  17
HETATM   17  C   UNK A   1      -8.869  17.448  66.598  1.00  0.00    -0.278 A  
HETATM   18  C   UNK A   1      -7.994  18.499  66.292  1.00  0.00    -0.273 A  
HETATM   19  C   UNK A   1      -9.738  20.117  66.716  1.00  0.00    -0.577 A  
HETATM   20  C   UNK A   1      -8.428  19.825  66.349  1.00  0.00    -0.391 A  
HETATM   21  C   UNK A   1     -10.623  19.081  67.009  1.00  0.00    -0.543 A  
HETATM   22  C   UNK A   1     -10.193  17.755  66.949  1.00  0.00    -0.346 A  
ENDBRANCH  16  17
ENDBRANCH  15  16
ENDBRANCH  11  15
ENDBRANCH   9  11
ENDBRANCH   8   9
BRANCH   8  23
HETATM   23  C   UNK A   1     -11.870  12.628  69.512  1.00  0.00    -0.312 C  
ATOM     24  OXT PRO A   2     -11.200  16.930  70.099  1.00  0.00    -0.032 OA 
HETATM   25  O   UNK A   1     -12.096  11.418  69.575  1.00  0.00    -0.315 OA 
ATOM     26  N   PRO A   2     -12.275  13.488  70.534  1.00  0.00    -0.362 N  
ATOM     27  CD  PRO A   2     -12.936  12.973  71.728  1.00  0.00    -0.321 C  
ATOM     28  O   PRO A   2     -10.294  15.178  71.204  1.00  0.00     0.172 OA 
ATOM     29  C   PRO A   2     -11.287  15.784  70.511  1.00  0.00    -0.380 C  
ATOM     30  CA  PRO A   2     -12.544  14.927  70.377  1.00  0.00    -0.343 C  
ATOM     31  CB  PRO A   2     -13.536  15.284  71.489  1.00  0.00    -0.577 C  
ATOM     32  CG  PRO A   2     -14.068  13.949  71.992  1.00  0.00    -0.568 C  
ENDBRANCH   8  23
ENDBRANCH   7   8
ENDBRANCH   6   7
ENDBRANCH   5   6
ENDBRANCH   3   5
TORSDOF 10
ENDMDL
MODEL        9
REMARK 921   NORMALIZED FREE ENERGY PREDICTED BY IDOCK:   -6.34 KCAL/MOL
REMARK 922        TOTAL FREE ENERGY PREDICTED BY IDOCK:  -12.00 KCAL/MOL
REMARK 923 INTER-LIGAND FREE ENERGY PREDICTED BY IDOCK:  -10.07 KCAL/MOL
REMARK 924 INTRA-LIGAND FREE ENERGY PREDICTED BY IDOCK:   -1.94 KCAL/MOL
REMARK 927      BINDING AFFINITY PREDICTED BY RF-SCORE:    0.00 PKD
ROOT
HETATM    1  N   UNK A   1      -5.697  15.965  67.110  1.00  0.00    -0.335 NA 
HETATM    2  H2  UNK A   1      -5.301  16.754  66.598  1.00  0.00     0.000 HD 
HETATM    3  C   UNK A   1      -7.069  16.215  67.533  1.00  0.00    -0.163 C  
HETATM    4  H1  UNK A   1      -5.132  15.709  67.920  1.00  0.00     0.000 HD 
ENDROOT
BRANCH   3   5
HETATM    5  C   UNK A   1      -7.914  16.597  66.323  1.00  0.00    -0.340 C  
BRANCH   5   6
HETATM    6  C   UNK A   1      -9.048  15.596  66.071  1.00  0.00    -0.346 C  
BRANCH   6   7
HETATM    7  C   UNK A   1      -9.321  14.804  67.354  1.00  0.00    -0.199 C  
BRANCH   7   8
HETATM    8  C   UNK A   1     -10.550  13.880  67.326  1.00  0.00    -0.276 C  
BRANCH   8   9
HETATM    9  N   UNK A   1     -11.295  13.817  68.621  1.00  0.00    -0.268 NA 
HETATM   10  H   UNK A   1     -11.139  12.917  69.075  1.00  0.00     0.000 HD 
BRANCH   9  11
HETATM   11  C   UNK A   1     -10.999  14.935  69.571  1.00  0.00    -0.273 C  
HETATM   12  C   UNK A   1     -11.797  14.676  70.863  1.00  0.00    -0.313 C  
HETATM   13  O   UNK A   1     -11.484  15.087  71.970  1.00  0.00    -0.389 OA 
HETATM   14  O   UNK A   1     -12.911  13.937  70.634  1.00  0.00    -0.299 OA 
BRANCH  11  15
HETATM   15  C   UNK A   1     -11.399  16.312  68.996  1.00  0.00    -0.301 C  
BRANCH  15  16
HETATM   16  C   UNK A   1     -10.522  17.464  69.515  1.00  0.00     0.028 C  
BRANCH  16  17
HETATM   17  C   UNK A   1     -10.119  18.432  68.425  1.00  0.00    -0.418 A  
HETATM   18  C   UNK A   1     -10.890  18.545  67.260  1.00  0.00    -0.330 A  
HETATM   19  C   UNK A   1      -9.389  20.227  66.390  1.00  0.00    -0.391 A  
HETATM   20  C   UNK A   1     -10.527  19.439  66.251  1.00  0.00    -0.586 A  
HETATM   21  C   UNK A   1      -8.622  20.136  67.550  1.00  0.00    -0.404 A  
HETATM   22  C   UNK A   1      -8.984  19.246  68.562  1.00  0.00    -0.414 A  
ENDBRANCH  16  17
ENDBRANCH  15  16
ENDBRANCH  11  15
ENDBRANCH   9  11
ENDBRANCH   8   9
BRANCH   8  23
HETATM   23  C   UNK A   1     -10.207  12.410  66.890  1.00  0.00    -0.225 C  
ATOM     24  OXT PRO A   2     -12.380  14.477  63.679  1.00  0.00    -0.704 OA 
HETATM   25  O   UNK A   1      -9.665  11.638  67.683  1.00  0.00    -0.175 OA 
ATOM     26  N   PRO A   2     -10.589  11.981  65.618  1.00  0.00    -0.255 N  
ATOM     27  CD  PRO A   2     -10.403  10.594  65.208  1.00  0.00    -0.251 C  
ATOM     28  O   PRO A   2     -13.081  12.811  65.037  1.00  0.00    -0.811 OA 
ATOM     29  C   PRO A   2     -12.130  13.490  64.353  1.00  0.00    -0.420 C  
ATOM     30  CA  PRO A   2     -10.746  12.849  64.439  1.00  0.00    -0.386 C  
ATOM     31  CB  PRO A   2     -10.518  11.942  63.226  1.00  0.00    -0.427 C  
ATOM     32  CG  PRO A   2      -9.876  10.680  63.788  1.00  0.00    -0.394 C  
ENDBRANCH   8  23
ENDBRANCH   7   8
ENDBRANCH   6   7
ENDBRANCH   5   6
ENDBRANCH   3   5
TORSDOF 10
ENDMDL
MODEL       10
REMARK 921   NORMALIZED FREE ENERGY PREDICTED BY IDOCK:   -6.30 KCAL/MOL
REMARK 922        TOTAL FREE ENERGY PREDICTED BY IDOCK:  -11.95 KCAL/MOL
REMARK 923 INTER-LIGAND FREE ENERGY PREDICTED BY IDOCK:  -11.03 KCAL/MOL
REMARK 924 INTRA-LIGAND FREE ENERGY PREDICTED BY IDOCK:   -0.92 KCAL/MOL
REMARK 927      BINDING AFFINITY PREDICTED BY RF-SCORE:    0.00 PKD
ROOT
HETATM    1  N   UNK A   1     -13.978   8.895  73.160  1.00  0.00    -1.215 NA 
HETATM    2  H2  UNK A   1     -14.841   9.431  73.249  1.00  0.00     0.000 HD 
HETATM    3  C   UNK A   1     -13.310   9.134  71.887  1.00  0.00    -0.427 C  
HETATM    4  H1  UNK A   1     -14.132   7.894  73.282  1.00  0.00     0.000 HD 
ENDROOT
BRANCH   3   5
HETATM    5  C   UNK A   1     -13.080  10.630  71.705  1.00  0.00    -0.571 C  
BRANCH   5   6
HETATM    6  C   UNK A   1     -11.885  10.923  70.791  1.00  0.00    -0.424 C  
BRANCH   6   7
HETATM    7  C   UNK A   1     -12.392  11.432  69.438  1.00  0.00    -0.184 C  
BRANCH   7   8
HETATM    8  C   UNK A   1     -11.824  12.784  68.971  1.00  0.00    -0.297 C  
BRANCH   8   9
HETATM    9  N   UNK A   1     -12.589  13.969  69.466  1.00  0.00    -0.407 NA 
HETATM   10  H   UNK A   1     -13.292  13.678  70.144  1.00  0.00     0.000 HD 
BRANCH   9  11
HETATM   11  C   UNK A   1     -11.746  15.069  70.033  1.00  0.00    -0.306 C  
HETATM   12  C   UNK A   1     -12.545  15.733  71.171  1.00  0.00    -0.431 C  
HETATM   13  O   UNK A   1     -12.049  16.322  72.119  1.00  0.00    -0.496 OA 
HETATM   14  O   UNK A   1     -13.883  15.598  70.999  1.00  0.00    -0.567 OA 
BRANCH  11  15
HETATM   15  C   UNK A   1     -11.389  16.136  68.975  1.00  0.00    -0.340 C  
BRANCH  15  16
HETATM   16  C   UNK A   1      -9.903  16.536  68.995  1.00  0.00    -0.266 C  
BRANCH  16  17
HETATM   17  C   UNK A   1      -9.639  17.846  68.287  1.00  0.00    -0.312 A  
HETATM   18  C   UNK A   1     -10.622  18.417  67.467  1.00  0.00    -0.447 A  
HETATM   19  C   UNK A   1      -9.168  20.280  66.964  1.00  0.00    -0.503 A  
HETATM   20  C   UNK A   1     -10.387  19.627  66.812  1.00  0.00    -0.591 A  
HETATM   21  C   UNK A   1      -8.187  19.731  67.788  1.00  0.00    -0.340 A  
HETATM   22  C   UNK A   1      -8.420  18.523  68.447  1.00  0.00    -0.352 A  
ENDBRANCH  16  17
ENDBRANCH  15  16
ENDBRANCH  11  15
ENDBRANCH   9  11
ENDBRANCH   8   9
BRANCH   8  23
HETATM   23  C   UNK A   1     -11.705  12.897  67.409  1.00  0.00    -0.372 C  
ATOM     24  OXT PRO A   2      -8.623  10.183  68.970  1.00  0.00    -0.135 OA 
HETATM   25  O   UNK A   1     -12.432  13.674  66.787  1.00  0.00    -0.341 OA 
ATOM     26  N   PRO A   2     -10.719  12.158  66.756  1.00  0.00    -0.227 N  
ATOM     27  CD  PRO A   2     -10.488  12.318  65.324  1.00  0.00    -0.282 C  
ATOM     28  O   PRO A   2      -8.395  12.259  68.105  1.00  0.00    -0.160 OA 
ATOM     29  C   PRO A   2      -9.008  11.056  68.209  1.00  0.00    -0.155 C  
ATOM     30  CA  PRO A   2     -10.164  10.878  67.226  1.00  0.00    -0.205 C  
ATOM     31  CB  PRO A   2      -9.668  10.157  65.969  1.00  0.00    -0.285 C  
ATOM     32  CG  PRO A   2     -10.303  10.905  64.804  1.00  0.00    -0.391 C  
ENDBRANCH   8  23
ENDBRANCH   7   8
ENDBRANCH   6   7
ENDBRANCH   5   6
ENDBRANCH   3   5
TORSDOF 10
ENDMDL
MODEL       11
REMARK 921   NORMALIZED FREE ENERGY PREDICTED BY IDOCK:   -6.30 KCAL/MOL
REMARK 922        TOTAL FREE ENERGY PREDICTED BY IDOCK:  -11.93 KCAL/MOL
REMARK 923 INTER-LIGAND FREE ENERGY PREDICTED BY IDOCK:  -10.20 KCAL/MOL
REMARK 924 INTRA-LIGAND FREE ENERGY PREDICTED BY IDOCK:   -1.74 KCAL/MOL
REMARK 927      BINDING AFFINITY PREDICTED BY RF-SCORE:    0.00 PKD
ROOT
HETATM    1  N   UNK A   1      -7.618  18.566  68.009  1.00  0.00    -0.250 NA 
HETATM    2  H2  UNK A   1      -8.487  19.070  67.830  1.00  0.00     0.000 HD 
HETATM    3  C   UNK A   1      -7.752  17.134  67.771  1.00  0.00    -0.177 C  
HETATM    4  H1  UNK A   1      -7.270  18.723  68.955  1.00  0.00     0.000 HD 
ENDROOT
BRANCH   3   5
HETATM    5  C   UNK A   1      -8.273  16.900  66.357  1.00  0.00    -0.342 C  
BRANCH   5   6
HETATM    6  C   UNK A   1      -9.233  15.706  66.287  1.00  0.00    -0.365 C  
BRANCH   6   7
HETATM    7  C   UNK A   1      -8.664  14.547  67.112  1.00  0.00    -0.237 C  
BRANCH   7   8
HETATM    8  C   UNK A   1      -9.596  13.339  67.308  1.00  0.00    -0.234 C  
BRANCH   8   9
HETATM    9  N   UNK A   1      -9.674  12.851  68.718  1.00  0.00    -0.416 NA 
HETATM   10  H   UNK A   1      -8.868  13.179  69.251  1.00  0.00     0.000 HD 
BRANCH   9  11
HETATM   11  C   UNK A   1     -10.942  13.197  69.434  1.00  0.00     0.001 C  
HETATM   12  C   UNK A   1     -11.658  11.878  69.783  1.00  0.00    -0.286 C  
HETATM   13  O   UNK A   1     -12.438  11.732  70.712  1.00  0.00    -0.357 OA 
HETATM   14  O   UNK A   1     -11.331  10.879  68.926  1.00  0.00    -0.243 OA 
BRANCH  11  15
HETATM   15  C   UNK A   1     -11.880  14.070  68.571  1.00  0.00    -0.399 C  
BRANCH  15  16
HETATM   16  C   UNK A   1     -12.022  15.508  69.097  1.00  0.00    -0.331 C  
BRANCH  16  17
HETATM   17  C   UNK A   1     -12.494  15.565  70.532  1.00  0.00    -0.472 A  
HETATM   18  C   UNK A   1     -13.786  15.139  70.869  1.00  0.00    -0.352 A  
HETATM   19  C   UNK A   1     -13.388  15.659  73.195  1.00  0.00    -0.660 A  
HETATM   20  C   UNK A   1     -14.228  15.184  72.193  1.00  0.00    -0.656 A  
HETATM   21  C   UNK A   1     -12.095  16.072  72.877  1.00  0.00    -0.626 A  
HETATM   22  C   UNK A   1     -11.650  16.024  71.555  1.00  0.00    -0.529 A  
ENDBRANCH  16  17
ENDBRANCH  15  16
ENDBRANCH  11  15
ENDBRANCH   9  11
ENDBRANCH   8   9
BRANCH   8  23
HETATM   23  C   UNK A   1      -9.227  12.119  66.389  1.00  0.00    -0.207 C  
ATOM     24  OXT PRO A   2     -12.836  14.115  64.877  1.00  0.00    -0.687 OA 
HETATM   25  O   UNK A   1      -8.288  11.379  66.690  1.00  0.00    -0.164 OA 
ATOM     26  N   PRO A   2     -10.023  11.853  65.275  1.00  0.00    -0.250 N  
ATOM     27  CD  PRO A   2      -9.796  10.665  64.458  1.00  0.00    -0.327 C  
ATOM     28  O   PRO A   2     -12.632  12.100  65.879  1.00  0.00    -0.268 OA 
ATOM     29  C   PRO A   2     -12.173  13.119  65.115  1.00  0.00    -0.450 C  
ATOM     30  CA  PRO A   2     -10.791  12.856  64.519  1.00  0.00    -0.363 C  
ATOM     31  CB  PRO A   2     -10.937  12.285  63.105  1.00  0.00    -0.203 C  
ATOM     32  CG  PRO A   2      -9.922  11.152  63.028  1.00  0.00    -0.347 C  
ENDBRANCH   8  23
ENDBRANCH   7   8
ENDBRANCH   6   7
ENDBRANCH   5   6
ENDBRANCH   3   5
TORSDOF 10
ENDMDL
MODEL       12
REMARK 921   NORMALIZED FREE ENERGY PREDICTED BY IDOCK:   -6.27 KCAL/MOL
REMARK 922        TOTAL FREE ENERGY PREDICTED BY IDOCK:  -11.89 KCAL/MOL
REMARK 923 INTER-LIGAND FREE ENERGY PREDICTED BY IDOCK:   -9.68 KCAL/MOL
REMARK 924 INTRA-LIGAND FREE ENERGY PREDICTED BY IDOCK:   -2.21 KCAL/MOL
REMARK 927      BINDING AFFINITY PREDICTED BY RF-SCORE:    0.00 PKD
ROOT
HETATM    1  N   UNK A   1     -13.791   8.966  73.247  1.00  0.00    -1.162 NA 
HETATM    2  H2  UNK A   1     -13.970   9.847  73.728  1.00  0.00     0.000 HD 
HETATM    3  C   UNK A   1     -13.844   9.108  71.797  1.00  0.00    -0.366 C  
HETATM    4  H1  UNK A   1     -14.433   8.229  73.541  1.00  0.00     0.000 HD 
ENDROOT
BRANCH   3   5
HETATM    5  C   UNK A   1     -12.884  10.209  71.359  1.00  0.00    -0.530 C  
BRANCH   5   6
HETATM    6  C   UNK A   1     -12.734  10.269  69.833  1.00  0.00     0.101 C  
BRANCH   6   7
HETATM    7  C   UNK A   1     -11.906  11.500  69.452  1.00  0.00    -0.417 C  
BRANCH   7   8
HETATM    8  C   UNK A   1     -11.608  11.673  67.953  1.00  0.00    -0.298 C  
BRANCH   8   9
HETATM    9  N   UNK A   1     -11.033  10.456  67.302  1.00  0.00    -0.274 NA 
HETATM   10  H   UNK A   1     -11.142  10.512  66.289  1.00  0.00     0.000 HD 
BRANCH   9  11
HETATM   11  C   UNK A   1      -9.606  10.170  67.654  1.00  0.00    -0.148 C  
HETATM   12  C   UNK A   1      -8.823  10.004  66.338  1.00  0.00    -0.143 C  
HETATM   13  O   UNK A   1      -7.626  10.209  66.208  1.00  0.00    -0.103 OA 
HETATM   14  O   UNK A   1      -9.619   9.588  65.321  1.00  0.00    -0.283 OA 
BRANCH  11  15
HETATM   15  C   UNK A   1      -9.459   8.884  68.497  1.00  0.00    -0.152 C  
BRANCH  15  16
HETATM   16  C   UNK A   1      -9.128   9.163  69.973  1.00  0.00    -0.207 C  
BRANCH  16  17
HETATM   17  C   UNK A   1      -9.866   8.246  70.923  1.00  0.00    -0.215 A  
HETATM   18  C   UNK A   1     -10.695   7.232  70.425  1.00  0.00    -0.253 A  
HETATM   19  C   UNK A   1     -11.244   6.532  72.671  1.00  0.00    -0.284 A  
HETATM   20  C   UNK A   1     -11.378   6.379  71.295  1.00  0.00    -0.361 A  
HETATM   21  C   UNK A   1     -10.412   7.526  73.180  1.00  0.00    -0.419 A  
HETATM   22  C   UNK A   1      -9.726   8.378  72.313  1.00  0.00    -0.386 A  
ENDBRANCH  16  17
ENDBRANCH  15  16
ENDBRANCH  11  15
ENDBRANCH   9  11
ENDBRANCH   8   9
BRANCH   8  23
HETATM   23  C   UNK A   1     -10.656  12.885  67.648  1.00  0.00    -0.223 C  
ATOM     24  OXT PRO A   2     -13.377  12.208  64.266  1.00  0.00    -0.761 OA 
HETATM   25  O   UNK A   1      -9.764  13.187  68.442  1.00  0.00    -0.227 OA 
ATOM     26  N   PRO A   2     -10.798  13.561  66.436  1.00  0.00    -0.289 N  
ATOM     27  CD  PRO A   2      -9.864  14.615  66.052  1.00  0.00    -0.322 C  
ATOM     28  O   PRO A   2     -11.154  11.829  64.409  1.00  0.00    -0.316 OA 
ATOM     29  C   PRO A   2     -12.287  12.495  64.735  1.00  0.00    -0.474 C  
ATOM     30  CA  PRO A   2     -12.049  13.680  65.669  1.00  0.00    -0.425 C  
ATOM     31  CB  PRO A   2     -11.910  14.966  64.849  1.00  0.00    -0.337 C  
ATOM     32  CG  PRO A   2     -10.738  15.711  65.474  1.00  0.00    -0.403 C  
ENDBRANCH   8  23
ENDBRANCH   7   8
ENDBRANCH   6   7
ENDBRANCH   5   6
ENDBRANCH   3   5
TORSDOF 10
ENDMDL
MODEL       13
REMARK 921   NORMALIZED FREE ENERGY PREDICTED BY IDOCK:   -6.24 KCAL/MOL
REMARK 922        TOTAL FREE ENERGY PREDICTED BY IDOCK:  -11.85 KCAL/MOL
REMARK 923 INTER-LIGAND FREE ENERGY PREDICTED BY IDOCK:  -10.01 KCAL/MOL
REMARK 924 INTRA-LIGAND FREE ENERGY PREDICTED BY IDOCK:   -1.83 KCAL/MOL
REMARK 927      BINDING AFFINITY PREDICTED BY RF-SCORE:    0.00 PKD
ROOT
HETATM    1  N   UNK A   1     -13.642  15.912  72.849  1.00  0.00    -0.579 NA 
HETATM    2  H2  UNK A   1     -13.270  16.766  72.433  1.00  0.00     0.000 HD 
HETATM    3  C   UNK A   1     -14.111  14.967  71.844  1.00  0.00    -0.519 C  
HETATM    4  H1  UNK A   1     -14.393  16.104  73.514  1.00  0.00     0.000 HD 
ENDROOT
BRANCH   3   5
HETATM    5  C   UNK A   1     -12.989  14.681  70.852  1.00  0.00    -0.425 C  
BRANCH   5   6
HETATM    6  C   UNK A   1     -11.840  15.690  70.974  1.00  0.00    -0.442 C  
BRANCH   6   7
HETATM    7  C   UNK A   1     -11.362  16.087  69.573  1.00  0.00    -0.344 C  
BRANCH   7   8
HETATM    8  C   UNK A   1     -10.890  14.935  68.671  1.00  0.00    -0.251 C  
BRANCH   8   9
HETATM    9  N   UNK A   1      -9.544  14.391  69.030  1.00  0.00    -0.383 NA 
HETATM   10  H   UNK A   1      -9.481  13.406  68.773  1.00  0.00     0.000 HD 
BRANCH   9  11
HETATM   11  C   UNK A   1      -8.387  15.151  68.460  1.00  0.00    -0.158 C  
HETATM   12  C   UNK A   1      -7.271  14.137  68.144  1.00  0.00    -0.128 C  
HETATM   13  O   UNK A   1      -6.406  14.294  67.295  1.00  0.00    -0.296 OA 
HETATM   14  O   UNK A   1      -7.347  13.034  68.929  1.00  0.00    -0.095 OA 
BRANCH  11  15
HETATM   15  C   UNK A   1      -7.844  16.212  69.443  1.00  0.00    -0.126 C  
BRANCH  15  16
HETATM   16  C   UNK A   1      -7.031  17.319  68.750  1.00  0.00    -0.230 C  
BRANCH  16  17
HETATM   17  C   UNK A   1      -7.901  18.316  68.019  1.00  0.00    -0.274 A  
HETATM   18  C   UNK A   1      -9.022  18.872  68.650  1.00  0.00    -0.386 A  
HETATM   19  C   UNK A   1      -9.529  20.173  66.677  1.00  0.00    -0.517 A  
HETATM   20  C   UNK A   1      -9.830  19.796  67.983  1.00  0.00    -0.533 A  
HETATM   21  C   UNK A   1      -8.409  19.639  66.043  1.00  0.00    -0.294 A  
HETATM   22  C   UNK A   1      -7.599  18.718  66.708  1.00  0.00    -0.243 A  
ENDBRANCH  16  17
ENDBRANCH  15  16
ENDBRANCH  11  15
ENDBRANCH   9  11
ENDBRANCH   8   9
BRANCH   8  23
HETATM   23  C   UNK A   1     -10.872  15.312  67.146  1.00  0.00    -0.322 C  
ATOM     24  OXT PRO A   2     -11.546  10.998  67.631  1.00  0.00    -0.526 OA 
HETATM   25  O   UNK A   1     -10.618  16.466  66.797  1.00  0.00    -0.299 OA 
ATOM     26  N   PRO A   2     -11.079  14.305  66.203  1.00  0.00    -0.319 N  
ATOM     27  CD  PRO A   2     -10.953  14.578  64.775  1.00  0.00    -0.391 C  
ATOM     28  O   PRO A   2      -9.717  12.081  66.862  1.00  0.00    -0.197 OA 
ATOM     29  C   PRO A   2     -11.051  11.956  67.059  1.00  0.00    -0.302 C  
ATOM     30  CA  PRO A   2     -11.867  13.081  66.424  1.00  0.00    -0.405 C  
ATOM     31  CB  PRO A   2     -12.354  12.649  65.038  1.00  0.00    -0.561 C  
ATOM     32  CG  PRO A   2     -12.128  13.858  64.141  1.00  0.00    -0.464 C  
ENDBRANCH   8  23
ENDBRANCH   7   8
ENDBRANCH   6   7
ENDBRANCH   5   6
ENDBRANCH   3   5
TORSDOF 10
ENDMDL
MODEL       14
REMARK 921   NORMALIZED FREE ENERGY PREDICTED BY IDOCK:   -6.14 KCAL/MOL
REMARK 922        TOTAL FREE ENERGY PREDICTED BY IDOCK:  -11.69 KCAL/MOL
REMARK 923 INTER-LIGAND FREE ENERGY PREDICTED BY IDOCK:  -10.03 KCAL/MOL
REMARK 924 INTRA-LIGAND FREE ENERGY PREDICTED BY IDOCK:   -1.67 KCAL/MOL
REMARK 927      BINDING AFFINITY PREDICTED BY RF-SCORE:    0.00 PKD
ROOT
HETATM    1  N   UNK A   1      -7.199  13.857  69.816  1.00  0.00    -0.334 NA 
HETATM    2  H2  UNK A   1      -8.174  13.660  69.593  1.00  0.00     0.000 HD 
HETATM    3  C   UNK A   1      -6.354  13.874  68.628  1.00  0.00    -0.090 C  
HETATM    4  H1  UNK A   1      -6.818  13.198  70.495  1.00  0.00     0.000 HD 
ENDROOT
BRANCH   3   5
HETATM    5  C   UNK A   1      -6.923  14.859  67.613  1.00  0.00    -0.207 C  
BRANCH   5   6
HETATM    6  C   UNK A   1      -8.308  14.433  67.110  1.00  0.00    -0.214 C  
BRANCH   6   7
HETATM    7  C   UNK A   1      -8.740  15.358  65.967  1.00  0.00     0.035 C  
BRANCH   7   8
HETATM    8  C   UNK A   1     -10.252  15.618  65.846  1.00  0.00    -0.351 C  
BRANCH   8   9
HETATM    9  N   UNK A   1     -10.902  14.912  64.700  1.00  0.00    -0.614 NA 
HETATM   10  H   UNK A   1     -10.396  15.103  63.835  1.00  0.00     0.000 HD 
BRANCH   9  11
HETATM   11  C   UNK A   1     -11.072  13.436  64.885  1.00  0.00    -0.335 C  
HETATM   12  C   UNK A   1     -11.812  12.891  63.649  1.00  0.00    -0.532 C  
HETATM   13  O   UNK A   1     -11.732  11.743  63.239  1.00  0.00    -0.388 OA 
HETATM   14  O   UNK A   1     -12.585  13.837  63.060  1.00  0.00    -0.721 OA 
BRANCH  11  15
HETATM   15  C   UNK A   1     -11.886  13.097  66.154  1.00  0.00    -0.453 C  
BRANCH  15  16
HETATM   16  C   UNK A   1     -11.489  11.753  66.787  1.00  0.00    -0.352 C  
BRANCH  16  17
HETATM   17  C   UNK A   1     -11.738  11.710  68.278  1.00  0.00    -0.374 A  
HETATM   18  C   UNK A   1     -11.671  10.494  68.971  1.00  0.00    -0.242 A  
HETATM   19  C   UNK A   1     -12.193  11.611  71.049  1.00  0.00    -0.336 A  
HETATM   20  C   UNK A   1     -11.896  10.446  70.349  1.00  0.00    -0.418 A  
HETATM   21  C   UNK A   1     -12.248  12.829  70.375  1.00  0.00    -0.371 A  
HETATM   22  C   UNK A   1     -12.021  12.881  68.999  1.00  0.00    -0.297 A  
ENDBRANCH  16  17
ENDBRANCH  15  16
ENDBRANCH  11  15
ENDBRANCH   9  11
ENDBRANCH   8   9
BRANCH   8  23
HETATM   23  C   UNK A   1     -10.610  17.144  65.746  1.00  0.00    -0.195 C  
ATOM     24  OXT PRO A   2      -9.628  16.089  69.896  1.00  0.00    -0.119 OA 
HETATM   25  O   UNK A   1     -10.991  17.622  64.676  1.00  0.00    -0.803 OA 
ATOM     26  N   PRO A   2     -10.555  17.924  66.902  1.00  0.00    -0.310 N  
ATOM     27  CD  PRO A   2     -10.992  19.316  66.888  1.00  0.00    -0.275 C  
ATOM     28  O   PRO A   2     -11.631  16.616  68.991  1.00  0.00    -0.129 OA 
ATOM     29  C   PRO A   2     -10.281  16.694  69.061  1.00  0.00    -0.301 C  
ATOM     30  CA  PRO A   2      -9.676  17.673  68.056  1.00  0.00    -0.301 C  
ATOM     31  CB  PRO A   2      -9.470  19.037  68.721  1.00  0.00    -0.433 C  
ATOM     32  CG  PRO A   2      -9.941  20.056  67.693  1.00  0.00    -0.566 C  
ENDBRANCH   8  23
ENDBRANCH   7   8
ENDBRANCH   6   7
ENDBRANCH   5   6
ENDBRANCH   3   5
TORSDOF 10
ENDMDL
MODEL       15
REMARK 921   NORMALIZED FREE ENERGY PREDICTED BY IDOCK:   -6.14 KCAL/MOL
REMARK 922        TOTAL FREE ENERGY PREDICTED BY IDOCK:  -11.69 KCAL/MOL
REMARK 923 INTER-LIGAND FREE ENERGY PREDICTED BY IDOCK:   -9.86 KCAL/MOL
REMARK 924 INTRA-LIGAND FREE ENERGY PREDICTED BY IDOCK:   -1.83 KCAL/MOL
REMARK 927      BINDING AFFINITY PREDICTED BY RF-SCORE:    0.00 PKD
ROOT
HETATM    1  N   UNK A   1     -12.297  13.984  63.655  1.00  0.00    -1.059 NA 
HETATM    2  H2  UNK A   1     -11.878  14.207  62.751  1.00  0.00     0.000 HD 
HETATM    3  C   UNK A   1     -12.508  12.553  63.826  1.00  0.00    -0.455 C  
HETATM    4  H1  UNK A   1     -13.177  14.479  63.803  1.00  0.00     0.000 HD 
ENDROOT
BRANCH   3   5
HETATM    5  C   UNK A   1     -11.193  11.814  63.605  1.00  0.00    -0.519 C  
BRANCH   5   6
HETATM    6  C   UNK A   1     -10.601  11.284  64.916  1.00  0.00    -0.364 C  
BRANCH   6   7
HETATM    7  C   UNK A   1      -9.724  12.367  65.553  1.00  0.00    -0.150 C  
BRANCH   7   8
HETATM    8  C   UNK A   1     -10.128  12.815  66.968  1.00  0.00    -0.240 C  
BRANCH   8   9
HETATM    9  N   UNK A   1     -11.044  11.864  67.670  1.00  0.00    -0.240 NA 
HETATM   10  H   UNK A   1     -11.257  11.069  67.068  1.00  0.00     0.000 HD 
BRANCH   9  11
HETATM   11  C   UNK A   1     -10.553  11.387  69.002  1.00  0.00    -0.191 C  
HETATM   12  C   UNK A   1     -10.183   9.899  68.860  1.00  0.00    -0.196 C  
HETATM   13  O   UNK A   1      -9.364   9.315  69.554  1.00  0.00    -0.158 OA 
HETATM   14  O   UNK A   1     -10.882   9.292  67.869  1.00  0.00    -0.216 OA 
BRANCH  11  15
HETATM   15  C   UNK A   1     -11.622  11.540  70.106  1.00  0.00    -0.336 C  
BRANCH  15  16
HETATM   16  C   UNK A   1     -12.613  12.685  69.837  1.00  0.00     0.166 C  
BRANCH  16  17
HETATM   17  C   UNK A   1     -12.526  13.791  70.864  1.00  0.00    -0.451 A  
HETATM   18  C   UNK A   1     -11.809  14.962  70.583  1.00  0.00    -0.357 A  
HETATM   19  C   UNK A   1     -12.355  15.859  72.759  1.00  0.00    -0.580 A  
HETATM   20  C   UNK A   1     -11.726  15.990  71.525  1.00  0.00    -0.554 A  
HETATM   21  C   UNK A   1     -13.084  14.707  73.047  1.00  0.00    -0.616 A  
HETATM   22  C   UNK A   1     -13.171  13.679  72.106  1.00  0.00    -0.541 A  
ENDBRANCH  16  17
ENDBRANCH  15  16
ENDBRANCH  11  15
ENDBRANCH   9  11
ENDBRANCH   8   9
BRANCH   8  23
HETATM   23  C   UNK A   1     -10.788  14.240  67.000  1.00  0.00    -0.297 C  
ATOM     24  OXT PRO A   2      -6.425  14.583  67.372  1.00  0.00    -0.309 OA 
HETATM   25  O   UNK A   1     -12.015  14.355  66.987  1.00  0.00    -0.409 OA 
ATOM     26  N   PRO A   2      -9.964  15.359  67.113  1.00  0.00    -0.232 N  
ATOM     27  CD  PRO A   2     -10.530  16.695  67.267  1.00  0.00    -0.313 C  
ATOM     28  O   PRO A   2      -8.024  14.940  68.929  1.00  0.00    -0.146 OA 
ATOM     29  C   PRO A   2      -7.563  14.921  67.656  1.00  0.00    -0.182 C  
ATOM     30  CA  PRO A   2      -8.573  15.443  66.635  1.00  0.00    -0.283 C  
ATOM     31  CB  PRO A   2      -8.318  16.929  66.367  1.00  0.00    -0.333 C  
ATOM     32  CG  PRO A   2      -9.698  17.573  66.352  1.00  0.00    -0.299 C  
ENDBRANCH   8  23
ENDBRANCH   7   8
ENDBRANCH   6   7
ENDBRANCH   5   6
ENDBRANCH   3   5
TORSDOF 10
ENDMDL
MODEL       16
REMARK 921   NORMALIZED FREE ENERGY PREDICTED BY IDOCK:   -6.09 KCAL/MOL
REMARK 922        TOTAL FREE ENERGY PREDICTED BY IDOCK:  -11.61 KCAL/MOL
REMARK 923 INTER-LIGAND FREE ENERGY PREDICTED BY IDOCK:  -10.12 KCAL/MOL
REMARK 924 INTRA-LIGAND FREE ENERGY PREDICTED BY IDOCK:   -1.49 KCAL/MOL
REMARK 927      BINDING AFFINITY PREDICTED BY RF-SCORE:    0.00 PKD
ROOT
HETATM    1  N   UNK A   1     -10.556  10.870  62.949  1.00  0.00    -0.776 NA 
HETATM    2  H2  UNK A   1     -11.282  10.852  62.233  1.00  0.00     0.000 HD 
HETATM    3  C   UNK A   1     -10.345  12.208  63.486  1.00  0.00    -0.441 C  
HETATM    4  H1  UNK A   1      -9.670  10.496  62.608  1.00  0.00     0.000 HD 
ENDROOT
BRANCH   3   5
HETATM    5  C   UNK A   1     -11.670  12.767  63.996  1.00  0.00    -0.494 C  
BRANCH   5   6
HETATM    6  C   UNK A   1     -11.690  12.899  65.524  1.00  0.00    -0.423 C  
BRANCH   6   7
HETATM    7  C   UNK A   1     -11.924  14.365  65.904  1.00  0.00    -0.367 C  
BRANCH   7   8
HETATM    8  C   UNK A   1     -10.854  15.006  66.803  1.00  0.00    -0.318 C  
BRANCH   8   9
HETATM    9  N   UNK A   1     -11.359  15.429  68.145  1.00  0.00    -0.338 NA 
HETATM   10  H   UNK A   1     -11.944  16.259  68.057  1.00  0.00     0.000 HD 
BRANCH   9  11
HETATM   11  C   UNK A   1     -12.082  14.363  68.908  1.00  0.00    -0.253 C  
HETATM   12  C   UNK A   1     -12.570  14.983  70.232  1.00  0.00    -0.317 C  
HETATM   13  O   UNK A   1     -13.533  14.591  70.872  1.00  0.00    -0.354 OA 
HETATM   14  O   UNK A   1     -11.795  16.025  70.622  1.00  0.00    -0.370 OA 
BRANCH  11  15
HETATM   15  C   UNK A   1     -11.177  13.151  69.220  1.00  0.00    -0.266 C  
BRANCH  15  16
HETATM   16  C   UNK A   1     -11.818  11.803  68.847  1.00  0.00    -0.381 C  
BRANCH  16  17
HETATM   17  C   UNK A   1     -11.642  10.753  69.921  1.00  0.00    -0.410 A  
HETATM   18  C   UNK A   1     -12.681  10.482  70.821  1.00  0.00    -0.471 A  
HETATM   19  C   UNK A   1     -11.337   8.802  71.920  1.00  0.00    -0.431 A  
HETATM   20  C   UNK A   1     -12.529   9.512  71.813  1.00  0.00    -0.484 A  
HETATM   21  C   UNK A   1     -10.301   9.050  71.022  1.00  0.00    -0.348 A  
HETATM   22  C   UNK A   1     -10.451  10.017  70.027  1.00  0.00    -0.337 A  
ENDBRANCH  16  17
ENDBRANCH  15  16
ENDBRANCH  11  15
ENDBRANCH   9  11
ENDBRANCH   8   9
BRANCH   8  23
HETATM   23  C   UNK A   1     -10.147  16.241  66.137  1.00  0.00    -0.344 C  
ATOM     24  OXT PRO A   2      -7.721  14.723  69.471  1.00  0.00    -0.150 OA 
HETATM   25  O   UNK A   1     -10.707  16.860  65.231  1.00  0.00    -0.599 OA 
ATOM     26  N   PRO A   2      -8.914  16.659  66.638  1.00  0.00    -0.236 N  
ATOM     27  CD  PRO A   2      -8.273  17.870  66.137  1.00  0.00    -0.150 C  
ATOM     28  O   PRO A   2      -8.916  16.637  69.328  1.00  0.00    -0.192 OA 
ATOM     29  C   PRO A   2      -8.183  15.630  68.796  1.00  0.00    -0.183 C  
ATOM     30  CA  PRO A   2      -7.926  15.791  67.299  1.00  0.00    -0.186 C  
ATOM     31  CB  PRO A   2      -6.569  16.467  67.077  1.00  0.00    -0.225 C  
ATOM     32  CG  PRO A   2      -6.812  17.495  65.980  1.00  0.00    -0.281 C  
ENDBRANCH   8  23
ENDBRANCH   7   8
ENDBRANCH   6   7
ENDBRANCH   5   6
ENDBRANCH   3   5
TORSDOF 10
ENDMDL
MODEL       17
REMARK 921   NORMALIZED FREE ENERGY PREDICTED BY IDOCK:   -6.07 KCAL/MOL
REMARK 922        TOTAL FREE ENERGY PREDICTED BY IDOCK:  -11.57 KCAL/MOL
REMARK 923 INTER-LIGAND FREE ENERGY PREDICTED BY IDOCK:   -9.77 KCAL/MOL
REMARK 924 INTRA-LIGAND FREE ENERGY PREDICTED BY IDOCK:   -1.80 KCAL/MOL
REMARK 927      BINDING AFFINITY PREDICTED BY RF-SCORE:    0.00 PKD
ROOT
HETATM    1  N   UNK A   1     -11.510  11.519  63.418  1.00  0.00    -0.803 NA 
HETATM    2  H2  UNK A   1     -12.057  10.973  64.085  1.00  0.00     0.000 HD 
HETATM    3  C   UNK A   1     -12.051  12.858  63.227  1.00  0.00    -0.440 C  
HETATM    4  H1  UNK A   1     -11.428  11.052  62.515  1.00  0.00     0.000 HD 
ENDROOT
BRANCH   3   5
HETATM    5  C   UNK A   1     -12.174  13.556  64.578  1.00  0.00    -0.445 C  
BRANCH   5   6
HETATM    6  C   UNK A   1     -12.265  12.555  65.737  1.00  0.00    -0.361 C  
BRANCH   6   7
HETATM    7  C   UNK A   1     -11.718  13.204  67.012  1.00  0.00    -0.431 C  
BRANCH   7   8
HETATM    8  C   UNK A   1     -10.624  12.415  67.752  1.00  0.00    -0.217 C  
BRANCH   8   9
HETATM    9  N   UNK A   1      -9.629  13.274  68.463  1.00  0.00    -0.362 NA 
HETATM   10  H   UNK A   1      -8.682  12.938  68.287  1.00  0.00     0.000 HD 
BRANCH   9  11
HETATM   11  C   UNK A   1      -9.725  14.735  68.154  1.00  0.00    -0.217 C  
HETATM   12  C   UNK A   1      -8.541  15.100  67.238  1.00  0.00    -0.198 C  
HETATM   13  O   UNK A   1      -8.533  16.030  66.447  1.00  0.00    -0.288 OA 
HETATM   14  O   UNK A   1      -7.486  14.267  67.415  1.00  0.00    -0.182 OA 
BRANCH  11  15
HETATM   15  C   UNK A   1      -9.668  15.607  69.428  1.00  0.00    -0.292 C  
BRANCH  15  16
HETATM   16  C   UNK A   1     -10.992  16.330  69.728  1.00  0.00    -0.354 C  
BRANCH  16  17
HETATM   17  C   UNK A   1     -11.825  15.620  70.771  1.00  0.00    -0.421 A  
HETATM   18  C   UNK A   1     -12.012  16.193  72.036  1.00  0.00    -0.607 A  
HETATM   19  C   UNK A   1     -13.373  14.318  72.721  1.00  0.00    -0.621 A  
HETATM   20  C   UNK A   1     -12.783  15.545  73.003  1.00  0.00    -0.563 A  
HETATM   21  C   UNK A   1     -13.208  13.744  71.462  1.00  0.00    -0.417 A  
HETATM   22  C   UNK A   1     -12.441  14.390  70.492  1.00  0.00    -0.416 A  
ENDBRANCH  16  17
ENDBRANCH  15  16
ENDBRANCH  11  15
ENDBRANCH   9  11
ENDBRANCH   8   9
BRANCH   8  23
HETATM   23  C   UNK A   1      -9.836  11.427  66.818  1.00  0.00    -0.206 C  
ATOM     24  OXT PRO A   2     -11.242   9.321  70.408  1.00  0.00    -0.241 OA 
HETATM   25  O   UNK A   1      -9.292  11.844  65.794  1.00  0.00    -0.226 OA 
ATOM     26  N   PRO A   2      -9.708  10.094  67.207  1.00  0.00    -0.162 N  
ATOM     27  CD  PRO A   2      -8.887   9.164  66.439  1.00  0.00    -0.141 C  
ATOM     28  O   PRO A   2      -9.138   9.912  69.829  1.00  0.00    -0.212 OA 
ATOM     29  C   PRO A   2     -10.409   9.545  69.543  1.00  0.00    -0.217 C  
ATOM     30  CA  PRO A   2     -10.666   9.358  68.049  1.00  0.00    -0.190 C  
ATOM     31  CB  PRO A   2     -10.495   7.882  67.675  1.00  0.00    -0.303 C  
ATOM     32  CG  PRO A   2      -9.709   7.891  66.370  1.00  0.00    -0.235 C  
ENDBRANCH   8  23
ENDBRANCH   7   8
ENDBRANCH   6   7
ENDBRANCH   5   6
ENDBRANCH   3   5
TORSDOF 10
ENDMDL
MODEL       18
REMARK 921   NORMALIZED FREE ENERGY PREDICTED BY IDOCK:   -6.05 KCAL/MOL
REMARK 922        TOTAL FREE ENERGY PREDICTED BY IDOCK:  -11.55 KCAL/MOL
REMARK 923 INTER-LIGAND FREE ENERGY PREDICTED BY IDOCK:  -10.28 KCAL/MOL
REMARK 924 INTRA-LIGAND FREE ENERGY PREDICTED BY IDOCK:   -1.27 KCAL/MOL
REMARK 927      BINDING AFFINITY PREDICTED BY RF-SCORE:    0.00 PKD
ROOT
HETATM    1  N   UNK A   1     -13.124  16.043  74.270  1.00  0.00    -0.893 NA 
HETATM    2  H2  UNK A   1     -12.894  15.166  74.737  1.00  0.00     0.000 HD 
HETATM    3  C   UNK A   1     -12.699  16.055  72.876  1.00  0.00    -0.467 C  
HETATM    4  H1  UNK A   1     -12.730  16.851  74.754  1.00  0.00     0.000 HD 
ENDROOT
BRANCH   3   5
HETATM    5  C   UNK A   1     -13.288  14.848  72.154  1.00  0.00    -0.473 C  
BRANCH   5   6
HETATM    6  C   UNK A   1     -12.902  14.819  70.670  1.00  0.00    -0.398 C  
BRANCH   6   7
HETATM    7  C   UNK A   1     -12.356  13.433  70.314  1.00  0.00    -0.354 C  
BRANCH   7   8
HETATM    8  C   UNK A   1     -12.025  13.201  68.830  1.00  0.00    -0.280 C  
BRANCH   8   9
HETATM    9  N   UNK A   1     -11.923  11.760  68.446  1.00  0.00    -0.490 NA 
HETATM   10  H   UNK A   1     -11.377  11.660  67.590  1.00  0.00     0.000 HD 
BRANCH   9  11
HETATM   11  C   UNK A   1     -11.380  10.862  69.514  1.00  0.00    -0.283 C  
HETATM   12  C   UNK A   1     -10.431   9.853  68.840  1.00  0.00    -0.211 C  
HETATM   13  O   UNK A   1      -9.499   9.293  69.398  1.00  0.00    -0.158 OA 
HETATM   14  O   UNK A   1     -10.752   9.642  67.540  1.00  0.00    -0.274 OA 
BRANCH  11  15
HETATM   15  C   UNK A   1     -12.497  10.092  70.253  1.00  0.00    -0.174 C  
BRANCH  15  16
HETATM   16  C   UNK A   1     -12.193   9.867  71.744  1.00  0.00    -0.425 C  
BRANCH  16  17
HETATM   17  C   UNK A   1     -11.658   8.482  72.031  1.00  0.00    -0.432 A  
HETATM   18  C   UNK A   1     -10.436   8.321  72.698  1.00  0.00    -0.373 A  
HETATM   19  C   UNK A   1     -10.649   5.917  72.577  1.00  0.00    -0.256 A  
HETATM   20  C   UNK A   1      -9.936   7.046  72.971  1.00  0.00    -0.227 A  
HETATM   21  C   UNK A   1     -11.872   6.062  71.927  1.00  0.00    -0.242 A  
HETATM   22  C   UNK A   1     -12.376   7.335  71.656  1.00  0.00    -0.387 A  
ENDBRANCH  16  17
ENDBRANCH  15  16
ENDBRANCH  11  15
ENDBRANCH   9  11
ENDBRANCH   8   9
BRANCH   8  23
HETATM   23  C   UNK A   1     -10.707  13.922  68.371  1.00  0.00    -0.257 C  
ATOM     24  OXT PRO A   2     -13.252  13.062  64.894  1.00  0.00    -0.735 OA 
HETATM   25  O   UNK A   1      -9.824  14.179  69.190  1.00  0.00    -0.092 OA 
ATOM     26  N   PRO A   2     -10.531  14.199  67.015  1.00  0.00    -0.270 N  
ATOM     27  CD  PRO A   2      -9.277  14.758  66.521  1.00  0.00    -0.276 C  
ATOM     28  O   PRO A   2     -11.294  12.110  65.503  1.00  0.00    -0.328 OA 
ATOM     29  C   PRO A   2     -12.164  13.145  65.443  1.00  0.00    -0.461 C  
ATOM     30  CA  PRO A   2     -11.615  14.437  66.047  1.00  0.00    -0.363 C  
ATOM     31  CB  PRO A   2     -11.001  15.304  64.944  1.00  0.00    -0.445 C  
ATOM     32  CG  PRO A   2      -9.696  15.827  65.530  1.00  0.00    -0.255 C  
ENDBRANCH   8  23
ENDBRANCH   7   8
ENDBRANCH   6   7
ENDBRANCH   5   6
ENDBRANCH   3   5
TORSDOF 10
ENDMDL
MODEL       19
REMARK 921   NORMALIZED FREE ENERGY PREDICTED BY IDOCK:   -6.02 KCAL/MOL
REMARK 922        TOTAL FREE ENERGY PREDICTED BY IDOCK:  -11.50 KCAL/MOL
REMARK 923 INTER-LIGAND FREE ENERGY PREDICTED BY IDOCK:  -10.70 KCAL/MOL
REMARK 924 INTRA-LIGAND FREE ENERGY PREDICTED BY IDOCK:   -0.80 KCAL/MOL
REMARK 927      BINDING AFFINITY PREDICTED BY RF-SCORE:    0.00 PKD
ROOT
HETATM    1  N   UNK A   1     -11.132  11.264  63.135  1.00  0.00    -0.846 NA 
HETATM    2  H2  UNK A   1     -11.324  11.589  62.187  1.00  0.00     0.000 HD 
HETATM    3  C   UNK A   1     -10.843  12.364  64.046  1.00  0.00    -0.397 C  
HETATM    4  H1  UNK A   1     -10.368  10.588  63.163  1.00  0.00     0.000 HD 
ENDROOT
BRANCH   3   5
HETATM    5  C   UNK A   1     -11.985  13.374  64.004  1.00  0.00    -0.520 C  
BRANCH   5   6
HETATM    6  C   UNK A   1     -11.910  14.377  65.161  1.00  0.00    -0.386 C  
BRANCH   6   7
HETATM    7  C   UNK A   1     -10.988  15.537  64.770  1.00  0.00    -0.416 C  
BRANCH   7   8
HETATM    8  C   UNK A   1      -9.860  15.864  65.763  1.00  0.00    -0.345 C  
BRANCH   8   9
HETATM    9  N   UNK A   1      -9.055  14.678  66.184  1.00  0.00    -0.507 NA 
HETATM   10  H   UNK A   1      -8.085  14.786  65.888  1.00  0.00     0.000 HD 
BRANCH   9  11
HETATM   11  C   UNK A   1      -9.118  14.361  67.646  1.00  0.00    -0.194 C  
HETATM   12  C   UNK A   1      -7.698  14.517  68.221  1.00  0.00    -0.126 C  
HETATM   13  O   UNK A   1      -7.443  14.781  69.387  1.00  0.00    -0.163 OA 
HETATM   14  O   UNK A   1      -6.742  14.318  67.280  1.00  0.00    -0.259 OA 
BRANCH  11  15
HETATM   15  C   UNK A   1      -9.617  12.923  67.911  1.00  0.00    -0.215 C  
BRANCH  15  16
HETATM   16  C   UNK A   1     -11.150  12.799  67.886  1.00  0.00    -0.281 C  
BRANCH  16  17
HETATM   17  C   UNK A   1     -11.748  12.636  69.265  1.00  0.00    -0.379 A  
HETATM   18  C   UNK A   1     -12.214  13.754  69.970  1.00  0.00    -0.407 A  
HETATM   19  C   UNK A   1     -12.866  12.352  71.827  1.00  0.00    -0.350 A  
HETATM   20  C   UNK A   1     -12.771  13.611  71.243  1.00  0.00    -0.443 A  
HETATM   21  C   UNK A   1     -12.421  11.230  71.131  1.00  0.00    -0.479 A  
HETATM   22  C   UNK A   1     -11.867  11.369  69.858  1.00  0.00    -0.435 A  
ENDBRANCH  16  17
ENDBRANCH  15  16
ENDBRANCH  11  15
ENDBRANCH   9  11
ENDBRANCH   8   9
BRANCH   8  23
HETATM   23  C   UNK A   1     -10.370  16.591  67.059  1.00  0.00    -0.301 C  
ATOM     24  OXT PRO A   2      -7.057  18.848  65.260  1.00  0.00    -0.492 OA 
HETATM   25  O   UNK A   1     -11.247  16.075  67.754  1.00  0.00    -0.315 OA 
ATOM     26  N   PRO A   2      -9.765  17.790  67.439  1.00  0.00    -0.277 N  
ATOM     27  CD  PRO A   2     -10.118  18.442  68.695  1.00  0.00    -0.377 C  
ATOM     28  O   PRO A   2      -7.093  17.639  67.170  1.00  0.00    -0.164 OA 
ATOM     29  C   PRO A   2      -7.672  18.412  66.221  1.00  0.00    -0.247 C  
ATOM     30  CA  PRO A   2      -9.131  18.751  66.521  1.00  0.00    -0.323 C  
ATOM     31  CB  PRO A   2      -9.214  20.109  67.224  1.00  0.00    -0.504 C  
ATOM     32  CG  PRO A   2     -10.225  19.914  68.346  1.00  0.00    -0.557 C  
ENDBRANCH   8  23
ENDBRANCH   7   8
ENDBRANCH   6   7
ENDBRANCH   5   6
ENDBRANCH   3   5
TORSDOF 10
ENDMDL
MODEL       20
REMARK 921   NORMALIZED FREE ENERGY PREDICTED BY IDOCK:   -6.02 KCAL/MOL
REMARK 922        TOTAL FREE ENERGY PREDICTED BY IDOCK:  -11.50 KCAL/MOL
REMARK 923 INTER-LIGAND FREE ENERGY PREDICTED BY IDOCK:  -10.43 KCAL/MOL
REMARK 924 INTRA-LIGAND FREE ENERGY PREDICTED BY IDOCK:   -1.06 KCAL/MOL
REMARK 927      BINDING AFFINITY PREDICTED BY RF-SCORE:    0.00 PKD
ROOT
HETATM    1  N   UNK A   1     -11.198   4.629  65.391  1.00  0.00    -0.984 NA 
HETATM    2  H2  UNK A   1     -11.577   5.314  64.738  1.00  0.00     0.000 HD 
HETATM    3  C   UNK A   1     -10.334   5.240  66.393  1.00  0.00    -0.268 C  
HETATM    4  H1  UNK A   1     -10.691   3.882  64.914  1.00  0.00     0.000 HD 
ENDROOT
BRANCH   3   5
HETATM    5  C   UNK A   1     -11.092   6.356  67.105  1.00  0.00    -0.422 C  
BRANCH   5   6
HETATM    6  C   UNK A   1     -10.164   7.227  67.962  1.00  0.00    -0.225 C  
BRANCH   6   7
HETATM    7  C   UNK A   1     -10.396   8.702  67.622  1.00  0.00    -0.317 C  
BRANCH   7   8
HETATM    8  C   UNK A   1     -10.566   9.650  68.822  1.00  0.00    -0.216 C  
BRANCH   8   9
HETATM    9  N   UNK A   1     -10.373  11.095  68.490  1.00  0.00    -0.185 NA 
HETATM   10  H   UNK A   1      -9.650  11.200  67.778  1.00  0.00     0.000 HD 
BRANCH   9  11
HETATM   11  C   UNK A   1     -11.617  11.816  68.074  1.00  0.00    -0.316 C  
HETATM   12  C   UNK A   1     -11.449  12.229  66.599  1.00  0.00    -0.373 C  
HETATM   13  O   UNK A   1     -12.369  12.414  65.818  1.00  0.00    -0.644 OA 
HETATM   14  O   UNK A   1     -10.145  12.377  66.258  1.00  0.00    -0.231 OA 
BRANCH  11  15
HETATM   15  C   UNK A   1     -11.874  13.077  68.928  1.00  0.00    -0.358 C  
BRANCH  15  16
HETATM   16  C   UNK A   1     -12.419  12.759  70.330  1.00  0.00    -0.231 C  
BRANCH  16  17
HETATM   17  C   UNK A   1     -12.425  13.963  71.245  1.00  0.00    -0.440 A  
HETATM   18  C   UNK A   1     -13.175  13.949  72.428  1.00  0.00    -0.587 A  
HETATM   19  C   UNK A   1     -12.445  16.190  72.959  1.00  0.00    -0.590 A  
HETATM   20  C   UNK A   1     -13.183  15.055  73.280  1.00  0.00    -0.537 A  
HETATM   21  C   UNK A   1     -11.682  16.213  71.793  1.00  0.00    -0.568 A  
HETATM   22  C   UNK A   1     -11.670  15.108  70.941  1.00  0.00    -0.378 A  
ENDBRANCH  16  17
ENDBRANCH  15  16
ENDBRANCH  11  15
ENDBRANCH   9  11
ENDBRANCH   8   9
BRANCH   8  23
HETATM   23  C   UNK A   1      -9.623   9.297  70.027  1.00  0.00    -0.209 C  
ATOM     24  OXT PRO A   2     -13.811   8.526  71.106  1.00  0.00    -0.194 OA 
HETATM   25  O   UNK A   1      -8.413   9.517  69.952  1.00  0.00    -0.149 OA 
ATOM     26  N   PRO A   2     -10.190   8.797  71.200  1.00  0.00    -0.224 N  
ATOM     27  CD  PRO A   2      -9.375   8.566  72.387  1.00  0.00    -0.278 C  
ATOM     28  O   PRO A   2     -12.423  10.154  71.836  1.00  0.00    -0.382 OA 
ATOM     29  C   PRO A   2     -12.682   8.912  71.366  1.00  0.00    -0.301 C  
ATOM     30  CA  PRO A   2     -11.441   8.025  71.277  1.00  0.00    -0.269 C  
ATOM     31  CB  PRO A   2     -11.322   7.173  72.545  1.00  0.00    -0.318 C  
ATOM     32  CG  PRO A   2      -9.848   7.229  72.925  1.00  0.00    -0.240 C  
ENDBRANCH   8  23
ENDBRANCH   7   8
ENDBRANCH   6   7
ENDBRANCH   5   6
ENDBRANCH   3   5
TORSDOF 10
ENDMDL
MODEL       21
REMARK 921   NORMALIZED FREE ENERGY PREDICTED BY IDOCK:   -6.01 KCAL/MOL
REMARK 922        TOTAL FREE ENERGY PREDICTED BY IDOCK:  -11.48 KCAL/MOL
REMARK 923 INTER-LIGAND FREE ENERGY PREDICTED BY IDOCK:   -9.11 KCAL/MOL
REMARK 924 INTRA-LIGAND FREE ENERGY PREDICTED BY IDOCK:   -2.37 KCAL/MOL
REMARK 927      BINDING AFFINITY PREDICTED BY RF-SCORE:    0.00 PKD
ROOT
HETATM    1  N   UNK A   1     -12.356  14.686  63.688  1.00  0.00    -1.089 NA 
HETATM    2  H2  UNK A   1     -12.058  14.061  62.938  1.00  0.00     0.000 HD 
HETATM    3  C   UNK A   1     -11.932  14.213  64.999  1.00  0.00    -0.408 C  
HETATM    4  H1  UNK A   1     -13.365  14.833  63.688  1.00  0.00     0.000 HD 
ENDROOT
BRANCH   3   5
HETATM    5  C   UNK A   1     -10.423  13.993  64.999  1.00  0.00    -0.440 C  
BRANCH   5   6
HETATM    6  C   UNK A   1      -9.680  15.087  65.775  1.00  0.00    -0.375 C  
BRANCH   6   7
HETATM    7  C   UNK A   1     -10.475  15.446  67.035  1.00  0.00    -0.295 C  
BRANCH   7   8
HETATM    8  C   UNK A   1      -9.642  15.798  68.279  1.00  0.00    -0.201 C  
BRANCH   8   9
HETATM    9  N   UNK A   1     -10.101  15.121  69.531  1.00  0.00    -0.323 NA 
HETATM   10  H   UNK A   1      -9.938  15.724  70.338  1.00  0.00     0.000 HD 
BRANCH   9  11
HETATM   11  C   UNK A   1     -11.524  14.657  69.509  1.00  0.00    -0.297 C  
HETATM   12  C   UNK A   1     -12.272  15.387  70.640  1.00  0.00    -0.385 C  
HETATM   13  O   UNK A   1     -13.473  15.613  70.650  1.00  0.00    -0.476 OA 
HETATM   14  O   UNK A   1     -11.442  15.753  71.648  1.00  0.00    -0.395 OA 
BRANCH  11  15
HETATM   15  C   UNK A   1     -11.644  13.132  69.724  1.00  0.00    -0.291 C  
BRANCH  15  16
HETATM   16  C   UNK A   1     -11.904  12.355  68.422  1.00  0.00    -0.361 C  
BRANCH  16  17
HETATM   17  C   UNK A   1     -10.666  11.667  67.893  1.00  0.00    -0.241 A  
HETATM   18  C   UNK A   1      -9.395  12.064  68.330  1.00  0.00    -0.197 A  
HETATM   19  C   UNK A   1      -8.354  10.398  66.924  1.00  0.00    -0.124 A  
HETATM   20  C   UNK A   1      -8.247  11.431  67.848  1.00  0.00    -0.132 A  
HETATM   21  C   UNK A   1      -9.612   9.982  66.492  1.00  0.00    -0.237 A  
HETATM   22  C   UNK A   1     -10.761  10.610  66.974  1.00  0.00    -0.317 A  
ENDBRANCH  16  17
ENDBRANCH  15  16
ENDBRANCH  11  15
ENDBRANCH   9  11
ENDBRANCH   8   9
BRANCH   8  23
HETATM   23  C   UNK A   1      -9.571  17.342  68.558  1.00  0.00    -0.291 C  
ATOM     24  OXT PRO A   2      -5.762  15.927  66.887  1.00  0.00    -0.292 OA 
HETATM   25  O   UNK A   1     -10.515  17.918  69.101  1.00  0.00    -0.279 OA 
ATOM     26  N   PRO A   2      -8.397  18.027  68.242  1.00  0.00    -0.282 N  
ATOM     27  CD  PRO A   2      -8.235  19.435  68.590  1.00  0.00    -0.364 C  
ATOM     28  O   PRO A   2      -6.234  16.615  68.988  1.00  0.00    -0.153 OA 
ATOM     29  C   PRO A   2      -6.416  16.624  67.647  1.00  0.00    -0.151 C  
ATOM     30  CA  PRO A   2      -7.450  17.648  67.181  1.00  0.00    -0.193 C  
ATOM     31  CB  PRO A   2      -6.746  18.946  66.774  1.00  0.00    -0.205 C  
ATOM     32  CG  PRO A   2      -7.596  20.062  67.366  1.00  0.00    -0.316 C  
ENDBRANCH   8  23
ENDBRANCH   7   8
ENDBRANCH   6   7
ENDBRANCH   5   6
ENDBRANCH   3   5
TORSDOF 10
ENDMDL
MODEL       22
REMARK 921   NORMALIZED FREE ENERGY PREDICTED BY IDOCK:   -5.97 KCAL/MOL
REMARK 922        TOTAL FREE ENERGY PREDICTED BY IDOCK:  -11.41 KCAL/MOL
REMARK 923 INTER-LIGAND FREE ENERGY PREDICTED BY IDOCK:   -9.57 KCAL/MOL
REMARK 924 INTRA-LIGAND FREE ENERGY PREDICTED BY IDOCK:   -1.84 KCAL/MOL
REMARK 927      BINDING AFFINITY PREDICTED BY RF-SCORE:    0.00 PKD
ROOT
HETATM    1  N   UNK A   1     -12.349  14.014  63.506  1.00  0.00    -1.118 NA 
HETATM    2  H2  UNK A   1     -12.894  14.670  64.065  1.00  0.00     0.000 HD 
HETATM    3  C   UNK A   1     -11.413  13.245  64.317  1.00  0.00    -0.396 C  
HETATM    4  H1  UNK A   1     -11.844  14.478  62.751  1.00  0.00     0.000 HD 
ENDROOT
BRANCH   3   5
HETATM    5  C   UNK A   1     -12.167  12.551  65.445  1.00  0.00    -0.475 C  
BRANCH   5   6
HETATM    6  C   UNK A   1     -11.222  11.814  66.402  1.00  0.00    -0.382 C  
BRANCH   6   7
HETATM    7  C   UNK A   1     -11.868  11.727  67.789  1.00  0.00    -0.266 C  
BRANCH   7   8
HETATM    8  C   UNK A   1     -11.192  12.551  68.899  1.00  0.00    -0.281 C  
BRANCH   8   9
HETATM    9  N   UNK A   1     -11.470  12.054  70.281  1.00  0.00    -0.497 NA 
HETATM   10  H   UNK A   1     -12.207  12.610  70.715  1.00  0.00     0.000 HD 
BRANCH   9  11
HETATM   11  C   UNK A   1     -11.800  10.596  70.370  1.00  0.00    -0.349 C  
HETATM   12  C   UNK A   1     -13.086  10.457  71.208  1.00  0.00    -0.399 C  
HETATM   13  O   UNK A   1     -13.877   9.531  71.122  1.00  0.00    -0.266 OA 
HETATM   14  O   UNK A   1     -13.243  11.489  72.074  1.00  0.00    -0.509 OA 
BRANCH  11  15
HETATM   15  C   UNK A   1     -10.670   9.782  71.038  1.00  0.00    -0.342 C  
BRANCH  15  16
HETATM   16  C   UNK A   1      -9.582   9.331  70.048  1.00  0.00    -0.235 C  
BRANCH  16  17
HETATM   17  C   UNK A   1     -10.084   8.312  69.049  1.00  0.00    -0.208 A  
HETATM   18  C   UNK A   1     -10.688   7.127  69.491  1.00  0.00    -0.255 A  
HETATM   19  C   UNK A   1     -11.025   6.409  67.209  1.00  0.00    -0.474 A  
HETATM   20  C   UNK A   1     -11.157   6.183  68.575  1.00  0.00    -0.352 A  
HETATM   21  C   UNK A   1     -10.440   7.589  66.755  1.00  0.00    -0.319 A  
HETATM   22  C   UNK A   1      -9.973   8.536  67.668  1.00  0.00    -0.253 A  
ENDBRANCH  16  17
ENDBRANCH  15  16
ENDBRANCH  11  15
ENDBRANCH   9  11
ENDBRANCH   8   9
BRANCH   8  23
HETATM   23  C   UNK A   1     -11.559  14.077  68.846  1.00  0.00    -0.315 C  
ATOM     24  OXT PRO A   2      -7.514  13.436  67.256  1.00  0.00    -0.146 OA 
HETATM   25  O   UNK A   1     -12.625  14.475  69.320  1.00  0.00    -0.119 OA 
ATOM     26  N   PRO A   2     -10.629  14.973  68.318  1.00  0.00    -0.242 N  
ATOM     27  CD  PRO A   2     -10.870  16.412  68.356  1.00  0.00    -0.342 C  
ATOM     28  O   PRO A   2      -8.150  14.407  69.196  1.00  0.00    -0.094 OA 
ATOM     29  C   PRO A   2      -8.335  14.074  67.896  1.00  0.00    -0.168 C  
ATOM     30  CA  PRO A   2      -9.618  14.648  67.298  1.00  0.00    -0.221 C  
ATOM     31  CB  PRO A   2      -9.313  15.968  66.585  1.00  0.00    -0.268 C  
ATOM     32  CG  PRO A   2     -10.440  16.909  66.989  1.00  0.00    -0.281 C  
ENDBRANCH   8  23
ENDBRANCH   7   8
ENDBRANCH   6   7
ENDBRANCH   5   6
ENDBRANCH   3   5
TORSDOF 10
ENDMDL
MODEL       23
REMARK 921   NORMALIZED FREE ENERGY PREDICTED BY IDOCK:   -5.95 KCAL/MOL
REMARK 922        TOTAL FREE ENERGY PREDICTED BY IDOCK:  -11.39 KCAL/MOL
REMARK 923 INTER-LIGAND FREE ENERGY PREDICTED BY IDOCK:   -9.63 KCAL/MOL
REMARK 924 INTRA-LIGAND FREE ENERGY PREDICTED BY IDOCK:   -1.76 KCAL/MOL
REMARK 927      BINDING AFFINITY PREDICTED BY RF-SCORE:    0.00 PKD
ROOT
HETATM    1  N   UNK A   1      -9.931  10.307  63.207  1.00  0.00    -0.497 NA 
HETATM    2  H2  UNK A   1     -10.541   9.865  62.519  1.00  0.00     0.000 HD 
HETATM    3  C   UNK A   1     -10.181  11.738  63.325  1.00  0.00    -0.416 C  
HETATM    4  H1  UNK A   1      -8.944  10.149  63.004  1.00  0.00     0.000 HD 
ENDROOT
BRANCH   3   5
HETATM    5  C   UNK A   1     -11.656  11.975  63.627  1.00  0.00    -0.578 C  
BRANCH   5   6
HETATM    6  C   UNK A   1     -11.889  13.301  64.361  1.00  0.00    -0.448 C  
BRANCH   6   7
HETATM    7  C   UNK A   1     -10.549  14.017  64.554  1.00  0.00    -0.332 C  
BRANCH   7   8
HETATM    8  C   UNK A   1     -10.459  14.962  65.765  1.00  0.00    -0.330 C  
BRANCH   8   9
HETATM    9  N   UNK A   1     -11.324  14.560  66.917  1.00  0.00    -0.337 NA 
HETATM   10  H   UNK A   1     -12.308  14.621  66.658  1.00  0.00     0.000 HD 
BRANCH   9  11
HETATM   11  C   UNK A   1     -11.021  13.210  67.489  1.00  0.00    -0.263 C  
HETATM   12  C   UNK A   1     -11.899  13.024  68.741  1.00  0.00    -0.317 C  
HETATM   13  O   UNK A   1     -12.257  11.944  69.187  1.00  0.00    -0.233 OA 
HETATM   14  O   UNK A   1     -12.230  14.209  69.311  1.00  0.00    -0.332 OA 
BRANCH  11  15
HETATM   15  C   UNK A   1      -9.535  13.063  67.885  1.00  0.00    -0.219 C  
BRANCH  15  16
HETATM   16  C   UNK A   1      -8.829  11.899  67.169  1.00  0.00    -0.180 C  
BRANCH  16  17
HETATM   17  C   UNK A   1      -9.387  10.548  67.554  1.00  0.00    -0.162 A  
HETATM   18  C   UNK A   1      -9.346  10.120  68.888  1.00  0.00    -0.179 A  
HETATM   19  C   UNK A   1     -10.423   8.042  68.290  1.00  0.00    -0.210 A  
HETATM   20  C   UNK A   1      -9.862   8.875  69.253  1.00  0.00    -0.176 A  
HETATM   21  C   UNK A   1     -10.485   8.461  66.963  1.00  0.00    -0.375 A  
HETATM   22  C   UNK A   1      -9.972   9.705  66.596  1.00  0.00    -0.301 A  
ENDBRANCH  16  17
ENDBRANCH  15  16
ENDBRANCH  11  15
ENDBRANCH   9  11
ENDBRANCH   8   9
BRANCH   8  23
HETATM   23  C   UNK A   1     -10.786  16.456  65.409  1.00  0.00    -0.296 C  
ATOM     24  OXT PRO A   2      -8.453  16.261  69.126  1.00  0.00    -0.251 OA 
HETATM   25  O   UNK A   1     -11.501  16.720  64.440  1.00  0.00    -1.024 OA 
ATOM     26  N   PRO A   2     -10.310  17.465  66.246  1.00  0.00    -0.347 N  
ATOM     27  CD  PRO A   2     -10.684  18.859  66.028  1.00  0.00    -0.301 C  
ATOM     28  O   PRO A   2     -10.630  16.795  68.831  1.00  0.00    -0.310 OA 
ATOM     29  C   PRO A   2      -9.338  16.733  68.430  1.00  0.00    -0.231 C  
ATOM     30  CA  PRO A   2      -9.092  17.384  67.070  1.00  0.00    -0.242 C  
ATOM     31  CB  PRO A   2      -8.629  18.830  67.265  1.00  0.00    -0.287 C  
ATOM     32  CG  PRO A   2      -9.399  19.638  66.228  1.00  0.00    -0.453 C  
ENDBRANCH   8  23
ENDBRANCH   7   8
ENDBRANCH   6   7
ENDBRANCH   5   6
ENDBRANCH   3   5
TORSDOF 10
ENDMDL
MODEL       24
REMARK 921   NORMALIZED FREE ENERGY PREDICTED BY IDOCK:   -5.95 KCAL/MOL
REMARK 922        TOTAL FREE ENERGY PREDICTED BY IDOCK:  -11.38 KCAL/MOL
REMARK 923 INTER-LIGAND FREE ENERGY PREDICTED BY IDOCK:   -9.78 KCAL/MOL
REMARK 924 INTRA-LIGAND FREE ENERGY PREDICTED BY IDOCK:   -1.60 KCAL/MOL
REMARK 927      BINDING AFFINITY PREDICTED BY RF-SCORE:    0.00 PKD
ROOT
HETATM    1  N   UNK A   1     -11.642  16.434  63.826  1.00  0.00    -1.515 NA 
HETATM    2  H2  UNK A   1     -11.771  16.371  62.816  1.00  0.00     0.000 HD 
HETATM    3  C   UNK A   1     -12.399  15.416  64.543  1.00  0.00    -0.055 C  
HETATM    4  H1  UNK A   1     -11.883  17.357  64.188  1.00  0.00     0.000 HD 
ENDROOT
BRANCH   3   5
HETATM    5  C   UNK A   1     -12.039  14.037  64.001  1.00  0.00    -0.413 C  
BRANCH   5   6
HETATM    6  C   UNK A   1     -11.509  13.107  65.099  1.00  0.00    -0.327 C  
BRANCH   6   7
HETATM    7  C   UNK A   1     -10.024  13.396  65.338  1.00  0.00    -0.211 C  
BRANCH   7   8
HETATM    8  C   UNK A   1      -9.619  13.679  66.795  1.00  0.00    -0.275 C  
BRANCH   8   9
HETATM    9  N   UNK A   1      -9.215  15.095  67.052  1.00  0.00    -0.211 NA 
HETATM   10  H   UNK A   1      -8.729  15.477  66.240  1.00  0.00     0.000 HD 
BRANCH   9  11
HETATM   11  C   UNK A   1     -10.333  16.004  67.460  1.00  0.00    -0.287 C  
HETATM   12  C   UNK A   1      -9.897  17.450  67.157  1.00  0.00    -0.278 C  
HETATM   13  O   UNK A   1     -10.661  18.376  66.933  1.00  0.00    -0.386 OA 
HETATM   14  O   UNK A   1      -8.548  17.589  67.176  1.00  0.00    -0.216 OA 
BRANCH  11  15
HETATM   15  C   UNK A   1     -10.668  15.879  68.963  1.00  0.00    -0.251 C  
BRANCH  15  16
HETATM   16  C   UNK A   1     -12.058  15.275  69.226  1.00  0.00    -0.280 C  
BRANCH  16  17
HETATM   17  C   UNK A   1     -12.530  15.487  70.647  1.00  0.00    -0.483 A  
HETATM   18  C   UNK A   1     -11.623  15.875  71.643  1.00  0.00    -0.541 A  
HETATM   19  C   UNK A   1     -13.388  15.890  73.292  1.00  0.00    -0.660 A  
HETATM   20  C   UNK A   1     -12.051  16.076  72.956  1.00  0.00    -0.628 A  
HETATM   21  C   UNK A   1     -14.304  15.519  72.309  1.00  0.00    -0.556 A  
HETATM   22  C   UNK A   1     -13.880  15.320  70.995  1.00  0.00    -0.414 A  
ENDBRANCH  16  17
ENDBRANCH  15  16
ENDBRANCH  11  15
ENDBRANCH   9  11
ENDBRANCH   8   9
BRANCH   8  23
HETATM   23  C   UNK A   1      -8.467  12.743  67.309  1.00  0.00    -0.194 C  
ATOM     24  OXT PRO A   2     -12.381  11.039  68.350  1.00  0.00    -0.528 OA 
HETATM   25  O   UNK A   1      -7.290  13.084  67.184  1.00  0.00    -0.096 OA 
ATOM     26  N   PRO A   2      -8.807  11.560  67.966  1.00  0.00    -0.152 N  
ATOM     27  CD  PRO A   2      -7.780  10.716  68.567  1.00  0.00    -0.107 C  
ATOM     28  O   PRO A   2     -10.823  11.971  69.697  1.00  0.00    -0.009 OA 
ATOM     29  C   PRO A   2     -11.211  11.287  68.595  1.00  0.00    -0.250 C  
ATOM     30  CA  PRO A   2     -10.042  10.789  67.747  1.00  0.00    -0.174 C  
ATOM     31  CB  PRO A   2      -9.701   9.346  68.132  1.00  0.00    -0.164 C  
ATOM     32  CG  PRO A   2      -8.180   9.301  68.197  1.00  0.00    -0.119 C  
ENDBRANCH   8  23
ENDBRANCH   7   8
ENDBRANCH   6   7
ENDBRANCH   5   6
ENDBRANCH   3   5
TORSDOF 10
ENDMDL
MODEL       25
REMARK 921   NORMALIZED FREE ENERGY PREDICTED BY IDOCK:   -5.92 KCAL/MOL
REMARK 922        TOTAL FREE ENERGY PREDICTED BY IDOCK:  -11.34 KCAL/MOL
REMARK 923 INTER-LIGAND FREE ENERGY PREDICTED BY IDOCK:  -10.41 KCAL/MOL
REMARK 924 INTRA-LIGAND FREE ENERGY PREDICTED BY IDOCK:   -0.93 KCAL/MOL
REMARK 927      BINDING AFFINITY PREDICTED BY RF-SCORE:    0.00 PKD
ROOT
HETATM    1  N   UNK A   1     -10.626  10.743  62.593  1.00  0.00    -0.637 NA 
HETATM    2  H2  UNK A   1     -11.060  11.107  61.745  1.00  0.00     0.000 HD 
HETATM    3  C   UNK A   1     -10.611  11.726  63.669  1.00  0.00    -0.439 C  
HETATM    4  H1  UNK A   1      -9.678  10.405  62.427  1.00  0.00     0.000 HD 
ENDROOT
BRANCH   3   5
HETATM    5  C   UNK A   1     -12.028  12.231  63.918  1.00  0.00    -0.582 C  
BRANCH   5   6
HETATM    6  C   UNK A   1     -12.043  13.673  64.440  1.00  0.00    -0.470 C  
BRANCH   6   7
HETATM    7  C   UNK A   1     -12.907  13.747  65.703  1.00  0.00    -0.456 C  
BRANCH   7   8
HETATM    8  C   UNK A   1     -12.149  13.938  67.028  1.00  0.00    -0.415 C  
BRANCH   8   9
HETATM    9  N   UNK A   1     -10.844  14.653  66.885  1.00  0.00    -0.299 NA 
HETATM   10  H   UNK A   1     -10.309  14.261  66.111  1.00  0.00     0.000 HD 
BRANCH   9  11
HETATM   11  C   UNK A   1     -10.955  16.139  66.739  1.00  0.00    -0.080 C  
HETATM   12  C   UNK A   1     -10.540  16.500  65.300  1.00  0.00    -0.253 C  
HETATM   13  O   UNK A   1     -10.917  17.492  64.694  1.00  0.00    -0.892 OA 
HETATM   14  O   UNK A   1      -9.689  15.587  64.771  1.00  0.00    -0.057 OA 
BRANCH  11  15
HETATM   15  C   UNK A   1     -10.044  16.893  67.733  1.00  0.00    -0.292 C  
BRANCH  15  16
HETATM   16  C   UNK A   1     -10.264  18.416  67.721  1.00  0.00    -0.407 C  
BRANCH  16  17
HETATM   17  C   UNK A   1      -8.976  19.193  67.570  1.00  0.00    -0.332 A  
HETATM   18  C   UNK A   1      -8.132  19.383  68.672  1.00  0.00    -0.402 A  
HETATM   19  C   UNK A   1      -6.577  20.632  67.308  1.00  0.00    -0.340 A  
HETATM   20  C   UNK A   1      -6.939  20.097  68.540  1.00  0.00    -0.289 A  
HETATM   21  C   UNK A   1      -7.400  20.438  66.200  1.00  0.00    -0.223 A  
HETATM   22  C   UNK A   1      -8.591  19.723  66.328  1.00  0.00    -0.397 A  
ENDBRANCH  16  17
ENDBRANCH  15  16
ENDBRANCH  11  15
ENDBRANCH   9  11
ENDBRANCH   8   9
BRANCH   8  23
HETATM   23  C   UNK A   1     -11.885  12.588  67.787  1.00  0.00    -0.313 C  
ATOM     24  OXT PRO A   2     -12.423  15.865  70.663  1.00  0.00    -0.394 OA 
HETATM   25  O   UNK A   1     -11.630  11.561  67.156  1.00  0.00    -0.516 OA 
ATOM     26  N   PRO A   2     -11.876  12.594  69.182  1.00  0.00    -0.307 N  
ATOM     27  CD  PRO A   2     -11.518  11.396  69.934  1.00  0.00    -0.273 C  
ATOM     28  O   PRO A   2     -10.543  14.733  70.122  1.00  0.00    -0.101 OA 
ATOM     29  C   PRO A   2     -11.883  14.838  70.285  1.00  0.00    -0.302 C  
ATOM     30  CA  PRO A   2     -12.630  13.529  70.034  1.00  0.00    -0.069 C  
ATOM     31  CB  PRO A   2     -12.848  12.794  71.360  1.00  0.00    -0.371 C  
ATOM     32  CG  PRO A   2     -12.529  11.335  71.064  1.00  0.00    -0.503 C  
ENDBRANCH   8  23
ENDBRANCH   7   8
ENDBRANCH   6   7
ENDBRANCH   5   6
ENDBRANCH   3   5
TORSDOF 10
ENDMDL
MODEL       26
REMARK 921   NORMALIZED FREE ENERGY PREDICTED BY IDOCK:   -5.92 KCAL/MOL
REMARK 922        TOTAL FREE ENERGY PREDICTED BY IDOCK:  -11.33 KCAL/MOL
REMARK 923 INTER-LIGAND FREE ENERGY PREDICTED BY IDOCK:   -8.88 KCAL/MOL
REMARK 924 INTRA-LIGAND FREE ENERGY PREDICTED BY IDOCK:   -2.46 KCAL/MOL
REMARK 927      BINDING AFFINITY PREDICTED BY RF-SCORE:    0.00 PKD
ROOT
HETATM    1  N   UNK A   1     -12.436  13.784  63.176  1.00  0.00    -1.074 NA 
HETATM    2  H2  UNK A   1     -13.456  13.810  63.179  1.00  0.00     0.000 HD 
HETATM    3  C   UNK A   1     -11.873  14.110  64.481  1.00  0.00    -0.436 C  
HETATM    4  H1  UNK A   1     -12.037  14.401  62.469  1.00  0.00     0.000 HD 
ENDROOT
BRANCH   3   5
HETATM    5  C   UNK A   1     -12.470  13.187  65.538  1.00  0.00    -0.516 C  
BRANCH   5   6
HETATM    6  C   UNK A   1     -11.393  12.377  66.271  1.00  0.00    -0.388 C  
BRANCH   6   7
HETATM    7  C   UNK A   1     -11.897  12.011  67.670  1.00  0.00    -0.294 C  
BRANCH   7   8
HETATM    8  C   UNK A   1     -11.183  12.701  68.845  1.00  0.00    -0.280 C  
BRANCH   8   9
HETATM    9  N   UNK A   1     -11.375  12.017  70.161  1.00  0.00    -0.489 NA 
HETATM   10  H   UNK A   1     -12.022  12.548  70.744  1.00  0.00     0.000 HD 
BRANCH   9  11
HETATM   11  C   UNK A   1     -11.813  10.589  70.069  1.00  0.00    -0.308 C  
HETATM   12  C   UNK A   1     -13.040  10.415  70.984  1.00  0.00    -0.362 C  
HETATM   13  O   UNK A   1     -13.908   9.568  70.834  1.00  0.00    -0.159 OA 
HETATM   14  O   UNK A   1     -13.050  11.314  71.999  1.00  0.00    -0.495 OA 
BRANCH  11  15
HETATM   15  C   UNK A   1     -10.706   9.608  70.514  1.00  0.00    -0.374 C  
BRANCH  15  16
HETATM   16  C   UNK A   1     -10.411   8.514  69.474  1.00  0.00    -0.218 C  
BRANCH  16  17
HETATM   17  C   UNK A   1      -9.769   9.058  68.217  1.00  0.00    -0.169 A  
HETATM   18  C   UNK A   1     -10.246   8.675  66.957  1.00  0.00    -0.360 A  
HETATM   19  C   UNK A   1      -8.591  10.061  65.871  1.00  0.00    -0.150 A  
HETATM   20  C   UNK A   1      -9.661   9.175  65.791  1.00  0.00    -0.299 A  
HETATM   21  C   UNK A   1      -8.116  10.463  67.117  1.00  0.00    -0.115 A  
HETATM   22  C   UNK A   1      -8.700   9.967  68.284  1.00  0.00    -0.119 A  
ENDBRANCH  16  17
ENDBRANCH  15  16
ENDBRANCH  11  15
ENDBRANCH   9  11
ENDBRANCH   8   9
BRANCH   8  23
HETATM   23  C   UNK A   1     -11.590  14.208  69.015  1.00  0.00    -0.304 C  
ATOM     24  OXT PRO A   2      -7.636  13.911  67.124  1.00  0.00    -0.116 OA 
HETATM   25  O   UNK A   1     -12.634  14.506  69.598  1.00  0.00    -0.242 OA 
ATOM     26  N   PRO A   2     -10.717  15.195  68.558  1.00  0.00    -0.234 N  
ATOM     27  CD  PRO A   2     -10.990  16.608  68.798  1.00  0.00    -0.309 C  
ATOM     28  O   PRO A   2      -8.176  14.600  69.208  1.00  0.00    -0.107 OA 
ATOM     29  C   PRO A   2      -8.431  14.434  67.889  1.00  0.00    -0.165 C  
ATOM     30  CA  PRO A   2      -9.763  15.038  67.447  1.00  0.00    -0.216 C  
ATOM     31  CB  PRO A   2      -9.534  16.449  66.898  1.00  0.00    -0.249 C  
ATOM     32  CG  PRO A   2     -10.658  17.292  67.486  1.00  0.00    -0.329 C  
ENDBRANCH   8  23
ENDBRANCH   7   8
ENDBRANCH   6   7
ENDBRANCH   5   6
ENDBRANCH   3   5
TORSDOF 10
ENDMDL
MODEL       27
REMARK 921   NORMALIZED FREE ENERGY PREDICTED BY IDOCK:   -5.91 KCAL/MOL
REMARK 922        TOTAL FREE ENERGY PREDICTED BY IDOCK:  -11.32 KCAL/MOL
REMARK 923 INTER-LIGAND FREE ENERGY PREDICTED BY IDOCK:   -8.81 KCAL/MOL
REMARK 924 INTRA-LIGAND FREE ENERGY PREDICTED BY IDOCK:   -2.51 KCAL/MOL
REMARK 927      BINDING AFFINITY PREDICTED BY RF-SCORE:    0.00 PKD
ROOT
HETATM    1  N   UNK A   1      -6.927  11.689  70.014  1.00  0.00    -0.404 NA 
HETATM    2  H2  UNK A   1      -7.222  11.008  69.314  1.00  0.00     0.000 HD 
HETATM    3  C   UNK A   1      -6.377  12.896  69.411  1.00  0.00    -0.109 C  
HETATM    4  H1  UNK A   1      -6.252  11.297  70.671  1.00  0.00     0.000 HD 
ENDROOT
BRANCH   3   5
HETATM    5  C   UNK A   1      -7.386  13.480  68.429  1.00  0.00    -0.115 C  
BRANCH   5   6
HETATM    6  C   UNK A   1      -8.138  14.680  69.019  1.00  0.00    -0.115 C  
BRANCH   6   7
HETATM    7  C   UNK A   1      -9.635  14.535  68.727  1.00  0.00    -0.193 C  
BRANCH   7   8
HETATM    8  C   UNK A   1     -10.124  13.113  68.405  1.00  0.00    -0.231 C  
BRANCH   8   9
HETATM    9  N   UNK A   1     -10.488  12.904  66.970  1.00  0.00    -0.238 NA 
HETATM   10  H   UNK A   1     -11.013  12.037  66.861  1.00  0.00     0.000 HD 
BRANCH   9  11
HETATM   11  C   UNK A   1     -11.228  14.041  66.338  1.00  0.00    -0.319 C  
HETATM   12  C   UNK A   1     -12.474  13.460  65.643  1.00  0.00    -0.464 C  
HETATM   13  O   UNK A   1     -13.505  14.080  65.427  1.00  0.00    -0.679 OA 
HETATM   14  O   UNK A   1     -12.298  12.165  65.280  1.00  0.00    -0.513 OA 
BRANCH  11  15
HETATM   15  C   UNK A   1     -10.369  14.790  65.294  1.00  0.00    -0.425 C  
BRANCH  15  16
HETATM   16  C   UNK A   1     -10.673  16.296  65.227  1.00  0.00    -0.349 C  
BRANCH  16  17
HETATM   17  C   UNK A   1      -9.937  17.091  66.282  1.00  0.00    -0.324 A  
HETATM   18  C   UNK A   1      -8.538  17.174  66.255  1.00  0.00    -0.276 A  
HETATM   19  C   UNK A   1      -8.550  18.566  68.230  1.00  0.00    -0.341 A  
HETATM   20  C   UNK A   1      -7.850  17.908  67.223  1.00  0.00    -0.225 A  
HETATM   21  C   UNK A   1      -9.942  18.506  68.259  1.00  0.00    -0.409 A  
HETATM   22  C   UNK A   1     -10.632  17.775  67.291  1.00  0.00    -0.322 A  
ENDBRANCH  16  17
ENDBRANCH  15  16
ENDBRANCH  11  15
ENDBRANCH   9  11
ENDBRANCH   8   9
BRANCH   8  23
HETATM   23  C   UNK A   1     -11.344  12.665  69.287  1.00  0.00    -0.245 C  
ATOM     24  OXT PRO A   2      -8.878   9.185  68.232  1.00  0.00    -0.129 OA 
HETATM   25  O   UNK A   1     -12.200  13.484  69.623  1.00  0.00    -0.304 OA 
ATOM     26  N   PRO A   2     -11.472  11.316  69.620  1.00  0.00    -0.284 N  
ATOM     27  CD  PRO A   2     -12.647  10.828  70.334  1.00  0.00    -0.314 C  
ATOM     28  O   PRO A   2     -10.940   9.751  67.498  1.00  0.00    -0.275 OA 
ATOM     29  C   PRO A   2      -9.954   9.727  68.426  1.00  0.00    -0.156 C  
ATOM     30  CA  PRO A   2     -10.356  10.364  69.756  1.00  0.00    -0.208 C  
ATOM     31  CB  PRO A   2     -10.853   9.282  70.719  1.00  0.00    -0.349 C  
ATOM     32  CG  PRO A   2     -12.095   9.871  71.374  1.00  0.00    -0.501 C  
ENDBRANCH   8  23
ENDBRANCH   7   8
ENDBRANCH   6   7
ENDBRANCH   5   6
ENDBRANCH   3   5
TORSDOF 10
ENDMDL
MODEL       28
REMARK 921   NORMALIZED FREE ENERGY PREDICTED BY IDOCK:   -5.91 KCAL/MOL
REMARK 922        TOTAL FREE ENERGY PREDICTED BY IDOCK:  -11.32 KCAL/MOL
REMARK 923 INTER-LIGAND FREE ENERGY PREDICTED BY IDOCK:   -9.20 KCAL/MOL
REMARK 924 INTRA-LIGAND FREE ENERGY PREDICTED BY IDOCK:   -2.12 KCAL/MOL
REMARK 927      BINDING AFFINITY PREDICTED BY RF-SCORE:    0.00 PKD
ROOT
HETATM    1  N   UNK A   1     -12.253  11.699  62.966  1.00  0.00    -0.951 NA 
HETATM    2  H2  UNK A   1     -12.752  11.113  63.636  1.00  0.00     0.000 HD 
HETATM    3  C   UNK A   1     -11.901  12.998  63.525  1.00  0.00    -0.516 C  
HETATM    4  H1  UNK A   1     -12.780  11.830  62.102  1.00  0.00     0.000 HD 
ENDROOT
BRANCH   3   5
HETATM    5  C   UNK A   1     -11.113  12.801  64.815  1.00  0.00    -0.333 C  
BRANCH   5   6
HETATM    6  C   UNK A   1     -11.927  13.197  66.053  1.00  0.00    -0.488 C  
BRANCH   6   7
HETATM    7  C   UNK A   1     -11.551  12.281  67.223  1.00  0.00    -0.427 C  
BRANCH   7   8
HETATM    8  C   UNK A   1     -11.172  12.987  68.536  1.00  0.00    -0.274 C  
BRANCH   8   9
HETATM    9  N   UNK A   1      -9.729  12.856  68.904  1.00  0.00    -0.409 NA 
HETATM   10  H   UNK A   1      -9.602  12.092  69.568  1.00  0.00     0.000 HD 
BRANCH   9  11
HETATM   11  C   UNK A   1      -8.797  12.694  67.744  1.00  0.00    -0.179 C  
HETATM   12  C   UNK A   1      -8.026  11.376  67.943  1.00  0.00    -0.120 C  
HETATM   13  O   UNK A   1      -7.543  10.707  67.042  1.00  0.00    -0.103 OA 
HETATM   14  O   UNK A   1      -7.929  11.035  69.253  1.00  0.00    -0.121 OA 
BRANCH  11  15
HETATM   15  C   UNK A   1      -7.789  13.860  67.637  1.00  0.00    -0.187 C  
BRANCH  15  16
HETATM   16  C   UNK A   1      -8.049  14.981  68.658  1.00  0.00    -0.153 C  
BRANCH  16  17
HETATM   17  C   UNK A   1      -8.508  16.268  68.012  1.00  0.00    -0.174 A  
HETATM   18  C   UNK A   1      -9.423  16.239  66.950  1.00  0.00    -0.245 A  
HETATM   19  C   UNK A   1      -9.375  18.650  66.799  1.00  0.00    -0.312 A  
HETATM   20  C   UNK A   1      -9.854  17.424  66.350  1.00  0.00    -0.311 A  
HETATM   21  C   UNK A   1      -8.477  18.695  67.864  1.00  0.00    -0.297 A  
HETATM   22  C   UNK A   1      -8.046  17.513  68.468  1.00  0.00    -0.275 A  
ENDBRANCH  16  17
ENDBRANCH  15  16
ENDBRANCH  11  15
ENDBRANCH   9  11
ENDBRANCH   8   9
BRANCH   8  23
HETATM   23  C   UNK A   1     -12.033  12.514  69.762  1.00  0.00    -0.289 C  
ATOM     24  OXT PRO A   2     -11.254  16.830  70.033  1.00  0.00    -0.158 OA 
HETATM   25  O   UNK A   1     -12.294  11.320  69.912  1.00  0.00    -0.284 OA 
ATOM     26  N   PRO A   2     -12.433  13.461  70.706  1.00  0.00    -0.358 N  
ATOM     27  CD  PRO A   2     -13.130  13.057  71.922  1.00  0.00    -0.384 C  
ATOM     28  O   PRO A   2     -10.418  15.145  71.286  1.00  0.00     0.104 OA 
ATOM     29  C   PRO A   2     -11.381  15.722  70.529  1.00  0.00    -0.380 C  
ATOM     30  CA  PRO A   2     -12.659  14.890  70.435  1.00  0.00    -0.343 C  
ATOM     31  CB  PRO A   2     -13.660  15.357  71.495  1.00  0.00    -0.604 C  
ATOM     32  CG  PRO A   2     -14.238  14.079  72.088  1.00  0.00    -0.628 C  
ENDBRANCH   8  23
ENDBRANCH   7   8
ENDBRANCH   6   7
ENDBRANCH   5   6
ENDBRANCH   3   5
TORSDOF 10
ENDMDL
MODEL       29
REMARK 921   NORMALIZED FREE ENERGY PREDICTED BY IDOCK:   -5.89 KCAL/MOL
REMARK 922        TOTAL FREE ENERGY PREDICTED BY IDOCK:  -11.29 KCAL/MOL
REMARK 923 INTER-LIGAND FREE ENERGY PREDICTED BY IDOCK:   -9.35 KCAL/MOL
REMARK 924 INTRA-LIGAND FREE ENERGY PREDICTED BY IDOCK:   -1.94 KCAL/MOL
REMARK 927      BINDING AFFINITY PREDICTED BY RF-SCORE:    0.00 PKD
ROOT
HETATM    1  N   UNK A   1     -12.333  13.862  63.217  1.00  0.00    -1.148 NA 
HETATM    2  H2  UNK A   1     -11.686  14.176  62.493  1.00  0.00     0.000 HD 
HETATM    3  C   UNK A   1     -12.296  12.417  63.399  1.00  0.00    -0.499 C  
HETATM    4  H1  UNK A   1     -13.291  14.158  63.030  1.00  0.00     0.000 HD 
ENDROOT
BRANCH   3   5
HETATM    5  C   UNK A   1     -10.864  11.974  63.677  1.00  0.00    -0.510 C  
BRANCH   5   6
HETATM    6  C   UNK A   1     -10.649  11.608  65.151  1.00  0.00    -0.343 C  
BRANCH   6   7
HETATM    7  C   UNK A   1     -11.651  12.378  66.017  1.00  0.00    -0.455 C  
BRANCH   7   8
HETATM    8  C   UNK A   1     -11.046  13.345  67.049  1.00  0.00    -0.292 C  
BRANCH   8   9
HETATM    9  N   UNK A   1     -11.829  13.450  68.318  1.00  0.00    -0.352 NA 
HETATM   10  H   UNK A   1     -12.776  13.775  68.124  1.00  0.00     0.000 HD 
BRANCH   9  11
HETATM   11  C   UNK A   1     -11.868  12.198  69.137  1.00  0.00    -0.305 C  
HETATM   12  C   UNK A   1     -12.293  12.585  70.566  1.00  0.00    -0.262 C  
HETATM   13  O   UNK A   1     -12.852  11.838  71.355  1.00  0.00    -0.404 OA 
HETATM   14  O   UNK A   1     -11.965  13.867  70.865  1.00  0.00    -0.318 OA 
BRANCH  11  15
HETATM   15  C   UNK A   1     -10.496  11.491  69.191  1.00  0.00    -0.135 C  
BRANCH  15  16
HETATM   16  C   UNK A   1     -10.598   9.960  69.084  1.00  0.00    -0.240 C  
BRANCH  16  17
HETATM   17  C   UNK A   1     -10.428   9.266  70.417  1.00  0.00    -0.296 A  
HETATM   18  C   UNK A   1     -11.527   8.665  71.046  1.00  0.00    -0.324 A  
HETATM   19  C   UNK A   1     -10.132   7.970  72.893  1.00  0.00    -0.376 A  
HETATM   20  C   UNK A   1     -11.378   8.019  72.275  1.00  0.00    -0.413 A  
HETATM   21  C   UNK A   1      -9.028   8.551  72.272  1.00  0.00    -0.299 A  
HETATM   22  C   UNK A   1      -9.173   9.194  71.042  1.00  0.00    -0.321 A  
ENDBRANCH  16  17
ENDBRANCH  15  16
ENDBRANCH  11  15
ENDBRANCH   9  11
ENDBRANCH   8   9
BRANCH   8  23
HETATM   23  C   UNK A   1     -10.835  14.796  66.485  1.00  0.00    -0.319 C  
ATOM     24  OXT PRO A   2      -7.574  13.751  69.238  1.00  0.00     0.029 OA 
HETATM   25  O   UNK A   1     -11.685  15.306  65.754  1.00  0.00    -0.117 OA 
ATOM     26  N   PRO A   2      -9.707  15.513  66.884  1.00  0.00    -0.228 N  
ATOM     27  CD  PRO A   2      -9.524  16.905  66.486  1.00  0.00    -0.276 C  
ATOM     28  O   PRO A   2      -9.269  15.220  69.521  1.00  0.00    -0.243 OA 
ATOM     29  C   PRO A   2      -8.377  14.539  68.764  1.00  0.00    -0.149 C  
ATOM     30  CA  PRO A   2      -8.420  14.921  67.285  1.00  0.00    -0.208 C  
ATOM     31  CB  PRO A   2      -7.365  15.993  66.995  1.00  0.00    -0.258 C  
ATOM     32  CG  PRO A   2      -8.062  17.005  66.096  1.00  0.00    -0.292 C  
ENDBRANCH   8  23
ENDBRANCH   7   8
ENDBRANCH   6   7
ENDBRANCH   5   6
ENDBRANCH   3   5
TORSDOF 10
ENDMDL
MODEL       30
REMARK 921   NORMALIZED FREE ENERGY PREDICTED BY IDOCK:   -5.84 KCAL/MOL
REMARK 922        TOTAL FREE ENERGY PREDICTED BY IDOCK:  -11.21 KCAL/MOL
REMARK 923 INTER-LIGAND FREE ENERGY PREDICTED BY IDOCK:   -9.94 KCAL/MOL
REMARK 924 INTRA-LIGAND FREE ENERGY PREDICTED BY IDOCK:   -1.27 KCAL/MOL
REMARK 927      BINDING AFFINITY PREDICTED BY RF-SCORE:    0.00 PKD
ROOT
HETATM    1  N   UNK A   1     -12.444  16.050  73.269  1.00  0.00    -0.485 NA 
HETATM    2  H2  UNK A   1     -12.013  16.629  72.548  1.00  0.00     0.000 HD 
HETATM    3  C   UNK A   1     -13.597  15.312  72.768  1.00  0.00    -0.511 C  
HETATM    4  H1  UNK A   1     -12.717  16.594  74.088  1.00  0.00     0.000 HD 
ENDROOT
BRANCH   3   5
HETATM    5  C   UNK A   1     -13.189  14.499  71.544  1.00  0.00    -0.431 C  
BRANCH   5   6
HETATM    6  C   UNK A   1     -12.906  15.389  70.328  1.00  0.00    -0.277 C  
BRANCH   6   7
HETATM    7  C   UNK A   1     -12.218  14.560  69.240  1.00  0.00    -0.264 C  
BRANCH   7   8
HETATM    8  C   UNK A   1     -11.361  15.348  68.234  1.00  0.00    -0.348 C  
BRANCH   8   9
HETATM    9  N   UNK A   1     -10.420  14.500  67.439  1.00  0.00    -0.263 NA 
HETATM   10  H   UNK A   1      -9.710  15.082  66.995  1.00  0.00     0.000 HD 
BRANCH   9  11
HETATM   11  C   UNK A   1      -9.774  13.390  68.207  1.00  0.00    -0.226 C  
HETATM   12  C   UNK A   1      -8.249  13.520  68.027  1.00  0.00    -0.163 C  
HETATM   13  O   UNK A   1      -7.415  13.109  68.819  1.00  0.00    -0.108 OA 
HETATM   14  O   UNK A   1      -7.926  14.143  66.866  1.00  0.00    -0.053 OA 
BRANCH  11  15
HETATM   15  C   UNK A   1     -10.225  11.998  67.713  1.00  0.00    -0.211 C  
BRANCH  15  16
HETATM   16  C   UNK A   1      -9.690  10.844  68.578  1.00  0.00    -0.183 C  
BRANCH  16  17
HETATM   17  C   UNK A   1     -10.645  10.444  69.679  1.00  0.00    -0.289 A  
HETATM   18  C   UNK A   1     -10.246   9.529  70.663  1.00  0.00    -0.364 A  
HETATM   19  C   UNK A   1     -12.405   9.690  71.735  1.00  0.00    -0.474 A  
HETATM   20  C   UNK A   1     -11.122   9.156  71.685  1.00  0.00    -0.445 A  
HETATM   21  C   UNK A   1     -12.810  10.612  70.772  1.00  0.00    -0.439 A  
HETATM   22  C   UNK A   1     -11.937  10.988  69.751  1.00  0.00    -0.428 A  
ENDBRANCH  16  17
ENDBRANCH  15  16
ENDBRANCH  11  15
ENDBRANCH   9  11
ENDBRANCH   8   9
BRANCH   8  23
HETATM   23  C   UNK A   1     -10.531  16.503  68.901  1.00  0.00    -0.304 C  
ATOM     24  OXT PRO A   2     -11.154  17.354  64.637  1.00  0.00    -1.029 OA 
HETATM   25  O   UNK A   1     -10.183  16.414  70.080  1.00  0.00    -0.127 OA 
ATOM     26  N   PRO A   2     -10.141  17.589  68.117  1.00  0.00    -0.321 N  
ATOM     27  CD  PRO A   2      -9.270  18.628  68.656  1.00  0.00    -0.329 C  
ATOM     28  O   PRO A   2      -9.256  16.766  65.714  1.00  0.00    -0.520 OA 
ATOM     29  C   PRO A   2     -10.473  17.355  65.650  1.00  0.00    -0.165 C  
ATOM     30  CA  PRO A   2     -10.863  18.086  66.934  1.00  0.00    -0.072 C  
ATOM     31  CB  PRO A   2     -10.493  19.568  66.818  1.00  0.00    -0.590 C  
ATOM     32  CG  PRO A   2      -9.872  19.929  68.161  1.00  0.00    -0.524 C  
ENDBRANCH   8  23
ENDBRANCH   7   8
ENDBRANCH   6   7
ENDBRANCH   5   6
ENDBRANCH   3   5
TORSDOF 10
ENDMDL
MODEL       31
REMARK 921   NORMALIZED FREE ENERGY PREDICTED BY IDOCK:   -5.84 KCAL/MOL
REMARK 922        TOTAL FREE ENERGY PREDICTED BY IDOCK:  -11.21 KCAL/MOL
REMARK 923 INTER-LIGAND FREE ENERGY PREDICTED BY IDOCK:   -8.51 KCAL/MOL
REMARK 924 INTRA-LIGAND FREE ENERGY PREDICTED BY IDOCK:   -2.70 KCAL/MOL
REMARK 927      BINDING AFFINITY PREDICTED BY RF-SCORE:    0.00 PKD
ROOT
HETATM    1  N   UNK A   1      -8.648  19.905  66.003  1.00  0.00    -0.464 NA 
HETATM    2  H2  UNK A   1      -8.462  19.690  65.023  1.00  0.00     0.000 HD 
HETATM    3  C   UNK A   1     -10.060  20.165  66.253  1.00  0.00    -0.431 C  
HETATM    4  H1  UNK A   1      -8.092  20.693  66.337  1.00  0.00     0.000 HD 
ENDROOT
BRANCH   3   5
HETATM    5  C   UNK A   1     -10.890  18.987  65.754  1.00  0.00    -0.247 C  
BRANCH   5   6
HETATM    6  C   UNK A   1     -10.228  17.640  66.070  1.00  0.00    -0.301 C  
BRANCH   6   7
HETATM    7  C   UNK A   1     -10.807  17.082  67.373  1.00  0.00    -0.165 C  
BRANCH   7   8
HETATM    8  C   UNK A   1      -9.782  16.691  68.452  1.00  0.00    -0.243 C  
BRANCH   8   9
HETATM    9  N   UNK A   1     -10.392  16.311  69.763  1.00  0.00    -0.251 NA 
HETATM   10  H   UNK A   1     -10.577  17.143  70.322  1.00  0.00     0.000 HD 
BRANCH   9  11
HETATM   11  C   UNK A   1     -11.628  15.472  69.661  1.00  0.00    -0.348 C  
HETATM   12  C   UNK A   1     -12.477  15.733  70.919  1.00  0.00    -0.402 C  
HETATM   13  O   UNK A   1     -13.690  15.600  70.982  1.00  0.00    -0.582 OA 
HETATM   14  O   UNK A   1     -11.719  16.125  71.973  1.00  0.00    -0.477 OA 
BRANCH  11  15
HETATM   15  C   UNK A   1     -11.304  13.964  69.572  1.00  0.00    -0.293 C  
BRANCH  15  16
HETATM   16  C   UNK A   1     -12.130  13.229  68.503  1.00  0.00    -0.256 C  
BRANCH  16  17
HETATM   17  C   UNK A   1     -11.703  13.571  67.093  1.00  0.00    -0.419 A  
HETATM   18  C   UNK A   1     -10.346  13.555  66.743  1.00  0.00    -0.264 A  
HETATM   19  C   UNK A   1     -10.888  14.200  64.479  1.00  0.00    -0.336 A  
HETATM   20  C   UNK A   1      -9.942  13.866  65.443  1.00  0.00    -0.274 A  
HETATM   21  C   UNK A   1     -12.242  14.204  64.808  1.00  0.00    -0.457 A  
HETATM   22  C   UNK A   1     -12.648  13.891  66.106  1.00  0.00    -0.426 A  
ENDBRANCH  16  17
ENDBRANCH  15  16
ENDBRANCH  11  15
ENDBRANCH   9  11
ENDBRANCH   8   9
BRANCH   8  23
HETATM   23  C   UNK A   1      -8.711  17.809  68.720  1.00  0.00    -0.198 C  
ATOM     24  OXT PRO A   2      -6.753  14.141  67.301  1.00  0.00    -0.250 OA 
HETATM   25  O   UNK A   1      -9.052  18.892  69.198  1.00  0.00    -0.201 OA 
ATOM     26  N   PRO A   2      -7.368  17.524  68.470  1.00  0.00    -0.233 N  
ATOM     27  CD  PRO A   2      -6.323  18.483  68.814  1.00  0.00    -0.223 C  
ATOM     28  O   PRO A   2      -6.728  15.069  69.362  1.00  0.00    -0.132 OA 
ATOM     29  C   PRO A   2      -6.805  15.132  68.012  1.00  0.00    -0.141 C  
ATOM     30  CA  PRO A   2      -6.874  16.560  67.473  1.00  0.00    -0.148 C  
ATOM     31  CB  PRO A   2      -5.469  17.040  67.097  1.00  0.00    -0.189 C  
ATOM     32  CG  PRO A   2      -5.381  18.466  67.626  1.00  0.00    -0.154 C  
ENDBRANCH   8  23
ENDBRANCH   7   8
ENDBRANCH   6   7
ENDBRANCH   5   6
ENDBRANCH   3   5
TORSDOF 10
ENDMDL
MODEL       32
REMARK 921   NORMALIZED FREE ENERGY PREDICTED BY IDOCK:   -5.82 KCAL/MOL
REMARK 922        TOTAL FREE ENERGY PREDICTED BY IDOCK:  -11.17 KCAL/MOL
REMARK 923 INTER-LIGAND FREE ENERGY PREDICTED BY IDOCK:   -8.59 KCAL/MOL
REMARK 924 INTRA-LIGAND FREE ENERGY PREDICTED BY IDOCK:   -2.58 KCAL/MOL
REMARK 927      BINDING AFFINITY PREDICTED BY RF-SCORE:    0.00 PKD
ROOT
HETATM    1  N   UNK A   1     -11.317   4.468  65.082  1.00  0.00    -1.113 NA 
HETATM    2  H2  UNK A   1     -11.798   5.214  64.580  1.00  0.00     0.000 HD 
HETATM    3  C   UNK A   1     -10.336   4.985  66.028  1.00  0.00    -0.237 C  
HETATM    4  H1  UNK A   1     -10.865   3.807  64.450  1.00  0.00     0.000 HD 
ENDROOT
BRANCH   3   5
HETATM    5  C   UNK A   1     -11.011   5.972  66.974  1.00  0.00    -0.364 C  
BRANCH   5   6
HETATM    6  C   UNK A   1     -10.219   7.280  67.103  1.00  0.00    -0.339 C  
BRANCH   6   7
HETATM    7  C   UNK A   1     -11.007   8.268  67.968  1.00  0.00     0.127 C  
BRANCH   7   8
HETATM    8  C   UNK A   1     -10.379   9.661  68.142  1.00  0.00    -0.209 C  
BRANCH   8   9
HETATM    9  N   UNK A   1     -10.378  10.158  69.552  1.00  0.00    -0.225 NA 
HETATM   10  H   UNK A   1     -10.657  11.139  69.580  1.00  0.00     0.000 HD 
BRANCH   9  11
HETATM   11  C   UNK A   1     -11.211   9.355  70.501  1.00  0.00    -0.275 C  
HETATM   12  C   UNK A   1     -12.396  10.235  70.944  1.00  0.00    -0.373 C  
HETATM   13  O   UNK A   1     -13.476   9.809  71.326  1.00  0.00    -0.376 OA 
HETATM   14  O   UNK A   1     -12.104  11.557  70.872  1.00  0.00    -0.349 OA 
BRANCH  11  15
HETATM   15  C   UNK A   1     -10.414   8.914  71.749  1.00  0.00    -0.431 C  
BRANCH  15  16
HETATM   16  C   UNK A   1     -10.620   7.433  72.107  1.00  0.00    -0.256 C  
BRANCH  16  17
HETATM   17  C   UNK A   1      -9.877   6.497  71.180  1.00  0.00    -0.198 A  
HETATM   18  C   UNK A   1     -10.441   5.266  70.819  1.00  0.00    -0.298 A  
HETATM   19  C   UNK A   1      -8.514   4.745  69.457  1.00  0.00    -0.092 A  
HETATM   20  C   UNK A   1      -9.763   4.397  69.961  1.00  0.00    -0.286 A  
HETATM   21  C   UNK A   1      -7.948   5.973  69.796  1.00  0.00    -0.106 A  
HETATM   22  C   UNK A   1      -8.624   6.844  70.650  1.00  0.00    -0.141 A  
ENDBRANCH  16  17
ENDBRANCH  15  16
ENDBRANCH  11  15
ENDBRANCH   9  11
ENDBRANCH   8   9
BRANCH   8  23
HETATM   23  C   UNK A   1     -11.049  10.758  67.238  1.00  0.00    -0.270 C  
ATOM     24  OXT PRO A   2      -7.428   9.200  65.297  1.00  0.00    -0.094 OA 
HETATM   25  O   UNK A   1     -12.036  11.374  67.642  1.00  0.00    -0.630 OA 
ATOM     26  N   PRO A   2     -10.464  11.063  66.009  1.00  0.00    -0.256 N  
ATOM     27  CD  PRO A   2     -10.976  12.155  65.187  1.00  0.00    -0.310 C  
ATOM     28  O   PRO A   2      -7.789  11.225  66.235  1.00  0.00    -0.147 OA 
ATOM     29  C   PRO A   2      -8.193  10.106  65.589  1.00  0.00    -0.150 C  
ATOM     30  CA  PRO A   2      -9.668  10.133  65.191  1.00  0.00    -0.304 C  
ATOM     31  CB  PRO A   2      -9.806  10.631  63.749  1.00  0.00    -0.394 C  
ATOM     32  CG  PRO A   2     -10.978  11.603  63.774  1.00  0.00    -0.495 C  
ENDBRANCH   8  23
ENDBRANCH   7   8
ENDBRANCH   6   7
ENDBRANCH   5   6
ENDBRANCH   3   5
TORSDOF 10
ENDMDL
MODEL       33
REMARK 921   NORMALIZED FREE ENERGY PREDICTED BY IDOCK:   -5.80 KCAL/MOL
REMARK 922        TOTAL FREE ENERGY PREDICTED BY IDOCK:  -11.15 KCAL/MOL
REMARK 923 INTER-LIGAND FREE ENERGY PREDICTED BY IDOCK:   -9.26 KCAL/MOL
REMARK 924 INTRA-LIGAND FREE ENERGY PREDICTED BY IDOCK:   -1.89 KCAL/MOL
REMARK 927      BINDING AFFINITY PREDICTED BY RF-SCORE:    0.00 PKD
ROOT
HETATM    1  N   UNK A   1     -14.102   9.112  73.078  1.00  0.00    -1.124 NA 
HETATM    2  H2  UNK A   1     -14.642   9.934  73.347  1.00  0.00     0.000 HD 
HETATM    3  C   UNK A   1     -13.583   9.212  71.720  1.00  0.00    -0.415 C  
HETATM    4  H1  UNK A   1     -14.638   8.250  73.176  1.00  0.00     0.000 HD 
ENDROOT
BRANCH   3   5
HETATM    5  C   UNK A   1     -12.781  10.501  71.575  1.00  0.00    -0.558 C  
BRANCH   5   6
HETATM    6  C   UNK A   1     -12.747  11.000  70.125  1.00  0.00    -0.200 C  
BRANCH   6   7
HETATM    7  C   UNK A   1     -11.528  10.407  69.412  1.00  0.00    -0.292 C  
BRANCH   7   8
HETATM    8  C   UNK A   1     -11.235  10.961  68.007  1.00  0.00    -0.314 C  
BRANCH   8   9
HETATM    9  N   UNK A   1     -10.511  10.005  67.114  1.00  0.00    -0.241 NA 
HETATM   10  H   UNK A   1      -9.754  10.483  66.625  1.00  0.00     0.000 HD 
BRANCH   9  11
HETATM   11  C   UNK A   1      -9.994   8.777  67.795  1.00  0.00    -0.194 C  
HETATM   12  C   UNK A   1      -8.502   9.006  68.105  1.00  0.00    -0.129 C  
HETATM   13  O   UNK A   1      -7.886   8.461  69.008  1.00  0.00    -0.098 OA 
HETATM   14  O   UNK A   1      -7.933   9.887  67.246  1.00  0.00    -0.108 OA 
BRANCH  11  15
HETATM   15  C   UNK A   1     -10.141   7.515  66.916  1.00  0.00    -0.336 C  
BRANCH  15  16
HETATM   16  C   UNK A   1     -11.155   6.502  67.475  1.00  0.00    -0.396 C  
BRANCH  16  17
HETATM   17  C   UNK A   1     -10.837   6.073  68.889  1.00  0.00    -0.400 A  
HETATM   18  C   UNK A   1     -11.590   6.564  69.964  1.00  0.00    -0.455 A  
HETATM   19  C   UNK A   1     -10.263   5.284  71.524  1.00  0.00    -0.276 A  
HETATM   20  C   UNK A   1     -11.305   6.170  71.273  1.00  0.00    -0.335 A  
HETATM   21  C   UNK A   1      -9.515   4.775  70.464  1.00  0.00    -0.240 A  
HETATM   22  C   UNK A   1      -9.800   5.165  69.155  1.00  0.00    -0.257 A  
ENDBRANCH  16  17
ENDBRANCH  15  16
ENDBRANCH  11  15
ENDBRANCH   9  11
ENDBRANCH   8   9
BRANCH   8  23
HETATM   23  C   UNK A   1     -10.431  12.310  68.031  1.00  0.00    -0.218 C  
ATOM     24  OXT PRO A   2     -13.086  12.191  64.533  1.00  0.00    -0.720 OA 
HETATM   25  O   UNK A   1      -9.572  12.504  68.893  1.00  0.00     0.026 OA 
ATOM     26  N   PRO A   2     -10.660  13.246  67.022  1.00  0.00    -0.259 N  
ATOM     27  CD  PRO A   2      -9.856  14.460  66.929  1.00  0.00    -0.261 C  
ATOM     28  O   PRO A   2     -10.832  12.043  64.622  1.00  0.00    -0.285 OA 
ATOM     29  C   PRO A   2     -12.032  12.474  65.080  1.00  0.00    -0.427 C  
ATOM     30  CA  PRO A   2     -11.923  13.409  66.283  1.00  0.00    -0.411 C  
ATOM     31  CB  PRO A   2     -11.939  14.865  65.810  1.00  0.00    -0.052 C  
ATOM     32  CG  PRO A   2     -10.854  15.560  66.623  1.00  0.00    -0.285 C  
ENDBRANCH   8  23
ENDBRANCH   7   8
ENDBRANCH   6   7
ENDBRANCH   5   6
ENDBRANCH   3   5
TORSDOF 10
ENDMDL
MODEL       34
REMARK 921   NORMALIZED FREE ENERGY PREDICTED BY IDOCK:   -5.78 KCAL/MOL
REMARK 922        TOTAL FREE ENERGY PREDICTED BY IDOCK:  -11.12 KCAL/MOL
REMARK 923 INTER-LIGAND FREE ENERGY PREDICTED BY IDOCK:   -9.61 KCAL/MOL
REMARK 924 INTRA-LIGAND FREE ENERGY PREDICTED BY IDOCK:   -1.51 KCAL/MOL
REMARK 927      BINDING AFFINITY PREDICTED BY RF-SCORE:    0.00 PKD
ROOT
HETATM    1  N   UNK A   1     -11.841  15.909  63.831  1.00  0.00    -1.258 NA 
HETATM    2  H2  UNK A   1     -12.096  16.060  62.854  1.00  0.00     0.000 HD 
HETATM    3  C   UNK A   1     -12.392  14.668  64.359  1.00  0.00    -0.398 C  
HETATM    4  H1  UNK A   1     -12.123  16.688  64.427  1.00  0.00     0.000 HD 
ENDROOT
BRANCH   3   5
HETATM    5  C   UNK A   1     -11.971  13.504  63.469  1.00  0.00    -0.388 C  
BRANCH   5   6
HETATM    6  C   UNK A   1     -11.479  12.302  64.284  1.00  0.00    -0.429 C  
BRANCH   6   7
HETATM    7  C   UNK A   1     -12.060  12.376  65.700  1.00  0.00    -0.396 C  
BRANCH   7   8
HETATM    8  C   UNK A   1     -11.100  12.001  66.842  1.00  0.00    -0.302 C  
BRANCH   8   9
HETATM    9  N   UNK A   1     -10.583  10.601  66.769  1.00  0.00    -0.250 NA 
HETATM   10  H   UNK A   1     -10.715  10.224  65.831  1.00  0.00     0.000 HD 
BRANCH   9  11
HETATM   11  C   UNK A   1      -9.159  10.433  67.199  1.00  0.00    -0.139 C  
HETATM   12  C   UNK A   1      -8.337  10.044  65.956  1.00  0.00    -0.125 C  
HETATM   13  O   UNK A   1      -7.143  10.260  65.815  1.00  0.00    -0.120 OA 
HETATM   14  O   UNK A   1      -9.093   9.417  65.022  1.00  0.00    -0.215 OA 
BRANCH  11  15
HETATM   15  C   UNK A   1      -8.999   9.338  68.276  1.00  0.00    -0.129 C  
BRANCH  15  16
HETATM   16  C   UNK A   1      -9.355   9.822  69.692  1.00  0.00    -0.237 C  
BRANCH  16  17
HETATM   17  C   UNK A   1     -10.289   8.880  70.417  1.00  0.00    -0.240 A  
HETATM   18  C   UNK A   1     -10.573   7.616  69.883  1.00  0.00    -0.237 A  
HETATM   19  C   UNK A   1     -12.019   7.113  71.752  1.00  0.00    -0.348 A  
HETATM   20  C   UNK A   1     -11.431   6.738  70.548  1.00  0.00    -0.413 A  
HETATM   21  C   UNK A   1     -11.734   8.361  72.303  1.00  0.00    -0.453 A  
HETATM   22  C   UNK A   1     -10.874   9.239  71.642  1.00  0.00    -0.418 A  
ENDBRANCH  16  17
ENDBRANCH  15  16
ENDBRANCH  11  15
ENDBRANCH   9  11
ENDBRANCH   8   9
BRANCH   8  23
HETATM   23  C   UNK A   1     -11.723  12.218  68.268  1.00  0.00    -0.336 C  
ATOM     24  OXT PRO A   2      -9.362  15.733  67.097  1.00  0.00    -0.207 OA 
HETATM   25  O   UNK A   1     -12.358  11.312  68.810  1.00  0.00    -0.518 OA 
ATOM     26  N   PRO A   2     -11.484  13.423  68.929  1.00  0.00    -0.282 N  
ATOM     27  CD  PRO A   2     -11.937  13.628  70.300  1.00  0.00    -0.327 C  
ATOM     28  O   PRO A   2      -8.913  14.166  68.663  1.00  0.00    -0.187 OA 
ATOM     29  C   PRO A   2      -9.755  14.921  67.919  1.00  0.00    -0.206 C  
ATOM     30  CA  PRO A   2     -11.228  14.716  68.274  1.00  0.00    -0.285 C  
ATOM     31  CB  PRO A   2     -11.671  15.783  69.280  1.00  0.00    -0.384 C  
ATOM     32  CG  PRO A   2     -12.505  15.034  70.311  1.00  0.00    -0.385 C  
ENDBRANCH   8  23
ENDBRANCH   7   8
ENDBRANCH   6   7
ENDBRANCH   5   6
ENDBRANCH   3   5
TORSDOF 10
ENDMDL
MODEL       35
REMARK 921   NORMALIZED FREE ENERGY PREDICTED BY IDOCK:   -5.72 KCAL/MOL
REMARK 922        TOTAL FREE ENERGY PREDICTED BY IDOCK:  -11.02 KCAL/MOL
REMARK 923 INTER-LIGAND FREE ENERGY PREDICTED BY IDOCK:   -8.31 KCAL/MOL
REMARK 924 INTRA-LIGAND FREE ENERGY PREDICTED BY IDOCK:   -2.72 KCAL/MOL
REMARK 927      BINDING AFFINITY PREDICTED BY RF-SCORE:    0.00 PKD
ROOT
HETATM    1  N   UNK A   1      -9.964  10.031  62.567  1.00  0.00    -0.627 NA 
HETATM    2  H2  UNK A   1     -10.907   9.888  62.204  1.00  0.00     0.000 HD 
HETATM    3  C   UNK A   1      -9.690  11.433  62.852  1.00  0.00    -0.317 C  
HETATM    4  H1  UNK A   1      -9.250   9.665  61.936  1.00  0.00     0.000 HD 
ENDROOT
BRANCH   3   5
HETATM    5  C   UNK A   1     -10.757  11.979  63.795  1.00  0.00    -0.478 C  
BRANCH   5   6
HETATM    6  C   UNK A   1     -10.421  13.391  64.290  1.00  0.00    -0.325 C  
BRANCH   6   7
HETATM    7  C   UNK A   1     -11.347  13.754  65.456  1.00  0.00    -0.313 C  
BRANCH   7   8
HETATM    8  C   UNK A   1     -10.734  14.644  66.550  1.00  0.00    -0.312 C  
BRANCH   8   9
HETATM    9  N   UNK A   1     -11.668  14.960  67.674  1.00  0.00    -0.384 NA 
HETATM   10  H   UNK A   1     -12.530  15.369  67.312  1.00  0.00     0.000 HD 
BRANCH   9  11
HETATM   11  C   UNK A   1     -11.980  13.806  68.575  1.00  0.00    -0.367 C  
HETATM   12  C   UNK A   1     -12.426  14.380  69.933  1.00  0.00    -0.261 C  
HETATM   13  O   UNK A   1     -13.158  13.806  70.726  1.00  0.00    -0.224 OA 
HETATM   14  O   UNK A   1     -11.901  15.609  70.164  1.00  0.00    -0.320 OA 
BRANCH  11  15
HETATM   15  C   UNK A   1     -10.758  12.886  68.790  1.00  0.00    -0.249 C  
BRANCH  15  16
HETATM   16  C   UNK A   1     -11.046  11.410  68.465  1.00  0.00    -0.287 C  
BRANCH  16  17
HETATM   17  C   UNK A   1     -10.045  10.816  67.500  1.00  0.00    -0.218 A  
HETATM   18  C   UNK A   1      -8.839  11.479  67.235  1.00  0.00    -0.160 A  
HETATM   19  C   UNK A   1      -8.171   9.726  65.713  1.00  0.00    -0.122 A  
HETATM   20  C   UNK A   1      -7.908  10.935  66.348  1.00  0.00    -0.154 A  
HETATM   21  C   UNK A   1      -9.359   9.048  65.978  1.00  0.00    -0.305 A  
HETATM   22  C   UNK A   1     -10.290   9.588  66.866  1.00  0.00    -0.307 A  
ENDBRANCH  16  17
ENDBRANCH  15  16
ENDBRANCH  11  15
ENDBRANCH   9  11
ENDBRANCH   8   9
BRANCH   8  23
HETATM   23  C   UNK A   1     -10.163  15.999  65.996  1.00  0.00    -0.341 C  
ATOM     24  OXT PRO A   2      -7.570  14.454  69.190  1.00  0.00    -0.126 OA 
HETATM   25  O   UNK A   1     -10.789  16.634  65.146  1.00  0.00    -0.565 OA 
ATOM     26  N   PRO A   2      -8.975  16.496  66.534  1.00  0.00    -0.254 N  
ATOM     27  CD  PRO A   2      -8.465  17.806  66.141  1.00  0.00    -0.123 C  
ATOM     28  O   PRO A   2      -8.956  16.240  69.212  1.00  0.00    -0.244 OA 
ATOM     29  C   PRO A   2      -8.128  15.364  68.596  1.00  0.00    -0.156 C  
ATOM     30  CA  PRO A   2      -7.898  15.680  67.119  1.00  0.00    -0.217 C  
ATOM     31  CB  PRO A   2      -6.620  16.509  66.959  1.00  0.00    -0.234 C  
ATOM     32  CG  PRO A   2      -6.975  17.598  65.955  1.00  0.00    -0.318 C  
ENDBRANCH   8  23
ENDBRANCH   7   8
ENDBRANCH   6   7
ENDBRANCH   5   6
ENDBRANCH   3   5
TORSDOF 10
ENDMDL
MODEL       36
REMARK 921   NORMALIZED FREE ENERGY PREDICTED BY IDOCK:   -5.70 KCAL/MOL
REMARK 922        TOTAL FREE ENERGY PREDICTED BY IDOCK:  -10.99 KCAL/MOL
REMARK 923 INTER-LIGAND FREE ENERGY PREDICTED BY IDOCK:   -9.21 KCAL/MOL
REMARK 924 INTRA-LIGAND FREE ENERGY PREDICTED BY IDOCK:   -1.78 KCAL/MOL
REMARK 927      BINDING AFFINITY PREDICTED BY RF-SCORE:    0.00 PKD
ROOT
HETATM    1  N   UNK A   1     -12.925  13.494  64.986  1.00  0.00    -0.735 NA 
HETATM    2  H2  UNK A   1     -12.297  13.244  65.751  1.00  0.00     0.000 HD 
HETATM    3  C   UNK A   1     -12.280  13.381  63.684  1.00  0.00    -0.414 C  
HETATM    4  H1  UNK A   1     -13.310  14.432  65.096  1.00  0.00     0.000 HD 
ENDROOT
BRANCH   3   5
HETATM    5  C   UNK A   1     -11.704  11.979  63.521  1.00  0.00    -0.566 C  
BRANCH   5   6
HETATM    6  C   UNK A   1     -10.321  11.844  64.169  1.00  0.00    -0.377 C  
BRANCH   6   7
HETATM    7  C   UNK A   1     -10.273  10.561  65.005  1.00  0.00    -0.365 C  
BRANCH   7   8
HETATM    8  C   UNK A   1     -10.036  10.748  66.513  1.00  0.00    -0.228 C  
BRANCH   8   9
HETATM    9  N   UNK A   1     -10.380   9.549  67.338  1.00  0.00    -0.241 NA 
HETATM   10  H   UNK A   1     -11.082   8.983  66.862  1.00  0.00     0.000 HD 
BRANCH   9  11
HETATM   11  C   UNK A   1      -9.211   8.702  67.733  1.00  0.00    -0.134 C  
HETATM   12  C   UNK A   1      -9.382   7.326  67.063  1.00  0.00    -0.148 C  
HETATM   13  O   UNK A   1      -8.466   6.567  66.784  1.00  0.00    -0.110 OA 
HETATM   14  O   UNK A   1     -10.684   7.036  66.819  1.00  0.00    -0.303 OA 
BRANCH  11  15
HETATM   15  C   UNK A   1      -9.117   8.513  69.263  1.00  0.00    -0.153 C  
BRANCH  15  16
HETATM   16  C   UNK A   1      -9.488   9.779  70.054  1.00  0.00    -0.278 C  
BRANCH  16  17
HETATM   17  C   UNK A   1     -10.783   9.634  70.820  1.00  0.00    -0.401 A  
HETATM   18  C   UNK A   1     -10.973   8.551  71.690  1.00  0.00    -0.362 A  
HETATM   19  C   UNK A   1     -13.182   9.349  72.255  1.00  0.00    -0.528 A  
HETATM   20  C   UNK A   1     -12.165   8.412  72.403  1.00  0.00    -0.430 A  
HETATM   21  C   UNK A   1     -13.002  10.438  71.405  1.00  0.00    -0.545 A  
HETATM   22  C   UNK A   1     -11.811  10.582  70.693  1.00  0.00    -0.458 A  
ENDBRANCH  16  17
ENDBRANCH  15  16
ENDBRANCH  11  15
ENDBRANCH   9  11
ENDBRANCH   8   9
BRANCH   8  23
HETATM   23  C   UNK A   1     -10.799  11.985  67.109  1.00  0.00    -0.253 C  
ATOM     24  OXT PRO A   2      -6.483  12.792  66.965  1.00  0.00    -0.180 OA 
HETATM   25  O   UNK A   1     -12.014  11.928  67.306  1.00  0.00    -0.605 OA 
ATOM     26  N   PRO A   2     -10.065  13.114  67.473  1.00  0.00    -0.220 N  
ATOM     27  CD  PRO A   2     -10.707  14.242  68.141  1.00  0.00    -0.244 C  
ATOM     28  O   PRO A   2      -7.808  12.416  68.758  1.00  0.00    -0.085 OA 
ATOM     29  C   PRO A   2      -7.578  12.863  67.500  1.00  0.00    -0.164 C  
ATOM     30  CA  PRO A   2      -8.793  13.535  66.863  1.00  0.00    -0.182 C  
ATOM     31  CB  PRO A   2      -8.716  15.050  67.073  1.00  0.00    -0.262 C  
ATOM     32  CG  PRO A   2     -10.127  15.470  67.465  1.00  0.00    -0.241 C  
ENDBRANCH   8  23
ENDBRANCH   7   8
ENDBRANCH   6   7
ENDBRANCH   5   6
ENDBRANCH   3   5
TORSDOF 10
ENDMDL
MODEL       37
REMARK 921   NORMALIZED FREE ENERGY PREDICTED BY IDOCK:   -5.68 KCAL/MOL
REMARK 922        TOTAL FREE ENERGY PREDICTED BY IDOCK:  -10.96 KCAL/MOL
REMARK 923 INTER-LIGAND FREE ENERGY PREDICTED BY IDOCK:   -9.04 KCAL/MOL
REMARK 924 INTRA-LIGAND FREE ENERGY PREDICTED BY IDOCK:   -1.93 KCAL/MOL
REMARK 927      BINDING AFFINITY PREDICTED BY RF-SCORE:    0.00 PKD
ROOT
HETATM    1  N   UNK A   1     -14.396   8.816  73.145  1.00  0.00    -1.126 NA 
HETATM    2  H2  UNK A   1     -15.247   9.173  72.711  1.00  0.00     0.000 HD 
HETATM    3  C   UNK A   1     -13.235   8.949  72.274  1.00  0.00    -0.447 C  
HETATM    4  H1  UNK A   1     -14.493   7.844  73.439  1.00  0.00     0.000 HD 
ENDROOT
BRANCH   3   5
HETATM    5  C   UNK A   1     -13.092  10.402  71.835  1.00  0.00    -0.563 C  
BRANCH   5   6
HETATM    6  C   UNK A   1     -12.720  10.522  70.352  1.00  0.00    -0.325 C  
BRANCH   6   7
HETATM    7  C   UNK A   1     -11.809  11.737  70.152  1.00  0.00    -0.408 C  
BRANCH   7   8
HETATM    8  C   UNK A   1     -11.166  11.876  68.761  1.00  0.00    -0.259 C  
BRANCH   8   9
HETATM    9  N   UNK A   1      -9.688  11.653  68.748  1.00  0.00    -0.369 NA 
HETATM   10  H   UNK A   1      -9.212  12.410  69.238  1.00  0.00     0.000 HD 
BRANCH   9  11
HETATM   11  C   UNK A   1      -9.247  10.328  69.287  1.00  0.00    -0.202 C  
HETATM   12  C   UNK A   1      -7.803  10.488  69.800  1.00  0.00    -0.034 C  
HETATM   13  O   UNK A   1      -7.294   9.803  70.674  1.00  0.00    -0.231 OA 
HETATM   14  O   UNK A   1      -7.143  11.484  69.159  1.00  0.00    -0.112 OA 
BRANCH  11  15
HETATM   15  C   UNK A   1      -9.283   9.219  68.213  1.00  0.00    -0.134 C  
BRANCH  15  16
HETATM   16  C   UNK A   1     -10.480   8.265  68.367  1.00  0.00    -0.206 C  
BRANCH  16  17
HETATM   17  C   UNK A   1     -10.282   7.248  69.468  1.00  0.00    -0.200 A  
HETATM   18  C   UNK A   1     -11.377   6.790  70.213  1.00  0.00    -0.404 A  
HETATM   19  C   UNK A   1      -9.935   5.356  71.517  1.00  0.00    -0.237 A  
HETATM   20  C   UNK A   1     -11.203   5.849  71.230  1.00  0.00    -0.280 A  
HETATM   21  C   UNK A   1      -8.839   5.791  70.774  1.00  0.00    -0.142 A  
HETATM   22  C   UNK A   1      -9.009   6.729  69.756  1.00  0.00    -0.144 A  
ENDBRANCH  16  17
ENDBRANCH  15  16
ENDBRANCH  11  15
ENDBRANCH   9  11
ENDBRANCH   8   9
BRANCH   8  23
HETATM   23  C   UNK A   1     -11.457  13.262  68.083  1.00  0.00    -0.312 C  
ATOM     24  OXT PRO A   2     -10.424  10.271  65.035  1.00  0.00    -0.221 OA 
HETATM   25  O   UNK A   1     -11.690  14.254  68.775  1.00  0.00    -0.303 OA 
ATOM     26  N   PRO A   2     -11.378  13.359  66.693  1.00  0.00    -0.313 N  
ATOM     27  CD  PRO A   2     -11.520  14.647  66.023  1.00  0.00    -0.332 C  
ATOM     28  O   PRO A   2      -9.224  12.043  65.763  1.00  0.00    -0.178 OA 
ATOM     29  C   PRO A   2     -10.386  11.401  65.497  1.00  0.00    -0.266 C  
ATOM     30  CA  PRO A   2     -11.626  12.258  65.748  1.00  0.00    -0.388 C  
ATOM     31  CB  PRO A   2     -12.066  12.926  64.443  1.00  0.00    -0.474 C  
ATOM     32  CG  PRO A   2     -12.405  14.361  64.825  1.00  0.00    -0.427 C  
ENDBRANCH   8  23
ENDBRANCH   7   8
ENDBRANCH   6   7
ENDBRANCH   5   6
ENDBRANCH   3   5
TORSDOF 10
ENDMDL
MODEL       38
REMARK 921   NORMALIZED FREE ENERGY PREDICTED BY IDOCK:   -5.65 KCAL/MOL
REMARK 922        TOTAL FREE ENERGY PREDICTED BY IDOCK:  -10.91 KCAL/MOL
REMARK 923 INTER-LIGAND FREE ENERGY PREDICTED BY IDOCK:   -9.54 KCAL/MOL
REMARK 924 INTRA-LIGAND FREE ENERGY PREDICTED BY IDOCK:   -1.38 KCAL/MOL
REMARK 927      BINDING AFFINITY PREDICTED BY RF-SCORE:    0.00 PKD
ROOT
HETATM    1  N   UNK A   1     -11.667  16.430  63.950  1.00  0.00    -1.527 NA 
HETATM    2  H2  UNK A   1     -12.455  15.927  64.359  1.00  0.00     0.000 HD 
HETATM    3  C   UNK A   1     -10.800  17.015  64.965  1.00  0.00    -0.006 C  
HETATM    4  H1  UNK A   1     -11.970  17.157  63.300  1.00  0.00     0.000 HD 
ENDROOT
BRANCH   3   5
HETATM    5  C   UNK A   1     -10.348  15.929  65.935  1.00  0.00    -0.383 C  
BRANCH   5   6
HETATM    6  C   UNK A   1      -8.848  16.020  66.244  1.00  0.00    -0.379 C  
BRANCH   6   7
HETATM    7  C   UNK A   1      -8.441  14.845  67.139  1.00  0.00    -0.244 C  
BRANCH   7   8
HETATM    8  C   UNK A   1      -9.431  13.669  67.197  1.00  0.00    -0.244 C  
BRANCH   8   9
HETATM    9  N   UNK A   1      -9.719  13.183  68.581  1.00  0.00    -0.403 NA 
HETATM   10  H   UNK A   1     -10.287  13.865  69.083  1.00  0.00     0.000 HD 
BRANCH   9  11
HETATM   11  C   UNK A   1     -10.353  11.828  68.652  1.00  0.00    -0.214 C  
HETATM   12  C   UNK A   1     -11.709  11.982  69.365  1.00  0.00    -0.340 C  
HETATM   13  O   UNK A   1     -12.666  11.237  69.213  1.00  0.00    -0.202 OA 
HETATM   14  O   UNK A   1     -11.726  13.048  70.204  1.00  0.00    -0.271 OA 
BRANCH  11  15
HETATM   15  C   UNK A   1      -9.483  10.817  69.430  1.00  0.00    -0.037 C  
BRANCH  15  16
HETATM   16  C   UNK A   1      -9.380   9.447  68.738  1.00  0.00    -0.146 C  
BRANCH  16  17
HETATM   17  C   UNK A   1     -10.190   8.376  69.434  1.00  0.00    -0.208 A  
HETATM   18  C   UNK A   1     -10.478   7.171  68.779  1.00  0.00    -0.217 A  
HETATM   19  C   UNK A   1     -11.691   6.373  70.710  1.00  0.00    -0.378 A  
HETATM   20  C   UNK A   1     -11.223   6.176  69.415  1.00  0.00    -0.466 A  
HETATM   21  C   UNK A   1     -11.399   7.560  71.379  1.00  0.00    -0.284 A  
HETATM   22  C   UNK A   1     -10.653   8.555  70.747  1.00  0.00    -0.244 A  
ENDBRANCH  16  17
ENDBRANCH  15  16
ENDBRANCH  11  15
ENDBRANCH   9  11
ENDBRANCH   8   9
BRANCH   8  23
HETATM   23  C   UNK A   1      -8.978  12.438  66.333  1.00  0.00    -0.100 C  
ATOM     24  OXT PRO A   2     -12.899  13.882  64.975  1.00  0.00    -0.693 OA 
HETATM   25  O   UNK A   1      -7.938  11.837  66.607  1.00  0.00    -0.148 OA 
ATOM     26  N   PRO A   2      -9.809  12.000  65.301  1.00  0.00    -0.239 N  
ATOM     27  CD  PRO A   2      -9.494  10.791  64.547  1.00  0.00    -0.252 C  
ATOM     28  O   PRO A   2     -12.381  11.982  66.085  1.00  0.00    -0.449 OA 
ATOM     29  C   PRO A   2     -12.103  12.990  65.225  1.00  0.00    -0.441 C  
ATOM     30  CA  PRO A   2     -10.743  12.849  64.543  1.00  0.00    -0.371 C  
ATOM     31  CB  PRO A   2     -10.914  12.164  63.184  1.00  0.00    -0.247 C  
ATOM     32  CG  PRO A   2      -9.776  11.155  63.102  1.00  0.00    -0.401 C  
ENDBRANCH   8  23
ENDBRANCH   7   8
ENDBRANCH   6   7
ENDBRANCH   5   6
ENDBRANCH   3   5
TORSDOF 10
ENDMDL
MODEL       39
REMARK 921   NORMALIZED FREE ENERGY PREDICTED BY IDOCK:   -5.63 KCAL/MOL
REMARK 922        TOTAL FREE ENERGY PREDICTED BY IDOCK:  -10.88 KCAL/MOL
REMARK 923 INTER-LIGAND FREE ENERGY PREDICTED BY IDOCK:   -9.56 KCAL/MOL
REMARK 924 INTRA-LIGAND FREE ENERGY PREDICTED BY IDOCK:   -1.32 KCAL/MOL
REMARK 927      BINDING AFFINITY PREDICTED BY RF-SCORE:    0.00 PKD
ROOT
HETATM    1  N   UNK A   1     -13.456   9.982  72.345  1.00  0.00    -0.610 NA 
HETATM    2  H2  UNK A   1     -12.796   9.206  72.288  1.00  0.00     0.000 HD 
HETATM    3  C   UNK A   1     -12.957  11.180  71.683  1.00  0.00    -0.443 C  
HETATM    4  H1  UNK A   1     -13.708  10.204  73.308  1.00  0.00     0.000 HD 
ENDROOT
BRANCH   3   5
HETATM    5  C   UNK A   1     -12.581  10.848  70.243  1.00  0.00    -0.342 C  
BRANCH   5   6
HETATM    6  C   UNK A   1     -11.748  11.960  69.594  1.00  0.00    -0.413 C  
BRANCH   6   7
HETATM    7  C   UNK A   1     -11.715  11.750  68.077  1.00  0.00    -0.363 C  
BRANCH   7   8
HETATM    8  C   UNK A   1     -10.332  11.459  67.467  1.00  0.00    -0.195 C  
BRANCH   8   9
HETATM    9  N   UNK A   1      -9.811  12.551  66.589  1.00  0.00    -0.235 NA 
HETATM   10  H   UNK A   1      -9.582  12.184  65.666  1.00  0.00     0.000 HD 
BRANCH   9  11
HETATM   11  C   UNK A   1     -10.713  13.740  66.464  1.00  0.00    -0.284 C  
HETATM   12  C   UNK A   1     -11.204  13.804  65.005  1.00  0.00    -0.335 C  
HETATM   13  O   UNK A   1     -12.249  14.322  64.643  1.00  0.00    -0.433 OA 
HETATM   14  O   UNK A   1     -10.330  13.220  64.148  1.00  0.00    -0.407 OA 
BRANCH  11  15
HETATM   15  C   UNK A   1      -9.990  15.060  66.813  1.00  0.00    -0.254 C  
BRANCH  15  16
HETATM   16  C   UNK A   1     -10.776  15.937  67.803  1.00  0.00    -0.320 C  
BRANCH  16  17
HETATM   17  C   UNK A   1     -10.484  17.412  67.639  1.00  0.00    -0.368 A  
HETATM   18  C   UNK A   1     -10.106  18.185  68.746  1.00  0.00    -0.392 A  
HETATM   19  C   UNK A   1      -9.935  20.153  67.355  1.00  0.00    -0.570 A  
HETATM   20  C   UNK A   1      -9.832  19.546  68.603  1.00  0.00    -0.530 A  
HETATM   21  C   UNK A   1     -10.294  19.394  66.244  1.00  0.00    -0.584 A  
HETATM   22  C   UNK A   1     -10.566  18.032  66.383  1.00  0.00    -0.259 A  
ENDBRANCH  16  17
ENDBRANCH  15  16
ENDBRANCH  11  15
ENDBRANCH   9  11
ENDBRANCH   8   9
BRANCH   8  23
HETATM   23  C   UNK A   1     -10.287  10.116  66.654  1.00  0.00    -0.208 C  
ATOM     24  OXT PRO A   2      -9.491   9.340  70.904  1.00  0.00    -0.258 OA 
HETATM   25  O   UNK A   1     -10.408  10.130  65.428  1.00  0.00    -0.257 OA 
ATOM     26  N   PRO A   2     -10.037   8.926  67.337  1.00  0.00    -0.208 N  
ATOM     27  CD  PRO A   2      -9.866   7.669  66.615  1.00  0.00    -0.213 C  
ATOM     28  O   PRO A   2      -8.073   9.253  69.145  1.00  0.00    -0.100 OA 
ATOM     29  C   PRO A   2      -9.297   9.142  69.715  1.00  0.00    -0.182 C  
ATOM     30  CA  PRO A   2     -10.378   8.667  68.746  1.00  0.00    -0.208 C  
ATOM     31  CB  PRO A   2     -10.541   7.148  68.858  1.00  0.00    -0.218 C  
ATOM     32  CG  PRO A   2     -10.651   6.652  67.422  1.00  0.00    -0.370 C  
ENDBRANCH   8  23
ENDBRANCH   7   8
ENDBRANCH   6   7
ENDBRANCH   5   6
ENDBRANCH   3   5
TORSDOF 10
ENDMDL
MODEL       40
REMARK 921   NORMALIZED FREE ENERGY PREDICTED BY IDOCK:   -5.57 KCAL/MOL
REMARK 922        TOTAL FREE ENERGY PREDICTED BY IDOCK:  -10.79 KCAL/MOL
REMARK 923 INTER-LIGAND FREE ENERGY PREDICTED BY IDOCK:   -8.92 KCAL/MOL
REMARK 924 INTRA-LIGAND FREE ENERGY PREDICTED BY IDOCK:   -1.87 KCAL/MOL
REMARK 927      BINDING AFFINITY PREDICTED BY RF-SCORE:    0.00 PKD
ROOT
HETATM    1  N   UNK A   1     -11.520   4.615  65.119  1.00  0.00    -1.107 NA 
HETATM    2  H2  UNK A   1     -11.738   5.598  64.957  1.00  0.00     0.000 HD 
HETATM    3  C   UNK A   1     -10.182   4.431  65.667  1.00  0.00    -0.238 C  
HETATM    4  H1  UNK A   1     -11.622   4.054  64.273  1.00  0.00     0.000 HD 
ENDROOT
BRANCH   3   5
HETATM    5  C   UNK A   1     -10.030   5.270  66.931  1.00  0.00    -0.219 C  
BRANCH   5   6
HETATM    6  C   UNK A   1     -11.118   6.345  67.044  1.00  0.00    -0.405 C  
BRANCH   6   7
HETATM    7  C   UNK A   1     -10.496   7.725  66.809  1.00  0.00    -0.318 C  
BRANCH   7   8
HETATM    8  C   UNK A   1     -10.651   8.738  67.956  1.00  0.00    -0.159 C  
BRANCH   8   9
HETATM    9  N   UNK A   1     -10.570  10.166  67.522  1.00  0.00    -0.253 NA 
HETATM   10  H   UNK A   1     -10.198  10.744  68.276  1.00  0.00     0.000 HD 
BRANCH   9  11
HETATM   11  C   UNK A   1      -9.796  10.398  66.262  1.00  0.00    -0.218 C  
HETATM   12  C   UNK A   1      -8.445  11.026  66.650  1.00  0.00    -0.153 C  
HETATM   13  O   UNK A   1      -7.420  10.939  65.991  1.00  0.00    -0.145 OA 
HETATM   14  O   UNK A   1      -8.518  11.708  67.820  1.00  0.00    -0.133 OA 
BRANCH  11  15
HETATM   15  C   UNK A   1     -10.534  11.344  65.289  1.00  0.00    -0.340 C  
BRANCH  15  16
HETATM   16  C   UNK A   1     -11.642  12.167  65.967  1.00  0.00    -0.420 C  
BRANCH  16  17
HETATM   17  C   UNK A   1     -11.228  13.596  66.240  1.00  0.00    -0.313 A  
HETATM   18  C   UNK A   1     -11.639  14.238  67.416  1.00  0.00    -0.394 A  
HETATM   19  C   UNK A   1     -10.466  16.248  66.767  1.00  0.00    -0.287 A  
HETATM   20  C   UNK A   1     -11.258  15.556  67.677  1.00  0.00    -0.291 A  
HETATM   21  C   UNK A   1     -10.037  15.617  65.602  1.00  0.00    -0.395 A  
HETATM   22  C   UNK A   1     -10.413  14.299  65.339  1.00  0.00    -0.382 A  
ENDBRANCH  16  17
ENDBRANCH  15  16
ENDBRANCH  11  15
ENDBRANCH   9  11
ENDBRANCH   8   9
BRANCH   8  23
HETATM   23  C   UNK A   1      -9.614   8.521  69.115  1.00  0.00    -0.167 C  
ATOM     24  OXT PRO A   2     -13.410  10.022  70.739  1.00  0.00    -0.350 OA 
HETATM   25  O   UNK A   1      -8.459   8.177  68.858  1.00  0.00    -0.127 OA 
ATOM     26  N   PRO A   2     -10.007   8.793  70.426  1.00  0.00    -0.182 N  
ATOM     27  CD  PRO A   2      -9.049   8.723  71.525  1.00  0.00    -0.252 C  
ATOM     28  O   PRO A   2     -11.420  11.077  70.549  1.00  0.00    -0.294 OA 
ATOM     29  C   PRO A   2     -12.191   9.976  70.711  1.00  0.00    -0.315 C  
ATOM     30  CA  PRO A   2     -11.384   8.698  70.938  1.00  0.00    -0.272 C  
ATOM     31  CB  PRO A   2     -11.247   8.433  72.441  1.00  0.00    -0.438 C  
ATOM     32  CG  PRO A   2      -9.796   8.019  72.642  1.00  0.00    -0.347 C  
ENDBRANCH   8  23
ENDBRANCH   7   8
ENDBRANCH   6   7
ENDBRANCH   5   6
ENDBRANCH   3   5
TORSDOF 10
ENDMDL
MODEL       41
REMARK 921   NORMALIZED FREE ENERGY PREDICTED BY IDOCK:   -5.55 KCAL/MOL
REMARK 922        TOTAL FREE ENERGY PREDICTED BY IDOCK:  -10.76 KCAL/MOL
REMARK 923 INTER-LIGAND FREE ENERGY PREDICTED BY IDOCK:   -9.03 KCAL/MOL
REMARK 924 INTRA-LIGAND FREE ENERGY PREDICTED BY IDOCK:   -1.73 KCAL/MOL
REMARK 927      BINDING AFFINITY PREDICTED BY RF-SCORE:    0.00 PKD
ROOT
HETATM    1  N   UNK A   1     -14.328   8.532  72.513  1.00  0.00    -0.798 NA 
HETATM    2  H2  UNK A   1     -14.870   8.515  71.648  1.00  0.00     0.000 HD 
HETATM    3  C   UNK A   1     -12.998   9.096  72.319  1.00  0.00    -0.420 C  
HETATM    4  H1  UNK A   1     -14.247   7.606  72.934  1.00  0.00     0.000 HD 
ENDROOT
BRANCH   3   5
HETATM    5  C   UNK A   1     -13.119  10.480  71.689  1.00  0.00    -0.551 C  
BRANCH   5   6
HETATM    6  C   UNK A   1     -12.032  10.731  70.637  1.00  0.00    -0.466 C  
BRANCH   6   7
HETATM    7  C   UNK A   1     -11.937  12.234  70.354  1.00  0.00    -0.349 C  
BRANCH   7   8
HETATM    8  C   UNK A   1     -11.112  12.635  69.119  1.00  0.00    -0.195 C  
BRANCH   8   9
HETATM    9  N   UNK A   1     -11.453  13.983  68.569  1.00  0.00    -0.282 NA 
HETATM   10  H   UNK A   1     -11.989  14.518  69.252  1.00  0.00     0.000 HD 
BRANCH   9  11
HETATM   11  C   UNK A   1     -10.281  14.781  68.090  1.00  0.00    -0.228 C  
HETATM   12  C   UNK A   1      -9.803  15.661  69.261  1.00  0.00    -0.269 C  
HETATM   13  O   UNK A   1      -8.663  16.080  69.399  1.00  0.00    -0.245 OA 
HETATM   14  O   UNK A   1     -10.804  15.934  70.134  1.00  0.00    -0.309 OA 
BRANCH  11  15
HETATM   15  C   UNK A   1     -10.641  15.686  66.891  1.00  0.00    -0.311 C  
BRANCH  15  16
HETATM   16  C   UNK A   1     -10.041  15.197  65.562  1.00  0.00    -0.402 C  
BRANCH  16  17
HETATM   17  C   UNK A   1     -10.847  14.085  64.928  1.00  0.00    -0.421 A  
HETATM   18  C   UNK A   1     -12.239  14.046  65.081  1.00  0.00    -0.446 A  
HETATM   19  C   UNK A   1     -12.362  12.031  63.754  1.00  0.00    -0.602 A  
HETATM   20  C   UNK A   1     -12.991  13.026  64.496  1.00  0.00    -0.107 A  
HETATM   21  C   UNK A   1     -10.980  12.066  63.581  1.00  0.00    -0.517 A  
HETATM   22  C   UNK A   1     -10.226  13.086  64.162  1.00  0.00    -0.263 A  
ENDBRANCH  16  17
ENDBRANCH  15  16
ENDBRANCH  11  15
ENDBRANCH   9  11
ENDBRANCH   8   9
BRANCH   8  23
HETATM   23  C   UNK A   1     -11.206  11.593  67.948  1.00  0.00    -0.269 C  
ATOM     24  OXT PRO A   2      -7.056  11.923  69.350  1.00  0.00    -0.059 OA 
HETATM   25  O   UNK A   1     -12.276  11.413  67.363  1.00  0.00    -0.321 OA 
ATOM     26  N   PRO A   2     -10.046  10.932  67.541  1.00  0.00    -0.180 N  
ATOM     27  CD  PRO A   2     -10.055  10.046  66.383  1.00  0.00    -0.241 C  
ATOM     28  O   PRO A   2      -7.970  12.637  67.410  1.00  0.00    -0.160 OA 
ATOM     29  C   PRO A   2      -7.891  11.797  68.469  1.00  0.00    -0.144 C  
ATOM     30  CA  PRO A   2      -8.888  10.641  68.402  1.00  0.00    -0.145 C  
ATOM     31  CB  PRO A   2      -8.214   9.412  67.784  1.00  0.00    -0.114 C  
ATOM     32  CG  PRO A   2      -9.239   8.842  66.813  1.00  0.00    -0.211 C  
ENDBRANCH   8  23
ENDBRANCH   7   8
ENDBRANCH   6   7
ENDBRANCH   5   6
ENDBRANCH   3   5
TORSDOF 10
ENDMDL
MODEL       42
REMARK 921   NORMALIZED FREE ENERGY PREDICTED BY IDOCK:   -5.54 KCAL/MOL
REMARK 922        TOTAL FREE ENERGY PREDICTED BY IDOCK:  -10.73 KCAL/MOL
REMARK 923 INTER-LIGAND FREE ENERGY PREDICTED BY IDOCK:   -9.45 KCAL/MOL
REMARK 924 INTRA-LIGAND FREE ENERGY PREDICTED BY IDOCK:   -1.29 KCAL/MOL
REMARK 927      BINDING AFFINITY PREDICTED BY RF-SCORE:    0.00 PKD
ROOT
HETATM    1  N   UNK A   1      -9.207  20.395  65.827  1.00  0.00    -0.525 NA 
HETATM    2  H2  UNK A   1      -8.421  19.833  66.155  1.00  0.00     0.000 HD 
HETATM    3  C   UNK A   1     -10.492  19.784  66.146  1.00  0.00    -0.509 C  
HETATM    4  H1  UNK A   1      -9.157  20.579  64.825  1.00  0.00     0.000 HD 
ENDROOT
BRANCH   3   5
HETATM    5  C   UNK A   1     -10.567  19.509  67.643  1.00  0.00    -0.566 C  
BRANCH   5   6
HETATM    6  C   UNK A   1     -10.656  18.009  67.950  1.00  0.00    -0.387 C  
BRANCH   6   7
HETATM    7  C   UNK A   1     -10.242  17.211  66.710  1.00  0.00    -0.311 C  
BRANCH   7   8
HETATM    8  C   UNK A   1      -9.158  16.141  66.929  1.00  0.00    -0.218 C  
BRANCH   8   9
HETATM    9  N   UNK A   1      -9.675  14.739  66.924  1.00  0.00    -0.233 NA 
HETATM   10  H   UNK A   1      -9.183  14.178  67.619  1.00  0.00     0.000 HD 
BRANCH   9  11
HETATM   11  C   UNK A   1     -11.155  14.615  67.112  1.00  0.00    -0.326 C  
HETATM   12  C   UNK A   1     -11.398  13.783  68.385  1.00  0.00    -0.293 C  
HETATM   13  O   UNK A   1     -12.398  13.851  69.083  1.00  0.00    -0.314 OA 
HETATM   14  O   UNK A   1     -10.365  12.944  68.650  1.00  0.00    -0.240 OA 
BRANCH  11  15
HETATM   15  C   UNK A   1     -11.839  13.919  65.914  1.00  0.00    -0.399 C  
BRANCH  15  16
HETATM   16  C   UNK A   1     -11.873  12.386  66.042  1.00  0.00    -0.459 C  
BRANCH  16  17
HETATM   17  C   UNK A   1     -10.884  11.699  65.128  1.00  0.00    -0.346 A  
HETATM   18  C   UNK A   1     -10.197  10.557  65.561  1.00  0.00    -0.325 A  
HETATM   19  C   UNK A   1      -9.045  10.406  63.442  1.00  0.00    -0.278 A  
HETATM   20  C   UNK A   1      -9.284   9.915  64.721  1.00  0.00    -0.309 A  
HETATM   21  C   UNK A   1      -9.733  11.532  62.993  1.00  0.00    -0.382 A  
HETATM   22  C   UNK A   1     -10.647  12.174  63.828  1.00  0.00    -0.482 A  
ENDBRANCH  16  17
ENDBRANCH  15  16
ENDBRANCH  11  15
ENDBRANCH   9  11
ENDBRANCH   8   9
BRANCH   8  23
HETATM   23  C   UNK A   1      -8.339  16.354  68.253  1.00  0.00    -0.189 C  
ATOM     24  OXT PRO A   2      -6.581  18.713  64.990  1.00  0.00    -0.505 OA 
HETATM   25  O   UNK A   1      -8.626  15.717  69.268  1.00  0.00    -0.236 OA 
ATOM     26  N   PRO A   2      -7.246  17.221  68.234  1.00  0.00    -0.202 N  
ATOM     27  CD  PRO A   2      -6.382  17.362  69.401  1.00  0.00    -0.246 C  
ATOM     28  O   PRO A   2      -5.778  16.862  66.010  1.00  0.00    -0.177 OA 
ATOM     29  C   PRO A   2      -6.492  18.012  65.986  1.00  0.00    -0.264 C  
ATOM     30  CA  PRO A   2      -7.096  18.381  67.340  1.00  0.00    -0.204 C  
ATOM     31  CB  PRO A   2      -6.164  19.349  68.075  1.00  0.00    -0.231 C  
ATOM     32  CG  PRO A   2      -6.129  18.853  69.514  1.00  0.00    -0.291 C  
ENDBRANCH   8  23
ENDBRANCH   7   8
ENDBRANCH   6   7
ENDBRANCH   5   6
ENDBRANCH   3   5
TORSDOF 10
ENDMDL
MODEL       43
REMARK 921   NORMALIZED FREE ENERGY PREDICTED BY IDOCK:   -5.54 KCAL/MOL
REMARK 922        TOTAL FREE ENERGY PREDICTED BY IDOCK:  -10.73 KCAL/MOL
REMARK 923 INTER-LIGAND FREE ENERGY PREDICTED BY IDOCK:   -9.34 KCAL/MOL
REMARK 924 INTRA-LIGAND FREE ENERGY PREDICTED BY IDOCK:   -1.39 KCAL/MOL
REMARK 927      BINDING AFFINITY PREDICTED BY RF-SCORE:    0.00 PKD
ROOT
HETATM    1  N   UNK A   1      -6.386  13.761  70.786  1.00  0.00    -0.419 NA 
HETATM    2  H2  UNK A   1      -7.399  13.777  70.661  1.00  0.00     0.000 HD 
HETATM    3  C   UNK A   1      -5.799  12.492  70.376  1.00  0.00    -0.150 C  
HETATM    4  H1  UNK A   1      -6.114  13.969  71.747  1.00  0.00     0.000 HD 
ENDROOT
BRANCH   3   5
HETATM    5  C   UNK A   1      -6.207  12.183  68.940  1.00  0.00    -0.077 C  
BRANCH   5   6
HETATM    6  C   UNK A   1      -7.391  11.211  68.873  1.00  0.00    -0.110 C  
BRANCH   6   7
HETATM    7  C   UNK A   1      -8.639  11.962  68.397  1.00  0.00    -0.152 C  
BRANCH   7   8
HETATM    8  C   UNK A   1      -9.905  11.109  68.202  1.00  0.00    -0.180 C  
BRANCH   8   9
HETATM    9  N   UNK A   1      -9.981   9.918  69.103  1.00  0.00    -0.187 NA 
HETATM   10  H   UNK A   1      -9.044   9.576  69.317  1.00  0.00     0.000 HD 
BRANCH   9  11
HETATM   11  C   UNK A   1     -10.756  10.133  70.365  1.00  0.00    -0.266 C  
HETATM   12  C   UNK A   1     -10.969   8.758  71.025  1.00  0.00    -0.268 C  
HETATM   13  O   UNK A   1     -11.140   8.577  72.221  1.00  0.00    -0.342 OA 
HETATM   14  O   UNK A   1     -10.956   7.750  70.117  1.00  0.00    -0.256 OA 
BRANCH  11  15
HETATM   15  C   UNK A   1     -12.130  10.788  70.103  1.00  0.00    -0.427 C  
BRANCH  15  16
HETATM   16  C   UNK A   1     -12.798  11.328  71.379  1.00  0.00    -0.515 C  
BRANCH  16  17
HETATM   17  C   UNK A   1     -12.911  12.836  71.388  1.00  0.00    -0.371 A  
HETATM   18  C   UNK A   1     -12.265  13.599  70.406  1.00  0.00    -0.434 A  
HETATM   19  C   UNK A   1     -13.111  15.639  71.387  1.00  0.00    -0.559 A  
HETATM   20  C   UNK A   1     -12.367  14.992  70.405  1.00  0.00    -0.401 A  
HETATM   21  C   UNK A   1     -13.771  14.892  72.361  1.00  0.00    -0.576 A  
HETATM   22  C   UNK A   1     -13.673  13.500  72.362  1.00  0.00    -0.704 A  
ENDBRANCH  16  17
ENDBRANCH  15  16
ENDBRANCH  11  15
ENDBRANCH   9  11
ENDBRANCH   8   9
BRANCH   8  23
HETATM   23  C   UNK A   1     -10.095  10.615  66.724  1.00  0.00    -0.224 C  
ATOM     24  OXT PRO A   2     -11.343  14.811  67.092  1.00  0.00    -0.337 OA 
HETATM   25  O   UNK A   1      -9.875   9.439  66.430  1.00  0.00    -0.226 OA 
ATOM     26  N   PRO A   2     -10.583  11.513  65.774  1.00  0.00    -0.258 N  
ATOM     27  CD  PRO A   2     -10.891  11.075  64.416  1.00  0.00    -0.192 C  
ATOM     28  O   PRO A   2     -12.610  12.966  66.781  1.00  0.00    -0.205 OA 
ATOM     29  C   PRO A   2     -11.469  13.682  66.646  1.00  0.00    -0.343 C  
ATOM     30  CA  PRO A   2     -10.402  12.974  65.813  1.00  0.00    -0.286 C  
ATOM     31  CB  PRO A   2     -10.489  13.439  64.356  1.00  0.00    -0.403 C  
ATOM     32  CG  PRO A   2     -10.343  12.172  63.524  1.00  0.00    -0.473 C  
ENDBRANCH   8  23
ENDBRANCH   7   8
ENDBRANCH   6   7
ENDBRANCH   5   6
ENDBRANCH   3   5
TORSDOF 10
ENDMDL
MODEL       44
REMARK 921   NORMALIZED FREE ENERGY PREDICTED BY IDOCK:   -5.53 KCAL/MOL
REMARK 922        TOTAL FREE ENERGY PREDICTED BY IDOCK:  -10.73 KCAL/MOL
REMARK 923 INTER-LIGAND FREE ENERGY PREDICTED BY IDOCK:   -8.89 KCAL/MOL
REMARK 924 INTRA-LIGAND FREE ENERGY PREDICTED BY IDOCK:   -1.84 KCAL/MOL
REMARK 927      BINDING AFFINITY PREDICTED BY RF-SCORE:    0.00 PKD
ROOT
HETATM    1  N   UNK A   1     -13.928  14.709  72.225  1.00  0.00    -0.461 NA 
HETATM    2  H2  UNK A   1     -13.405  14.999  73.052  1.00  0.00     0.000 HD 
HETATM    3  C   UNK A   1     -13.278  15.124  70.988  1.00  0.00    -0.450 C  
HETATM    4  H1  UNK A   1     -14.889  15.053  72.238  1.00  0.00     0.000 HD 
ENDROOT
BRANCH   3   5
HETATM    5  C   UNK A   1     -11.843  14.610  70.970  1.00  0.00    -0.379 C  
BRANCH   5   6
HETATM    6  C   UNK A   1     -10.838  15.718  70.633  1.00  0.00    -0.281 C  
BRANCH   6   7
HETATM    7  C   UNK A   1      -9.985  15.284  69.437  1.00  0.00    -0.257 C  
BRANCH   7   8
HETATM    8  C   UNK A   1     -10.067  16.182  68.190  1.00  0.00    -0.237 C  
BRANCH   8   9
HETATM    9  N   UNK A   1     -11.115  15.769  67.208  1.00  0.00    -0.264 NA 
HETATM   10  H   UNK A   1     -11.165  16.439  66.442  1.00  0.00     0.000 HD 
BRANCH   9  11
HETATM   11  C   UNK A   1     -10.960  14.379  66.672  1.00  0.00    -0.318 C  
HETATM   12  C   UNK A   1     -10.901  14.474  65.136  1.00  0.00    -0.395 C  
HETATM   13  O   UNK A   1     -10.350  13.662  64.408  1.00  0.00    -0.428 OA 
HETATM   14  O   UNK A   1     -11.545  15.572  64.668  1.00  0.00    -0.383 OA 
BRANCH  11  15
HETATM   15  C   UNK A   1     -12.135  13.462  67.078  1.00  0.00    -0.390 C  
BRANCH  15  16
HETATM   16  C   UNK A   1     -11.772  12.471  68.197  1.00  0.00    -0.400 C  
BRANCH  16  17
HETATM   17  C   UNK A   1     -10.718  11.472  67.775  1.00  0.00    -0.249 A  
HETATM   18  C   UNK A   1      -9.533  11.342  68.512  1.00  0.00    -0.183 A  
HETATM   19  C   UNK A   1      -8.749   9.618  67.011  1.00  0.00    -0.135 A  
HETATM   20  C   UNK A   1      -8.556  10.420  68.131  1.00  0.00    -0.125 A  
HETATM   21  C   UNK A   1      -9.930   9.726  66.278  1.00  0.00    -0.331 A  
HETATM   22  C   UNK A   1     -10.909  10.644  66.657  1.00  0.00    -0.197 A  
ENDBRANCH  16  17
ENDBRANCH  15  16
ENDBRANCH  11  15
ENDBRANCH   9  11
ENDBRANCH   8   9
BRANCH   8  23
HETATM   23  C   UNK A   1      -8.701  16.301  67.424  1.00  0.00    -0.182 C  
ATOM     24  OXT PRO A   2     -10.909  20.090  67.177  1.00  0.00    -0.338 OA 
HETATM   25  O   UNK A   1      -7.967  15.317  67.310  1.00  0.00    -0.169 OA 
ATOM     26  N   PRO A   2      -8.372  17.515  66.821  1.00  0.00    -0.238 N  
ATOM     27  CD  PRO A   2      -7.175  17.644  65.998  1.00  0.00    -0.281 C  
ATOM     28  O   PRO A   2     -10.503  18.565  65.559  1.00  0.00    -0.597 OA 
ATOM     29  C   PRO A   2     -10.193  19.225  66.700  1.00  0.00    -0.421 C  
ATOM     30  CA  PRO A   2      -8.830  18.840  67.273  1.00  0.00    -0.274 C  
ATOM     31  CB  PRO A   2      -7.766  19.830  66.788  1.00  0.00    -0.306 C  
ATOM     32  CG  PRO A   2      -6.568  18.972  66.406  1.00  0.00    -0.215 C  
ENDBRANCH   8  23
ENDBRANCH   7   8
ENDBRANCH   6   7
ENDBRANCH   5   6
ENDBRANCH   3   5
TORSDOF 10
ENDMDL
MODEL       45
REMARK 921   NORMALIZED FREE ENERGY PREDICTED BY IDOCK:   -5.51 KCAL/MOL
REMARK 922        TOTAL FREE ENERGY PREDICTED BY IDOCK:  -10.69 KCAL/MOL
REMARK 923 INTER-LIGAND FREE ENERGY PREDICTED BY IDOCK:   -9.18 KCAL/MOL
REMARK 924 INTRA-LIGAND FREE ENERGY PREDICTED BY IDOCK:   -1.51 KCAL/MOL
REMARK 927      BINDING AFFINITY PREDICTED BY RF-SCORE:    0.00 PKD
ROOT
HETATM    1  N   UNK A   1      -7.716  20.592  66.919  1.00  0.00    -0.464 NA 
HETATM    2  H2  UNK A   1      -8.618  20.137  67.063  1.00  0.00     0.000 HD 
HETATM    3  C   UNK A   1      -6.610  19.644  66.957  1.00  0.00    -0.193 C  
HETATM    4  H1  UNK A   1      -7.549  21.339  67.593  1.00  0.00     0.000 HD 
ENDROOT
BRANCH   3   5
HETATM    5  C   UNK A   1      -6.860  18.527  65.950  1.00  0.00    -0.318 C  
BRANCH   5   6
HETATM    6  C   UNK A   1      -7.143  17.185  66.636  1.00  0.00    -0.283 C  
BRANCH   6   7
HETATM    7  C   UNK A   1      -8.082  16.353  65.757  1.00  0.00     0.630 C  
BRANCH   7   8
HETATM    8  C   UNK A   1      -9.225  15.629  66.490  1.00  0.00    -0.293 C  
BRANCH   8   9
HETATM    9  N   UNK A   1      -9.470  16.127  67.878  1.00  0.00    -0.213 NA 
HETATM   10  H   UNK A   1      -8.678  16.682  68.200  1.00  0.00     0.000 HD 
BRANCH   9  11
HETATM   11  C   UNK A   1     -10.745  16.892  68.055  1.00  0.00    -0.364 C  
HETATM   12  C   UNK A   1     -10.380  18.381  68.203  1.00  0.00    -0.366 C  
HETATM   13  O   UNK A   1     -11.119  19.312  67.919  1.00  0.00    -0.238 OA 
HETATM   14  O   UNK A   1      -9.130  18.553  68.700  1.00  0.00    -0.318 OA 
BRANCH  11  15
HETATM   15  C   UNK A   1     -11.531  16.436  69.303  1.00  0.00    -0.165 C  
BRANCH  15  16
HETATM   16  C   UNK A   1     -10.874  15.254  70.036  1.00  0.00    -0.303 C  
BRANCH  16  17
HETATM   17  C   UNK A   1     -11.849  14.482  70.896  1.00  0.00    -0.362 A  
HETATM   18  C   UNK A   1     -12.161  13.151  70.588  1.00  0.00    -0.402 A  
HETATM   19  C   UNK A   1     -13.655  13.028  72.484  1.00  0.00    -0.537 A  
HETATM   20  C   UNK A   1     -13.058  12.429  71.379  1.00  0.00    -0.299 A  
HETATM   21  C   UNK A   1     -13.341  14.346  72.810  1.00  0.00    -0.606 A  
HETATM   22  C   UNK A   1     -12.444  15.069  72.024  1.00  0.00    -0.409 A  
ENDBRANCH  16  17
ENDBRANCH  15  16
ENDBRANCH  11  15
ENDBRANCH   9  11
ENDBRANCH   8   9
BRANCH   8  23
HETATM   23  C   UNK A   1      -9.025  14.072  66.558  1.00  0.00    -0.092 C  
ATOM     24  OXT PRO A   2     -12.419  15.052  63.945  1.00  0.00    -0.790 OA 
HETATM   25  O   UNK A   1      -8.171  13.589  67.303  1.00  0.00    -0.177 OA 
ATOM     26  N   PRO A   2      -9.877  13.253  65.816  1.00  0.00    -0.239 N  
ATOM     27  CD  PRO A   2      -9.813  11.801  65.937  1.00  0.00    -0.238 C  
ATOM     28  O   PRO A   2     -12.422  14.105  65.998  1.00  0.00    -0.467 OA 
ATOM     29  C   PRO A   2     -11.869  14.361  64.789  1.00  0.00    -0.433 C  
ATOM     30  CA  PRO A   2     -10.544  13.636  64.560  1.00  0.00    -0.411 C  
ATOM     31  CB  PRO A   2     -10.795  12.324  63.811  1.00  0.00    -0.495 C  
ATOM     32  CG  PRO A   2      -9.921  11.292  64.512  1.00  0.00    -0.334 C  
ENDBRANCH   8  23
ENDBRANCH   7   8
ENDBRANCH   6   7
ENDBRANCH   5   6
ENDBRANCH   3   5
TORSDOF 10
ENDMDL
MODEL       46
REMARK 921   NORMALIZED FREE ENERGY PREDICTED BY IDOCK:   -5.51 KCAL/MOL
REMARK 922        TOTAL FREE ENERGY PREDICTED BY IDOCK:  -10.69 KCAL/MOL
REMARK 923 INTER-LIGAND FREE ENERGY PREDICTED BY IDOCK:   -9.41 KCAL/MOL
REMARK 924 INTRA-LIGAND FREE ENERGY PREDICTED BY IDOCK:   -1.28 KCAL/MOL
REMARK 927      BINDING AFFINITY PREDICTED BY RF-SCORE:    0.00 PKD
ROOT
HETATM    1  N   UNK A   1     -13.821   8.877  72.733  1.00  0.00    -0.889 NA 
HETATM    2  H2  UNK A   1     -14.757   9.199  72.485  1.00  0.00     0.000 HD 
HETATM    3  C   UNK A   1     -12.927   8.842  71.583  1.00  0.00    -0.354 C  
HETATM    4  H1  UNK A   1     -13.836   7.961  73.182  1.00  0.00     0.000 HD 
ENDROOT
BRANCH   3   5
HETATM    5  C   UNK A   1     -12.906  10.212  70.913  1.00  0.00    -0.442 C  
BRANCH   5   6
HETATM    6  C   UNK A   1     -11.573  10.488  70.207  1.00  0.00    -0.417 C  
BRANCH   6   7
HETATM    7  C   UNK A   1     -11.702  11.753  69.353  1.00  0.00    -0.405 C  
BRANCH   7   8
HETATM    8  C   UNK A   1     -10.527  12.048  68.405  1.00  0.00    -0.219 C  
BRANCH   8   9
HETATM    9  N   UNK A   1      -9.771  13.294  68.741  1.00  0.00    -0.417 NA 
HETATM   10  H   UNK A   1      -8.767  13.123  68.690  1.00  0.00     0.000 HD 
BRANCH   9  11
HETATM   11  C   UNK A   1     -10.135  14.490  67.918  1.00  0.00    -0.227 C  
HETATM   12  C   UNK A   1      -8.828  15.206  67.529  1.00  0.00    -0.182 C  
HETATM   13  O   UNK A   1      -8.685  15.910  66.540  1.00  0.00    -0.257 OA 
HETATM   14  O   UNK A   1      -7.835  14.975  68.423  1.00  0.00    -0.116 OA 
BRANCH  11  15
HETATM   15  C   UNK A   1     -11.042  15.475  68.688  1.00  0.00    -0.297 C  
BRANCH  15  16
HETATM   16  C   UNK A   1     -10.668  15.608  70.174  1.00  0.00    -0.355 C  
BRANCH  16  17
HETATM   17  C   UNK A   1     -11.854  15.431  71.096  1.00  0.00    -0.422 A  
HETATM   18  C   UNK A   1     -11.664  15.323  72.480  1.00  0.00    -0.535 A  
HETATM   19  C   UNK A   1     -14.046  15.106  72.824  1.00  0.00    -0.287 A  
HETATM   20  C   UNK A   1     -12.754  15.163  73.338  1.00  0.00    -0.661 A  
HETATM   21  C   UNK A   1     -14.251  15.228  71.451  1.00  0.00    -0.589 A  
HETATM   22  C   UNK A   1     -13.164  15.391  70.592  1.00  0.00    -0.356 A  
ENDBRANCH  16  17
ENDBRANCH  15  16
ENDBRANCH  11  15
ENDBRANCH   9  11
ENDBRANCH   8   9
BRANCH   8  23
HETATM   23  C   UNK A   1     -10.956  12.130  66.896  1.00  0.00    -0.270 C  
ATOM     24  OXT PRO A   2      -6.899  10.478  67.230  1.00  0.00    -0.078 OA 
HETATM   25  O   UNK A   1     -12.033  12.641  66.585  1.00  0.00    -0.470 OA 
ATOM     26  N   PRO A   2     -10.066  11.680  65.920  1.00  0.00    -0.222 N  
ATOM     27  CD  PRO A   2     -10.365  11.844  64.501  1.00  0.00    -0.292 C  
ATOM     28  O   PRO A   2      -7.561  12.497  66.458  1.00  0.00     0.244 OA 
ATOM     29  C   PRO A   2      -7.740  11.174  66.684  1.00  0.00    -0.155 C  
ATOM     30  CA  PRO A   2      -9.050  10.632  66.114  1.00  0.00    -0.170 C  
ATOM     31  CB  PRO A   2      -8.803  10.036  64.725  1.00  0.00    -0.222 C  
ATOM     32  CG  PRO A   2      -9.965  10.524  63.870  1.00  0.00    -0.348 C  
ENDBRANCH   8  23
ENDBRANCH   7   8
ENDBRANCH   6   7
ENDBRANCH   5   6
ENDBRANCH   3   5
TORSDOF 10
ENDMDL
MODEL       47
REMARK 921   NORMALIZED FREE ENERGY PREDICTED BY IDOCK:   -5.47 KCAL/MOL
REMARK 922        TOTAL FREE ENERGY PREDICTED BY IDOCK:  -10.62 KCAL/MOL
REMARK 923 INTER-LIGAND FREE ENERGY PREDICTED BY IDOCK:   -8.01 KCAL/MOL
REMARK 924 INTRA-LIGAND FREE ENERGY PREDICTED BY IDOCK:   -2.60 KCAL/MOL
REMARK 927      BINDING AFFINITY PREDICTED BY RF-SCORE:    0.00 PKD
ROOT
HETATM    1  N   UNK A   1     -11.110   5.505  66.213  1.00  0.00    -0.770 NA 
HETATM    2  H2  UNK A   1     -10.513   4.756  66.565  1.00  0.00     0.000 HD 
HETATM    3  C   UNK A   1     -10.870   6.769  66.898  1.00  0.00    -0.331 C  
HETATM    4  H1  UNK A   1     -12.100   5.267  66.272  1.00  0.00     0.000 HD 
ENDROOT
BRANCH   3   5
HETATM    5  C   UNK A   1      -9.390   7.123  66.809  1.00  0.00    -0.199 C  
BRANCH   5   6
HETATM    6  C   UNK A   1      -9.039   8.351  67.659  1.00  0.00    -0.144 C  
BRANCH   6   7
HETATM    7  C   UNK A   1     -10.230   8.707  68.554  1.00  0.00    -0.221 C  
BRANCH   7   8
HETATM    8  C   UNK A   1     -10.283  10.159  69.058  1.00  0.00    -0.206 C  
BRANCH   8   9
HETATM    9  N   UNK A   1     -10.558  10.287  70.522  1.00  0.00    -0.421 NA 
HETATM   10  H   UNK A   1     -11.095  11.135  70.708  1.00  0.00     0.000 HD 
BRANCH   9  11
HETATM   11  C   UNK A   1     -11.232   9.102  71.140  1.00  0.00    -0.325 C  
HETATM   12  C   UNK A   1     -12.613   9.560  71.648  1.00  0.00    -0.388 C  
HETATM   13  O   UNK A   1     -13.582   8.830  71.786  1.00  0.00    -0.370 OA 
HETATM   14  O   UNK A   1     -12.634  10.884  71.941  1.00  0.00    -0.308 OA 
BRANCH  11  15
HETATM   15  C   UNK A   1     -10.424   8.521  72.321  1.00  0.00    -0.402 C  
BRANCH  15  16
HETATM   16  C   UNK A   1     -10.561   6.995  72.457  1.00  0.00    -0.255 C  
BRANCH  16  17
HETATM   17  C   UNK A   1      -9.825   6.241  71.372  1.00  0.00    -0.195 A  
HETATM   18  C   UNK A   1      -8.478   6.521  71.107  1.00  0.00    -0.126 A  
HETATM   19  C   UNK A   1      -8.439   4.849  69.363  1.00  0.00    -0.092 A  
HETATM   20  C   UNK A   1      -7.790   5.827  70.110  1.00  0.00    -0.099 A  
HETATM   21  C   UNK A   1      -9.774   4.550  69.626  1.00  0.00    -0.288 A  
HETATM   22  C   UNK A   1     -10.464   5.240  70.625  1.00  0.00    -0.306 A  
ENDBRANCH  16  17
ENDBRANCH  15  16
ENDBRANCH  11  15
ENDBRANCH   9  11
ENDBRANCH   8   9
BRANCH   8  23
HETATM   23  C   UNK A   1     -11.328  11.043  68.286  1.00  0.00    -0.299 C  
ATOM     24  OXT PRO A   2      -7.264  11.908  66.858  1.00  0.00    -0.138 OA 
HETATM   25  O   UNK A   1     -12.520  11.005  68.596  1.00  0.00    -0.462 OA 
ATOM     26  N   PRO A   2     -10.870  11.915  67.298  1.00  0.00    -0.235 N  
ATOM     27  CD  PRO A   2     -11.781  12.842  66.636  1.00  0.00    -0.390 C  
ATOM     28  O   PRO A   2      -8.645  13.192  68.106  1.00  0.00    -0.169 OA 
ATOM     29  C   PRO A   2      -8.395  12.247  67.168  1.00  0.00    -0.183 C  
ATOM     30  CA  PRO A   2      -9.657  11.719  66.487  1.00  0.00    -0.210 C  
ATOM     31  CB  PRO A   2      -9.903  12.489  65.186  1.00  0.00    -0.133 C  
ATOM     32  CG  PRO A   2     -11.399  12.777  65.170  1.00  0.00    -0.346 C  
ENDBRANCH   8  23
ENDBRANCH   7   8
ENDBRANCH   6   7
ENDBRANCH   5   6
ENDBRANCH   3   5
TORSDOF 10
ENDMDL
MODEL       48
REMARK 921   NORMALIZED FREE ENERGY PREDICTED BY IDOCK:   -5.43 KCAL/MOL
REMARK 922        TOTAL FREE ENERGY PREDICTED BY IDOCK:  -10.56 KCAL/MOL
REMARK 923 INTER-LIGAND FREE ENERGY PREDICTED BY IDOCK:   -9.14 KCAL/MOL
REMARK 924 INTRA-LIGAND FREE ENERGY PREDICTED BY IDOCK:   -1.42 KCAL/MOL
REMARK 927      BINDING AFFINITY PREDICTED BY RF-SCORE:    0.00 PKD
ROOT
HETATM    1  N   UNK A   1     -11.003  11.319  63.277  1.00  0.00    -0.814 NA 
HETATM    2  H2  UNK A   1     -11.671  11.477  62.523  1.00  0.00     0.000 HD 
HETATM    3  C   UNK A   1     -10.465  12.565  63.807  1.00  0.00    -0.419 C  
HETATM    4  H1  UNK A   1     -10.236  10.710  62.991  1.00  0.00     0.000 HD 
ENDROOT
BRANCH   3   5
HETATM    5  C   UNK A   1     -11.612  13.474  64.235  1.00  0.00    -0.433 C  
BRANCH   5   6
HETATM    6  C   UNK A   1     -11.135  14.615  65.142  1.00  0.00    -0.382 C  
BRANCH   6   7
HETATM    7  C   UNK A   1      -9.719  14.312  65.640  1.00  0.00    -0.238 C  
BRANCH   7   8
HETATM    8  C   UNK A   1      -9.393  14.778  67.069  1.00  0.00    -0.233 C  
BRANCH   8   9
HETATM    9  N   UNK A   1      -9.480  13.697  68.097  1.00  0.00    -0.212 NA 
HETATM   10  H   UNK A   1     -10.041  14.007  68.890  1.00  0.00     0.000 HD 
BRANCH   9  11
HETATM   11  C   UNK A   1      -9.986  12.384  67.587  1.00  0.00    -0.200 C  
HETATM   12  C   UNK A   1     -11.397  12.168  68.166  1.00  0.00    -0.293 C  
HETATM   13  O   UNK A   1     -12.267  11.483  67.649  1.00  0.00    -0.513 OA 
HETATM   14  O   UNK A   1     -11.572  12.825  69.340  1.00  0.00    -0.282 OA 
BRANCH  11  15
HETATM   15  C   UNK A   1      -9.081  11.205  68.007  1.00  0.00    -0.153 C  
BRANCH  15  16
HETATM   16  C   UNK A   1      -9.184   9.995  67.063  1.00  0.00    -0.167 C  
BRANCH  16  17
HETATM   17  C   UNK A   1      -9.878   8.812  67.701  1.00  0.00    -0.228 A  
HETATM   18  C   UNK A   1     -10.006   8.734  69.094  1.00  0.00    -0.193 A  
HETATM   19  C   UNK A   1     -11.167   6.624  68.904  1.00  0.00    -0.273 A  
HETATM   20  C   UNK A   1     -10.648   7.647  69.691  1.00  0.00    -0.243 A  
HETATM   21  C   UNK A   1     -11.061   6.695  67.516  1.00  0.00    -0.374 A  
HETATM   22  C   UNK A   1     -10.423   7.782  66.917  1.00  0.00    -0.388 A  
ENDBRANCH  16  17
ENDBRANCH  15  16
ENDBRANCH  11  15
ENDBRANCH   9  11
ENDBRANCH   8   9
BRANCH   8  23
HETATM   23  C   UNK A   1     -10.288  15.978  67.546  1.00  0.00    -0.287 C  
ATOM     24  OXT PRO A   2      -6.449  17.467  66.014  1.00  0.00    -0.231 OA 
HETATM   25  O   UNK A   1     -11.376  15.764  68.083  1.00  0.00    -0.350 OA 
ATOM     26  N   PRO A   2      -9.796  17.276  67.414  1.00  0.00    -0.265 N  
ATOM     27  CD  PRO A   2     -10.533  18.416  67.949  1.00  0.00    -0.391 C  
ATOM     28  O   PRO A   2      -7.209  17.399  68.141  1.00  0.00    -0.187 OA 
ATOM     29  C   PRO A   2      -7.381  17.494  66.802  1.00  0.00    -0.215 C  
ATOM     30  CA  PRO A   2      -8.835  17.722  66.390  1.00  0.00    -0.231 C  
ATOM     31  CB  PRO A   2      -9.092  19.220  66.208  1.00  0.00    -0.354 C  
ATOM     32  CG  PRO A   2     -10.440  19.476  66.869  1.00  0.00    -0.589 C  
ENDBRANCH   8  23
ENDBRANCH   7   8
ENDBRANCH   6   7
ENDBRANCH   5   6
ENDBRANCH   3   5
TORSDOF 10
ENDMDL
MODEL       49
REMARK 921   NORMALIZED FREE ENERGY PREDICTED BY IDOCK:   -5.43 KCAL/MOL
REMARK 922        TOTAL FREE ENERGY PREDICTED BY IDOCK:  -10.56 KCAL/MOL
REMARK 923 INTER-LIGAND FREE ENERGY PREDICTED BY IDOCK:   -8.60 KCAL/MOL
REMARK 924 INTRA-LIGAND FREE ENERGY PREDICTED BY IDOCK:   -1.96 KCAL/MOL
REMARK 927      BINDING AFFINITY PREDICTED BY RF-SCORE:    0.00 PKD
ROOT
HETATM    1  N   UNK A   1      -8.953  14.883  69.352  1.00  0.00    -0.417 NA 
HETATM    2  H2  UNK A   1      -9.240  13.942  69.622  1.00  0.00     0.000 HD 
HETATM    3  C   UNK A   1      -7.551  14.939  68.958  1.00  0.00    -0.151 C  
HETATM    4  H1  UNK A   1      -9.127  15.565  70.091  1.00  0.00     0.000 HD 
ENDROOT
BRANCH   3   5
HETATM    5  C   UNK A   1      -7.291  13.920  67.854  1.00  0.00    -0.157 C  
BRANCH   5   6
HETATM    6  C   UNK A   1      -7.763  12.514  68.245  1.00  0.00    -0.141 C  
BRANCH   6   7
HETATM    7  C   UNK A   1      -7.888  11.651  66.985  1.00  0.00    -0.164 C  
BRANCH   7   8
HETATM    8  C   UNK A   1      -9.127  10.741  66.913  1.00  0.00    -0.149 C  
BRANCH   8   9
HETATM    9  N   UNK A   1      -8.808   9.283  66.840  1.00  0.00    -0.126 NA 
HETATM   10  H   UNK A   1      -7.851   9.146  66.514  1.00  0.00     0.000 HD 
BRANCH   9  11
HETATM   11  C   UNK A   1      -9.035   8.525  68.111  1.00  0.00    -0.142 C  
HETATM   12  C   UNK A   1      -9.949   7.328  67.786  1.00  0.00    -0.166 C  
HETATM   13  O   UNK A   1      -9.982   6.284  68.420  1.00  0.00    -0.130 OA 
HETATM   14  O   UNK A   1     -10.734   7.565  66.706  1.00  0.00    -0.319 OA 
BRANCH  11  15
HETATM   15  C   UNK A   1      -9.706   9.395  69.197  1.00  0.00    -0.165 C  
BRANCH  15  16
HETATM   16  C   UNK A   1      -9.881   8.661  70.538  1.00  0.00    -0.210 C  
BRANCH  16  17
HETATM   17  C   UNK A   1     -11.300   8.720  71.057  1.00  0.00    -0.332 A  
HETATM   18  C   UNK A   1     -11.879   9.951  71.394  1.00  0.00    -0.476 A  
HETATM   19  C   UNK A   1     -13.936   8.850  72.021  1.00  0.00    -0.497 A  
HETATM   20  C   UNK A   1     -13.190  10.014  71.871  1.00  0.00    -0.557 A  
HETATM   21  C   UNK A   1     -13.379   7.620  71.675  1.00  0.00    -0.400 A  
HETATM   22  C   UNK A   1     -12.070   7.554  71.195  1.00  0.00    -0.335 A  
ENDBRANCH  16  17
ENDBRANCH  15  16
ENDBRANCH  11  15
ENDBRANCH   9  11
ENDBRANCH   8   9
BRANCH   8  23
HETATM   23  C   UNK A   1     -10.082  11.092  65.717  1.00  0.00    -0.249 C  
ATOM     24  OXT PRO A   2     -11.441  13.102  69.379  1.00  0.00    -0.269 OA 
HETATM   25  O   UNK A   1      -9.916  10.563  64.616  1.00  0.00    -0.308 OA 
ATOM     26  N   PRO A   2     -11.155  11.954  65.945  1.00  0.00    -0.312 N  
ATOM     27  CD  PRO A   2     -12.139  12.218  64.901  1.00  0.00    -0.356 C  
ATOM     28  O   PRO A   2     -12.376  11.369  68.269  1.00  0.00    -0.506 OA 
ATOM     29  C   PRO A   2     -11.647  12.509  68.332  1.00  0.00    -0.322 C  
ATOM     30  CA  PRO A   2     -11.191  13.015  66.965  1.00  0.00    -0.289 C  
ATOM     31  CB  PRO A   2     -12.184  14.057  66.441  1.00  0.00    -0.492 C  
ATOM     32  CG  PRO A   2     -12.382  13.714  64.971  1.00  0.00    -0.462 C  
ENDBRANCH   8  23
ENDBRANCH   7   8
ENDBRANCH   6   7
ENDBRANCH   5   6
ENDBRANCH   3   5
TORSDOF 10
ENDMDL
MODEL       50
REMARK 921   NORMALIZED FREE ENERGY PREDICTED BY IDOCK:   -5.42 KCAL/MOL
REMARK 922        TOTAL FREE ENERGY PREDICTED BY IDOCK:  -10.54 KCAL/MOL
REMARK 923 INTER-LIGAND FREE ENERGY PREDICTED BY IDOCK:   -9.18 KCAL/MOL
REMARK 924 INTRA-LIGAND FREE ENERGY PREDICTED BY IDOCK:   -1.36 KCAL/MOL
REMARK 927      BINDING AFFINITY PREDICTED BY RF-SCORE:    0.00 PKD
ROOT
HETATM    1  N   UNK A   1     -12.386  14.584  63.440  1.00  0.00    -1.034 NA 
HETATM    2  H2  UNK A   1     -12.423  15.002  64.370  1.00  0.00     0.000 HD 
HETATM    3  C   UNK A   1     -11.853  13.228  63.465  1.00  0.00    -0.418 C  
HETATM    4  H1  UNK A   1     -11.846  15.150  62.785  1.00  0.00     0.000 HD 
ENDROOT
BRANCH   3   5
HETATM    5  C   UNK A   1     -12.661  12.382  64.444  1.00  0.00    -0.489 C  
BRANCH   5   6
HETATM    6  C   UNK A   1     -11.780  11.769  65.539  1.00  0.00    -0.105 C  
BRANCH   6   7
HETATM    7  C   UNK A   1     -10.469  12.556  65.637  1.00  0.00    -0.299 C  
BRANCH   7   8
HETATM    8  C   UNK A   1     -10.113  13.100  67.031  1.00  0.00    -0.241 C  
BRANCH   8   9
HETATM    9  N   UNK A   1      -9.758  14.553  67.046  1.00  0.00    -0.238 NA 
HETATM   10  H   UNK A   1      -8.951  14.726  66.446  1.00  0.00     0.000 HD 
BRANCH   9  11
HETATM   11  C   UNK A   1     -10.879  15.477  66.686  1.00  0.00    -0.285 C  
HETATM   12  C   UNK A   1     -10.405  16.353  65.511  1.00  0.00    -0.313 C  
HETATM   13  O   UNK A   1     -11.141  16.873  64.687  1.00  0.00    -0.934 OA 
HETATM   14  O   UNK A   1      -9.056  16.496  65.495  1.00  0.00    -0.404 OA 
BRANCH  11  15
HETATM   15  C   UNK A   1     -11.288  16.387  67.865  1.00  0.00    -0.095 C  
BRANCH  15  16
HETATM   16  C   UNK A   1     -10.094  16.845  68.719  1.00  0.00    -0.295 C  
BRANCH  16  17
HETATM   17  C   UNK A   1      -9.497  18.151  68.242  1.00  0.00    -0.315 A  
HETATM   18  C   UNK A   1      -8.107  18.310  68.177  1.00  0.00    -0.297 A  
HETATM   19  C   UNK A   1      -8.370  20.567  67.355  1.00  0.00    -0.351 A  
HETATM   20  C   UNK A   1      -7.548  19.511  67.734  1.00  0.00    -0.307 A  
HETATM   21  C   UNK A   1      -9.755  20.417  67.400  1.00  0.00    -0.597 A  
HETATM   22  C   UNK A   1     -10.316  19.217  67.839  1.00  0.00    -0.518 A  
ENDBRANCH  16  17
ENDBRANCH  15  16
ENDBRANCH  11  15
ENDBRANCH   9  11
ENDBRANCH   8   9
BRANCH   8  23
HETATM   23  C   UNK A   1      -8.948  12.307  67.724  1.00  0.00    -0.177 C  
ATOM     24  OXT PRO A   2     -12.837  10.718  69.009  1.00  0.00    -0.044 OA 
HETATM   25  O   UNK A   1      -7.777  12.651  67.555  1.00  0.00    -0.139 OA 
ATOM     26  N   PRO A   2      -9.270  11.257  68.585  1.00  0.00    -0.179 N  
ATOM     27  CD  PRO A   2      -8.234  10.566  69.345  1.00  0.00    -0.119 C  
ATOM     28  O   PRO A   2     -11.328  11.925  70.182  1.00  0.00    -0.131 OA 
ATOM     29  C   PRO A   2     -11.678  11.039  69.220  1.00  0.00    -0.326 C  
ATOM     30  CA  PRO A   2     -10.481  10.425  68.495  1.00  0.00    -0.186 C  
ATOM     31  CB  PRO A   2     -10.112   9.088  69.144  1.00  0.00    -0.201 C  
ATOM     32  CG  PRO A   2      -8.592   9.097  69.238  1.00  0.00    -0.137 C  
ENDBRANCH   8  23
ENDBRANCH   7   8
ENDBRANCH   6   7
ENDBRANCH   5   6
ENDBRANCH   3   5
TORSDOF 10
ENDMDL
MODEL       51
REMARK 921   NORMALIZED FREE ENERGY PREDICTED BY IDOCK:   -5.41 KCAL/MOL
REMARK 922        TOTAL FREE ENERGY PREDICTED BY IDOCK:  -10.52 KCAL/MOL
REMARK 923 INTER-LIGAND FREE ENERGY PREDICTED BY IDOCK:   -8.76 KCAL/MOL
REMARK 924 INTRA-LIGAND FREE ENERGY PREDICTED BY IDOCK:   -1.76 KCAL/MOL
REMARK 927      BINDING AFFINITY PREDICTED BY RF-SCORE:    0.00 PKD
ROOT
HETATM    1  N   UNK A   1      -7.150  11.320  70.038  1.00  0.00    -0.427 NA 
HETATM    2  H2  UNK A   1      -6.830  10.461  69.591  1.00  0.00     0.000 HD 
HETATM    3  C   UNK A   1      -6.412  12.490  69.577  1.00  0.00    -0.083 C  
HETATM    4  H1  UNK A   1      -7.102  11.266  71.055  1.00  0.00     0.000 HD 
ENDROOT
BRANCH   3   5
HETATM    5  C   UNK A   1      -6.485  12.570  68.056  1.00  0.00    -0.087 C  
BRANCH   5   6
HETATM    6  C   UNK A   1      -7.097  13.892  67.577  1.00  0.00    -0.175 C  
BRANCH   6   7
HETATM    7  C   UNK A   1      -8.430  13.611  66.876  1.00  0.00    -0.073 C  
BRANCH   7   8
HETATM    8  C   UNK A   1      -9.635  14.432  67.365  1.00  0.00    -0.216 C  
BRANCH   8   9
HETATM    9  N   UNK A   1     -10.945  13.720  67.253  1.00  0.00    -0.288 NA 
HETATM   10  H   UNK A   1     -11.623  14.303  66.764  1.00  0.00     0.000 HD 
BRANCH   9  11
HETATM   11  C   UNK A   1     -10.871  12.366  66.618  1.00  0.00    -0.246 C  
HETATM   12  C   UNK A   1     -11.695  12.413  65.318  1.00  0.00    -0.390 C  
HETATM   13  O   UNK A   1     -11.510  11.694  64.348  1.00  0.00    -0.304 OA 
HETATM   14  O   UNK A   1     -12.673  13.351  65.368  1.00  0.00    -0.526 OA 
BRANCH  11  15
HETATM   15  C   UNK A   1     -11.435  11.259  67.536  1.00  0.00    -0.324 C  
BRANCH  15  16
HETATM   16  C   UNK A   1     -10.503  10.910  68.708  1.00  0.00    -0.224 C  
BRANCH  16  17
HETATM   17  C   UNK A   1     -11.247  10.372  69.910  1.00  0.00    -0.371 A  
HETATM   18  C   UNK A   1     -12.397  11.022  70.377  1.00  0.00    -0.442 A  
HETATM   19  C   UNK A   1     -12.645   9.387  72.139  1.00  0.00    -0.423 A  
HETATM   20  C   UNK A   1     -13.092  10.530  71.484  1.00  0.00    -0.532 A  
HETATM   21  C   UNK A   1     -11.512   8.722  71.675  1.00  0.00    -0.386 A  
HETATM   22  C   UNK A   1     -10.817   9.209  70.568  1.00  0.00    -0.306 A  
ENDBRANCH  16  17
ENDBRANCH  15  16
ENDBRANCH  11  15
ENDBRANCH   9  11
ENDBRANCH   8   9
BRANCH   8  23
HETATM   23  C   UNK A   1      -9.771  15.820  66.641  1.00  0.00    -0.249 C  
ATOM     24  OXT PRO A   2     -10.958  16.188  70.855  1.00  0.00    -0.253 OA 
HETATM   25  O   UNK A   1      -9.560  15.910  65.431  1.00  0.00    -0.383 OA 
ATOM     26  N   PRO A   2     -10.201  16.923  67.379  1.00  0.00    -0.291 N  
ATOM     27  CD  PRO A   2     -10.459  18.204  66.731  1.00  0.00    -0.348 C  
ATOM     28  O   PRO A   2     -12.244  16.255  68.997  1.00  0.00    -0.031 OA 
ATOM     29  C   PRO A   2     -11.085  16.452  69.670  1.00  0.00    -0.306 C  
ATOM     30  CA  PRO A   2      -9.996  17.111  68.825  1.00  0.00    -0.315 C  
ATOM     31  CB  PRO A   2     -10.013  18.626  69.050  1.00  0.00    -0.335 C  
ATOM     32  CG  PRO A   2      -9.854  19.236  67.663  1.00  0.00    -0.429 C  
ENDBRANCH   8  23
ENDBRANCH   7   8
ENDBRANCH   6   7
ENDBRANCH   5   6
ENDBRANCH   3   5
TORSDOF 10
ENDMDL
MODEL       52
REMARK 921   NORMALIZED FREE ENERGY PREDICTED BY IDOCK:   -5.41 KCAL/MOL
REMARK 922        TOTAL FREE ENERGY PREDICTED BY IDOCK:  -10.52 KCAL/MOL
REMARK 923 INTER-LIGAND FREE ENERGY PREDICTED BY IDOCK:   -8.50 KCAL/MOL
REMARK 924 INTRA-LIGAND FREE ENERGY PREDICTED BY IDOCK:   -2.02 KCAL/MOL
REMARK 927      BINDING AFFINITY PREDICTED BY RF-SCORE:    0.00 PKD
ROOT
HETATM    1  N   UNK A   1      -5.557  17.993  70.250  1.00  0.00    -0.248 NA 
HETATM    2  H2  UNK A   1      -6.391  18.523  70.503  1.00  0.00     0.000 HD 
HETATM    3  C   UNK A   1      -5.836  16.572  70.088  1.00  0.00    -0.171 C  
HETATM    4  H1  UNK A   1      -4.802  18.117  70.925  1.00  0.00     0.000 HD 
ENDROOT
BRANCH   3   5
HETATM    5  C   UNK A   1      -6.964  16.386  69.080  1.00  0.00    -0.200 C  
BRANCH   5   6
HETATM    6  C   UNK A   1      -6.521  15.563  67.863  1.00  0.00    -0.171 C  
BRANCH   6   7
HETATM    7  C   UNK A   1      -7.599  15.640  66.778  1.00  0.00    -0.125 C  
BRANCH   7   8
HETATM    8  C   UNK A   1      -8.248  17.019  66.569  1.00  0.00    -0.279 C  
BRANCH   8   9
HETATM    9  N   UNK A   1      -9.492  16.988  65.741  1.00  0.00    -0.530 NA 
HETATM   10  H   UNK A   1      -9.259  17.057  64.751  1.00  0.00     0.000 HD 
BRANCH   9  11
HETATM   11  C   UNK A   1     -10.379  15.806  65.983  1.00  0.00    -0.340 C  
HETATM   12  C   UNK A   1     -11.268  15.624  64.738  1.00  0.00    -0.382 C  
HETATM   13  O   UNK A   1     -11.762  14.565  64.382  1.00  0.00    -0.404 OA 
HETATM   14  O   UNK A   1     -11.455  16.791  64.071  1.00  0.00    -1.198 OA 
BRANCH  11  15
HETATM   15  C   UNK A   1     -11.278  15.994  67.225  1.00  0.00    -0.041 C  
BRANCH  15  16
HETATM   16  C   UNK A   1     -10.786  15.211  68.454  1.00  0.00    -0.255 C  
BRANCH  16  17
HETATM   17  C   UNK A   1     -10.723  13.720  68.212  1.00  0.00    -0.264 A  
HETATM   18  C   UNK A   1     -11.893  12.998  67.940  1.00  0.00    -0.389 A  
HETATM   19  C   UNK A   1     -10.626  10.949  67.758  1.00  0.00    -0.255 A  
HETATM   20  C   UNK A   1     -11.843  11.621  67.713  1.00  0.00    -0.247 A  
HETATM   21  C   UNK A   1      -9.453  11.656  68.012  1.00  0.00    -0.185 A  
HETATM   22  C   UNK A   1      -9.499  13.033  68.237  1.00  0.00    -0.208 A  
ENDBRANCH  16  17
ENDBRANCH  15  16
ENDBRANCH  11  15
ENDBRANCH   9  11
ENDBRANCH   8   9
BRANCH   8  23
HETATM   23  C   UNK A   1      -7.269  18.073  65.939  1.00  0.00    -0.243 C  
ATOM     24  OXT PRO A   2     -10.109  20.065  68.636  1.00  0.00    -0.425 OA 
HETATM   25  O   UNK A   1      -6.445  17.725  65.093  1.00  0.00    -0.105 OA 
ATOM     26  N   PRO A   2      -7.400  19.413  66.305  1.00  0.00    -0.251 N  
ATOM     27  CD  PRO A   2      -6.598  20.448  65.661  1.00  0.00    -0.247 C  
ATOM     28  O   PRO A   2      -9.990  20.136  66.380  1.00  0.00    -0.440 OA 
ATOM     29  C   PRO A   2      -9.445  20.014  67.613  1.00  0.00    -0.376 C  
ATOM     30  CA  PRO A   2      -7.921  19.896  67.595  1.00  0.00    -0.292 C  
ATOM     31  CB  PRO A   2      -7.292  21.277  67.802  1.00  0.00     0.154 C  
ATOM     32  CG  PRO A   2      -6.153  21.351  66.795  1.00  0.00    -0.386 C  
ENDBRANCH   8  23
ENDBRANCH   7   8
ENDBRANCH   6   7
ENDBRANCH   5   6
ENDBRANCH   3   5
TORSDOF 10
ENDMDL
MODEL       53
REMARK 921   NORMALIZED FREE ENERGY PREDICTED BY IDOCK:   -5.40 KCAL/MOL
REMARK 922        TOTAL FREE ENERGY PREDICTED BY IDOCK:  -10.52 KCAL/MOL
REMARK 923 INTER-LIGAND FREE ENERGY PREDICTED BY IDOCK:   -8.96 KCAL/MOL
REMARK 924 INTRA-LIGAND FREE ENERGY PREDICTED BY IDOCK:   -1.56 KCAL/MOL
REMARK 927      BINDING AFFINITY PREDICTED BY RF-SCORE:    0.00 PKD
ROOT
HETATM    1  N   UNK A   1     -10.382  13.758  64.124  1.00  0.00    -0.667 NA 
HETATM    2  H2  UNK A   1      -9.991  13.481  65.025  1.00  0.00     0.000 HD 
HETATM    3  C   UNK A   1     -11.406  12.833  63.659  1.00  0.00    -0.453 C  
HETATM    4  H1  UNK A   1      -9.662  13.859  63.407  1.00  0.00     0.000 HD 
ENDROOT
BRANCH   3   5
HETATM    5  C   UNK A   1     -12.481  12.682  64.730  1.00  0.00    -0.555 C  
BRANCH   5   6
HETATM    6  C   UNK A   1     -12.303  13.692  65.871  1.00  0.00    -0.516 C  
BRANCH   6   7
HETATM    7  C   UNK A   1     -12.111  12.939  67.191  1.00  0.00    -0.283 C  
BRANCH   7   8
HETATM    8  C   UNK A   1     -10.692  12.972  67.784  1.00  0.00    -0.229 C  
BRANCH   8   9
HETATM    9  N   UNK A   1     -10.091  14.339  67.853  1.00  0.00    -0.230 NA 
HETATM   10  H   UNK A   1     -10.714  15.021  67.421  1.00  0.00     0.000 HD 
BRANCH   9  11
HETATM   11  C   UNK A   1      -9.707  14.788  69.229  1.00  0.00    -0.091 C  
HETATM   12  C   UNK A   1     -10.978  15.310  69.924  1.00  0.00    -0.290 C  
HETATM   13  O   UNK A   1     -11.154  15.330  71.133  1.00  0.00    -0.340 OA 
HETATM   14  O   UNK A   1     -11.896  15.763  69.034  1.00  0.00    -0.391 OA 
BRANCH  11  15
HETATM   15  C   UNK A   1      -8.646  15.911  69.201  1.00  0.00    -0.252 C  
BRANCH  15  16
HETATM   16  C   UNK A   1      -8.340  16.421  67.783  1.00  0.00    -0.172 C  
BRANCH  16  17
HETATM   17  C   UNK A   1      -8.887  17.808  67.528  1.00  0.00    -0.243 A  
HETATM   18  C   UNK A   1      -9.711  18.428  68.477  1.00  0.00    -0.386 A  
HETATM   19  C   UNK A   1      -9.911  20.385  67.074  1.00  0.00    -0.594 A  
HETATM   20  C   UNK A   1     -10.218  19.709  68.251  1.00  0.00    -0.567 A  
HETATM   21  C   UNK A   1      -9.081  19.786  66.128  1.00  0.00    -0.403 A  
HETATM   22  C   UNK A   1      -8.570  18.507  66.353  1.00  0.00    -0.272 A  
ENDBRANCH  16  17
ENDBRANCH  15  16
ENDBRANCH  11  15
ENDBRANCH   9  11
ENDBRANCH   8   9
BRANCH   8  23
HETATM   23  C   UNK A   1      -9.685  12.034  67.027  1.00  0.00    -0.196 C  
ATOM     24  OXT PRO A   2     -11.972   9.726  69.984  1.00  0.00    -0.105 OA 
HETATM   25  O   UNK A   1      -8.893  12.507  66.209  1.00  0.00    -0.091 OA 
ATOM     26  N   PRO A   2      -9.658  10.677  67.350  1.00  0.00    -0.157 N  
ATOM     27  CD  PRO A   2      -8.662   9.787  66.764  1.00  0.00    -0.131 C  
ATOM     28  O   PRO A   2      -9.792  10.324  70.013  1.00  0.00    -0.191 OA 
ATOM     29  C   PRO A   2     -10.943   9.992  69.382  1.00  0.00    -0.244 C  
ATOM     30  CA  PRO A   2     -10.800   9.903  67.863  1.00  0.00    -0.258 C  
ATOM     31  CB  PRO A   2     -10.532   8.452  67.453  1.00  0.00    -0.354 C  
ATOM     32  CG  PRO A   2      -9.433   8.532  66.402  1.00  0.00    -0.297 C  
ENDBRANCH   8  23
ENDBRANCH   7   8
ENDBRANCH   6   7
ENDBRANCH   5   6
ENDBRANCH   3   5
TORSDOF 10
ENDMDL
MODEL       54
REMARK 921   NORMALIZED FREE ENERGY PREDICTED BY IDOCK:   -5.40 KCAL/MOL
REMARK 922        TOTAL FREE ENERGY PREDICTED BY IDOCK:  -10.51 KCAL/MOL
REMARK 923 INTER-LIGAND FREE ENERGY PREDICTED BY IDOCK:   -9.12 KCAL/MOL
REMARK 924 INTRA-LIGAND FREE ENERGY PREDICTED BY IDOCK:   -1.39 KCAL/MOL
REMARK 927      BINDING AFFINITY PREDICTED BY RF-SCORE:    0.00 PKD
ROOT
HETATM    1  N   UNK A   1     -12.628  12.816  63.085  1.00  0.00    -0.707 NA 
HETATM    2  H2  UNK A   1     -12.281  13.478  62.391  1.00  0.00     0.000 HD 
HETATM    3  C   UNK A   1     -11.555  12.031  63.683  1.00  0.00    -0.486 C  
HETATM    4  H1  UNK A   1     -13.335  12.190  62.700  1.00  0.00     0.000 HD 
ENDROOT
BRANCH   3   5
HETATM    5  C   UNK A   1     -10.498  12.967  64.258  1.00  0.00    -0.424 C  
BRANCH   5   6
HETATM    6  C   UNK A   1     -11.040  13.800  65.426  1.00  0.00    -0.304 C  
BRANCH   6   7
HETATM    7  C   UNK A   1     -10.831  15.288  65.130  1.00  0.00    -0.441 C  
BRANCH   7   8
HETATM    8  C   UNK A   1      -9.724  15.987  65.938  1.00  0.00    -0.343 C  
BRANCH   8   9
HETATM    9  N   UNK A   1      -8.621  15.076  66.374  1.00  0.00    -0.453 NA 
HETATM   10  H   UNK A   1      -7.723  15.422  66.036  1.00  0.00     0.000 HD 
BRANCH   9  11
HETATM   11  C   UNK A   1      -8.559  14.827  67.849  1.00  0.00    -0.166 C  
HETATM   12  C   UNK A   1      -7.118  15.114  68.312  1.00  0.00    -0.112 C  
HETATM   13  O   UNK A   1      -6.803  15.451  69.444  1.00  0.00    -0.147 OA 
HETATM   14  O   UNK A   1      -6.217  14.940  67.313  1.00  0.00    -0.311 OA 
BRANCH  11  15
HETATM   15  C   UNK A   1      -8.927  13.371  68.211  1.00  0.00    -0.176 C  
BRANCH  15  16
HETATM   16  C   UNK A   1      -8.236  12.330  67.314  1.00  0.00    -0.182 C  
BRANCH  16  17
HETATM   17  C   UNK A   1      -9.039  11.057  67.167  1.00  0.00    -0.151 A  
HETATM   18  C   UNK A   1      -8.888  10.254  66.028  1.00  0.00    -0.166 A  
HETATM   19  C   UNK A   1     -10.519   8.687  66.876  1.00  0.00    -0.329 A  
HETATM   20  C   UNK A   1      -9.623   9.075  65.886  1.00  0.00    -0.317 A  
HETATM   21  C   UNK A   1     -10.669   9.468  68.020  1.00  0.00    -0.266 A  
HETATM   22  C   UNK A   1      -9.933  10.644  68.167  1.00  0.00    -0.176 A  
ENDBRANCH  16  17
ENDBRANCH  15  16
ENDBRANCH  11  15
ENDBRANCH   9  11
ENDBRANCH   8   9
BRANCH   8  23
HETATM   23  C   UNK A   1     -10.265  16.739  67.206  1.00  0.00    -0.292 C  
ATOM     24  OXT PRO A   2      -7.164  19.142  65.229  1.00  0.00    -0.455 OA 
HETATM   25  O   UNK A   1     -11.088  16.195  67.944  1.00  0.00    -0.340 OA 
ATOM     26  N   PRO A   2      -9.746  17.997  67.513  1.00  0.00    -0.282 N  
ATOM     27  CD  PRO A   2     -10.126  18.685  68.742  1.00  0.00    -0.353 C  
ATOM     28  O   PRO A   2      -7.075  18.033  67.197  1.00  0.00    -0.187 OA 
ATOM     29  C   PRO A   2      -7.727  18.712  66.223  1.00  0.00    -0.264 C  
ATOM     30  CA  PRO A   2      -9.203  18.954  66.535  1.00  0.00    -0.331 C  
ATOM     31  CB  PRO A   2      -9.377  20.337  67.172  1.00  0.00    -0.536 C  
ATOM     32  CG  PRO A   2     -10.351  20.125  68.323  1.00  0.00    -0.426 C  
ENDBRANCH   8  23
ENDBRANCH   7   8
ENDBRANCH   6   7
ENDBRANCH   5   6
ENDBRANCH   3   5
TORSDOF 10
ENDMDL
MODEL       55
REMARK 921   NORMALIZED FREE ENERGY PREDICTED BY IDOCK:   -5.39 KCAL/MOL
REMARK 922        TOTAL FREE ENERGY PREDICTED BY IDOCK:  -10.50 KCAL/MOL
REMARK 923 INTER-LIGAND FREE ENERGY PREDICTED BY IDOCK:   -8.78 KCAL/MOL
REMARK 924 INTRA-LIGAND FREE ENERGY PREDICTED BY IDOCK:   -1.72 KCAL/MOL
REMARK 927      BINDING AFFINITY PREDICTED BY RF-SCORE:    0.00 PKD
ROOT
HETATM    1  N   UNK A   1      -9.537   5.227  73.734  1.00  0.00    -0.137 NA 
HETATM    2  H2  UNK A   1      -8.636   4.893  74.076  1.00  0.00     0.000 HD 
HETATM    3  C   UNK A   1      -9.936   6.478  74.366  1.00  0.00    -0.351 C  
HETATM    4  H1  UNK A   1     -10.276   4.533  73.855  1.00  0.00     0.000 HD 
ENDROOT
BRANCH   3   5
HETATM    5  C   UNK A   1      -8.832   7.514  74.186  1.00  0.00    -0.276 C  
BRANCH   5   6
HETATM    6  C   UNK A   1      -8.766   8.042  72.748  1.00  0.00    -0.262 C  
BRANCH   6   7
HETATM    7  C   UNK A   1     -10.176   8.410  72.276  1.00  0.00    -0.396 C  
BRANCH   7   8
HETATM    8  C   UNK A   1     -10.473   8.164  70.787  1.00  0.00    -0.202 C  
BRANCH   8   9
HETATM    9  N   UNK A   1     -11.820   8.641  70.346  1.00  0.00    -0.475 NA 
HETATM   10  H   UNK A   1     -12.415   7.847  70.107  1.00  0.00     0.000 HD 
BRANCH   9  11
HETATM   11  C   UNK A   1     -12.518   9.537  71.321  1.00  0.00    -0.346 C  
HETATM   12  C   UNK A   1     -13.689   8.744  71.931  1.00  0.00    -0.433 C  
HETATM   13  O   UNK A   1     -14.178   8.957  73.031  1.00  0.00    -0.437 OA 
HETATM   14  O   UNK A   1     -14.134   7.770  71.099  1.00  0.00    -0.280 OA 
BRANCH  11  15
HETATM   15  C   UNK A   1     -13.068  10.815  70.649  1.00  0.00    -0.204 C  
BRANCH  15  16
HETATM   16  C   UNK A   1     -11.997  11.900  70.444  1.00  0.00    -0.400 C  
BRANCH  16  17
HETATM   17  C   UNK A   1     -12.414  13.246  70.992  1.00  0.00    -0.422 A  
HETATM   18  C   UNK A   1     -11.927  14.426  70.414  1.00  0.00    -0.395 A  
HETATM   19  C   UNK A   1     -13.179  15.757  71.994  1.00  0.00    -0.491 A  
HETATM   20  C   UNK A   1     -12.309  15.674  70.912  1.00  0.00    -0.479 A  
HETATM   21  C   UNK A   1     -13.684  14.593  72.568  1.00  0.00    -0.572 A  
HETATM   22  C   UNK A   1     -13.306  13.345  72.071  1.00  0.00    -0.569 A  
ENDBRANCH  16  17
ENDBRANCH  15  16
ENDBRANCH  11  15
ENDBRANCH   9  11
ENDBRANCH   8   9
BRANCH   8  23
HETATM   23  C   UNK A   1     -10.329   6.656  70.369  1.00  0.00    -0.199 C  
ATOM     24  OXT PRO A   2      -8.881   9.265  67.145  1.00  0.00    -0.126 OA 
HETATM   25  O   UNK A   1     -10.754   5.766  71.108  1.00  0.00    -0.249 OA 
ATOM     26  N   PRO A   2      -9.779   6.354  69.123  1.00  0.00    -0.135 N  
ATOM     27  CD  PRO A   2      -9.733   4.979  68.638  1.00  0.00    -0.158 C  
ATOM     28  O   PRO A   2     -10.749   7.994  67.225  1.00  0.00    -0.300 OA 
ATOM     29  C   PRO A   2      -9.465   8.273  67.552  1.00  0.00    -0.149 C  
ATOM     30  CA  PRO A   2      -8.804   7.187  68.400  1.00  0.00    -0.127 C  
ATOM     31  CB  PRO A   2      -8.030   6.224  67.495  1.00  0.00    -0.109 C  
ATOM     32  CG  PRO A   2      -8.353   4.833  68.026  1.00  0.00    -0.102 C  
ENDBRANCH   8  23
ENDBRANCH   7   8
ENDBRANCH   6   7
ENDBRANCH   5   6
ENDBRANCH   3   5
TORSDOF 10
ENDMDL
MODEL       56
REMARK 921   NORMALIZED FREE ENERGY PREDICTED BY IDOCK:   -5.37 KCAL/MOL
REMARK 922        TOTAL FREE ENERGY PREDICTED BY IDOCK:  -10.46 KCAL/MOL
REMARK 923 INTER-LIGAND FREE ENERGY PREDICTED BY IDOCK:   -9.06 KCAL/MOL
REMARK 924 INTRA-LIGAND FREE ENERGY PREDICTED BY IDOCK:   -1.40 KCAL/MOL
REMARK 927      BINDING AFFINITY PREDICTED BY RF-SCORE:    0.00 PKD
ROOT
HETATM    1  N   UNK A   1     -11.299  11.442  63.174  1.00  0.00    -0.864 NA 
HETATM    2  H2  UNK A   1     -11.633  10.560  63.562  1.00  0.00     0.000 HD 
HETATM    3  C   UNK A   1     -12.186  12.554  63.490  1.00  0.00    -0.558 C  
HETATM    4  H1  UNK A   1     -11.162  11.391  62.164  1.00  0.00     0.000 HD 
ENDROOT
BRANCH   3   5
HETATM    5  C   UNK A   1     -12.391  12.630  64.999  1.00  0.00    -0.561 C  
BRANCH   5   6
HETATM    6  C   UNK A   1     -11.219  12.013  65.771  1.00  0.00    -0.383 C  
BRANCH   6   7
HETATM    7  C   UNK A   1     -11.650  11.739  67.215  1.00  0.00    -0.344 C  
BRANCH   7   8
HETATM    8  C   UNK A   1     -10.985  12.611  68.294  1.00  0.00    -0.248 C  
BRANCH   8   9
HETATM    9  N   UNK A   1     -11.248  12.156  69.693  1.00  0.00    -0.472 NA 
HETATM   10  H   UNK A   1     -11.906  12.786  70.152  1.00  0.00     0.000 HD 
BRANCH   9  11
HETATM   11  C   UNK A   1     -11.717  10.740  69.816  1.00  0.00    -0.324 C  
HETATM   12  C   UNK A   1     -12.794  10.696  70.917  1.00  0.00    -0.382 C  
HETATM   13  O   UNK A   1     -13.688   9.866  70.986  1.00  0.00    -0.268 OA 
HETATM   14  O   UNK A   1     -12.636  11.692  71.823  1.00  0.00    -0.234 OA 
BRANCH  11  15
HETATM   15  C   UNK A   1     -10.571   9.775  70.191  1.00  0.00    -0.337 C  
BRANCH  15  16
HETATM   16  C   UNK A   1     -10.599   8.460  69.393  1.00  0.00    -0.204 C  
BRANCH  16  17
HETATM   17  C   UNK A   1     -10.626   7.236  70.280  1.00  0.00    -0.243 A  
HETATM   18  C   UNK A   1      -9.857   6.110  69.955  1.00  0.00    -0.205 A  
HETATM   19  C   UNK A   1     -10.659   4.953  71.918  1.00  0.00    -0.186 A  
HETATM   20  C   UNK A   1      -9.873   4.977  70.770  1.00  0.00    -0.279 A  
HETATM   21  C   UNK A   1     -11.417   6.070  72.262  1.00  0.00    -0.364 A  
HETATM   22  C   UNK A   1     -11.400   7.205  71.451  1.00  0.00    -0.288 A  
ENDBRANCH  16  17
ENDBRANCH  15  16
ENDBRANCH  11  15
ENDBRANCH   9  11
ENDBRANCH   8   9
BRANCH   8  23
HETATM   23  C   UNK A   1     -11.380  14.127  68.192  1.00  0.00    -0.290 C  
ATOM     24  OXT PRO A   2      -7.131  13.601  67.208  1.00  0.00    -0.132 OA 
HETATM   25  O   UNK A   1     -12.514  14.495  68.506  1.00  0.00    -0.072 OA 
ATOM     26  N   PRO A   2     -10.407  15.050  67.808  1.00  0.00    -0.243 N  
ATOM     27  CD  PRO A   2     -10.688  16.482  67.813  1.00  0.00    -0.329 C  
ATOM     28  O   PRO A   2      -8.069  14.543  69.036  1.00  0.00    -0.143 OA 
ATOM     29  C   PRO A   2      -8.053  14.214  67.723  1.00  0.00    -0.166 C  
ATOM     30  CA  PRO A   2      -9.250  14.757  66.946  1.00  0.00    -0.245 C  
ATOM     31  CB  PRO A   2      -8.878  16.090  66.288  1.00  0.00    -0.379 C  
ATOM     32  CG  PRO A   2     -10.077  16.999  66.525  1.00  0.00    -0.318 C  
ENDBRANCH   8  23
ENDBRANCH   7   8
ENDBRANCH   6   7
ENDBRANCH   5   6
ENDBRANCH   3   5
TORSDOF 10
ENDMDL
MODEL       57
REMARK 921   NORMALIZED FREE ENERGY PREDICTED BY IDOCK:   -5.36 KCAL/MOL
REMARK 922        TOTAL FREE ENERGY PREDICTED BY IDOCK:  -10.45 KCAL/MOL
REMARK 923 INTER-LIGAND FREE ENERGY PREDICTED BY IDOCK:   -8.74 KCAL/MOL
REMARK 924 INTRA-LIGAND FREE ENERGY PREDICTED BY IDOCK:   -1.71 KCAL/MOL
REMARK 927      BINDING AFFINITY PREDICTED BY RF-SCORE:    0.00 PKD
ROOT
HETATM    1  N   UNK A   1     -13.996   9.033  71.134  1.00  0.00    -0.551 NA 
HETATM    2  H2  UNK A   1     -13.576   8.845  70.223  1.00  0.00     0.000 HD 
HETATM    3  C   UNK A   1     -13.124   9.830  71.988  1.00  0.00    -0.452 C  
HETATM    4  H1  UNK A   1     -14.259   8.176  71.621  1.00  0.00     0.000 HD 
ENDROOT
BRANCH   3   5
HETATM    5  C   UNK A   1     -12.731  11.111  71.260  1.00  0.00    -0.531 C  
BRANCH   5   6
HETATM    6  C   UNK A   1     -12.424  10.861  69.779  1.00  0.00    -0.250 C  
BRANCH   6   7
HETATM    7  C   UNK A   1     -11.649  12.055  69.212  1.00  0.00    -0.380 C  
BRANCH   7   8
HETATM    8  C   UNK A   1     -11.424  12.050  67.690  1.00  0.00    -0.322 C  
BRANCH   8   9
HETATM    9  N   UNK A   1     -10.720  10.833  67.181  1.00  0.00    -0.260 NA 
HETATM   10  H   UNK A   1     -10.455  10.961  66.205  1.00  0.00     0.000 HD 
BRANCH   9  11
HETATM   11  C   UNK A   1      -9.533  10.410  67.989  1.00  0.00    -0.143 C  
HETATM   12  C   UNK A   1      -8.271  10.698  67.155  1.00  0.00    -0.121 C  
HETATM   13  O   UNK A   1      -7.161  10.909  67.619  1.00  0.00    -0.084 OA 
HETATM   14  O   UNK A   1      -8.527  10.683  65.823  1.00  0.00    -0.169 OA 
BRANCH  11  15
HETATM   15  C   UNK A   1      -9.574   8.907  68.344  1.00  0.00    -0.157 C  
BRANCH  15  16
HETATM   16  C   UNK A   1     -10.626   8.123  67.540  1.00  0.00    -0.291 C  
BRANCH  16  17
HETATM   17  C   UNK A   1     -10.029   6.977  66.755  1.00  0.00    -0.266 A  
HETATM   18  C   UNK A   1     -10.599   5.699  66.826  1.00  0.00    -0.372 A  
HETATM   19  C   UNK A   1      -8.936   4.835  65.301  1.00  0.00    -0.151 A  
HETATM   20  C   UNK A   1     -10.056   4.636  66.101  1.00  0.00    -0.291 A  
HETATM   21  C   UNK A   1      -8.368   6.104  65.209  1.00  0.00    -0.144 A  
HETATM   22  C   UNK A   1      -8.910   7.169  65.929  1.00  0.00    -0.128 A  
ENDBRANCH  16  17
ENDBRANCH  15  16
ENDBRANCH  11  15
ENDBRANCH   9  11
ENDBRANCH   8   9
BRANCH   8  23
HETATM   23  C   UNK A   1     -10.644  13.314  67.177  1.00  0.00    -0.258 C  
ATOM     24  OXT PRO A   2     -13.432  11.899  64.091  1.00  0.00    -0.591 OA 
HETATM   25  O   UNK A   1      -9.756  13.816  67.868  1.00  0.00    -0.215 OA 
ATOM     26  N   PRO A   2     -10.929  13.807  65.904  1.00  0.00    -0.282 N  
ATOM     27  CD  PRO A   2     -10.152  14.903  65.333  1.00  0.00    -0.367 C  
ATOM     28  O   PRO A   2     -11.174  11.799  64.132  1.00  0.00    -0.339 OA 
ATOM     29  C   PRO A   2     -12.362  12.366  64.448  1.00  0.00    -0.447 C  
ATOM     30  CA  PRO A   2     -12.224  13.682  65.213  1.00  0.00    -0.439 C  
ATOM     31  CB  PRO A   2     -12.285  14.859  64.235  1.00  0.00    -0.365 C  
ATOM     32  CG  PRO A   2     -11.182  15.808  64.685  1.00  0.00    -0.373 C  
ENDBRANCH   8  23
ENDBRANCH   7   8
ENDBRANCH   6   7
ENDBRANCH   5   6
ENDBRANCH   3   5
TORSDOF 10
ENDMDL
MODEL       58
REMARK 921   NORMALIZED FREE ENERGY PREDICTED BY IDOCK:   -5.35 KCAL/MOL
REMARK 922        TOTAL FREE ENERGY PREDICTED BY IDOCK:  -10.43 KCAL/MOL
REMARK 923 INTER-LIGAND FREE ENERGY PREDICTED BY IDOCK:   -8.82 KCAL/MOL
REMARK 924 INTRA-LIGAND FREE ENERGY PREDICTED BY IDOCK:   -1.61 KCAL/MOL
REMARK 927      BINDING AFFINITY PREDICTED BY RF-SCORE:    0.00 PKD
ROOT
HETATM    1  N   UNK A   1     -13.198  12.289  64.117  1.00  0.00    -0.738 NA 
HETATM    2  H2  UNK A   1     -13.310  13.030  64.810  1.00  0.00     0.000 HD 
HETATM    3  C   UNK A   1     -11.797  12.032  63.808  1.00  0.00    -0.484 C  
HETATM    4  H1  UNK A   1     -13.706  12.487  63.255  1.00  0.00     0.000 HD 
ENDROOT
BRANCH   3   5
HETATM    5  C   UNK A   1     -11.037  11.736  65.097  1.00  0.00    -0.341 C  
BRANCH   5   6
HETATM    6  C   UNK A   1     -10.147  10.493  64.969  1.00  0.00    -0.390 C  
BRANCH   6   7
HETATM    7  C   UNK A   1      -9.468  10.214  66.313  1.00  0.00    -0.229 C  
BRANCH   7   8
HETATM    8  C   UNK A   1      -9.731   8.827  66.924  1.00  0.00    -0.210 C  
BRANCH   8   9
HETATM    9  N   UNK A   1     -10.853   8.799  67.912  1.00  0.00    -0.488 NA 
HETATM   10  H   UNK A   1     -10.968   7.858  68.289  1.00  0.00     0.000 HD 
BRANCH   9  11
HETATM   11  C   UNK A   1     -10.735   9.792  69.025  1.00  0.00    -0.217 C  
HETATM   12  C   UNK A   1     -10.750   9.012  70.353  1.00  0.00    -0.227 C  
HETATM   13  O   UNK A   1     -10.242   9.399  71.395  1.00  0.00    -0.316 OA 
HETATM   14  O   UNK A   1     -11.408   7.832  70.243  1.00  0.00    -0.252 OA 
BRANCH  11  15
HETATM   15  C   UNK A   1     -11.895  10.812  69.023  1.00  0.00    -0.325 C  
BRANCH  15  16
HETATM   16  C   UNK A   1     -11.432  12.258  69.274  1.00  0.00    -0.352 C  
BRANCH  16  17
HETATM   17  C   UNK A   1     -12.284  12.978  70.294  1.00  0.00    -0.368 A  
HETATM   18  C   UNK A   1     -12.860  12.272  71.359  1.00  0.00    -0.373 A  
HETATM   19  C   UNK A   1     -13.869  14.299  72.202  1.00  0.00    -0.589 A  
HETATM   20  C   UNK A   1     -13.645  12.930  72.308  1.00  0.00    -0.611 A  
HETATM   21  C   UNK A   1     -13.291  15.017  71.156  1.00  0.00    -0.510 A  
HETATM   22  C   UNK A   1     -12.502  14.362  70.209  1.00  0.00    -0.413 A  
ENDBRANCH  16  17
ENDBRANCH  15  16
ENDBRANCH  11  15
ENDBRANCH   9  11
ENDBRANCH   8   9
BRANCH   8  23
HETATM   23  C   UNK A   1      -8.462   8.204  67.610  1.00  0.00    -0.131 C  
ATOM     24  OXT PRO A   2     -11.021   5.024  65.985  1.00  0.00    -0.243 OA 
HETATM   25  O   UNK A   1      -7.657   8.928  68.197  1.00  0.00    -0.091 OA 
ATOM     26  N   PRO A   2      -8.306   6.817  67.599  1.00  0.00    -0.122 N  
ATOM     27  CD  PRO A   2      -7.211   6.181  68.323  1.00  0.00    -0.084 C  
ATOM     28  O   PRO A   2     -10.637   5.588  68.140  1.00  0.00    -0.195 OA 
ATOM     29  C   PRO A   2     -10.279   5.482  66.839  1.00  0.00    -0.233 C  
ATOM     30  CA  PRO A   2      -8.837   5.910  66.569  1.00  0.00    -0.128 C  
ATOM     31  CB  PRO A   2      -7.921   4.682  66.590  1.00  0.00    -0.103 C  
ATOM     32  CG  PRO A   2      -6.691   5.117  67.376  1.00  0.00    -0.055 C  
ENDBRANCH   8  23
ENDBRANCH   7   8
ENDBRANCH   6   7
ENDBRANCH   5   6
ENDBRANCH   3   5
TORSDOF 10
ENDMDL
MODEL       59
REMARK 921   NORMALIZED FREE ENERGY PREDICTED BY IDOCK:   -5.32 KCAL/MOL
REMARK 922        TOTAL FREE ENERGY PREDICTED BY IDOCK:  -10.39 KCAL/MOL
REMARK 923 INTER-LIGAND FREE ENERGY PREDICTED BY IDOCK:   -8.03 KCAL/MOL
REMARK 924 INTRA-LIGAND FREE ENERGY PREDICTED BY IDOCK:   -2.36 KCAL/MOL
REMARK 927      BINDING AFFINITY PREDICTED BY RF-SCORE:    0.00 PKD
ROOT
HETATM    1  N   UNK A   1     -12.761   7.223  71.646  1.00  0.00    -0.363 NA 
HETATM    2  H2  UNK A   1     -12.340   7.703  70.849  1.00  0.00     0.000 HD 
HETATM    3  C   UNK A   1     -11.885   6.196  72.196  1.00  0.00    -0.285 C  
HETATM    4  H1  UNK A   1     -13.665   6.811  71.413  1.00  0.00     0.000 HD 
ENDROOT
BRANCH   3   5
HETATM    5  C   UNK A   1     -10.534   6.812  72.543  1.00  0.00    -0.235 C  
BRANCH   5   6
HETATM    6  C   UNK A   1     -10.529   8.334  72.355  1.00  0.00    -0.404 C  
BRANCH   6   7
HETATM    7  C   UNK A   1      -9.568   8.703  71.221  1.00  0.00    -0.292 C  
BRANCH   7   8
HETATM    8  C   UNK A   1     -10.219   9.030  69.866  1.00  0.00    -0.202 C  
BRANCH   8   9
HETATM    9  N   UNK A   1     -11.626   9.523  69.970  1.00  0.00    -0.436 NA 
HETATM   10  H   UNK A   1     -12.152   8.954  70.633  1.00  0.00     0.000 HD 
BRANCH   9  11
HETATM   11  C   UNK A   1     -11.760  10.974  70.313  1.00  0.00    -0.355 C  
HETATM   12  C   UNK A   1     -12.858  11.103  71.386  1.00  0.00    -0.439 C  
HETATM   13  O   UNK A   1     -12.931  12.008  72.203  1.00  0.00    -0.358 OA 
HETATM   14  O   UNK A   1     -13.756  10.089  71.319  1.00  0.00    -0.243 OA 
BRANCH  11  15
HETATM   15  C   UNK A   1     -12.146  11.831  69.087  1.00  0.00    -0.290 C  
BRANCH  15  16
HETATM   16  C   UNK A   1     -11.378  13.161  69.011  1.00  0.00    -0.332 C  
BRANCH  16  17
HETATM   17  C   UNK A   1     -11.295  13.711  67.605  1.00  0.00    -0.328 A  
HETATM   18  C   UNK A   1     -10.239  14.556  67.237  1.00  0.00    -0.255 A  
HETATM   19  C   UNK A   1     -11.121  14.740  64.996  1.00  0.00    -0.412 A  
HETATM   20  C   UNK A   1     -10.152  15.065  65.940  1.00  0.00    -0.343 A  
HETATM   21  C   UNK A   1     -12.169  13.890  65.343  1.00  0.00    -0.463 A  
HETATM   22  C   UNK A   1     -12.256  13.377  66.638  1.00  0.00    -0.391 A  
ENDBRANCH  16  17
ENDBRANCH  15  16
ENDBRANCH  11  15
ENDBRANCH   9  11
ENDBRANCH   8   9
BRANCH   8  23
HETATM   23  C   UNK A   1     -10.199   7.821  68.864  1.00  0.00    -0.211 C  
ATOM     24  OXT PRO A   2      -8.641  11.433  66.910  1.00  0.00    -0.144 OA 
HETATM   25  O   UNK A   1     -10.670   6.732  69.197  1.00  0.00    -0.223 OA 
ATOM     26  N   PRO A   2      -9.704   8.025  67.576  1.00  0.00    -0.152 N  
ATOM     27  CD  PRO A   2      -9.773   6.969  66.570  1.00  0.00    -0.125 C  
ATOM     28  O   PRO A   2     -10.596  10.352  66.565  1.00  0.00    -0.218 OA 
ATOM     29  C   PRO A   2      -9.287  10.397  66.908  1.00  0.00    -0.162 C  
ATOM     30  CA  PRO A   2      -8.688   9.023  67.203  1.00  0.00    -0.116 C  
ATOM     31  CB  PRO A   2      -8.010   8.472  65.945  1.00  0.00    -0.105 C  
ATOM     32  CG  PRO A   2      -8.423   7.008  65.879  1.00  0.00    -0.151 C  
ENDBRANCH   8  23
ENDBRANCH   7   8
ENDBRANCH   6   7
ENDBRANCH   5   6
ENDBRANCH   3   5
TORSDOF 10
ENDMDL
MODEL       60
REMARK 921   NORMALIZED FREE ENERGY PREDICTED BY IDOCK:   -5.32 KCAL/MOL
REMARK 922        TOTAL FREE ENERGY PREDICTED BY IDOCK:  -10.39 KCAL/MOL
REMARK 923 INTER-LIGAND FREE ENERGY PREDICTED BY IDOCK:   -8.28 KCAL/MOL
REMARK 924 INTRA-LIGAND FREE ENERGY PREDICTED BY IDOCK:   -2.11 KCAL/MOL
REMARK 927      BINDING AFFINITY PREDICTED BY RF-SCORE:    0.00 PKD
ROOT
HETATM    1  N   UNK A   1      -6.639  16.000  69.062  1.00  0.00    -0.141 NA 
HETATM    2  H2  UNK A   1      -6.531  15.307  69.803  1.00  0.00     0.000 HD 
HETATM    3  C   UNK A   1      -6.322  15.456  67.748  1.00  0.00    -0.161 C  
HETATM    4  H1  UNK A   1      -6.076  16.834  69.231  1.00  0.00     0.000 HD 
ENDROOT
BRANCH   3   5
HETATM    5  C   UNK A   1      -7.163  14.209  67.497  1.00  0.00    -0.188 C  
BRANCH   5   6
HETATM    6  C   UNK A   1      -8.147  13.937  68.642  1.00  0.00    -0.097 C  
BRANCH   6   7
HETATM    7  C   UNK A   1      -9.520  13.585  68.060  1.00  0.00    -0.220 C  
BRANCH   7   8
HETATM    8  C   UNK A   1      -9.515  12.632  66.852  1.00  0.00    -0.229 C  
BRANCH   8   9
HETATM    9  N   UNK A   1      -9.985  13.258  65.579  1.00  0.00    -0.437 NA 
HETATM   10  H   UNK A   1     -10.258  12.538  64.911  1.00  0.00     0.000 HD 
BRANCH   9  11
HETATM   11  C   UNK A   1     -11.087  14.259  65.741  1.00  0.00    -0.310 C  
HETATM   12  C   UNK A   1     -12.347  13.681  65.071  1.00  0.00    -0.427 C  
HETATM   13  O   UNK A   1     -13.494  13.972  65.375  1.00  0.00    -0.679 OA 
HETATM   14  O   UNK A   1     -12.042  12.804  64.083  1.00  0.00    -0.381 OA 
BRANCH  11  15
HETATM   15  C   UNK A   1     -10.743  15.616  65.088  1.00  0.00    -0.463 C  
BRANCH  15  16
HETATM   16  C   UNK A   1      -9.506  16.290  65.706  1.00  0.00    -0.229 C  
BRANCH  16  17
HETATM   17  C   UNK A   1      -9.857  17.480  66.571  1.00  0.00    -0.315 A  
HETATM   18  C   UNK A   1      -9.667  17.425  67.958  1.00  0.00    -0.281 A  
HETATM   19  C   UNK A   1     -10.499  19.681  68.195  1.00  0.00    -0.503 A  
HETATM   20  C   UNK A   1      -9.985  18.520  68.764  1.00  0.00    -0.417 A  
HETATM   21  C   UNK A   1     -10.678  19.755  66.816  1.00  0.00    -0.526 A  
HETATM   22  C   UNK A   1     -10.359  18.664  66.007  1.00  0.00    -0.436 A  
ENDBRANCH  16  17
ENDBRANCH  15  16
ENDBRANCH  11  15
ENDBRANCH   9  11
ENDBRANCH   8   9
BRANCH   8  23
HETATM   23  C   UNK A   1     -10.354  11.327  67.093  1.00  0.00    -0.209 C  
ATOM     24  OXT PRO A   2      -6.676  10.376  64.887  1.00  0.00    -0.118 OA 
HETATM   25  O   UNK A   1     -11.462  11.392  67.628  1.00  0.00    -0.376 OA 
ATOM     26  N   PRO A   2      -9.853  10.111  66.628  1.00  0.00    -0.191 N  
ATOM     27  CD  PRO A   2     -10.646   8.889  66.718  1.00  0.00    -0.142 C  
ATOM     28  O   PRO A   2      -8.817  10.384  64.161  1.00  0.00    -0.189 OA 
ATOM     29  C   PRO A   2      -7.867  10.233  65.114  1.00  0.00    -0.138 C  
ATOM     30  CA  PRO A   2      -8.426   9.786  66.464  1.00  0.00    -0.124 C  
ATOM     31  CB  PRO A   2      -8.334   8.262  66.583  1.00  0.00    -0.111 C  
ATOM     32  CG  PRO A   2      -9.666   7.828  67.181  1.00  0.00    -0.243 C  
ENDBRANCH   8  23
ENDBRANCH   7   8
ENDBRANCH   6   7
ENDBRANCH   5   6
ENDBRANCH   3   5
TORSDOF 10
ENDMDL
MODEL       61
REMARK 921   NORMALIZED FREE ENERGY PREDICTED BY IDOCK:   -5.31 KCAL/MOL
REMARK 922        TOTAL FREE ENERGY PREDICTED BY IDOCK:  -10.38 KCAL/MOL
REMARK 923 INTER-LIGAND FREE ENERGY PREDICTED BY IDOCK:   -8.73 KCAL/MOL
REMARK 924 INTRA-LIGAND FREE ENERGY PREDICTED BY IDOCK:   -1.65 KCAL/MOL
REMARK 927      BINDING AFFINITY PREDICTED BY RF-SCORE:    0.00 PKD
ROOT
HETATM    1  N   UNK A   1     -14.131   8.908  73.174  1.00  0.00    -1.225 NA 
HETATM    2  H2  UNK A   1     -15.071   9.280  73.043  1.00  0.00     0.000 HD 
HETATM    3  C   UNK A   1     -13.351   8.934  71.943  1.00  0.00    -0.405 C  
HETATM    4  H1  UNK A   1     -14.141   7.959  73.551  1.00  0.00     0.000 HD 
ENDROOT
BRANCH   3   5
HETATM    5  C   UNK A   1     -13.335  10.351  71.381  1.00  0.00    -0.373 C  
BRANCH   5   6
HETATM    6  C   UNK A   1     -11.925  10.794  70.973  1.00  0.00    -0.409 C  
BRANCH   6   7
HETATM    7  C   UNK A   1     -12.006  11.636  69.695  1.00  0.00    -0.390 C  
BRANCH   7   8
HETATM    8  C   UNK A   1     -10.678  11.858  68.951  1.00  0.00    -0.199 C  
BRANCH   8   9
HETATM    9  N   UNK A   1     -10.506  13.241  68.410  1.00  0.00    -0.249 NA 
HETATM   10  H   UNK A   1      -9.897  13.228  67.593  1.00  0.00     0.000 HD 
BRANCH   9  11
HETATM   11  C   UNK A   1     -11.784  13.954  68.092  1.00  0.00    -0.353 C  
HETATM   12  C   UNK A   1     -11.953  13.950  66.561  1.00  0.00    -0.439 C  
HETATM   13  O   UNK A   1     -13.025  14.021  65.977  1.00  0.00    -0.381 OA 
HETATM   14  O   UNK A   1     -10.763  13.869  65.916  1.00  0.00    -0.279 OA 
BRANCH  11  15
HETATM   15  C   UNK A   1     -11.779  15.414  68.598  1.00  0.00    -0.371 C  
BRANCH  15  16
HETATM   16  C   UNK A   1     -10.368  15.947  68.897  1.00  0.00    -0.228 C  
BRANCH  16  17
HETATM   17  C   UNK A   1      -9.989  17.124  68.026  1.00  0.00    -0.295 A  
HETATM   18  C   UNK A   1     -10.740  18.306  68.068  1.00  0.00    -0.290 A  
HETATM   19  C   UNK A   1      -9.298  19.321  66.417  1.00  0.00    -0.399 A  
HETATM   20  C   UNK A   1     -10.395  19.398  67.269  1.00  0.00    -0.554 A  
HETATM   21  C   UNK A   1      -8.532  18.158  66.376  1.00  0.00    -0.263 A  
HETATM   22  C   UNK A   1      -8.873  17.066  67.175  1.00  0.00    -0.232 A  
ENDBRANCH  16  17
ENDBRANCH  15  16
ENDBRANCH  11  15
ENDBRANCH   9  11
ENDBRANCH   8   9
BRANCH   8  23
HETATM   23  C   UNK A   1     -10.454  10.843  67.773  1.00  0.00    -0.203 C  
ATOM     24  OXT PRO A   2      -6.589  12.161  69.393  1.00  0.00    -0.109 OA 
HETATM   25  O   UNK A   1     -11.415  10.415  67.132  1.00  0.00    -0.250 OA 
ATOM     26  N   PRO A   2      -9.148  10.495  67.427  1.00  0.00    -0.139 N  
ATOM     27  CD  PRO A   2      -8.880   9.651  66.266  1.00  0.00    -0.151 C  
ATOM     28  O   PRO A   2      -7.552  12.660  67.410  1.00  0.00    -0.144 OA 
ATOM     29  C   PRO A   2      -7.322  11.848  68.469  1.00  0.00    -0.111 C  
ATOM     30  CA  PRO A   2      -7.998  10.483  68.347  1.00  0.00    -0.116 C  
ATOM     31  CB  PRO A   2      -7.012   9.468  67.761  1.00  0.00    -0.080 C  
ATOM     32  CG  PRO A   2      -7.815   8.678  66.736  1.00  0.00    -0.094 C  
ENDBRANCH   8  23
ENDBRANCH   7   8
ENDBRANCH   6   7
ENDBRANCH   5   6
ENDBRANCH   3   5
TORSDOF 10
ENDMDL
MODEL       62
REMARK 921   NORMALIZED FREE ENERGY PREDICTED BY IDOCK:   -5.31 KCAL/MOL
REMARK 922        TOTAL FREE ENERGY PREDICTED BY IDOCK:  -10.37 KCAL/MOL
REMARK 923 INTER-LIGAND FREE ENERGY PREDICTED BY IDOCK:   -9.11 KCAL/MOL
REMARK 924 INTRA-LIGAND FREE ENERGY PREDICTED BY IDOCK:   -1.26 KCAL/MOL
REMARK 927      BINDING AFFINITY PREDICTED BY RF-SCORE:    0.00 PKD
ROOT
HETATM    1  N   UNK A   1      -9.343  20.522  65.759  1.00  0.00    -0.473 NA 
HETATM    2  H2  UNK A   1      -8.467  20.131  66.107  1.00  0.00     0.000 HD 
HETATM    3  C   UNK A   1     -10.495  19.709  66.128  1.00  0.00    -0.524 C  
HETATM    4  H1  UNK A   1      -9.330  20.655  64.747  1.00  0.00     0.000 HD 
ENDROOT
BRANCH   3   5
HETATM    5  C   UNK A   1     -10.514  19.510  67.640  1.00  0.00    -0.593 C  
BRANCH   5   6
HETATM    6  C   UNK A   1     -10.617  18.029  68.025  1.00  0.00    -0.361 C  
BRANCH   6   7
HETATM    7  C   UNK A   1     -10.119  17.165  66.863  1.00  0.00    -0.298 C  
BRANCH   7   8
HETATM    8  C   UNK A   1      -9.199  15.992  67.241  1.00  0.00    -0.205 C  
BRANCH   8   9
HETATM    9  N   UNK A   1      -9.914  14.694  67.435  1.00  0.00    -0.230 NA 
HETATM   10  H   UNK A   1     -10.799  14.847  67.918  1.00  0.00     0.000 HD 
BRANCH   9  11
HETATM   11  C   UNK A   1     -10.138  13.907  66.182  1.00  0.00    -0.308 C  
HETATM   12  C   UNK A   1     -11.622  14.052  65.796  1.00  0.00    -0.339 C  
HETATM   13  O   UNK A   1     -12.061  13.947  64.660  1.00  0.00    -0.393 OA 
HETATM   14  O   UNK A   1     -12.406  14.304  66.873  1.00  0.00    -0.408 OA 
BRANCH  11  15
HETATM   15  C   UNK A   1      -9.806  12.409  66.365  1.00  0.00    -0.249 C  
BRANCH  15  16
HETATM   16  C   UNK A   1      -9.055  12.111  67.674  1.00  0.00    -0.181 C  
BRANCH  16  17
HETATM   17  C   UNK A   1      -9.920  11.418  68.702  1.00  0.00    -0.209 A  
HETATM   18  C   UNK A   1      -9.469  10.251  69.333  1.00  0.00    -0.225 A  
HETATM   19  C   UNK A   1     -11.512  10.116  70.617  1.00  0.00    -0.432 A  
HETATM   20  C   UNK A   1     -10.261   9.606  70.286  1.00  0.00    -0.333 A  
HETATM   21  C   UNK A   1     -11.966  11.285  70.009  1.00  0.00    -0.447 A  
HETATM   22  C   UNK A   1     -11.176  11.933  69.058  1.00  0.00    -0.316 A  
ENDBRANCH  16  17
ENDBRANCH  15  16
ENDBRANCH  11  15
ENDBRANCH   9  11
ENDBRANCH   8   9
BRANCH   8  23
HETATM   23  C   UNK A   1      -8.340  16.272  68.526  1.00  0.00    -0.204 C  
ATOM     24  OXT PRO A   2      -6.782  18.583  65.130  1.00  0.00    -0.517 OA 
HETATM   25  O   UNK A   1      -8.568  15.657  69.570  1.00  0.00    -0.258 OA 
ATOM     26  N   PRO A   2      -7.277  17.172  68.440  1.00  0.00    -0.200 N  
ATOM     27  CD  PRO A   2      -6.375  17.377  69.569  1.00  0.00    -0.233 C  
ATOM     28  O   PRO A   2      -5.881  16.791  66.173  1.00  0.00    -0.181 OA 
ATOM     29  C   PRO A   2      -6.633  17.916  66.142  1.00  0.00    -0.271 C  
ATOM     30  CA  PRO A   2      -7.198  18.308  67.507  1.00  0.00    -0.205 C  
ATOM     31  CB  PRO A   2      -6.272  19.328  68.177  1.00  0.00    -0.238 C  
ATOM     32  CG  PRO A   2      -6.168  18.878  69.628  1.00  0.00    -0.280 C  
ENDBRANCH   8  23
ENDBRANCH   7   8
ENDBRANCH   6   7
ENDBRANCH   5   6
ENDBRANCH   3   5
TORSDOF 10
ENDMDL
MODEL       63
REMARK 921   NORMALIZED FREE ENERGY PREDICTED BY IDOCK:   -5.29 KCAL/MOL
REMARK 922        TOTAL FREE ENERGY PREDICTED BY IDOCK:  -10.35 KCAL/MOL
REMARK 923 INTER-LIGAND FREE ENERGY PREDICTED BY IDOCK:   -9.72 KCAL/MOL
REMARK 924 INTRA-LIGAND FREE ENERGY PREDICTED BY IDOCK:   -0.62 KCAL/MOL
REMARK 927      BINDING AFFINITY PREDICTED BY RF-SCORE:    0.00 PKD
ROOT
HETATM    1  N   UNK A   1      -9.657  20.338  65.489  1.00  0.00    -0.467 NA 
HETATM    2  H2  UNK A   1     -10.328  20.017  64.792  1.00  0.00     0.000 HD 
HETATM    3  C   UNK A   1     -10.162  20.195  66.849  1.00  0.00    -0.430 C  
HETATM    4  H1  UNK A   1      -9.371  21.305  65.332  1.00  0.00     0.000 HD 
ENDROOT
BRANCH   3   5
HETATM    5  C   UNK A   1     -10.590  18.750  67.084  1.00  0.00    -0.491 C  
BRANCH   5   6
HETATM    6  C   UNK A   1     -10.401  18.323  68.544  1.00  0.00    -0.341 C  
BRANCH   6   7
HETATM    7  C   UNK A   1     -10.227  16.803  68.611  1.00  0.00    -0.298 C  
BRANCH   7   8
HETATM    8  C   UNK A   1      -9.717  16.126  67.327  1.00  0.00    -0.233 C  
BRANCH   8   9
HETATM    9  N   UNK A   1     -10.774  15.393  66.564  1.00  0.00    -0.307 NA 
HETATM   10  H   UNK A   1     -10.453  15.197  65.616  1.00  0.00     0.000 HD 
BRANCH   9  11
HETATM   11  C   UNK A   1     -11.262  14.137  67.216  1.00  0.00    -0.316 C  
HETATM   12  C   UNK A   1     -11.950  13.284  66.133  1.00  0.00    -0.418 C  
HETATM   13  O   UNK A   1     -12.059  12.068  66.168  1.00  0.00    -0.582 OA 
HETATM   14  O   UNK A   1     -12.440  14.044  65.122  1.00  0.00    -0.437 OA 
BRANCH  11  15
HETATM   15  C   UNK A   1     -12.269  14.422  68.352  1.00  0.00    -0.178 C  
BRANCH  15  16
HETATM   16  C   UNK A   1     -11.882  13.758  69.685  1.00  0.00    -0.393 C  
BRANCH  16  17
HETATM   17  C   UNK A   1     -12.389  14.521  70.889  1.00  0.00    -0.415 A  
HETATM   18  C   UNK A   1     -13.751  14.498  71.217  1.00  0.00    -0.407 A  
HETATM   19  C   UNK A   1     -13.350  15.927  73.123  1.00  0.00    -0.681 A  
HETATM   20  C   UNK A   1     -14.227  15.196  72.329  1.00  0.00    -0.613 A  
HETATM   21  C   UNK A   1     -11.991  15.947  72.817  1.00  0.00    -0.616 A  
HETATM   22  C   UNK A   1     -11.512  15.247  71.709  1.00  0.00    -0.494 A  
ENDBRANCH  16  17
ENDBRANCH  15  16
ENDBRANCH  11  15
ENDBRANCH   9  11
ENDBRANCH   8   9
BRANCH   8  23
HETATM   23  C   UNK A   1      -8.525  15.136  67.582  1.00  0.00    -0.160 C  
ATOM     24  OXT PRO A   2      -7.022  19.244  67.172  1.00  0.00    -0.199 OA 
HETATM   25  O   UNK A   1      -8.730  13.923  67.647  1.00  0.00    -0.165 OA 
ATOM     26  N   PRO A   2      -7.231  15.651  67.662  1.00  0.00    -0.155 N  
ATOM     27  CD  PRO A   2      -6.077  14.765  67.777  1.00  0.00    -0.125 C  
ATOM     28  O   PRO A   2      -6.815  17.498  65.751  1.00  0.00    -0.229 OA 
ATOM     29  C   PRO A   2      -6.941  18.041  66.986  1.00  0.00    -0.190 C  
ATOM     30  CA  PRO A   2      -6.882  17.009  68.111  1.00  0.00    -0.159 C  
ATOM     31  CB  PRO A   2      -5.451  16.911  68.649  1.00  0.00    -0.124 C  
ATOM     32  CG  PRO A   2      -5.192  15.420  68.820  1.00  0.00    -0.098 C  
ENDBRANCH   8  23
ENDBRANCH   7   8
ENDBRANCH   6   7
ENDBRANCH   5   6
ENDBRANCH   3   5
TORSDOF 10
ENDMDL
MODEL       64
REMARK 921   NORMALIZED FREE ENERGY PREDICTED BY IDOCK:   -5.28 KCAL/MOL
REMARK 922        TOTAL FREE ENERGY PREDICTED BY IDOCK:  -10.32 KCAL/MOL
REMARK 923 INTER-LIGAND FREE ENERGY PREDICTED BY IDOCK:   -7.64 KCAL/MOL
REMARK 924 INTRA-LIGAND FREE ENERGY PREDICTED BY IDOCK:   -2.68 KCAL/MOL
REMARK 927      BINDING AFFINITY PREDICTED BY RF-SCORE:    0.00 PKD
ROOT
HETATM    1  N   UNK A   1     -11.163   6.073  66.390  1.00  0.00    -0.722 NA 
HETATM    2  H2  UNK A   1     -10.474   5.323  66.326  1.00  0.00     0.000 HD 
HETATM    3  C   UNK A   1     -10.650   7.233  67.108  1.00  0.00    -0.346 C  
HETATM    4  H1  UNK A   1     -12.032   5.761  66.823  1.00  0.00     0.000 HD 
ENDROOT
BRANCH   3   5
HETATM    5  C   UNK A   1      -9.350   7.699  66.460  1.00  0.00    -0.241 C  
BRANCH   5   6
HETATM    6  C   UNK A   1      -9.095   9.193  66.691  1.00  0.00    -0.182 C  
BRANCH   6   7
HETATM    7  C   UNK A   1     -10.365   9.847  67.244  1.00  0.00    -0.303 C  
BRANCH   7   8
HETATM    8  C   UNK A   1     -10.219  11.301  67.726  1.00  0.00    -0.180 C  
BRANCH   8   9
HETATM    9  N   UNK A   1     -10.455  11.483  69.191  1.00  0.00    -0.394 NA 
HETATM   10  H   UNK A   1     -10.983  12.340  69.360  1.00  0.00     0.000 HD 
BRANCH   9  11
HETATM   11  C   UNK A   1     -11.119  10.325  69.869  1.00  0.00    -0.304 C  
HETATM   12  C   UNK A   1     -12.402  10.848  70.542  1.00  0.00    -0.374 C  
HETATM   13  O   UNK A   1     -13.389  10.169  70.783  1.00  0.00    -0.361 OA 
HETATM   14  O   UNK A   1     -12.314  12.165  70.851  1.00  0.00    -0.373 OA 
BRANCH  11  15
HETATM   15  C   UNK A   1     -10.213   9.679  70.941  1.00  0.00    -0.303 C  
BRANCH  15  16
HETATM   16  C   UNK A   1      -9.833   8.224  70.617  1.00  0.00    -0.203 C  
BRANCH  16  17
HETATM   17  C   UNK A   1      -8.416   8.086  70.108  1.00  0.00    -0.128 A  
HETATM   18  C   UNK A   1      -7.533   9.173  70.175  1.00  0.00    -0.082 A  
HETATM   19  C   UNK A   1      -5.777   7.850  69.173  1.00  0.00    -0.030 A  
HETATM   20  C   UNK A   1      -6.221   9.053  69.712  1.00  0.00    -0.038 A  
HETATM   21  C   UNK A   1      -6.639   6.757  69.114  1.00  0.00    -0.048 A  
HETATM   22  C   UNK A   1      -7.950   6.873  69.579  1.00  0.00    -0.125 A  
ENDBRANCH  16  17
ENDBRANCH  15  16
ENDBRANCH  11  15
ENDBRANCH   9  11
ENDBRANCH   8   9
BRANCH   8  23
HETATM   23  C   UNK A   1     -11.148  12.304  66.954  1.00  0.00    -0.290 C  
ATOM     24  OXT PRO A   2      -7.533  14.365  68.363  1.00  0.00    -0.104 OA 
HETATM   25  O   UNK A   1     -12.251  11.938  66.545  1.00  0.00    -0.483 OA 
ATOM     26  N   PRO A   2     -10.729  13.627  66.803  1.00  0.00    -0.272 N  
ATOM     27  CD  PRO A   2     -11.605  14.626  66.201  1.00  0.00    -0.332 C  
ATOM     28  O   PRO A   2      -9.664  14.560  69.090  1.00  0.00    -0.166 OA 
ATOM     29  C   PRO A   2      -8.732  14.319  68.138  1.00  0.00    -0.174 C  
ATOM     30  CA  PRO A   2      -9.327  14.074  66.752  1.00  0.00    -0.277 C  
ATOM     31  CB  PRO A   2      -9.341  15.383  65.956  1.00  0.00    -0.364 C  
ATOM     32  CG  PRO A   2     -10.703  15.419  65.275  1.00  0.00    -0.439 C  
ENDBRANCH   8  23
ENDBRANCH   7   8
ENDBRANCH   6   7
ENDBRANCH   5   6
ENDBRANCH   3   5
TORSDOF 10
ENDMDL
MODEL       65
REMARK 921   NORMALIZED FREE ENERGY PREDICTED BY IDOCK:   -5.27 KCAL/MOL
REMARK 922        TOTAL FREE ENERGY PREDICTED BY IDOCK:  -10.31 KCAL/MOL
REMARK 923 INTER-LIGAND FREE ENERGY PREDICTED BY IDOCK:   -8.36 KCAL/MOL
REMARK 924 INTRA-LIGAND FREE ENERGY PREDICTED BY IDOCK:   -1.95 KCAL/MOL
REMARK 927      BINDING AFFINITY PREDICTED BY RF-SCORE:    0.00 PKD
ROOT
HETATM    1  N   UNK A   1     -10.721   8.790  70.323  1.00  0.00    -0.222 NA 
HETATM    2  H2  UNK A   1     -11.046   9.703  70.641  1.00  0.00     0.000 HD 
HETATM    3  C   UNK A   1     -10.607   8.721  68.871  1.00  0.00    -0.155 C  
HETATM    4  H1  UNK A   1     -11.317   8.032  70.655  1.00  0.00     0.000 HD 
ENDROOT
BRANCH   3   5
HETATM    5  C   UNK A   1      -9.715   9.854  68.376  1.00  0.00    -0.161 C  
BRANCH   5   6
HETATM    6  C   UNK A   1     -10.375  10.655  67.246  1.00  0.00    -0.265 C  
BRANCH   6   7
HETATM    7  C   UNK A   1     -11.672  11.287  67.760  1.00  0.00    -0.254 C  
BRANCH   7   8
HETATM    8  C   UNK A   1     -11.507  12.504  68.686  1.00  0.00    -0.306 C  
BRANCH   8   9
HETATM    9  N   UNK A   1     -10.091  12.951  68.859  1.00  0.00    -0.431 NA 
HETATM   10  H   UNK A   1      -9.539  12.215  69.300  1.00  0.00     0.000 HD 
BRANCH   9  11
HETATM   11  C   UNK A   1      -9.421  13.417  67.604  1.00  0.00    -0.216 C  
HETATM   12  C   UNK A   1      -7.902  13.431  67.860  1.00  0.00    -0.152 C  
HETATM   13  O   UNK A   1      -7.048  13.315  66.994  1.00  0.00     0.022 OA 
HETATM   14  O   UNK A   1      -7.609  13.599  69.173  1.00  0.00    -0.011 OA 
BRANCH  11  15
HETATM   15  C   UNK A   1      -9.878  14.834  67.190  1.00  0.00    -0.232 C  
BRANCH  15  16
HETATM   16  C   UNK A   1     -10.000  15.011  65.667  1.00  0.00    -0.387 C  
BRANCH  16  17
HETATM   17  C   UNK A   1     -10.725  13.864  64.999  1.00  0.00    -0.397 A  
HETATM   18  C   UNK A   1     -10.006  12.880  64.307  1.00  0.00    -0.135 A  
HETATM   19  C   UNK A   1     -12.055  11.724  63.754  1.00  0.00    -0.463 A  
HETATM   20  C   UNK A   1     -10.668  11.817  63.690  1.00  0.00    -0.503 A  
HETATM   21  C   UNK A   1     -12.781  12.687  64.452  1.00  0.00    -0.417 A  
HETATM   22  C   UNK A   1     -12.122  13.750  65.072  1.00  0.00    -0.424 A  
ENDBRANCH  16  17
ENDBRANCH  15  16
ENDBRANCH  11  15
ENDBRANCH   9  11
ENDBRANCH   8   9
BRANCH   8  23
HETATM   23  C   UNK A   1     -12.126  12.284  70.112  1.00  0.00    -0.287 C  
ATOM     24  OXT PRO A   2     -11.933  16.575  69.190  1.00  0.00     0.017 OA 
HETATM   25  O   UNK A   1     -12.194  11.150  70.590  1.00  0.00    -0.342 OA 
ATOM     26  N   PRO A   2     -12.529  13.399  70.848  1.00  0.00    -0.371 N  
ATOM     27  CD  PRO A   2     -12.999  13.260  72.223  1.00  0.00    -0.271 C  
ATOM     28  O   PRO A   2     -10.713  15.374  70.666  1.00  0.00    -0.312 OA 
ATOM     29  C   PRO A   2     -11.837  15.630  69.957  1.00  0.00    -0.367 C  
ATOM     30  CA  PRO A   2     -12.987  14.676  70.276  1.00  0.00    -0.120 C  
ATOM     31  CB  PRO A   2     -13.898  15.300  71.338  1.00  0.00    -0.603 C  
ATOM     32  CG  PRO A   2     -14.209  14.170  72.310  1.00  0.00    -0.598 C  
ENDBRANCH   8  23
ENDBRANCH   7   8
ENDBRANCH   6   7
ENDBRANCH   5   6
ENDBRANCH   3   5
TORSDOF 10
ENDMDL
MODEL       66
REMARK 921   NORMALIZED FREE ENERGY PREDICTED BY IDOCK:   -5.27 KCAL/MOL
REMARK 922        TOTAL FREE ENERGY PREDICTED BY IDOCK:  -10.30 KCAL/MOL
REMARK 923 INTER-LIGAND FREE ENERGY PREDICTED BY IDOCK:   -8.44 KCAL/MOL
REMARK 924 INTRA-LIGAND FREE ENERGY PREDICTED BY IDOCK:   -1.86 KCAL/MOL
REMARK 927      BINDING AFFINITY PREDICTED BY RF-SCORE:    0.00 PKD
ROOT
HETATM    1  N   UNK A   1     -13.826   9.091  72.994  1.00  0.00    -1.108 NA 
HETATM    2  H2  UNK A   1     -12.943   8.645  73.245  1.00  0.00     0.000 HD 
HETATM    3  C   UNK A   1     -13.637  10.208  72.077  1.00  0.00    -0.229 C  
HETATM    4  H1  UNK A   1     -14.344   9.407  73.814  1.00  0.00     0.000 HD 
ENDROOT
BRANCH   3   5
HETATM    5  C   UNK A   1     -12.862   9.735  70.852  1.00  0.00    -0.314 C  
BRANCH   5   6
HETATM    6  C   UNK A   1     -11.793  10.747  70.420  1.00  0.00    -0.450 C  
BRANCH   6   7
HETATM    7  C   UNK A   1     -11.592  10.659  68.904  1.00  0.00    -0.320 C  
BRANCH   7   8
HETATM    8  C   UNK A   1     -10.267  10.033  68.435  1.00  0.00    -0.172 C  
BRANCH   8   9
HETATM    9  N   UNK A   1      -9.621  10.756  67.298  1.00  0.00    -0.159 NA 
HETATM   10  H   UNK A   1      -9.167  10.093  66.670  1.00  0.00     0.000 HD 
BRANCH   9  11
HETATM   11  C   UNK A   1     -10.533  11.658  66.527  1.00  0.00    -0.239 C  
HETATM   12  C   UNK A   1     -10.575  11.151  65.073  1.00  0.00    -0.273 C  
HETATM   13  O   UNK A   1     -11.503  11.328  64.299  1.00  0.00    -0.195 OA 
HETATM   14  O   UNK A   1      -9.445  10.482  64.734  1.00  0.00    -0.212 OA 
BRANCH  11  15
HETATM   15  C   UNK A   1     -10.050  13.125  66.538  1.00  0.00    -0.280 C  
BRANCH  15  16
HETATM   16  C   UNK A   1     -11.202  14.142  66.616  1.00  0.00    -0.330 C  
BRANCH  16  17
HETATM   17  C   UNK A   1     -11.303  14.811  67.968  1.00  0.00    -0.332 A  
HETATM   18  C   UNK A   1     -12.134  14.276  68.961  1.00  0.00    -0.320 A  
HETATM   19  C   UNK A   1     -11.501  16.038  70.488  1.00  0.00    -0.409 A  
HETATM   20  C   UNK A   1     -12.230  14.886  70.214  1.00  0.00    -0.389 A  
HETATM   21  C   UNK A   1     -10.659  16.573  69.515  1.00  0.00    -0.321 A  
HETATM   22  C   UNK A   1     -10.558  15.964  68.264  1.00  0.00    -0.276 A  
ENDBRANCH  16  17
ENDBRANCH  15  16
ENDBRANCH  11  15
ENDBRANCH   9  11
ENDBRANCH   8   9
BRANCH   8  23
HETATM   23  C   UNK A   1     -10.406   8.521  68.036  1.00  0.00    -0.217 C  
ATOM     24  OXT PRO A   2      -8.395   8.882  71.925  1.00  0.00    -0.349 OA 
HETATM   25  O   UNK A   1     -10.875   8.210  66.940  1.00  0.00    -0.250 OA 
ATOM     26  N   PRO A   2      -9.926   7.548  68.914  1.00  0.00    -0.164 N  
ATOM     27  CD  PRO A   2      -9.922   6.138  68.540  1.00  0.00    -0.147 C  
ATOM     28  O   PRO A   2      -7.540   8.265  69.926  1.00  0.00    -0.077 OA 
ATOM     29  C   PRO A   2      -8.543   8.364  70.830  1.00  0.00    -0.145 C  
ATOM     30  CA  PRO A   2      -9.838   7.692  70.376  1.00  0.00    -0.183 C  
ATOM     31  CB  PRO A   2      -9.904   6.267  70.935  1.00  0.00    -0.207 C  
ATOM     32  CG  PRO A   2     -10.403   5.409  69.780  1.00  0.00    -0.375 C  
ENDBRANCH   8  23
ENDBRANCH   7   8
ENDBRANCH   6   7
ENDBRANCH   5   6
ENDBRANCH   3   5
TORSDOF 10
ENDMDL
MODEL       67
REMARK 921   NORMALIZED FREE ENERGY PREDICTED BY IDOCK:   -5.26 KCAL/MOL
REMARK 922        TOTAL FREE ENERGY PREDICTED BY IDOCK:  -10.29 KCAL/MOL
REMARK 923 INTER-LIGAND FREE ENERGY PREDICTED BY IDOCK:   -9.09 KCAL/MOL
REMARK 924 INTRA-LIGAND FREE ENERGY PREDICTED BY IDOCK:   -1.20 KCAL/MOL
REMARK 927      BINDING AFFINITY PREDICTED BY RF-SCORE:    0.00 PKD
ROOT
HETATM    1  N   UNK A   1     -10.889  12.310  63.301  1.00  0.00    -0.632 NA 
HETATM    2  H2  UNK A   1     -10.214  13.066  63.423  1.00  0.00     0.000 HD 
HETATM    3  C   UNK A   1     -10.242  11.014  63.143  1.00  0.00    -0.245 C  
HETATM    4  H1  UNK A   1     -11.515  12.477  62.513  1.00  0.00     0.000 HD 
ENDROOT
BRANCH   3   5
HETATM    5  C   UNK A   1      -9.305  10.765  64.320  1.00  0.00    -0.281 C  
BRANCH   5   6
HETATM    6  C   UNK A   1     -10.014  10.055  65.481  1.00  0.00    -0.367 C  
BRANCH   6   7
HETATM    7  C   UNK A   1      -9.575  10.686  66.806  1.00  0.00    -0.200 C  
BRANCH   7   8
HETATM    8  C   UNK A   1     -10.656  11.470  67.569  1.00  0.00    -0.206 C  
BRANCH   8   9
HETATM    9  N   UNK A   1     -11.720  10.610  68.174  1.00  0.00    -0.747 NA 
HETATM   10  H   UNK A   1     -11.931   9.824  67.559  1.00  0.00     0.000 HD 
BRANCH   9  11
HETATM   11  C   UNK A   1     -11.421  10.120  69.556  1.00  0.00    -0.168 C  
HETATM   12  C   UNK A   1     -12.189  11.015  70.547  1.00  0.00    -0.381 C  
HETATM   13  O   UNK A   1     -12.548  10.672  71.663  1.00  0.00    -0.395 OA 
HETATM   14  O   UNK A   1     -12.419  12.253  70.042  1.00  0.00    -0.117 OA 
BRANCH  11  15
HETATM   15  C   UNK A   1      -9.912  10.179  69.884  1.00  0.00    -0.250 C  
BRANCH  15  16
HETATM   16  C   UNK A   1      -9.258   8.791  69.978  1.00  0.00    -0.173 C  
BRANCH  16  17
HETATM   17  C   UNK A   1      -9.933   7.891  70.989  1.00  0.00    -0.200 A  
HETATM   18  C   UNK A   1     -10.009   8.273  72.335  1.00  0.00    -0.379 A  
HETATM   19  C   UNK A   1     -11.186   6.235  72.882  1.00  0.00    -0.233 A  
HETATM   20  C   UNK A   1     -10.634   7.450  73.274  1.00  0.00    -0.442 A  
HETATM   21  C   UNK A   1     -11.130   5.849  71.544  1.00  0.00    -0.314 A  
HETATM   22  C   UNK A   1     -10.510   6.671  70.603  1.00  0.00    -0.253 A  
ENDBRANCH  16  17
ENDBRANCH  15  16
ENDBRANCH  11  15
ENDBRANCH   9  11
ENDBRANCH   8   9
BRANCH   8  23
HETATM   23  C   UNK A   1     -11.358  12.568  66.693  1.00  0.00    -0.334 C  
ATOM     24  OXT PRO A   2      -7.918  14.291  68.814  1.00  0.00    -0.139 OA 
HETATM   25  O   UNK A   1     -12.393  12.303  66.079  1.00  0.00    -0.609 OA 
ATOM     26  N   PRO A   2     -10.826  13.858  66.681  1.00  0.00    -0.288 N  
ATOM     27  CD  PRO A   2     -11.506  14.942  65.980  1.00  0.00    -0.275 C  
ATOM     28  O   PRO A   2     -10.127  14.628  69.161  1.00  0.00    -0.225 OA 
ATOM     29  C   PRO A   2      -9.058  14.347  68.379  1.00  0.00    -0.193 C  
ATOM     30  CA  PRO A   2      -9.410  14.196  66.900  1.00  0.00    -0.264 C  
ATOM     31  CB  PRO A   2      -9.187  15.528  66.176  1.00  0.00    -0.379 C  
ATOM     32  CG  PRO A   2     -10.398  15.693  65.267  1.00  0.00    -0.405 C  
ENDBRANCH   8  23
ENDBRANCH   7   8
ENDBRANCH   6   7
ENDBRANCH   5   6
ENDBRANCH   3   5
TORSDOF 10
ENDMDL
MODEL       68
REMARK 921   NORMALIZED FREE ENERGY PREDICTED BY IDOCK:   -5.21 KCAL/MOL
REMARK 922        TOTAL FREE ENERGY PREDICTED BY IDOCK:  -10.21 KCAL/MOL
REMARK 923 INTER-LIGAND FREE ENERGY PREDICTED BY IDOCK:   -8.25 KCAL/MOL
REMARK 924 INTRA-LIGAND FREE ENERGY PREDICTED BY IDOCK:   -1.96 KCAL/MOL
REMARK 927      BINDING AFFINITY PREDICTED BY RF-SCORE:    0.00 PKD
ROOT
HETATM    1  N   UNK A   1      -5.349  17.814  70.409  1.00  0.00    -0.250 NA 
HETATM    2  H2  UNK A   1      -6.087  18.306  70.912  1.00  0.00     0.000 HD 
HETATM    3  C   UNK A   1      -5.606  16.383  70.314  1.00  0.00    -0.176 C  
HETATM    4  H1  UNK A   1      -4.430  17.968  70.825  1.00  0.00     0.000 HD 
ENDROOT
BRANCH   3   5
HETATM    5  C   UNK A   1      -6.979  16.153  69.692  1.00  0.00    -0.112 C  
BRANCH   5   6
HETATM    6  C   UNK A   1      -6.888  15.414  68.351  1.00  0.00    -0.115 C  
BRANCH   6   7
HETATM    7  C   UNK A   1      -8.282  15.332  67.720  1.00  0.00    -0.157 C  
BRANCH   7   8
HETATM    8  C   UNK A   1      -8.982  16.677  67.456  1.00  0.00    -0.200 C  
BRANCH   8   9
HETATM    9  N   UNK A   1     -10.335  16.548  66.835  1.00  0.00    -0.299 NA 
HETATM   10  H   UNK A   1     -10.386  17.102  65.980  1.00  0.00     0.000 HD 
BRANCH   9  11
HETATM   11  C   UNK A   1     -10.772  15.141  66.566  1.00  0.00    -0.310 C  
HETATM   12  C   UNK A   1     -10.943  14.986  65.043  1.00  0.00    -0.423 C  
HETATM   13  O   UNK A   1     -10.845  13.931  64.434  1.00  0.00    -0.388 OA 
HETATM   14  O   UNK A   1     -11.229  16.167  64.440  1.00  0.00    -0.605 OA 
BRANCH  11  15
HETATM   15  C   UNK A   1     -12.108  14.801  67.263  1.00  0.00    -0.120 C  
BRANCH  15  16
HETATM   16  C   UNK A   1     -11.931  13.948  68.531  1.00  0.00    -0.394 C  
BRANCH  16  17
HETATM   17  C   UNK A   1     -12.081  14.750  69.804  1.00  0.00    -0.364 A  
HETATM   18  C   UNK A   1     -13.251  14.651  70.568  1.00  0.00    -0.167 A  
HETATM   19  C   UNK A   1     -12.377  16.230  72.174  1.00  0.00    -0.392 A  
HETATM   20  C   UNK A   1     -13.396  15.386  71.747  1.00  0.00    -0.567 A  
HETATM   21  C   UNK A   1     -11.201  16.327  71.433  1.00  0.00    -0.091 A  
HETATM   22  C   UNK A   1     -11.052  15.592  70.256  1.00  0.00    -0.345 A  
ENDBRANCH  16  17
ENDBRANCH  15  16
ENDBRANCH  11  15
ENDBRANCH   9  11
ENDBRANCH   8   9
BRANCH   8  23
HETATM   23  C   UNK A   1      -8.129  17.652  66.568  1.00  0.00    -0.270 C  
ATOM     24  OXT PRO A   2     -10.261  19.907  69.678  1.00  0.00    -0.249 OA 
HETATM   25  O   UNK A   1      -7.517  17.223  65.589  1.00  0.00    -0.336 OA 
ATOM     26  N   PRO A   2      -8.137  19.014  66.869  1.00  0.00    -0.258 N  
ATOM     27  CD  PRO A   2      -7.460  19.977  66.007  1.00  0.00    -0.309 C  
ATOM     28  O   PRO A   2     -10.627  19.852  67.448  1.00  0.00    -0.419 OA 
ATOM     29  C   PRO A   2      -9.833  19.773  68.542  1.00  0.00    -0.404 C  
ATOM     30  CA  PRO A   2      -8.354  19.588  68.208  1.00  0.00    -0.340 C  
ATOM     31  CB  PRO A   2      -7.653  20.950  68.191  1.00  0.00     0.203 C  
ATOM     32  CG  PRO A   2      -6.754  20.920  66.962  1.00  0.00    -0.396 C  
ENDBRANCH   8  23
ENDBRANCH   7   8
ENDBRANCH   6   7
ENDBRANCH   5   6
ENDBRANCH   3   5
TORSDOF 10
ENDMDL
MODEL       69
REMARK 921   NORMALIZED FREE ENERGY PREDICTED BY IDOCK:   -5.21 KCAL/MOL
REMARK 922        TOTAL FREE ENERGY PREDICTED BY IDOCK:  -10.21 KCAL/MOL
REMARK 923 INTER-LIGAND FREE ENERGY PREDICTED BY IDOCK:   -8.57 KCAL/MOL
REMARK 924 INTRA-LIGAND FREE ENERGY PREDICTED BY IDOCK:   -1.64 KCAL/MOL
REMARK 927      BINDING AFFINITY PREDICTED BY RF-SCORE:    0.00 PKD
ROOT
HETATM    1  N   UNK A   1      -9.644  12.367  63.659  1.00  0.00    -0.667 NA 
HETATM    2  H2  UNK A   1      -8.654  12.296  63.424  1.00  0.00     0.000 HD 
HETATM    3  C   UNK A   1     -10.298  11.065  63.686  1.00  0.00    -0.352 C  
HETATM    4  H1  UNK A   1     -10.147  12.988  63.025  1.00  0.00     0.000 HD 
ENDROOT
BRANCH   3   5
HETATM    5  C   UNK A   1      -9.547  10.136  64.633  1.00  0.00    -0.379 C  
BRANCH   5   6
HETATM    6  C   UNK A   1     -10.359   9.820  65.895  1.00  0.00    -0.148 C  
BRANCH   6   7
HETATM    7  C   UNK A   1      -9.866  10.697  67.050  1.00  0.00    -0.222 C  
BRANCH   7   8
HETATM    8  C   UNK A   1     -10.921  11.605  67.704  1.00  0.00    -0.239 C  
BRANCH   8   9
HETATM    9  N   UNK A   1     -12.081  10.867  68.291  1.00  0.00    -0.810 NA 
HETATM   10  H   UNK A   1     -12.394  10.136  67.653  1.00  0.00     0.000 HD 
BRANCH   9  11
HETATM   11  C   UNK A   1     -11.838  10.297  69.654  1.00  0.00    -0.111 C  
HETATM   12  C   UNK A   1     -12.354  11.316  70.687  1.00  0.00    -0.383 C  
HETATM   13  O   UNK A   1     -12.733  11.035  71.814  1.00  0.00    -0.382 OA 
HETATM   14  O   UNK A   1     -12.333  12.584  70.206  1.00  0.00    -0.277 OA 
BRANCH  11  15
HETATM   15  C   UNK A   1     -10.340  10.025  69.914  1.00  0.00    -0.315 C  
BRANCH  15  16
HETATM   16  C   UNK A   1     -10.033   8.543  70.192  1.00  0.00    -0.187 C  
BRANCH  16  17
HETATM   17  C   UNK A   1      -9.893   7.726  68.927  1.00  0.00    -0.166 A  
HETATM   18  C   UNK A   1      -8.627   7.492  68.374  1.00  0.00    -0.124 A  
HETATM   19  C   UNK A   1      -9.612   6.207  66.580  1.00  0.00    -0.181 A  
HETATM   20  C   UNK A   1      -8.489   6.736  67.208  1.00  0.00    -0.120 A  
HETATM   21  C   UNK A   1     -10.875   6.419  67.128  1.00  0.00    -0.467 A  
HETATM   22  C   UNK A   1     -11.017   7.172  68.294  1.00  0.00    -0.092 A  
ENDBRANCH  16  17
ENDBRANCH  15  16
ENDBRANCH  11  15
ENDBRANCH   9  11
ENDBRANCH   8   9
BRANCH   8  23
HETATM   23  C   UNK A   1     -11.483  12.700  66.728  1.00  0.00    -0.351 C  
ATOM     24  OXT PRO A   2      -8.099  14.309  69.021  1.00  0.00    -0.106 OA 
HETATM   25  O   UNK A   1     -12.486  12.470  66.051  1.00  0.00    -0.565 OA 
ATOM     26  N   PRO A   2     -10.868  13.952  66.697  1.00  0.00    -0.288 N  
ATOM     27  CD  PRO A   2     -11.422  15.040  65.899  1.00  0.00    -0.224 C  
ATOM     28  O   PRO A   2     -10.299  14.800  69.186  1.00  0.00    -0.235 OA 
ATOM     29  C   PRO A   2      -9.197  14.414  68.500  1.00  0.00    -0.198 C  
ATOM     30  CA  PRO A   2      -9.452  14.211  67.007  1.00  0.00    -0.251 C  
ATOM     31  CB  PRO A   2      -9.090  15.488  66.242  1.00  0.00    -0.369 C  
ATOM     32  CG  PRO A   2     -10.218  15.683  65.238  1.00  0.00    -0.358 C  
ENDBRANCH   8  23
ENDBRANCH   7   8
ENDBRANCH   6   7
ENDBRANCH   5   6
ENDBRANCH   3   5
TORSDOF 10
ENDMDL
MODEL       70
REMARK 921   NORMALIZED FREE ENERGY PREDICTED BY IDOCK:   -5.20 KCAL/MOL
REMARK 922        TOTAL FREE ENERGY PREDICTED BY IDOCK:  -10.20 KCAL/MOL
REMARK 923 INTER-LIGAND FREE ENERGY PREDICTED BY IDOCK:   -7.75 KCAL/MOL
REMARK 924 INTRA-LIGAND FREE ENERGY PREDICTED BY IDOCK:   -2.45 KCAL/MOL
REMARK 927      BINDING AFFINITY PREDICTED BY RF-SCORE:    0.00 PKD
ROOT
HETATM    1  N   UNK A   1     -12.403  13.470  63.124  1.00  0.00    -1.024 NA 
HETATM    2  H2  UNK A   1     -11.586  13.804  62.613  1.00  0.00     0.000 HD 
HETATM    3  C   UNK A   1     -12.342  12.038  63.388  1.00  0.00    -0.523 C  
HETATM    4  H1  UNK A   1     -13.275  13.691  62.642  1.00  0.00     0.000 HD 
ENDROOT
BRANCH   3   5
HETATM    5  C   UNK A   1     -11.038  11.709  64.108  1.00  0.00    -0.435 C  
BRANCH   5   6
HETATM    6  C   UNK A   1     -11.281  10.976  65.433  1.00  0.00     0.113 C  
BRANCH   6   7
HETATM    7  C   UNK A   1      -9.958  10.393  65.940  1.00  0.00    -0.317 C  
BRANCH   7   8
HETATM    8  C   UNK A   1     -10.054   9.039  66.665  1.00  0.00    -0.285 C  
BRANCH   8   9
HETATM    9  N   UNK A   1     -11.044   9.015  67.785  1.00  0.00    -0.456 NA 
HETATM   10  H   UNK A   1     -11.117   8.074  68.172  1.00  0.00     0.000 HD 
BRANCH   9  11
HETATM   11  C   UNK A   1     -10.782  10.006  68.876  1.00  0.00    -0.219 C  
HETATM   12  C   UNK A   1     -10.621   9.222  70.192  1.00  0.00    -0.231 C  
HETATM   13  O   UNK A   1      -9.981   9.606  71.159  1.00  0.00    -0.221 OA 
HETATM   14  O   UNK A   1     -11.286   8.040  70.165  1.00  0.00    -0.238 OA 
BRANCH  11  15
HETATM   15  C   UNK A   1     -11.934  11.023  69.030  1.00  0.00    -0.364 C  
BRANCH  15  16
HETATM   16  C   UNK A   1     -11.455  12.422  69.455  1.00  0.00    -0.336 C  
BRANCH  16  17
HETATM   17  C   UNK A   1     -11.015  13.272  68.284  1.00  0.00    -0.280 A  
HETATM   18  C   UNK A   1      -9.652  13.459  68.020  1.00  0.00    -0.219 A  
HETATM   19  C   UNK A   1     -10.177  14.844  66.111  1.00  0.00    -0.314 A  
HETATM   20  C   UNK A   1      -9.237  14.239  66.939  1.00  0.00    -0.268 A  
HETATM   21  C   UNK A   1     -11.536  14.653  66.352  1.00  0.00    -0.343 A  
HETATM   22  C   UNK A   1     -11.954  13.871  67.430  1.00  0.00    -0.436 A  
ENDBRANCH  16  17
ENDBRANCH  15  16
ENDBRANCH  11  15
ENDBRANCH   9  11
ENDBRANCH   8   9
BRANCH   8  23
HETATM   23  C   UNK A   1      -8.673   8.540  67.224  1.00  0.00    -0.130 C  
ATOM     24  OXT PRO A   2     -11.116   5.119  65.946  1.00  0.00    -0.114 OA 
HETATM   25  O   UNK A   1      -7.874   9.343  67.708  1.00  0.00    -0.095 OA 
ATOM     26  N   PRO A   2      -8.405   7.170  67.226  1.00  0.00    -0.118 N  
ATOM     27  CD  PRO A   2      -7.192   6.645  67.842  1.00  0.00    -0.091 C  
ATOM     28  O   PRO A   2     -10.557   5.775  68.036  1.00  0.00    -0.225 OA 
ATOM     29  C   PRO A   2     -10.329   5.660  66.706  1.00  0.00    -0.262 C  
ATOM     30  CA  PRO A   2      -8.963   6.194  66.276  1.00  0.00    -0.154 C  
ATOM     31  CB  PRO A   2      -7.952   5.045  66.224  1.00  0.00    -0.107 C  
ATOM     32  CG  PRO A   2      -6.687   5.599  66.867  1.00  0.00    -0.062 C  
ENDBRANCH   8  23
ENDBRANCH   7   8
ENDBRANCH   6   7
ENDBRANCH   5   6
ENDBRANCH   3   5
TORSDOF 10
ENDMDL
MODEL       71
REMARK 921   NORMALIZED FREE ENERGY PREDICTED BY IDOCK:   -5.20 KCAL/MOL
REMARK 922        TOTAL FREE ENERGY PREDICTED BY IDOCK:  -10.20 KCAL/MOL
REMARK 923 INTER-LIGAND FREE ENERGY PREDICTED BY IDOCK:   -8.82 KCAL/MOL
REMARK 924 INTRA-LIGAND FREE ENERGY PREDICTED BY IDOCK:   -1.38 KCAL/MOL
REMARK 927      BINDING AFFINITY PREDICTED BY RF-SCORE:    0.00 PKD
ROOT
HETATM    1  N   UNK A   1     -12.664  11.987  63.465  1.00  0.00    -0.742 NA 
HETATM    2  H2  UNK A   1     -13.497  11.974  64.053  1.00  0.00     0.000 HD 
HETATM    3  C   UNK A   1     -11.530  12.616  64.129  1.00  0.00    -0.387 C  
HETATM    4  H1  UNK A   1     -12.832  12.445  62.569  1.00  0.00     0.000 HD 
ENDROOT
BRANCH   3   5
HETATM    5  C   UNK A   1     -11.279  11.930  65.468  1.00  0.00    -0.353 C  
BRANCH   5   6
HETATM    6  C   UNK A   1     -11.652  12.828  66.654  1.00  0.00    -0.430 C  
BRANCH   6   7
HETATM    7  C   UNK A   1     -12.014  11.954  67.859  1.00  0.00    -0.189 C  
BRANCH   7   8
HETATM    8  C   UNK A   1     -11.207  12.210  69.143  1.00  0.00    -0.244 C  
BRANCH   8   9
HETATM    9  N   UNK A   1     -10.066  11.265  69.345  1.00  0.00    -0.434 NA 
HETATM   10  H   UNK A   1      -9.766  11.276  70.320  1.00  0.00     0.000 HD 
BRANCH   9  11
HETATM   11  C   UNK A   1     -10.328   9.860  68.899  1.00  0.00    -0.205 C  
HETATM   12  C   UNK A   1      -9.873   8.918  70.030  1.00  0.00    -0.174 C  
HETATM   13  O   UNK A   1     -10.319   7.797  70.225  1.00  0.00    -0.207 OA 
HETATM   14  O   UNK A   1      -8.900   9.472  70.794  1.00  0.00    -0.210 OA 
BRANCH  11  15
HETATM   15  C   UNK A   1      -9.562   9.506  67.606  1.00  0.00    -0.163 C  
BRANCH  15  16
HETATM   16  C   UNK A   1     -10.300   8.484  66.724  1.00  0.00    -0.346 C  
BRANCH  16  17
HETATM   17  C   UNK A   1      -9.680   7.106  66.778  1.00  0.00    -0.252 A  
HETATM   18  C   UNK A   1      -8.300   6.960  66.976  1.00  0.00    -0.121 A  
HETATM   19  C   UNK A   1      -8.508   4.554  66.883  1.00  0.00    -0.105 A  
HETATM   20  C   UNK A   1      -7.719   5.691  67.030  1.00  0.00    -0.101 A  
HETATM   21  C   UNK A   1      -9.883   4.684  66.701  1.00  0.00    -0.239 A  
HETATM   22  C   UNK A   1     -10.467   5.951  66.649  1.00  0.00    -0.310 A  
ENDBRANCH  16  17
ENDBRANCH  15  16
ENDBRANCH  11  15
ENDBRANCH   9  11
ENDBRANCH   8   9
BRANCH   8  23
HETATM   23  C   UNK A   1     -12.091  12.191  70.442  1.00  0.00    -0.309 C  
ATOM     24  OXT PRO A   2     -11.406  16.329  69.137  1.00  0.00    -0.325 OA 
HETATM   25  O   UNK A   1     -12.332  11.125  71.012  1.00  0.00    -0.371 OA 
ATOM     26  N   PRO A   2     -12.535  13.404  70.969  1.00  0.00    -0.371 N  
ATOM     27  CD  PRO A   2     -13.256  13.450  72.237  1.00  0.00    -0.472 C  
ATOM     28  O   PRO A   2     -10.570  15.240  70.932  1.00  0.00    -0.209 OA 
ATOM     29  C   PRO A   2     -11.524  15.474  70.000  1.00  0.00    -0.331 C  
ATOM     30  CA  PRO A   2     -12.782  14.629  70.192  1.00  0.00    -0.220 C  
ATOM     31  CB  PRO A   2     -13.821  15.422  70.992  1.00  0.00    -0.361 C  
ATOM     32  CG  PRO A   2     -14.388  14.431  71.999  1.00  0.00    -0.636 C  
ENDBRANCH   8  23
ENDBRANCH   7   8
ENDBRANCH   6   7
ENDBRANCH   5   6
ENDBRANCH   3   5
TORSDOF 10
ENDMDL
MODEL       72
REMARK 921   NORMALIZED FREE ENERGY PREDICTED BY IDOCK:   -5.20 KCAL/MOL
REMARK 922        TOTAL FREE ENERGY PREDICTED BY IDOCK:  -10.19 KCAL/MOL
REMARK 923 INTER-LIGAND FREE ENERGY PREDICTED BY IDOCK:   -8.57 KCAL/MOL
REMARK 924 INTRA-LIGAND FREE ENERGY PREDICTED BY IDOCK:   -1.62 KCAL/MOL
REMARK 927      BINDING AFFINITY PREDICTED BY RF-SCORE:    0.00 PKD
ROOT
HETATM    1  N   UNK A   1     -13.211  14.066  65.302  1.00  0.00    -0.710 NA 
HETATM    2  H2  UNK A   1     -12.968  13.376  66.013  1.00  0.00     0.000 HD 
HETATM    3  C   UNK A   1     -12.280  14.055  64.182  1.00  0.00    -0.396 C  
HETATM    4  H1  UNK A   1     -13.271  15.010  65.687  1.00  0.00     0.000 HD 
ENDROOT
BRANCH   3   5
HETATM    5  C   UNK A   1     -12.191  12.645  63.608  1.00  0.00    -0.624 C  
BRANCH   5   6
HETATM    6  C   UNK A   1     -10.740  12.160  63.494  1.00  0.00    -0.509 C  
BRANCH   6   7
HETATM    7  C   UNK A   1     -10.428  11.214  64.657  1.00  0.00    -0.400 C  
BRANCH   7   8
HETATM    8  C   UNK A   1      -9.827  11.867  65.913  1.00  0.00    -0.237 C  
BRANCH   8   9
HETATM    9  N   UNK A   1      -8.845  11.004  66.639  1.00  0.00    -0.159 NA 
HETATM   10  H   UNK A   1      -8.195  11.581  67.173  1.00  0.00     0.000 HD 
BRANCH   9  11
HETATM   11  C   UNK A   1      -9.457   9.962  67.522  1.00  0.00    -0.151 C  
HETATM   12  C   UNK A   1      -8.672   9.949  68.847  1.00  0.00    -0.140 C  
HETATM   13  O   UNK A   1      -9.124   9.586  69.922  1.00  0.00    -0.182 OA 
HETATM   14  O   UNK A   1      -7.397  10.382  68.686  1.00  0.00    -0.078 OA 
BRANCH  11  15
HETATM   15  C   UNK A   1      -9.404   8.554  66.887  1.00  0.00    -0.219 C  
BRANCH  15  16
HETATM   16  C   UNK A   1     -10.687   7.738  67.115  1.00  0.00    -0.337 C  
BRANCH  16  17
HETATM   17  C   UNK A   1     -10.541   6.710  68.215  1.00  0.00    -0.291 A  
HETATM   18  C   UNK A   1      -9.824   5.528  67.986  1.00  0.00    -0.173 A  
HETATM   19  C   UNK A   1     -10.255   4.790  70.246  1.00  0.00    -0.262 A  
HETATM   20  C   UNK A   1      -9.682   4.575  68.997  1.00  0.00    -0.235 A  
HETATM   21  C   UNK A   1     -10.957   5.968  70.492  1.00  0.00    -0.388 A  
HETATM   22  C   UNK A   1     -11.099   6.923  69.485  1.00  0.00    -0.270 A  
ENDBRANCH  16  17
ENDBRANCH  15  16
ENDBRANCH  11  15
ENDBRANCH   9  11
ENDBRANCH   8   9
BRANCH   8  23
HETATM   23  C   UNK A   1     -10.914  12.341  66.943  1.00  0.00    -0.267 C  
ATOM     24  OXT PRO A   2      -7.471  15.068  67.016  1.00  0.00    -0.166 OA 
HETATM   25  O   UNK A   1     -11.926  11.664  67.131  1.00  0.00    -0.614 OA 
ATOM     26  N   PRO A   2     -10.677  13.498  67.685  1.00  0.00    -0.246 N  
ATOM     27  CD  PRO A   2     -11.598  13.915  68.738  1.00  0.00    -0.335 C  
ATOM     28  O   PRO A   2      -8.138  13.566  68.569  1.00  0.00    -0.144 OA 
ATOM     29  C   PRO A   2      -8.366  14.444  67.563  1.00  0.00    -0.187 C  
ATOM     30  CA  PRO A   2      -9.849  14.634  67.247  1.00  0.00    -0.231 C  
ATOM     31  CB  PRO A   2     -10.387  15.852  68.004  1.00  0.00    -0.262 C  
ATOM     32  CG  PRO A   2     -11.738  15.414  68.555  1.00  0.00    -0.355 C  
ENDBRANCH   8  23
ENDBRANCH   7   8
ENDBRANCH   6   7
ENDBRANCH   5   6
ENDBRANCH   3   5
TORSDOF 10
ENDMDL
MODEL       73
REMARK 921   NORMALIZED FREE ENERGY PREDICTED BY IDOCK:   -5.19 KCAL/MOL
REMARK 922        TOTAL FREE ENERGY PREDICTED BY IDOCK:  -10.17 KCAL/MOL
REMARK 923 INTER-LIGAND FREE ENERGY PREDICTED BY IDOCK:   -8.28 KCAL/MOL
REMARK 924 INTRA-LIGAND FREE ENERGY PREDICTED BY IDOCK:   -1.90 KCAL/MOL
REMARK 927      BINDING AFFINITY PREDICTED BY RF-SCORE:    0.00 PKD
ROOT
HETATM    1  N   UNK A   1      -6.276  11.624  66.302  1.00  0.00    -0.443 NA 
HETATM    2  H2  UNK A   1      -5.938  11.753  67.255  1.00  0.00     0.000 HD 
HETATM    3  C   UNK A   1      -6.958  10.348  66.126  1.00  0.00    -0.126 C  
HETATM    4  H1  UNK A   1      -5.528  11.709  65.613  1.00  0.00     0.000 HD 
ENDROOT
BRANCH   3   5
HETATM    5  C   UNK A   1      -8.076  10.223  67.155  1.00  0.00    -0.121 C  
BRANCH   5   6
HETATM    6  C   UNK A   1      -7.533  10.054  68.579  1.00  0.00    -0.086 C  
BRANCH   6   7
HETATM    7  C   UNK A   1      -8.671  10.257  69.584  1.00  0.00    -0.125 C  
BRANCH   7   8
HETATM    8  C   UNK A   1      -9.601   9.050  69.800  1.00  0.00    -0.175 C  
BRANCH   8   9
HETATM    9  N   UNK A   1     -11.051   9.355  69.599  1.00  0.00    -0.381 NA 
HETATM   10  H   UNK A   1     -11.619   8.817  70.253  1.00  0.00     0.000 HD 
BRANCH   9  11
HETATM   11  C   UNK A   1     -11.405  10.807  69.677  1.00  0.00    -0.294 C  
HETATM   12  C   UNK A   1     -12.448  10.976  70.798  1.00  0.00    -0.396 C  
HETATM   13  O   UNK A   1     -12.626  12.002  71.436  1.00  0.00    -0.320 OA 
HETATM   14  O   UNK A   1     -13.167   9.844  70.999  1.00  0.00    -0.373 OA 
BRANCH  11  15
HETATM   15  C   UNK A   1     -11.996  11.336  68.351  1.00  0.00    -0.255 C  
BRANCH  15  16
HETATM   16  C   UNK A   1     -11.092  12.366  67.653  1.00  0.00    -0.306 C  
BRANCH  16  17
HETATM   17  C   UNK A   1     -11.426  12.543  66.189  1.00  0.00    -0.426 A  
HETATM   18  C   UNK A   1     -10.963  11.620  65.242  1.00  0.00    -0.327 A  
HETATM   19  C   UNK A   1     -12.040  12.852  63.464  1.00  0.00    -0.633 A  
HETATM   20  C   UNK A   1     -11.270  11.774  63.888  1.00  0.00    -0.493 A  
HETATM   21  C   UNK A   1     -12.520  13.770  64.397  1.00  0.00    -0.317 A  
HETATM   22  C   UNK A   1     -12.217  13.617  65.750  1.00  0.00    -0.503 A  
ENDBRANCH  16  17
ENDBRANCH  15  16
ENDBRANCH  11  15
ENDBRANCH   9  11
ENDBRANCH   8   9
BRANCH   8  23
HETATM   23  C   UNK A   1      -9.435   8.388  71.215  1.00  0.00    -0.186 C  
ATOM     24  OXT PRO A   2     -10.810   5.405  68.298  1.00  0.00    -0.090 OA 
HETATM   25  O   UNK A   1      -9.131   9.077  72.190  1.00  0.00    -0.372 OA 
ATOM     26  N   PRO A   2      -9.704   7.026  71.354  1.00  0.00    -0.170 N  
ATOM     27  CD  PRO A   2      -9.681   6.388  72.666  1.00  0.00    -0.161 C  
ATOM     28  O   PRO A   2     -11.936   6.351  70.015  1.00  0.00    -0.333 OA 
ATOM     29  C   PRO A   2     -10.809   5.907  69.411  1.00  0.00    -0.352 C  
ATOM     30  CA  PRO A   2      -9.564   6.018  70.291  1.00  0.00    -0.163 C  
ATOM     31  CB  PRO A   2      -9.319   4.689  71.012  1.00  0.00    -0.209 C  
ATOM     32  CG  PRO A   2      -8.962   5.073  72.442  1.00  0.00    -0.139 C  
ENDBRANCH   8  23
ENDBRANCH   7   8
ENDBRANCH   6   7
ENDBRANCH   5   6
ENDBRANCH   3   5
TORSDOF 10
ENDMDL
MODEL       74
REMARK 921   NORMALIZED FREE ENERGY PREDICTED BY IDOCK:   -5.18 KCAL/MOL
REMARK 922        TOTAL FREE ENERGY PREDICTED BY IDOCK:  -10.17 KCAL/MOL
REMARK 923 INTER-LIGAND FREE ENERGY PREDICTED BY IDOCK:   -8.14 KCAL/MOL
REMARK 924 INTRA-LIGAND FREE ENERGY PREDICTED BY IDOCK:   -2.03 KCAL/MOL
REMARK 927      BINDING AFFINITY PREDICTED BY RF-SCORE:    0.00 PKD
ROOT
HETATM    1  N   UNK A   1     -11.898   7.679  72.963  1.00  0.00    -0.598 NA 
HETATM    2  H2  UNK A   1     -11.668   8.505  72.410  1.00  0.00     0.000 HD 
HETATM    3  C   UNK A   1     -10.987   6.571  72.704  1.00  0.00    -0.255 C  
HETATM    4  H1  UNK A   1     -12.860   7.372  72.815  1.00  0.00     0.000 HD 
ENDROOT
BRANCH   3   5
HETATM    5  C   UNK A   1      -9.551   7.031  72.926  1.00  0.00    -0.174 C  
BRANCH   5   6
HETATM    6  C   UNK A   1      -9.351   8.504  72.548  1.00  0.00    -0.316 C  
BRANCH   6   7
HETATM    7  C   UNK A   1      -8.866   8.595  71.098  1.00  0.00    -0.249 C  
BRANCH   7   8
HETATM    8  C   UNK A   1      -9.699   9.490  70.164  1.00  0.00    -0.246 C  
BRANCH   8   9
HETATM    9  N   UNK A   1     -11.148   9.564  70.524  1.00  0.00    -0.261 NA 
HETATM   10  H   UNK A   1     -11.310   9.125  71.430  1.00  0.00     0.000 HD 
BRANCH   9  11
HETATM   11  C   UNK A   1     -11.730  10.943  70.504  1.00  0.00    -0.342 C  
HETATM   12  C   UNK A   1     -12.900  10.972  71.506  1.00  0.00    -0.450 C  
HETATM   13  O   UNK A   1     -13.304  11.972  72.079  1.00  0.00    -0.495 OA 
HETATM   14  O   UNK A   1     -13.452   9.745  71.680  1.00  0.00    -0.376 OA 
BRANCH  11  15
HETATM   15  C   UNK A   1     -12.252  11.337  69.105  1.00  0.00    -0.251 C  
BRANCH  15  16
HETATM   16  C   UNK A   1     -11.789  12.734  68.657  1.00  0.00    -0.341 C  
BRANCH  16  17
HETATM   17  C   UNK A   1     -11.782  12.896  67.154  1.00  0.00    -0.437 A  
HETATM   18  C   UNK A   1     -11.286  11.873  66.335  1.00  0.00    -0.387 A  
HETATM   19  C   UNK A   1     -11.764  13.177  64.358  1.00  0.00    -0.429 A  
HETATM   20  C   UNK A   1     -11.279  12.013  64.945  1.00  0.00    -0.374 A  
HETATM   21  C   UNK A   1     -12.275  14.196  65.159  1.00  0.00    -0.439 A  
HETATM   22  C   UNK A   1     -12.286  14.058  66.547  1.00  0.00    -0.485 A  
ENDBRANCH  16  17
ENDBRANCH  15  16
ENDBRANCH  11  15
ENDBRANCH   9  11
ENDBRANCH   8   9
BRANCH   8  23
HETATM   23  C   UNK A   1      -9.593   9.073  68.653  1.00  0.00    -0.153 C  
ATOM     24  OXT PRO A   2      -6.428  11.951  69.657  1.00  0.00    -0.120 OA 
HETATM   25  O   UNK A   1     -10.440   8.331  68.154  1.00  0.00    -0.211 OA 
ATOM     26  N   PRO A   2      -8.566   9.614  67.878  1.00  0.00    -0.122 N  
ATOM     27  CD  PRO A   2      -8.493   9.355  66.444  1.00  0.00    -0.126 C  
ATOM     28  O   PRO A   2      -8.271  12.240  68.379  1.00  0.00    -0.161 OA 
ATOM     29  C   PRO A   2      -7.271  11.491  68.902  1.00  0.00    -0.117 C  
ATOM     30  CA  PRO A   2      -7.257  10.053  68.388  1.00  0.00    -0.073 C  
ATOM     31  CB  PRO A   2      -6.293   9.936  67.203  1.00  0.00    -0.068 C  
ATOM     32  CG  PRO A   2      -7.026   9.082  66.177  1.00  0.00    -0.085 C  
ENDBRANCH   8  23
ENDBRANCH   7   8
ENDBRANCH   6   7
ENDBRANCH   5   6
ENDBRANCH   3   5
TORSDOF 10
ENDMDL
MODEL       75
REMARK 921   NORMALIZED FREE ENERGY PREDICTED BY IDOCK:   -5.17 KCAL/MOL
REMARK 922        TOTAL FREE ENERGY PREDICTED BY IDOCK:  -10.15 KCAL/MOL
REMARK 923 INTER-LIGAND FREE ENERGY PREDICTED BY IDOCK:   -8.48 KCAL/MOL
REMARK 924 INTRA-LIGAND FREE ENERGY PREDICTED BY IDOCK:   -1.67 KCAL/MOL
REMARK 927      BINDING AFFINITY PREDICTED BY RF-SCORE:    0.00 PKD
ROOT
HETATM    1  N   UNK A   1     -13.969   7.563  71.099  1.00  0.00    -0.642 NA 
HETATM    2  H2  UNK A   1     -13.265   7.461  70.368  1.00  0.00     0.000 HD 
HETATM    3  C   UNK A   1     -13.678   8.676  71.993  1.00  0.00    -0.426 C  
HETATM    4  H1  UNK A   1     -14.083   6.708  71.645  1.00  0.00     0.000 HD 
ENDROOT
BRANCH   3   5
HETATM    5  C   UNK A   1     -13.507   9.953  71.178  1.00  0.00    -0.308 C  
BRANCH   5   6
HETATM    6  C   UNK A   1     -12.055  10.447  71.177  1.00  0.00    -0.487 C  
BRANCH   6   7
HETATM    7  C   UNK A   1     -11.324   9.874  69.959  1.00  0.00    -0.303 C  
BRANCH   7   8
HETATM    8  C   UNK A   1     -10.171   8.902  70.261  1.00  0.00    -0.201 C  
BRANCH   8   9
HETATM    9  N   UNK A   1      -9.093   8.893  69.226  1.00  0.00    -0.143 NA 
HETATM   10  H   UNK A   1      -8.444   8.125  69.397  1.00  0.00     0.000 HD 
BRANCH   9  11
HETATM   11  C   UNK A   1      -9.581   8.853  67.811  1.00  0.00    -0.147 C  
HETATM   12  C   UNK A   1      -8.906   7.655  67.117  1.00  0.00    -0.125 C  
HETATM   13  O   UNK A   1      -9.369   7.052  66.160  1.00  0.00    -0.138 OA 
HETATM   14  O   UNK A   1      -7.717   7.340  67.686  1.00  0.00    -0.107 OA 
BRANCH  11  15
HETATM   15  C   UNK A   1      -9.238  10.145  67.037  1.00  0.00    -0.166 C  
BRANCH  15  16
HETATM   16  C   UNK A   1     -10.028  10.294  65.726  1.00  0.00    -0.337 C  
BRANCH  16  17
HETATM   17  C   UNK A   1     -10.905  11.526  65.705  1.00  0.00    -0.319 A  
HETATM   18  C   UNK A   1     -11.428  12.001  64.495  1.00  0.00    -0.385 A  
HETATM   19  C   UNK A   1     -12.538  13.811  65.646  1.00  0.00    -0.551 A  
HETATM   20  C   UNK A   1     -12.241  13.135  64.467  1.00  0.00    -0.466 A  
HETATM   21  C   UNK A   1     -12.037  13.342  66.859  1.00  0.00    -0.406 A  
HETATM   22  C   UNK A   1     -11.227  12.206  66.890  1.00  0.00    -0.375 A  
ENDBRANCH  16  17
ENDBRANCH  15  16
ENDBRANCH  11  15
ENDBRANCH   9  11
ENDBRANCH   8   9
BRANCH   8  23
HETATM   23  C   UNK A   1     -10.652   7.422  70.476  1.00  0.00    -0.224 C  
ATOM     24  OXT PRO A   2      -8.358   8.790  73.964  1.00  0.00    -0.285 OA 
HETATM   25  O   UNK A   1     -11.247   6.827  69.576  1.00  0.00    -0.285 OA 
ATOM     26  N   PRO A   2     -10.332   6.779  71.672  1.00  0.00    -0.197 N  
ATOM     27  CD  PRO A   2     -10.650   5.369  71.874  1.00  0.00    -0.226 C  
ATOM     28  O   PRO A   2      -7.786   7.284  72.379  1.00  0.00    -0.093 OA 
ATOM     29  C   PRO A   2      -8.684   7.939  73.152  1.00  0.00    -0.220 C  
ATOM     30  CA  PRO A   2     -10.119   7.448  72.966  1.00  0.00    -0.273 C  
ATOM     31  CB  PRO A   2     -10.448   6.397  74.032  1.00  0.00    -0.286 C  
ATOM     32  CG  PRO A   2     -11.191   5.296  73.288  1.00  0.00    -0.359 C  
ENDBRANCH   8  23
ENDBRANCH   7   8
ENDBRANCH   6   7
ENDBRANCH   5   6
ENDBRANCH   3   5
TORSDOF 10
ENDMDL
MODEL       76
REMARK 921   NORMALIZED FREE ENERGY PREDICTED BY IDOCK:   -5.17 KCAL/MOL
REMARK 922        TOTAL FREE ENERGY PREDICTED BY IDOCK:  -10.15 KCAL/MOL
REMARK 923 INTER-LIGAND FREE ENERGY PREDICTED BY IDOCK:   -8.31 KCAL/MOL
REMARK 924 INTRA-LIGAND FREE ENERGY PREDICTED BY IDOCK:   -1.84 KCAL/MOL
REMARK 927      BINDING AFFINITY PREDICTED BY RF-SCORE:    0.00 PKD
ROOT
HETATM    1  N   UNK A   1     -11.045   5.972  66.482  1.00  0.00    -0.761 NA 
HETATM    2  H2  UNK A   1     -10.324   5.295  66.734  1.00  0.00     0.000 HD 
HETATM    3  C   UNK A   1     -10.724   7.316  66.945  1.00  0.00    -0.276 C  
HETATM    4  H1  UNK A   1     -11.965   5.702  66.831  1.00  0.00     0.000 HD 
ENDROOT
BRANCH   3   5
HETATM    5  C   UNK A   1      -9.349   7.719  66.423  1.00  0.00    -0.237 C  
BRANCH   5   6
HETATM    6  C   UNK A   1      -9.158   9.241  66.416  1.00  0.00    -0.200 C  
BRANCH   6   7
HETATM    7  C   UNK A   1     -10.401   9.912  67.010  1.00  0.00    -0.303 C  
BRANCH   7   8
HETATM    8  C   UNK A   1     -10.181  11.300  67.636  1.00  0.00    -0.181 C  
BRANCH   8   9
HETATM    9  N   UNK A   1     -10.233  11.309  69.130  1.00  0.00    -0.388 NA 
HETATM   10  H   UNK A   1     -10.603  12.198  69.466  1.00  0.00     0.000 HD 
BRANCH   9  11
HETATM   11  C   UNK A   1     -10.989  10.169  69.740  1.00  0.00    -0.280 C  
HETATM   12  C   UNK A   1     -12.256  10.747  70.398  1.00  0.00    -0.349 C  
HETATM   13  O   UNK A   1     -13.292  10.125  70.583  1.00  0.00    -0.310 OA 
HETATM   14  O   UNK A   1     -12.094  12.042  70.766  1.00  0.00    -0.349 OA 
BRANCH  11  15
HETATM   15  C   UNK A   1     -10.159   9.422  70.808  1.00  0.00    -0.366 C  
BRANCH  15  16
HETATM   16  C   UNK A   1      -9.546   8.110  70.290  1.00  0.00    -0.171 C  
BRANCH  16  17
HETATM   17  C   UNK A   1      -9.957   6.907  71.109  1.00  0.00    -0.187 A  
HETATM   18  C   UNK A   1      -9.166   5.750  71.111  1.00  0.00    -0.168 A  
HETATM   19  C   UNK A   1     -10.702   4.663  72.627  1.00  0.00    -0.249 A  
HETATM   20  C   UNK A   1      -9.537   4.636  71.867  1.00  0.00    -0.210 A  
HETATM   21  C   UNK A   1     -11.489   5.812  72.646  1.00  0.00    -0.337 A  
HETATM   22  C   UNK A   1     -11.120   6.928  71.894  1.00  0.00    -0.278 A  
ENDBRANCH  16  17
ENDBRANCH  15  16
ENDBRANCH  11  15
ENDBRANCH   9  11
ENDBRANCH   8   9
BRANCH   8  23
HETATM   23  C   UNK A   1     -11.189  12.382  67.108  1.00  0.00    -0.298 C  
ATOM     24  OXT PRO A   2      -7.212  14.162  67.669  1.00  0.00    -0.155 OA 
HETATM   25  O   UNK A   1     -12.380  12.100  66.960  1.00  0.00    -0.379 OA 
ATOM     26  N   PRO A   2     -10.724  13.677  66.878  1.00  0.00    -0.274 N  
ATOM     27  CD  PRO A   2     -11.642  14.747  66.502  1.00  0.00    -0.301 C  
ATOM     28  O   PRO A   2      -9.102  14.479  68.868  1.00  0.00    -0.180 OA 
ATOM     29  C   PRO A   2      -8.431  14.202  67.725  1.00  0.00    -0.178 C  
ATOM     30  CA  PRO A   2      -9.343  14.032  66.511  1.00  0.00    -0.255 C  
ATOM     31  CB  PRO A   2      -9.446  15.359  65.752  1.00  0.00    -0.325 C  
ATOM     32  CG  PRO A   2     -10.922  15.503  65.402  1.00  0.00    -0.365 C  
ENDBRANCH   8  23
ENDBRANCH   7   8
ENDBRANCH   6   7
ENDBRANCH   5   6
ENDBRANCH   3   5
TORSDOF 10
ENDMDL
MODEL       77
REMARK 921   NORMALIZED FREE ENERGY PREDICTED BY IDOCK:   -5.17 KCAL/MOL
REMARK 922        TOTAL FREE ENERGY PREDICTED BY IDOCK:  -10.14 KCAL/MOL
REMARK 923 INTER-LIGAND FREE ENERGY PREDICTED BY IDOCK:   -8.77 KCAL/MOL
REMARK 924 INTRA-LIGAND FREE ENERGY PREDICTED BY IDOCK:   -1.37 KCAL/MOL
REMARK 927      BINDING AFFINITY PREDICTED BY RF-SCORE:    0.00 PKD
ROOT
HETATM    1  N   UNK A   1     -11.479  10.125  70.895  1.00  0.00    -0.351 NA 
HETATM    2  H2  UNK A   1     -10.473  10.220  70.753  1.00  0.00     0.000 HD 
HETATM    3  C   UNK A   1     -12.200  11.348  70.568  1.00  0.00    -0.386 C  
HETATM    4  H1  UNK A   1     -11.708   9.839  71.848  1.00  0.00     0.000 HD 
ENDROOT
BRANCH   3   5
HETATM    5  C   UNK A   1     -11.857  11.775  69.145  1.00  0.00    -0.389 C  
BRANCH   5   6
HETATM    6  C   UNK A   1     -10.461  11.303  68.721  1.00  0.00    -0.232 C  
BRANCH   6   7
HETATM    7  C   UNK A   1      -9.708  12.465  68.067  1.00  0.00    -0.210 C  
BRANCH   7   8
HETATM    8  C   UNK A   1      -9.171  12.207  66.649  1.00  0.00    -0.206 C  
BRANCH   8   9
HETATM    9  N   UNK A   1      -9.676  13.169  65.622  1.00  0.00    -0.469 NA 
HETATM   10  H   UNK A   1      -9.855  12.685  64.742  1.00  0.00     0.000 HD 
BRANCH   9  11
HETATM   11  C   UNK A   1     -10.883  13.954  66.035  1.00  0.00    -0.290 C  
HETATM   12  C   UNK A   1     -12.005  13.656  65.022  1.00  0.00    -0.378 C  
HETATM   13  O   UNK A   1     -13.200  13.736  65.262  1.00  0.00    -0.755 OA 
HETATM   14  O   UNK A   1     -11.514  13.298  63.810  1.00  0.00    -0.390 OA 
BRANCH  11  15
HETATM   15  C   UNK A   1     -10.611  15.474  66.059  1.00  0.00    -0.333 C  
BRANCH  15  16
HETATM   16  C   UNK A   1     -10.769  16.097  67.456  1.00  0.00    -0.304 C  
BRANCH  16  17
HETATM   17  C   UNK A   1     -10.478  17.580  67.474  1.00  0.00    -0.355 A  
HETATM   18  C   UNK A   1     -10.514  18.322  66.285  1.00  0.00    -0.397 A  
HETATM   19  C   UNK A   1      -9.943  20.339  67.487  1.00  0.00    -0.557 A  
HETATM   20  C   UNK A   1     -10.250  19.693  66.293  1.00  0.00    -0.598 A  
HETATM   21  C   UNK A   1      -9.918  19.617  68.678  1.00  0.00    -0.553 A  
HETATM   22  C   UNK A   1     -10.185  18.247  68.674  1.00  0.00    -0.377 A  
ENDBRANCH  16  17
ENDBRANCH  15  16
ENDBRANCH  11  15
ENDBRANCH   9  11
ENDBRANCH   8   9
BRANCH   8  23
HETATM   23  C   UNK A   1      -9.459  10.751  66.135  1.00  0.00    -0.187 C  
ATOM     24  OXT PRO A   2      -5.438  10.971  67.893  1.00  0.00    -0.039 OA 
HETATM   25  O   UNK A   1     -10.507  10.500  65.537  1.00  0.00    -0.237 OA 
ATOM     26  N   PRO A   2      -8.479   9.773  66.308  1.00  0.00    -0.123 N  
ATOM     27  CD  PRO A   2      -8.646   8.437  65.745  1.00  0.00    -0.159 C  
ATOM     28  O   PRO A   2      -6.041  10.746  65.725  1.00  0.00    -0.132 OA 
ATOM     29  C   PRO A   2      -6.231  10.570  67.055  1.00  0.00    -0.066 C  
ATOM     30  CA  PRO A   2      -7.478   9.753  67.388  1.00  0.00    -0.091 C  
ATOM     31  CB  PRO A   2      -7.098   8.281  67.571  1.00  0.00    -0.083 C  
ATOM     32  CG  PRO A   2      -8.180   7.497  66.839  1.00  0.00    -0.124 C  
ENDBRANCH   8  23
ENDBRANCH   7   8
ENDBRANCH   6   7
ENDBRANCH   5   6
ENDBRANCH   3   5
TORSDOF 10
ENDMDL
MODEL       78
REMARK 921   NORMALIZED FREE ENERGY PREDICTED BY IDOCK:   -5.14 KCAL/MOL
REMARK 922        TOTAL FREE ENERGY PREDICTED BY IDOCK:  -10.09 KCAL/MOL
REMARK 923 INTER-LIGAND FREE ENERGY PREDICTED BY IDOCK:  -10.48 KCAL/MOL
REMARK 924 INTRA-LIGAND FREE ENERGY PREDICTED BY IDOCK:    0.38 KCAL/MOL
REMARK 927      BINDING AFFINITY PREDICTED BY RF-SCORE:    0.00 PKD
ROOT
HETATM    1  N   UNK A   1     -13.007  13.070  65.068  1.00  0.00    -0.782 NA 
HETATM    2  H2  UNK A   1     -13.413  13.867  64.577  1.00  0.00     0.000 HD 
HETATM    3  C   UNK A   1     -11.614  12.848  64.702  1.00  0.00    -0.346 C  
HETATM    4  H1  UNK A   1     -13.540  12.213  64.918  1.00  0.00     0.000 HD 
ENDROOT
BRANCH   3   5
HETATM    5  C   UNK A   1     -10.818  14.128  64.926  1.00  0.00    -0.423 C  
BRANCH   5   6
HETATM    6  C   UNK A   1     -10.071  14.116  66.266  1.00  0.00    -0.308 C  
BRANCH   6   7
HETATM    7  C   UNK A   1     -10.524  15.311  67.111  1.00  0.00    -0.280 C  
BRANCH   7   8
HETATM    8  C   UNK A   1     -10.105  15.287  68.591  1.00  0.00    -0.222 C  
BRANCH   8   9
HETATM    9  N   UNK A   1     -11.025  16.039  69.498  1.00  0.00    -0.300 NA 
HETATM   10  H   UNK A   1     -11.331  16.903  69.052  1.00  0.00     0.000 HD 
BRANCH   9  11
HETATM   11  C   UNK A   1     -12.207  15.258  69.981  1.00  0.00    -0.349 C  
HETATM   12  C   UNK A   1     -12.602  15.813  71.363  1.00  0.00    -0.455 C  
HETATM   13  O   UNK A   1     -13.724  15.755  71.843  1.00  0.00    -0.444 OA 
HETATM   14  O   UNK A   1     -11.549  16.375  72.006  1.00  0.00    -0.444 OA 
BRANCH  11  15
HETATM   15  C   UNK A   1     -11.898  13.750  70.110  1.00  0.00    -0.360 C  
BRANCH  15  16
HETATM   16  C   UNK A   1     -12.856  13.014  71.062  1.00  0.00    -0.281 C  
BRANCH  16  17
HETATM   17  C   UNK A   1     -12.583  11.529  71.138  1.00  0.00    -0.463 A  
HETATM   18  C   UNK A   1     -13.263  10.731  72.068  1.00  0.00    -0.466 A  
HETATM   19  C   UNK A   1     -12.091   8.767  71.291  1.00  0.00    -0.344 A  
HETATM   20  C   UNK A   1     -13.019   9.358  72.142  1.00  0.00    -0.503 A  
HETATM   21  C   UNK A   1     -11.418   9.545  70.351  1.00  0.00    -0.297 A  
HETATM   22  C   UNK A   1     -11.662  10.916  70.272  1.00  0.00    -0.437 A  
ENDBRANCH  16  17
ENDBRANCH  15  16
ENDBRANCH  11  15
ENDBRANCH   9  11
ENDBRANCH   8   9
BRANCH   8  23
HETATM   23  C   UNK A   1      -8.645  15.817  68.828  1.00  0.00    -0.203 C  
ATOM     24  OXT PRO A   2     -11.136  18.973  67.055  1.00  0.00    -0.316 OA 
HETATM   25  O   UNK A   1      -7.770  15.058  69.247  1.00  0.00    -0.173 OA 
ATOM     26  N   PRO A   2      -8.348  17.138  68.490  1.00  0.00    -0.254 N  
ATOM     27  CD  PRO A   2      -6.983  17.645  68.577  1.00  0.00    -0.231 C  
ATOM     28  O   PRO A   2      -9.449  17.791  66.124  1.00  0.00    -0.457 OA 
ATOM     29  C   PRO A   2     -10.083  18.366  67.173  1.00  0.00    -0.353 C  
ATOM     30  CA  PRO A   2      -9.311  18.252  68.486  1.00  0.00    -0.319 C  
ATOM     31  CB  PRO A   2      -8.477  19.518  68.708  1.00  0.00    -0.337 C  
ATOM     32  CG  PRO A   2      -7.123  19.022  69.198  1.00  0.00    -0.330 C  
ENDBRANCH   8  23
ENDBRANCH   7   8
ENDBRANCH   6   7
ENDBRANCH   5   6
ENDBRANCH   3   5
TORSDOF 10
ENDMDL
MODEL       79
REMARK 921   NORMALIZED FREE ENERGY PREDICTED BY IDOCK:   -5.14 KCAL/MOL
REMARK 922        TOTAL FREE ENERGY PREDICTED BY IDOCK:  -10.09 KCAL/MOL
REMARK 923 INTER-LIGAND FREE ENERGY PREDICTED BY IDOCK:   -8.37 KCAL/MOL
REMARK 924 INTRA-LIGAND FREE ENERGY PREDICTED BY IDOCK:   -1.72 KCAL/MOL
REMARK 927      BINDING AFFINITY PREDICTED BY RF-SCORE:    0.00 PKD
ROOT
HETATM    1  N   UNK A   1     -11.502   4.369  64.848  1.00  0.00    -1.068 NA 
HETATM    2  H2  UNK A   1     -11.930   5.294  64.904  1.00  0.00     0.000 HD 
HETATM    3  C   UNK A   1     -10.130   4.366  65.338  1.00  0.00    -0.223 C  
HETATM    4  H1  UNK A   1     -11.528   3.990  63.901  1.00  0.00     0.000 HD 
ENDROOT
BRANCH   3   5
HETATM    5  C   UNK A   1     -10.093   4.933  66.753  1.00  0.00    -0.269 C  
BRANCH   5   6
HETATM    6  C   UNK A   1     -11.024   6.140  66.915  1.00  0.00    -0.384 C  
BRANCH   6   7
HETATM    7  C   UNK A   1     -10.260   7.285  67.588  1.00  0.00    -0.257 C  
BRANCH   7   8
HETATM    8  C   UNK A   1     -10.554   7.503  69.083  1.00  0.00    -0.197 C  
BRANCH   8   9
HETATM    9  N   UNK A   1     -10.422   8.924  69.529  1.00  0.00    -0.223 NA 
HETATM   10  H   UNK A   1     -10.189   8.963  70.521  1.00  0.00     0.000 HD 
BRANCH   9  11
HETATM   11  C   UNK A   1      -9.450   9.743  68.737  1.00  0.00    -0.154 C  
HETATM   12  C   UNK A   1      -8.142   9.829  69.545  1.00  0.00    -0.141 C  
HETATM   13  O   UNK A   1      -7.033  10.006  69.062  1.00  0.00    -0.053 OA 
HETATM   14  O   UNK A   1      -8.357   9.694  70.878  1.00  0.00    -0.272 OA 
BRANCH  11  15
HETATM   15  C   UNK A   1      -9.974  11.171  68.467  1.00  0.00    -0.204 C  
BRANCH  15  16
HETATM   16  C   UNK A   1     -11.499  11.296  68.621  1.00  0.00    -0.362 C  
BRANCH  16  17
HETATM   17  C   UNK A   1     -11.901  12.316  69.663  1.00  0.00    -0.393 A  
HETATM   18  C   UNK A   1     -12.599  11.916  70.811  1.00  0.00    -0.325 A  
HETATM   19  C   UNK A   1     -12.654  14.194  71.613  1.00  0.00    -0.420 A  
HETATM   20  C   UNK A   1     -12.971  12.850  71.780  1.00  0.00    -0.416 A  
HETATM   21  C   UNK A   1     -11.947  14.604  70.484  1.00  0.00    -0.376 A  
HETATM   22  C   UNK A   1     -11.571  13.672  69.516  1.00  0.00    -0.361 A  
ENDBRANCH  16  17
ENDBRANCH  15  16
ENDBRANCH  11  15
ENDBRANCH   9  11
ENDBRANCH   8   9
BRANCH   8  23
HETATM   23  C   UNK A   1      -9.667   6.612  70.023  1.00  0.00    -0.162 C  
ATOM     24  OXT PRO A   2     -13.447   7.623  72.020  1.00  0.00    -0.262 OA 
HETATM   25  O   UNK A   1      -8.530   6.286  69.676  1.00  0.00    -0.126 OA 
ATOM     26  N   PRO A   2     -10.163   6.260  71.279  1.00  0.00    -0.196 N  
ATOM     27  CD  PRO A   2      -9.334   5.536  72.236  1.00  0.00    -0.145 C  
ATOM     28  O   PRO A   2     -11.356   8.360  72.460  1.00  0.00    -0.375 OA 
ATOM     29  C   PRO A   2     -12.241   7.434  72.022  1.00  0.00    -0.280 C  
ATOM     30  CA  PRO A   2     -11.588   6.113  71.619  1.00  0.00    -0.257 C  
ATOM     31  CB  PRO A   2     -11.632   5.133  72.796  1.00  0.00    -0.241 C  
ATOM     32  CG  PRO A   2     -10.254   4.484  72.824  1.00  0.00    -0.233 C  
ENDBRANCH   8  23
ENDBRANCH   7   8
ENDBRANCH   6   7
ENDBRANCH   5   6
ENDBRANCH   3   5
TORSDOF 10
ENDMDL
MODEL       80
REMARK 921   NORMALIZED FREE ENERGY PREDICTED BY IDOCK:   -5.13 KCAL/MOL
REMARK 922        TOTAL FREE ENERGY PREDICTED BY IDOCK:  -10.09 KCAL/MOL
REMARK 923 INTER-LIGAND FREE ENERGY PREDICTED BY IDOCK:   -8.76 KCAL/MOL
REMARK 924 INTRA-LIGAND FREE ENERGY PREDICTED BY IDOCK:   -1.33 KCAL/MOL
REMARK 927      BINDING AFFINITY PREDICTED BY RF-SCORE:    0.00 PKD
ROOT
HETATM    1  N   UNK A   1     -13.068  12.600  64.627  1.00  0.00    -0.848 NA 
HETATM    2  H2  UNK A   1     -12.632  13.499  64.831  1.00  0.00     0.000 HD 
HETATM    3  C   UNK A   1     -12.526  11.986  63.421  1.00  0.00    -0.509 C  
HETATM    4  H1  UNK A   1     -14.083  12.673  64.546  1.00  0.00     0.000 HD 
ENDROOT
BRANCH   3   5
HETATM    5  C   UNK A   1     -11.010  11.877  63.542  1.00  0.00    -0.505 C  
BRANCH   5   6
HETATM    6  C   UNK A   1     -10.587  11.056  64.767  1.00  0.00    -0.350 C  
BRANCH   6   7
HETATM    7  C   UNK A   1      -9.592  11.866  65.603  1.00  0.00    -0.221 C  
BRANCH   7   8
HETATM    8  C   UNK A   1     -10.018  12.171  67.049  1.00  0.00    -0.202 C  
BRANCH   8   9
HETATM    9  N   UNK A   1     -10.803  11.075  67.697  1.00  0.00    -0.237 NA 
HETATM   10  H   UNK A   1     -11.273  10.511  66.989  1.00  0.00     0.000 HD 
BRANCH   9  11
HETATM   11  C   UNK A   1     -10.014  10.197  68.618  1.00  0.00    -0.170 C  
HETATM   12  C   UNK A   1      -9.735   8.874  67.880  1.00  0.00    -0.160 C  
HETATM   13  O   UNK A   1      -8.789   8.135  68.107  1.00  0.00    -0.132 OA 
HETATM   14  O   UNK A   1     -10.675   8.608  66.939  1.00  0.00    -0.252 OA 
BRANCH  11  15
HETATM   15  C   UNK A   1     -10.772   9.895  69.929  1.00  0.00    -0.318 C  
BRANCH  15  16
HETATM   16  C   UNK A   1      -9.856   9.393  71.058  1.00  0.00    -0.317 C  
BRANCH  16  17
HETATM   17  C   UNK A   1     -10.378   8.139  71.723  1.00  0.00    -0.293 A  
HETATM   18  C   UNK A   1     -11.295   7.315  71.057  1.00  0.00    -0.301 A  
HETATM   19  C   UNK A   1     -11.357   5.803  72.940  1.00  0.00    -0.298 A  
HETATM   20  C   UNK A   1     -11.780   6.154  71.662  1.00  0.00    -0.290 A  
HETATM   21  C   UNK A   1     -10.433   6.605  73.608  1.00  0.00    -0.353 A  
HETATM   22  C   UNK A   1      -9.945   7.764  73.005  1.00  0.00    -0.356 A  
ENDBRANCH  16  17
ENDBRANCH  15  16
ENDBRANCH  11  15
ENDBRANCH   9  11
ENDBRANCH   8   9
BRANCH   8  23
HETATM   23  C   UNK A   1     -10.840  13.503  67.184  1.00  0.00    -0.284 C  
ATOM     24  OXT PRO A   2      -6.535  14.377  67.113  1.00  0.00    -0.208 OA 
HETATM   25  O   UNK A   1     -12.066  13.466  67.300  1.00  0.00    -0.361 OA 
ATOM     26  N   PRO A   2     -10.149  14.714  67.238  1.00  0.00    -0.236 N  
ATOM     27  CD  PRO A   2     -10.854  15.968  67.482  1.00  0.00    -0.292 C  
ATOM     28  O   PRO A   2      -7.994  14.516  68.834  1.00  0.00    -0.140 OA 
ATOM     29  C   PRO A   2      -7.670  14.569  67.521  1.00  0.00    -0.188 C  
ATOM     30  CA  PRO A   2      -8.838  14.974  66.623  1.00  0.00    -0.272 C  
ATOM     31  CB  PRO A   2      -8.794  16.483  66.366  1.00  0.00    -0.345 C  
ATOM     32  CG  PRO A   2     -10.236  16.953  66.509  1.00  0.00    -0.320 C  
ENDBRANCH   8  23
ENDBRANCH   7   8
ENDBRANCH   6   7
ENDBRANCH   5   6
ENDBRANCH   3   5
TORSDOF 10
ENDMDL
MODEL       81
REMARK 921   NORMALIZED FREE ENERGY PREDICTED BY IDOCK:   -5.12 KCAL/MOL
REMARK 922        TOTAL FREE ENERGY PREDICTED BY IDOCK:  -10.06 KCAL/MOL
REMARK 923 INTER-LIGAND FREE ENERGY PREDICTED BY IDOCK:   -8.49 KCAL/MOL
REMARK 924 INTRA-LIGAND FREE ENERGY PREDICTED BY IDOCK:   -1.57 KCAL/MOL
REMARK 927      BINDING AFFINITY PREDICTED BY RF-SCORE:    0.00 PKD
ROOT
HETATM    1  N   UNK A   1      -9.513  20.648  67.026  1.00  0.00    -0.635 NA 
HETATM    2  H2  UNK A   1      -9.185  21.024  66.135  1.00  0.00     0.000 HD 
HETATM    3  C   UNK A   1     -10.782  19.945  66.894  1.00  0.00    -0.347 C  
HETATM    4  H1  UNK A   1      -9.596  21.371  67.741  1.00  0.00     0.000 HD 
ENDROOT
BRANCH   3   5
HETATM    5  C   UNK A   1     -10.658  18.865  65.825  1.00  0.00    -0.358 C  
BRANCH   5   6
HETATM    6  C   UNK A   1      -9.571  17.838  66.167  1.00  0.00    -0.202 C  
BRANCH   6   7
HETATM    7  C   UNK A   1     -10.194  16.682  66.955  1.00  0.00    -0.290 C  
BRANCH   7   8
HETATM    8  C   UNK A   1      -9.804  16.592  68.441  1.00  0.00    -0.252 C  
BRANCH   8   9
HETATM    9  N   UNK A   1     -10.950  16.772  69.384  1.00  0.00    -0.328 NA 
HETATM   10  H   UNK A   1     -11.530  17.557  69.089  1.00  0.00     0.000 HD 
BRANCH   9  11
HETATM   11  C   UNK A   1     -11.793  15.553  69.588  1.00  0.00    -0.366 C  
HETATM   12  C   UNK A   1     -12.484  15.685  70.959  1.00  0.00    -0.447 C  
HETATM   13  O   UNK A   1     -13.541  15.151  71.261  1.00  0.00    -0.433 OA 
HETATM   14  O   UNK A   1     -11.776  16.464  71.813  1.00  0.00    -0.478 OA 
BRANCH  11  15
HETATM   15  C   UNK A   1     -10.957  14.254  69.565  1.00  0.00    -0.206 C  
BRANCH  15  16
HETATM   16  C   UNK A   1     -11.643  13.105  68.807  1.00  0.00    -0.348 C  
BRANCH  16  17
HETATM   17  C   UNK A   1     -11.762  11.844  69.634  1.00  0.00    -0.413 A  
HETATM   18  C   UNK A   1     -12.621  11.803  70.740  1.00  0.00    -0.344 A  
HETATM   19  C   UNK A   1     -11.998   9.510  71.180  1.00  0.00    -0.429 A  
HETATM   20  C   UNK A   1     -12.738  10.642  71.507  1.00  0.00    -0.549 A  
HETATM   21  C   UNK A   1     -11.151   9.532  70.074  1.00  0.00    -0.268 A  
HETATM   22  C   UNK A   1     -11.034  10.690  69.304  1.00  0.00    -0.294 A  
ENDBRANCH  16  17
ENDBRANCH  15  16
ENDBRANCH  11  15
ENDBRANCH   9  11
ENDBRANCH   8   9
BRANCH   8  23
HETATM   23  C   UNK A   1      -8.676  17.607  68.845  1.00  0.00    -0.119 C  
ATOM     24  OXT PRO A   2      -6.901  13.782  67.613  1.00  0.00    -0.161 OA 
HETATM   25  O   UNK A   1      -8.971  18.715  69.296  1.00  0.00    -0.025 OA 
ATOM     26  N   PRO A   2      -7.343  17.203  68.749  1.00  0.00    -0.232 N  
ATOM     27  CD  PRO A   2      -6.264  18.062  69.224  1.00  0.00    -0.244 C  
ATOM     28  O   PRO A   2      -7.034  14.698  69.676  1.00  0.00    -0.156 OA 
ATOM     29  C   PRO A   2      -6.946  14.771  68.326  1.00  0.00    -0.119 C  
ATOM     30  CA  PRO A   2      -6.825  16.202  67.803  1.00  0.00    -0.145 C  
ATOM     31  CB  PRO A   2      -5.348  16.554  67.598  1.00  0.00    -0.156 C  
ATOM     32  CG  PRO A   2      -5.195  17.964  68.152  1.00  0.00    -0.151 C  
ENDBRANCH   8  23
ENDBRANCH   7   8
ENDBRANCH   6   7
ENDBRANCH   5   6
ENDBRANCH   3   5
TORSDOF 10
ENDMDL
MODEL       82
REMARK 921   NORMALIZED FREE ENERGY PREDICTED BY IDOCK:   -5.10 KCAL/MOL
REMARK 922        TOTAL FREE ENERGY PREDICTED BY IDOCK:  -10.03 KCAL/MOL
REMARK 923 INTER-LIGAND FREE ENERGY PREDICTED BY IDOCK:   -8.45 KCAL/MOL
REMARK 924 INTRA-LIGAND FREE ENERGY PREDICTED BY IDOCK:   -1.58 KCAL/MOL
REMARK 927      BINDING AFFINITY PREDICTED BY RF-SCORE:    0.00 PKD
ROOT
HETATM    1  N   UNK A   1     -13.975   9.052  73.037  1.00  0.00    -1.141 NA 
HETATM    2  H2  UNK A   1     -14.907   9.002  72.624  1.00  0.00     0.000 HD 
HETATM    3  C   UNK A   1     -12.922   8.980  72.033  1.00  0.00    -0.407 C  
HETATM    4  H1  UNK A   1     -13.827   8.327  73.740  1.00  0.00     0.000 HD 
ENDROOT
BRANCH   3   5
HETATM    5  C   UNK A   1     -13.144  10.064  70.984  1.00  0.00    -0.435 C  
BRANCH   5   6
HETATM    6  C   UNK A   1     -11.830  10.518  70.336  1.00  0.00    -0.431 C  
BRANCH   6   7
HETATM    7  C   UNK A   1     -12.137  11.455  69.164  1.00  0.00    -0.331 C  
BRANCH   7   8
HETATM    8  C   UNK A   1     -11.220  11.322  67.937  1.00  0.00    -0.290 C  
BRANCH   8   9
HETATM    9  N   UNK A   1     -10.310  10.136  67.982  1.00  0.00    -0.178 NA 
HETATM   10  H   UNK A   1     -10.397   9.658  68.878  1.00  0.00     0.000 HD 
BRANCH   9  11
HETATM   11  C   UNK A   1     -10.489   9.164  66.857  1.00  0.00    -0.217 C  
HETATM   12  C   UNK A   1     -10.533   7.749  67.464  1.00  0.00    -0.268 C  
HETATM   13  O   UNK A   1     -11.093   6.789  66.956  1.00  0.00    -0.403 OA 
HETATM   14  O   UNK A   1      -9.861   7.678  68.640  1.00  0.00    -0.163 OA 
BRANCH  11  15
HETATM   15  C   UNK A   1      -9.337   9.240  65.831  1.00  0.00    -0.297 C  
BRANCH  15  16
HETATM   16  C   UNK A   1      -8.116  10.021  66.346  1.00  0.00    -0.120 C  
BRANCH  16  17
HETATM   17  C   UNK A   1      -7.106   9.136  67.042  1.00  0.00    -0.086 A  
HETATM   18  C   UNK A   1      -6.638   7.972  66.418  1.00  0.00    -0.051 A  
HETATM   19  C   UNK A   1      -5.226   7.482  68.317  1.00  0.00    -0.026 A  
HETATM   20  C   UNK A   1      -5.702   7.152  67.052  1.00  0.00    -0.022 A  
HETATM   21  C   UNK A   1      -5.672   8.645  68.943  1.00  0.00    -0.040 A  
HETATM   22  C   UNK A   1      -6.604   9.468  68.311  1.00  0.00    -0.057 A  
ENDBRANCH  16  17
ENDBRANCH  15  16
ENDBRANCH  11  15
ENDBRANCH   9  11
ENDBRANCH   8   9
BRANCH   8  23
HETATM   23  C   UNK A   1     -10.344  12.599  67.679  1.00  0.00    -0.220 C  
ATOM     24  OXT PRO A   2     -13.276  12.096  64.446  1.00  0.00    -0.758 OA 
HETATM   25  O   UNK A   1      -9.409  12.872  68.433  1.00  0.00    -0.204 OA 
ATOM     26  N   PRO A   2     -10.601  13.372  66.546  1.00  0.00    -0.285 N  
ATOM     27  CD  PRO A   2      -9.742  14.499  66.196  1.00  0.00    -0.316 C  
ATOM     28  O   PRO A   2     -11.034  11.812  64.399  1.00  0.00    -0.307 OA 
ATOM     29  C   PRO A   2     -12.167  12.391  64.862  1.00  0.00    -0.418 C  
ATOM     30  CA  PRO A   2     -11.909  13.499  65.882  1.00  0.00    -0.372 C  
ATOM     31  CB  PRO A   2     -11.883  14.858  65.176  1.00  0.00    -0.258 C  
ATOM     32  CG  PRO A   2     -10.700  15.599  65.783  1.00  0.00    -0.350 C  
ENDBRANCH   8  23
ENDBRANCH   7   8
ENDBRANCH   6   7
ENDBRANCH   5   6
ENDBRANCH   3   5
TORSDOF 10
ENDMDL
MODEL       83
REMARK 921   NORMALIZED FREE ENERGY PREDICTED BY IDOCK:   -5.07 KCAL/MOL
REMARK 922        TOTAL FREE ENERGY PREDICTED BY IDOCK:   -9.99 KCAL/MOL
REMARK 923 INTER-LIGAND FREE ENERGY PREDICTED BY IDOCK:   -8.55 KCAL/MOL
REMARK 924 INTRA-LIGAND FREE ENERGY PREDICTED BY IDOCK:   -1.44 KCAL/MOL
REMARK 927      BINDING AFFINITY PREDICTED BY RF-SCORE:    0.00 PKD
ROOT
HETATM    1  N   UNK A   1     -11.878   5.747  72.842  1.00  0.00    -0.538 NA 
HETATM    2  H2  UNK A   1     -11.822   6.196  71.928  1.00  0.00     0.000 HD 
HETATM    3  C   UNK A   1     -10.686   4.965  73.145  1.00  0.00    -0.254 C  
HETATM    4  H1  UNK A   1     -12.705   5.157  72.932  1.00  0.00     0.000 HD 
ENDROOT
BRANCH   3   5
HETATM    5  C   UNK A   1      -9.450   5.848  73.011  1.00  0.00    -0.151 C  
BRANCH   5   6
HETATM    6  C   UNK A   1      -9.776   7.332  73.215  1.00  0.00    -0.277 C  
BRANCH   6   7
HETATM    7  C   UNK A   1      -9.031   8.166  72.168  1.00  0.00    -0.246 C  
BRANCH   7   8
HETATM    8  C   UNK A   1      -9.894   9.132  71.338  1.00  0.00    -0.284 C  
BRANCH   8   9
HETATM    9  N   UNK A   1     -11.288   8.648  71.094  1.00  0.00    -0.264 NA 
HETATM   10  H   UNK A   1     -11.419   7.725  71.507  1.00  0.00     0.000 HD 
BRANCH   9  11
HETATM   11  C   UNK A   1     -12.366   9.580  71.552  1.00  0.00    -0.380 C  
HETATM   12  C   UNK A   1     -13.566   8.723  72.000  1.00  0.00    -0.427 C  
HETATM   13  O   UNK A   1     -14.405   9.072  72.817  1.00  0.00    -0.596 OA 
HETATM   14  O   UNK A   1     -13.597   7.522  71.372  1.00  0.00    -0.362 OA 
BRANCH  11  15
HETATM   15  C   UNK A   1     -12.820  10.543  70.433  1.00  0.00    -0.274 C  
BRANCH  15  16
HETATM   16  C   UNK A   1     -12.119  11.911  70.489  1.00  0.00    -0.422 C  
BRANCH  16  17
HETATM   17  C   UNK A   1     -11.866  12.497  69.118  1.00  0.00    -0.348 A  
HETATM   18  C   UNK A   1     -11.481  11.668  68.056  1.00  0.00    -0.385 A  
HETATM   19  C   UNK A   1     -11.395  13.566  66.563  1.00  0.00    -0.340 A  
HETATM   20  C   UNK A   1     -11.249  12.201  66.786  1.00  0.00    -0.375 A  
HETATM   21  C   UNK A   1     -11.792  14.399  67.607  1.00  0.00    -0.412 A  
HETATM   22  C   UNK A   1     -12.028  13.870  68.876  1.00  0.00    -0.393 A  
ENDBRANCH  16  17
ENDBRANCH  15  16
ENDBRANCH  11  15
ENDBRANCH   9  11
ENDBRANCH   8   9
BRANCH   8  23
HETATM   23  C   UNK A   1      -9.254   9.496  69.951  1.00  0.00    -0.220 C  
ATOM     24  OXT PRO A   2     -11.346   5.642  69.689  1.00  0.00    -0.143 OA 
HETATM   25  O   UNK A   1      -8.555  10.504  69.837  1.00  0.00     0.011 OA 
ATOM     26  N   PRO A   2      -9.435   8.622  68.878  1.00  0.00    -0.146 N  
ATOM     27  CD  PRO A   2      -8.763   8.851  67.604  1.00  0.00    -0.124 C  
ATOM     28  O   PRO A   2      -9.126   6.068  69.662  1.00  0.00    -0.133 OA 
ATOM     29  C   PRO A   2     -10.419   6.388  69.418  1.00  0.00    -0.228 C  
ATOM     30  CA  PRO A   2     -10.588   7.725  68.697  1.00  0.00    -0.120 C  
ATOM     31  CB  PRO A   2     -10.694   7.489  67.188  1.00  0.00    -0.379 C  
ATOM     32  CG  PRO A   2      -9.820   8.565  66.555  1.00  0.00    -0.342 C  
ENDBRANCH   8  23
ENDBRANCH   7   8
ENDBRANCH   6   7
ENDBRANCH   5   6
ENDBRANCH   3   5
TORSDOF 10
ENDMDL
MODEL       84
REMARK 921   NORMALIZED FREE ENERGY PREDICTED BY IDOCK:   -5.07 KCAL/MOL
REMARK 922        TOTAL FREE ENERGY PREDICTED BY IDOCK:   -9.98 KCAL/MOL
REMARK 923 INTER-LIGAND FREE ENERGY PREDICTED BY IDOCK:   -8.84 KCAL/MOL
REMARK 924 INTRA-LIGAND FREE ENERGY PREDICTED BY IDOCK:   -1.14 KCAL/MOL
REMARK 927      BINDING AFFINITY PREDICTED BY RF-SCORE:    0.00 PKD
ROOT
HETATM    1  N   UNK A   1     -10.672  10.925  64.162  1.00  0.00    -0.442 NA 
HETATM    2  H2  UNK A   1     -11.318  10.135  64.181  1.00  0.00     0.000 HD 
HETATM    3  C   UNK A   1     -10.935  11.877  65.233  1.00  0.00    -0.302 C  
HETATM    4  H1  UNK A   1     -10.683  11.409  63.264  1.00  0.00     0.000 HD 
ENDROOT
BRANCH   3   5
HETATM    5  C   UNK A   1     -10.919  11.153  66.575  1.00  0.00    -0.270 C  
BRANCH   5   6
HETATM    6  C   UNK A   1      -9.848  11.712  67.519  1.00  0.00    -0.199 C  
BRANCH   6   7
HETATM    7  C   UNK A   1     -10.101  11.193  68.938  1.00  0.00    -0.199 C  
BRANCH   7   8
HETATM    8  C   UNK A   1     -10.394   9.688  69.063  1.00  0.00    -0.205 C  
BRANCH   8   9
HETATM    9  N   UNK A   1     -11.702   9.374  69.714  1.00  0.00    -0.428 NA 
HETATM   10  H   UNK A   1     -11.946   8.395  69.562  1.00  0.00     0.000 HD 
BRANCH   9  11
HETATM   11  C   UNK A   1     -11.774   9.705  71.173  1.00  0.00    -0.372 C  
HETATM   12  C   UNK A   1     -12.184   8.424  71.924  1.00  0.00    -0.343 C  
HETATM   13  O   UNK A   1     -11.916   8.185  73.092  1.00  0.00    -0.192 OA 
HETATM   14  O   UNK A   1     -12.898   7.580  71.139  1.00  0.00    -0.302 OA 
BRANCH  11  15
HETATM   15  C   UNK A   1     -12.802  10.818  71.469  1.00  0.00    -0.567 C  
BRANCH  15  16
HETATM   16  C   UNK A   1     -12.739  11.984  70.467  1.00  0.00    -0.082 C  
BRANCH  16  17
HETATM   17  C   UNK A   1     -12.668  13.335  71.142  1.00  0.00    -0.404 A  
HETATM   18  C   UNK A   1     -13.200  13.512  72.427  1.00  0.00    -0.577 A  
HETATM   19  C   UNK A   1     -12.542  15.837  72.415  1.00  0.00    -0.539 A  
HETATM   20  C   UNK A   1     -13.135  14.755  73.059  1.00  0.00    -0.614 A  
HETATM   21  C   UNK A   1     -11.995  15.671  71.145  1.00  0.00    -0.457 A  
HETATM   22  C   UNK A   1     -12.055  14.429  70.512  1.00  0.00    -0.404 A  
ENDBRANCH  16  17
ENDBRANCH  15  16
ENDBRANCH  11  15
ENDBRANCH   9  11
ENDBRANCH   8   9
BRANCH   8  23
HETATM   23  C   UNK A   1      -9.268   8.901  69.825  1.00  0.00    -0.165 C  
ATOM     24  OXT PRO A   2     -11.061   6.357  66.725  1.00  0.00    -0.358 OA 
HETATM   25  O   UNK A   1      -8.695   9.415  70.787  1.00  0.00    -0.217 OA 
ATOM     26  N   PRO A   2      -8.983   7.592  69.436  1.00  0.00    -0.140 N  
ATOM     27  CD  PRO A   2      -8.033   6.777  70.186  1.00  0.00    -0.112 C  
ATOM     28  O   PRO A   2     -11.248   6.217  68.973  1.00  0.00    -0.383 OA 
ATOM     29  C   PRO A   2     -10.586   6.534  67.835  1.00  0.00    -0.252 C  
ATOM     30  CA  PRO A   2      -9.168   7.048  68.080  1.00  0.00    -0.130 C  
ATOM     31  CB  PRO A   2      -8.171   5.892  67.960  1.00  0.00    -0.105 C  
ATOM     32  CG  PRO A   2      -7.207   6.076  69.125  1.00  0.00    -0.082 C  
ENDBRANCH   8  23
ENDBRANCH   7   8
ENDBRANCH   6   7
ENDBRANCH   5   6
ENDBRANCH   3   5
TORSDOF 10
ENDMDL
MODEL       85
REMARK 921   NORMALIZED FREE ENERGY PREDICTED BY IDOCK:   -5.06 KCAL/MOL
REMARK 922        TOTAL FREE ENERGY PREDICTED BY IDOCK:   -9.98 KCAL/MOL
REMARK 923 INTER-LIGAND FREE ENERGY PREDICTED BY IDOCK:   -8.70 KCAL/MOL
REMARK 924 INTRA-LIGAND FREE ENERGY PREDICTED BY IDOCK:   -1.28 KCAL/MOL
REMARK 927      BINDING AFFINITY PREDICTED BY RF-SCORE:    0.00 PKD
ROOT
HETATM    1  N   UNK A   1     -12.378  13.713  63.217  1.00  0.00    -1.080 NA 
HETATM    2  H2  UNK A   1     -11.555  14.234  62.913  1.00  0.00     0.000 HD 
HETATM    3  C   UNK A   1     -12.127  12.279  63.290  1.00  0.00    -0.418 C  
HETATM    4  H1  UNK A   1     -13.186  13.887  62.619  1.00  0.00     0.000 HD 
ENDROOT
BRANCH   3   5
HETATM    5  C   UNK A   1     -10.919  12.019  64.184  1.00  0.00    -0.418 C  
BRANCH   5   6
HETATM    6  C   UNK A   1     -11.281  12.073  65.673  1.00  0.00    -0.377 C  
BRANCH   6   7
HETATM    7  C   UNK A   1     -10.041  11.745  66.510  1.00  0.00    -0.232 C  
BRANCH   7   8
HETATM    8  C   UNK A   1     -10.219  10.651  67.578  1.00  0.00    -0.199 C  
BRANCH   8   9
HETATM    9  N   UNK A   1     -11.522  10.718  68.308  1.00  0.00    -0.452 NA 
HETATM   10  H   UNK A   1     -11.856   9.779  68.522  1.00  0.00     0.000 HD 
BRANCH   9  11
HETATM   11  C   UNK A   1     -11.505  11.556  69.548  1.00  0.00    -0.311 C  
HETATM   12  C   UNK A   1     -12.429  10.884  70.581  1.00  0.00    -0.369 C  
HETATM   13  O   UNK A   1     -12.324  11.003  71.792  1.00  0.00    -0.191 OA 
HETATM   14  O   UNK A   1     -13.396  10.139  69.990  1.00  0.00     0.124 OA 
BRANCH  11  15
HETATM   15  C   UNK A   1     -11.999  12.996  69.287  1.00  0.00    -0.331 C  
BRANCH  15  16
HETATM   16  C   UNK A   1     -11.268  14.051  70.134  1.00  0.00    -0.008 C  
BRANCH  16  17
HETATM   17  C   UNK A   1     -12.174  14.729  71.137  1.00  0.00    -0.388 A  
HETATM   18  C   UNK A   1     -13.551  14.469  71.135  1.00  0.00    -0.368 A  
HETATM   19  C   UNK A   1     -13.874  15.976  72.995  1.00  0.00    -0.389 A  
HETATM   20  C   UNK A   1     -14.395  15.087  72.060  1.00  0.00    -0.666 A  
HETATM   21  C   UNK A   1     -12.505  16.232  73.020  1.00  0.00    -0.533 A  
HETATM   22  C   UNK A   1     -11.659  15.613  72.098  1.00  0.00    -0.538 A  
ENDBRANCH  16  17
ENDBRANCH  15  16
ENDBRANCH  11  15
ENDBRANCH   9  11
ENDBRANCH   8   9
BRANCH   8  23
HETATM   23  C   UNK A   1      -9.064  10.634  68.642  1.00  0.00    -0.170 C  
ATOM     24  OXT PRO A   2     -10.883   6.649  68.316  1.00  0.00    -0.238 OA 
HETATM   25  O   UNK A   1      -8.478  11.677  68.938  1.00  0.00    -0.076 OA 
ATOM     26  N   PRO A   2      -8.767   9.435  69.291  1.00  0.00    -0.138 N  
ATOM     27  CD  PRO A   2      -7.787   9.390  70.371  1.00  0.00    -0.164 C  
ATOM     28  O   PRO A   2     -11.018   8.148  70.003  1.00  0.00    -0.248 OA 
ATOM     29  C   PRO A   2     -10.387   7.560  68.959  1.00  0.00    -0.212 C  
ATOM     30  CA  PRO A   2      -8.973   8.090  68.728  1.00  0.00    -0.141 C  
ATOM     31  CB  PRO A   2      -7.959   7.187  69.437  1.00  0.00    -0.125 C  
ATOM     32  CG  PRO A   2      -6.973   8.139  70.100  1.00  0.00    -0.040 C  
ENDBRANCH   8  23
ENDBRANCH   7   8
ENDBRANCH   6   7
ENDBRANCH   5   6
ENDBRANCH   3   5
TORSDOF 10
ENDMDL
MODEL       86
REMARK 921   NORMALIZED FREE ENERGY PREDICTED BY IDOCK:   -5.06 KCAL/MOL
REMARK 922        TOTAL FREE ENERGY PREDICTED BY IDOCK:   -9.97 KCAL/MOL
REMARK 923 INTER-LIGAND FREE ENERGY PREDICTED BY IDOCK:   -8.84 KCAL/MOL
REMARK 924 INTRA-LIGAND FREE ENERGY PREDICTED BY IDOCK:   -1.13 KCAL/MOL
REMARK 927      BINDING AFFINITY PREDICTED BY RF-SCORE:    0.00 PKD
ROOT
HETATM    1  N   UNK A   1      -9.721  20.339  65.836  1.00  0.00    -0.632 NA 
HETATM    2  H2  UNK A   1     -10.101  20.228  64.896  1.00  0.00     0.000 HD 
HETATM    3  C   UNK A   1     -10.483  19.592  66.829  1.00  0.00    -0.490 C  
HETATM    4  H1  UNK A   1      -9.664  21.318  66.116  1.00  0.00     0.000 HD 
ENDROOT
BRANCH   3   5
HETATM    5  C   UNK A   1     -10.569  18.128  66.411  1.00  0.00    -0.288 C  
BRANCH   5   6
HETATM    6  C   UNK A   1      -9.182  17.504  66.212  1.00  0.00    -0.228 C  
BRANCH   6   7
HETATM    7  C   UNK A   1      -9.337  16.017  65.880  1.00  0.00    -0.335 C  
BRANCH   7   8
HETATM    8  C   UNK A   1      -9.478  15.069  67.084  1.00  0.00    -0.216 C  
BRANCH   8   9
HETATM    9  N   UNK A   1     -10.887  14.872  67.543  1.00  0.00    -0.284 NA 
HETATM   10  H   UNK A   1     -11.521  15.455  66.997  1.00  0.00     0.000 HD 
BRANCH   9  11
HETATM   11  C   UNK A   1     -11.356  13.450  67.537  1.00  0.00    -0.298 C  
HETATM   12  C   UNK A   1     -12.040  13.187  66.182  1.00  0.00    -0.417 C  
HETATM   13  O   UNK A   1     -12.133  12.092  65.649  1.00  0.00    -0.545 OA 
HETATM   14  O   UNK A   1     -12.544  14.323  65.638  1.00  0.00    -0.461 OA 
BRANCH  11  15
HETATM   15  C   UNK A   1     -12.360  13.162  68.675  1.00  0.00     0.114 C  
BRANCH  15  16
HETATM   16  C   UNK A   1     -11.697  13.074  70.061  1.00  0.00    -0.285 C  
BRANCH  16  17
HETATM   17  C   UNK A   1     -12.277  14.056  71.053  1.00  0.00    -0.430 A  
HETATM   18  C   UNK A   1     -11.511  15.138  71.507  1.00  0.00    -0.422 A  
HETATM   19  C   UNK A   1     -13.339  15.894  72.894  1.00  0.00    -0.635 A  
HETATM   20  C   UNK A   1     -12.040  16.051  72.421  1.00  0.00    -0.629 A  
HETATM   21  C   UNK A   1     -14.118  14.832  72.439  1.00  0.00    -0.548 A  
HETATM   22  C   UNK A   1     -13.593  13.919  71.524  1.00  0.00    -0.355 A  
ENDBRANCH  16  17
ENDBRANCH  15  16
ENDBRANCH  11  15
ENDBRANCH   9  11
ENDBRANCH   8   9
BRANCH   8  23
HETATM   23  C   UNK A   1      -8.619  15.513  68.322  1.00  0.00    -0.161 C  
ATOM     24  OXT PRO A   2      -6.990  11.817  66.595  1.00  0.00    -0.090 OA 
HETATM   25  O   UNK A   1      -8.960  16.487  68.995  1.00  0.00    -0.257 OA 
ATOM     26  N   PRO A   2      -7.512  14.744  68.681  1.00  0.00    -0.119 N  
ATOM     27  CD  PRO A   2      -6.753  15.043  69.890  1.00  0.00    -0.170 C  
ATOM     28  O   PRO A   2      -8.085  12.120  68.549  1.00  0.00    -0.150 OA 
ATOM     29  C   PRO A   2      -7.278  12.531  67.542  1.00  0.00    -0.147 C  
ATOM     30  CA  PRO A   2      -6.705  13.931  67.756  1.00  0.00    -0.176 C  
ATOM     31  CB  PRO A   2      -5.318  13.830  68.398  1.00  0.00    -0.100 C  
ATOM     32  CG  PRO A   2      -5.300  14.905  69.477  1.00  0.00    -0.088 C  
ENDBRANCH   8  23
ENDBRANCH   7   8
ENDBRANCH   6   7
ENDBRANCH   5   6
ENDBRANCH   3   5
TORSDOF 10
ENDMDL
MODEL       87
REMARK 921   NORMALIZED FREE ENERGY PREDICTED BY IDOCK:   -5.03 KCAL/MOL
REMARK 922        TOTAL FREE ENERGY PREDICTED BY IDOCK:   -9.93 KCAL/MOL
REMARK 923 INTER-LIGAND FREE ENERGY PREDICTED BY IDOCK:   -9.53 KCAL/MOL
REMARK 924 INTRA-LIGAND FREE ENERGY PREDICTED BY IDOCK:   -0.41 KCAL/MOL
REMARK 927      BINDING AFFINITY PREDICTED BY RF-SCORE:    0.00 PKD
ROOT
HETATM    1  N   UNK A   1     -12.430  13.662  63.243  1.00  0.00    -1.048 NA 
HETATM    2  H2  UNK A   1     -12.161  14.410  62.604  1.00  0.00     0.000 HD 
HETATM    3  C   UNK A   1     -11.376  13.349  64.200  1.00  0.00    -0.364 C  
HETATM    4  H1  UNK A   1     -12.704  12.813  62.748  1.00  0.00     0.000 HD 
ENDROOT
BRANCH   3   5
HETATM    5  C   UNK A   1     -10.967  14.617  64.940  1.00  0.00    -0.419 C  
BRANCH   5   6
HETATM    6  C   UNK A   1     -11.772  14.818  66.230  1.00  0.00    -0.260 C  
BRANCH   6   7
HETATM    7  C   UNK A   1     -11.516  13.643  67.178  1.00  0.00    -0.367 C  
BRANCH   7   8
HETATM    8  C   UNK A   1     -11.089  14.012  68.608  1.00  0.00    -0.264 C  
BRANCH   8   9
HETATM    9  N   UNK A   1      -9.631  13.817  68.878  1.00  0.00    -0.412 NA 
HETATM   10  H   UNK A   1      -9.473  12.918  69.333  1.00  0.00     0.000 HD 
BRANCH   9  11
HETATM   11  C   UNK A   1      -8.747  13.953  67.679  1.00  0.00    -0.187 C  
HETATM   12  C   UNK A   1      -7.537  13.021  67.880  1.00  0.00    -0.144 C  
HETATM   13  O   UNK A   1      -6.874  12.533  66.977  1.00  0.00    -0.097 OA 
HETATM   14  O   UNK A   1      -7.276  12.802  69.193  1.00  0.00    -0.038 OA 
BRANCH  11  15
HETATM   15  C   UNK A   1      -8.243  15.401  67.485  1.00  0.00    -0.187 C  
BRANCH  15  16
HETATM   16  C   UNK A   1      -8.677  16.349  68.616  1.00  0.00    -0.234 C  
BRANCH  16  17
HETATM   17  C   UNK A   1      -9.075  17.719  68.112  1.00  0.00    -0.274 A  
HETATM   18  C   UNK A   1     -10.416  18.004  67.824  1.00  0.00    -0.421 A  
HETATM   19  C   UNK A   1      -9.834  20.258  67.179  1.00  0.00    -0.606 A  
HETATM   20  C   UNK A   1     -10.792  19.267  67.363  1.00  0.00    -0.554 A  
HETATM   21  C   UNK A   1      -8.498  19.994  67.476  1.00  0.00    -0.393 A  
HETATM   22  C   UNK A   1      -8.120  18.734  67.941  1.00  0.00    -0.284 A  
ENDBRANCH  16  17
ENDBRANCH  15  16
ENDBRANCH  11  15
ENDBRANCH   9  11
ENDBRANCH   8   9
BRANCH   8  23
HETATM   23  C   UNK A   1     -11.897  13.240  69.713  1.00  0.00    -0.325 C  
ATOM     24  OXT PRO A   2      -9.670  10.403  67.204  1.00  0.00    -0.165 OA 
HETATM   25  O   UNK A   1     -12.650  13.853  70.471  1.00  0.00    -0.333 OA 
ATOM     26  N   PRO A   2     -11.797  11.850  69.769  1.00  0.00    -0.330 N  
ATOM     27  CD  PRO A   2     -12.617  11.076  70.695  1.00  0.00    -0.338 C  
ATOM     28  O   PRO A   2     -11.897  10.782  67.302  1.00  0.00    -0.298 OA 
ATOM     29  C   PRO A   2     -10.656  10.738  67.842  1.00  0.00    -0.221 C  
ATOM     30  CA  PRO A   2     -10.631  11.063  69.335  1.00  0.00    -0.174 C  
ATOM     31  CB  PRO A   2     -10.684   9.765  70.148  1.00  0.00    -0.339 C  
ATOM     32  CG  PRO A   2     -11.671  10.041  71.274  1.00  0.00    -0.452 C  
ENDBRANCH   8  23
ENDBRANCH   7   8
ENDBRANCH   6   7
ENDBRANCH   5   6
ENDBRANCH   3   5
TORSDOF 10
ENDMDL
MODEL       88
REMARK 921   NORMALIZED FREE ENERGY PREDICTED BY IDOCK:   -5.02 KCAL/MOL
REMARK 922        TOTAL FREE ENERGY PREDICTED BY IDOCK:   -9.92 KCAL/MOL
REMARK 923 INTER-LIGAND FREE ENERGY PREDICTED BY IDOCK:   -8.14 KCAL/MOL
REMARK 924 INTRA-LIGAND FREE ENERGY PREDICTED BY IDOCK:   -1.77 KCAL/MOL
REMARK 927      BINDING AFFINITY PREDICTED BY RF-SCORE:    0.00 PKD
ROOT
HETATM    1  N   UNK A   1     -12.494  14.025  63.015  1.00  0.00    -0.988 NA 
HETATM    2  H2  UNK A   1     -12.005  14.174  62.132  1.00  0.00     0.000 HD 
HETATM    3  C   UNK A   1     -12.324  12.666  63.515  1.00  0.00    -0.496 C  
HETATM    4  H1  UNK A   1     -13.488  14.241  62.945  1.00  0.00     0.000 HD 
ENDROOT
BRANCH   3   5
HETATM    5  C   UNK A   1     -10.838  12.343  63.618  1.00  0.00    -0.509 C  
BRANCH   5   6
HETATM    6  C   UNK A   1     -10.591  10.874  63.984  1.00  0.00    -0.310 C  
BRANCH   6   7
HETATM    7  C   UNK A   1      -9.162  10.715  64.511  1.00  0.00    -0.264 C  
BRANCH   7   8
HETATM    8  C   UNK A   1      -9.018   9.988  65.859  1.00  0.00    -0.154 C  
BRANCH   8   9
HETATM    9  N   UNK A   1      -7.911  10.510  66.718  1.00  0.00    -0.117 NA 
HETATM   10  H   UNK A   1      -7.008  10.311  66.289  1.00  0.00     0.000 HD 
BRANCH   9  11
HETATM   11  C   UNK A   1      -8.013  11.964  67.060  1.00  0.00    -0.158 C  
HETATM   12  C   UNK A   1      -6.616  12.441  67.498  1.00  0.00    -0.147 C  
HETATM   13  O   UNK A   1      -6.214  13.592  67.416  1.00  0.00    -0.323 OA 
HETATM   14  O   UNK A   1      -5.868  11.430  68.005  1.00  0.00    -0.043 OA 
BRANCH  11  15
HETATM   15  C   UNK A   1      -9.020  12.226  68.202  1.00  0.00    -0.192 C  
BRANCH  15  16
HETATM   16  C   UNK A   1     -10.333  12.865  67.718  1.00  0.00    -0.223 C  
BRANCH  16  17
HETATM   17  C   UNK A   1     -10.958  13.775  68.752  1.00  0.00    -0.289 A  
HETATM   18  C   UNK A   1     -10.615  15.134  68.797  1.00  0.00    -0.236 A  
HETATM   19  C   UNK A   1     -12.111  15.483  70.662  1.00  0.00    -0.430 A  
HETATM   20  C   UNK A   1     -11.190  15.981  69.746  1.00  0.00    -0.344 A  
HETATM   21  C   UNK A   1     -12.473  14.138  70.618  1.00  0.00    -0.432 A  
HETATM   22  C   UNK A   1     -11.902  13.289  69.669  1.00  0.00    -0.391 A  
ENDBRANCH  16  17
ENDBRANCH  15  16
ENDBRANCH  11  15
ENDBRANCH   9  11
ENDBRANCH   8   9
BRANCH   8  23
HETATM   23  C   UNK A   1      -8.828   8.437  65.707  1.00  0.00    -0.165 C  
ATOM     24  OXT PRO A   2     -10.920   9.345  69.462  1.00  0.00    -0.234 OA 
HETATM   25  O   UNK A   1      -8.192   7.981  64.755  1.00  0.00    -0.149 OA 
ATOM     26  N   PRO A   2      -9.330   7.598  66.703  1.00  0.00    -0.181 N  
ATOM     27  CD  PRO A   2      -9.076   6.161  66.671  1.00  0.00    -0.139 C  
ATOM     28  O   PRO A   2      -8.811   8.595  69.146  1.00  0.00    -0.135 OA 
ATOM     29  C   PRO A   2     -10.115   8.708  68.800  1.00  0.00    -0.196 C  
ATOM     30  CA  PRO A   2     -10.488   7.896  67.561  1.00  0.00    -0.262 C  
ATOM     31  CB  PRO A   2     -11.049   6.535  67.984  1.00  0.00    -0.332 C  
ATOM     32  CG  PRO A   2     -10.403   5.528  67.041  1.00  0.00    -0.306 C  
ENDBRANCH   8  23
ENDBRANCH   7   8
ENDBRANCH   6   7
ENDBRANCH   5   6
ENDBRANCH   3   5
TORSDOF 10
ENDMDL
MODEL       89
REMARK 921   NORMALIZED FREE ENERGY PREDICTED BY IDOCK:   -5.02 KCAL/MOL
REMARK 922        TOTAL FREE ENERGY PREDICTED BY IDOCK:   -9.91 KCAL/MOL
REMARK 923 INTER-LIGAND FREE ENERGY PREDICTED BY IDOCK:   -8.56 KCAL/MOL
REMARK 924 INTRA-LIGAND FREE ENERGY PREDICTED BY IDOCK:   -1.35 KCAL/MOL
REMARK 927      BINDING AFFINITY PREDICTED BY RF-SCORE:    0.00 PKD
ROOT
HETATM    1  N   UNK A   1      -5.978  13.769  71.665  1.00  0.00    -0.565 NA 
HETATM    2  H2  UNK A   1      -5.609  13.398  72.540  1.00  0.00     0.000 HD 
HETATM    3  C   UNK A   1      -5.389  13.123  70.499  1.00  0.00    -0.144 C  
HETATM    4  H1  UNK A   1      -5.855  14.780  71.593  1.00  0.00     0.000 HD 
ENDROOT
BRANCH   3   5
HETATM    5  C   UNK A   1      -5.573  11.613  70.607  1.00  0.00    -0.143 C  
BRANCH   5   6
HETATM    6  C   UNK A   1      -6.440  11.055  69.471  1.00  0.00    -0.109 C  
BRANCH   6   7
HETATM    7  C   UNK A   1      -7.314   9.918  70.010  1.00  0.00    -0.159 C  
BRANCH   7   8
HETATM    8  C   UNK A   1      -8.743   9.843  69.446  1.00  0.00    -0.179 C  
BRANCH   8   9
HETATM    9  N   UNK A   1      -9.379  11.176  69.216  1.00  0.00    -0.404 NA 
HETATM   10  H   UNK A   1      -8.671  11.867  68.968  1.00  0.00     0.000 HD 
BRANCH   9  11
HETATM   11  C   UNK A   1     -10.483  11.179  68.206  1.00  0.00    -0.191 C  
HETATM   12  C   UNK A   1      -9.917  11.756  66.894  1.00  0.00    -0.199 C  
HETATM   13  O   UNK A   1     -10.350  11.508  65.779  1.00  0.00    -0.232 OA 
HETATM   14  O   UNK A   1      -8.873  12.593  67.116  1.00  0.00    -0.190 OA 
BRANCH  11  15
HETATM   15  C   UNK A   1     -11.687  12.036  68.658  1.00  0.00    -0.380 C  
BRANCH  15  16
HETATM   16  C   UNK A   1     -12.048  11.838  70.140  1.00  0.00    -0.398 C  
BRANCH  16  17
HETATM   17  C   UNK A   1     -12.622  13.085  70.775  1.00  0.00    -0.321 A  
HETATM   18  C   UNK A   1     -12.479  14.329  70.146  1.00  0.00    -0.393 A  
HETATM   19  C   UNK A   1     -13.685  15.412  71.937  1.00  0.00    -0.603 A  
HETATM   20  C   UNK A   1     -13.009  15.484  70.723  1.00  0.00    -0.490 A  
HETATM   21  C   UNK A   1     -13.848  14.180  72.567  1.00  0.00    -0.590 A  
HETATM   22  C   UNK A   1     -13.322  13.023  71.990  1.00  0.00    -0.588 A  
ENDBRANCH  16  17
ENDBRANCH  15  16
ENDBRANCH  11  15
ENDBRANCH   9  11
ENDBRANCH   8   9
BRANCH   8  23
HETATM   23  C   UNK A   1      -9.714   8.987  70.336  1.00  0.00    -0.206 C  
ATOM     24  OXT PRO A   2      -8.941   6.932  66.531  1.00  0.00    -0.139 OA 
HETATM   25  O   UNK A   1     -10.116   9.427  71.414  1.00  0.00    -0.301 OA 
ATOM     26  N   PRO A   2     -10.161   7.757  69.851  1.00  0.00    -0.208 N  
ATOM     27  CD  PRO A   2     -11.155   6.980  70.583  1.00  0.00    -0.272 C  
ATOM     28  O   PRO A   2     -10.831   7.941  67.253  1.00  0.00    -0.272 OA 
ATOM     29  C   PRO A   2      -9.674   7.266  67.449  1.00  0.00    -0.150 C  
ATOM     30  CA  PRO A   2      -9.426   6.896  68.910  1.00  0.00    -0.136 C  
ATOM     31  CB  PRO A   2      -9.928   5.473  69.176  1.00  0.00    -0.256 C  
ATOM     32  CG  PRO A   2     -10.653   5.550  70.513  1.00  0.00    -0.339 C  
ENDBRANCH   8  23
ENDBRANCH   7   8
ENDBRANCH   6   7
ENDBRANCH   5   6
ENDBRANCH   3   5
TORSDOF 10
ENDMDL
MODEL       90
REMARK 921   NORMALIZED FREE ENERGY PREDICTED BY IDOCK:   -5.02 KCAL/MOL
REMARK 922        TOTAL FREE ENERGY PREDICTED BY IDOCK:   -9.91 KCAL/MOL
REMARK 923 INTER-LIGAND FREE ENERGY PREDICTED BY IDOCK:   -8.28 KCAL/MOL
REMARK 924 INTRA-LIGAND FREE ENERGY PREDICTED BY IDOCK:   -1.63 KCAL/MOL
REMARK 927      BINDING AFFINITY PREDICTED BY RF-SCORE:    0.00 PKD
ROOT
HETATM    1  N   UNK A   1     -12.291   5.756  72.807  1.00  0.00    -0.488 NA 
HETATM    2  H2  UNK A   1     -12.509   6.561  72.219  1.00  0.00     0.000 HD 
HETATM    3  C   UNK A   1     -10.871   5.671  73.122  1.00  0.00    -0.281 C  
HETATM    4  H1  UNK A   1     -12.601   4.879  72.388  1.00  0.00     0.000 HD 
ENDROOT
BRANCH   3   5
HETATM    5  C   UNK A   1     -10.409   6.982  73.748  1.00  0.00    -0.408 C  
BRANCH   5   6
HETATM    6  C   UNK A   1     -10.622   8.176  72.809  1.00  0.00    -0.386 C  
BRANCH   6   7
HETATM    7  C   UNK A   1      -9.625   8.096  71.649  1.00  0.00    -0.237 C  
BRANCH   7   8
HETATM    8  C   UNK A   1     -10.207   8.331  70.244  1.00  0.00    -0.196 C  
BRANCH   8   9
HETATM    9  N   UNK A   1     -11.415   9.211  70.224  1.00  0.00    -0.419 NA 
HETATM   10  H   UNK A   1     -11.867   9.211  71.138  1.00  0.00     0.000 HD 
BRANCH   9  11
HETATM   11  C   UNK A   1     -11.162  10.615  69.771  1.00  0.00    -0.297 C  
HETATM   12  C   UNK A   1     -12.243  11.513  70.402  1.00  0.00    -0.355 C  
HETATM   13  O   UNK A   1     -12.112  12.706  70.632  1.00  0.00    -0.357 OA 
HETATM   14  O   UNK A   1     -13.381  10.827  70.672  1.00  0.00    -0.116 OA 
BRANCH  11  15
HETATM   15  C   UNK A   1     -11.223  10.753  68.233  1.00  0.00    -0.358 C  
BRANCH  15  16
HETATM   16  C   UNK A   1     -10.416  11.949  67.700  1.00  0.00    -0.232 C  
BRANCH  16  17
HETATM   17  C   UNK A   1     -10.925  12.452  66.367  1.00  0.00    -0.315 A  
HETATM   18  C   UNK A   1     -10.300  12.057  65.177  1.00  0.00    -0.313 A  
HETATM   19  C   UNK A   1     -11.858  13.373  63.882  1.00  0.00    -0.492 A  
HETATM   20  C   UNK A   1     -10.766  12.514  63.943  1.00  0.00    -0.473 A  
HETATM   21  C   UNK A   1     -12.499  13.762  65.057  1.00  0.00    -0.449 A  
HETATM   22  C   UNK A   1     -12.038  13.304  66.292  1.00  0.00    -0.472 A  
ENDBRANCH  16  17
ENDBRANCH  15  16
ENDBRANCH  11  15
ENDBRANCH   9  11
ENDBRANCH   8   9
BRANCH   8  23
HETATM   23  C   UNK A   1     -10.561   6.998  69.492  1.00  0.00    -0.234 C  
ATOM     24  OXT PRO A   2      -6.992   8.839  67.711  1.00  0.00    -0.073 OA 
HETATM   25  O   UNK A   1     -11.578   6.370  69.790  1.00  0.00    -0.431 OA 
ATOM     26  N   PRO A   2      -9.744   6.584  68.440  1.00  0.00    -0.131 N  
ATOM     27  CD  PRO A   2     -10.095   5.420  67.632  1.00  0.00    -0.175 C  
ATOM     28  O   PRO A   2      -9.081   8.661  66.866  1.00  0.00    -0.135 OA 
ATOM     29  C   PRO A   2      -8.049   8.234  67.631  1.00  0.00    -0.126 C  
ATOM     30  CA  PRO A   2      -8.310   6.888  68.306  1.00  0.00    -0.123 C  
ATOM     31  CB  PRO A   2      -7.727   5.759  67.451  1.00  0.00    -0.097 C  
ATOM     32  CG  PRO A   2      -8.790   4.668  67.453  1.00  0.00    -0.110 C  
ENDBRANCH   8  23
ENDBRANCH   7   8
ENDBRANCH   6   7
ENDBRANCH   5   6
ENDBRANCH   3   5
TORSDOF 10
ENDMDL
MODEL       91
REMARK 921   NORMALIZED FREE ENERGY PREDICTED BY IDOCK:   -5.01 KCAL/MOL
REMARK 922        TOTAL FREE ENERGY PREDICTED BY IDOCK:   -9.89 KCAL/MOL
REMARK 923 INTER-LIGAND FREE ENERGY PREDICTED BY IDOCK:   -8.40 KCAL/MOL
REMARK 924 INTRA-LIGAND FREE ENERGY PREDICTED BY IDOCK:   -1.49 KCAL/MOL
REMARK 927      BINDING AFFINITY PREDICTED BY RF-SCORE:    0.00 PKD
ROOT
HETATM    1  N   UNK A   1      -7.044  15.026  66.958  1.00  0.00    -0.323 NA 
HETATM    2  H2  UNK A   1      -7.800  15.506  67.449  1.00  0.00     0.000 HD 
HETATM    3  C   UNK A   1      -6.292  14.140  67.837  1.00  0.00    -0.164 C  
HETATM    4  H1  UNK A   1      -6.406  15.679  66.504  1.00  0.00     0.000 HD 
ENDROOT
BRANCH   3   5
HETATM    5  C   UNK A   1      -7.247  13.165  68.516  1.00  0.00    -0.110 C  
BRANCH   5   6
HETATM    6  C   UNK A   1      -8.015  12.309  67.501  1.00  0.00    -0.166 C  
BRANCH   6   7
HETATM    7  C   UNK A   1      -9.204  11.640  68.197  1.00  0.00    -0.184 C  
BRANCH   7   8
HETATM    8  C   UNK A   1     -10.411  12.548  68.490  1.00  0.00    -0.222 C  
BRANCH   8   9
HETATM    9  N   UNK A   1     -11.141  12.204  69.749  1.00  0.00    -0.477 NA 
HETATM   10  H   UNK A   1     -11.956  12.808  69.860  1.00  0.00     0.000 HD 
BRANCH   9  11
HETATM   11  C   UNK A   1     -11.540  10.767  69.871  1.00  0.00    -0.331 C  
HETATM   12  C   UNK A   1     -12.780  10.701  70.782  1.00  0.00    -0.378 C  
HETATM   13  O   UNK A   1     -13.623   9.816  70.750  1.00  0.00    -0.227 OA 
HETATM   14  O   UNK A   1     -12.833  11.744  71.646  1.00  0.00    -0.383 OA 
BRANCH  11  15
HETATM   15  C   UNK A   1     -10.417   9.898  70.479  1.00  0.00    -0.330 C  
BRANCH  15  16
HETATM   16  C   UNK A   1     -10.464   8.433  70.013  1.00  0.00    -0.224 C  
BRANCH  16  17
HETATM   17  C   UNK A   1      -9.738   8.211  68.705  1.00  0.00    -0.158 A  
HETATM   18  C   UNK A   1      -8.380   7.865  68.700  1.00  0.00    -0.128 A  
HETATM   19  C   UNK A   1      -8.374   7.790  66.285  1.00  0.00    -0.131 A  
HETATM   20  C   UNK A   1      -7.704   7.654  67.496  1.00  0.00    -0.118 A  
HETATM   21  C   UNK A   1      -9.728   8.119  66.275  1.00  0.00    -0.223 A  
HETATM   22  C   UNK A   1     -10.407   8.327  67.476  1.00  0.00    -0.333 A  
ENDBRANCH  16  17
ENDBRANCH  15  16
ENDBRANCH  11  15
ENDBRANCH   9  11
ENDBRANCH   8   9
BRANCH   8  23
HETATM   23  C   UNK A   1     -11.454  12.587  67.317  1.00  0.00    -0.353 C  
ATOM     24  OXT PRO A   2      -9.560  16.523  67.791  1.00  0.00    -0.229 OA 
HETATM   25  O   UNK A   1     -12.150  11.600  67.074  1.00  0.00    -0.547 OA 
ATOM     26  N   PRO A   2     -11.622  13.776  66.607  1.00  0.00    -0.351 N  
ATOM     27  CD  PRO A   2     -12.659  13.901  65.589  1.00  0.00    -0.517 C  
ATOM     28  O   PRO A   2     -11.675  15.886  68.274  1.00  0.00    -0.327 OA 
ATOM     29  C   PRO A   2     -10.524  15.807  67.565  1.00  0.00    -0.288 C  
ATOM     30  CA  PRO A   2     -10.586  14.805  66.414  1.00  0.00    -0.300 C  
ATOM     31  CB  PRO A   2     -10.961  15.529  65.117  1.00  0.00    -0.422 C  
ATOM     32  CG  PRO A   2     -11.986  14.628  64.441  1.00  0.00    -0.454 C  
ENDBRANCH   8  23
ENDBRANCH   7   8
ENDBRANCH   6   7
ENDBRANCH   5   6
ENDBRANCH   3   5
TORSDOF 10
ENDMDL
MODEL       92
REMARK 921   NORMALIZED FREE ENERGY PREDICTED BY IDOCK:   -4.99 KCAL/MOL
REMARK 922        TOTAL FREE ENERGY PREDICTED BY IDOCK:   -9.87 KCAL/MOL
REMARK 923 INTER-LIGAND FREE ENERGY PREDICTED BY IDOCK:   -8.59 KCAL/MOL
REMARK 924 INTRA-LIGAND FREE ENERGY PREDICTED BY IDOCK:   -1.28 KCAL/MOL
REMARK 927      BINDING AFFINITY PREDICTED BY RF-SCORE:    0.00 PKD
ROOT
HETATM    1  N   UNK A   1     -10.022   3.438  65.808  1.00  0.00    -0.398 NA 
HETATM    2  H2  UNK A   1     -10.671   2.875  66.359  1.00  0.00     0.000 HD 
HETATM    3  C   UNK A   1     -10.133   4.860  66.110  1.00  0.00    -0.254 C  
HETATM    4  H1  UNK A   1     -10.141   3.292  64.805  1.00  0.00     0.000 HD 
ENDROOT
BRANCH   3   5
HETATM    5  C   UNK A   1      -9.956   5.077  67.609  1.00  0.00    -0.202 C  
BRANCH   5   6
HETATM    6  C   UNK A   1     -10.923   6.134  68.157  1.00  0.00    -0.398 C  
BRANCH   6   7
HETATM    7  C   UNK A   1     -10.327   7.529  67.940  1.00  0.00    -0.266 C  
BRANCH   7   8
HETATM    8  C   UNK A   1     -10.208   8.412  69.195  1.00  0.00    -0.211 C  
BRANCH   8   9
HETATM    9  N   UNK A   1     -11.506   8.993  69.656  1.00  0.00    -0.422 NA 
HETATM   10  H   UNK A   1     -12.271   8.346  69.466  1.00  0.00     0.000 HD 
BRANCH   9  11
HETATM   11  C   UNK A   1     -11.530   9.416  71.092  1.00  0.00    -0.352 C  
HETATM   12  C   UNK A   1     -12.038   8.223  71.923  1.00  0.00    -0.332 C  
HETATM   13  O   UNK A   1     -11.776   8.031  73.101  1.00  0.00    -0.268 OA 
HETATM   14  O   UNK A   1     -12.831   7.397  71.196  1.00  0.00    -0.326 OA 
BRANCH  11  15
HETATM   15  C   UNK A   1     -12.456  10.629  71.328  1.00  0.00    -0.515 C  
BRANCH  15  16
HETATM   16  C   UNK A   1     -12.151  11.815  70.397  1.00  0.00    -0.440 C  
BRANCH  16  17
HETATM   17  C   UNK A   1     -12.595  13.142  70.972  1.00  0.00    -0.397 A  
HETATM   18  C   UNK A   1     -12.167  14.343  70.390  1.00  0.00    -0.404 A  
HETATM   19  C   UNK A   1     -13.413  15.616  72.022  1.00  0.00    -0.538 A  
HETATM   20  C   UNK A   1     -12.575  15.572  70.912  1.00  0.00    -0.512 A  
HETATM   21  C   UNK A   1     -13.859  14.430  72.601  1.00  0.00    -0.480 A  
HETATM   22  C   UNK A   1     -13.455  13.200  72.080  1.00  0.00    -0.598 A  
ENDBRANCH  16  17
ENDBRANCH  15  16
ENDBRANCH  11  15
ENDBRANCH   9  11
ENDBRANCH   8   9
BRANCH   8  23
HETATM   23  C   UNK A   1      -9.180   9.587  69.027  1.00  0.00    -0.155 C  
ATOM     24  OXT PRO A   2      -7.796   6.793  72.122  1.00  0.00    -0.095 OA 
HETATM   25  O   UNK A   1      -9.424  10.520  68.260  1.00  0.00    -0.147 OA 
ATOM     26  N   PRO A   2      -8.026   9.586  69.811  1.00  0.00    -0.115 N  
ATOM     27  CD  PRO A   2      -7.099  10.712  69.782  1.00  0.00    -0.139 C  
ATOM     28  O   PRO A   2      -8.594   8.896  72.348  1.00  0.00    -0.399 OA 
ATOM     29  C   PRO A   2      -7.947   7.918  71.672  1.00  0.00    -0.101 C  
ATOM     30  CA  PRO A   2      -7.359   8.385  70.341  1.00  0.00    -0.056 C  
ATOM     31  CB  PRO A   2      -5.892   8.781  70.535  1.00  0.00    -0.028 C  
ATOM     32  CG  PRO A   2      -5.722  10.076  69.753  1.00  0.00    -0.042 C  
ENDBRANCH   8  23
ENDBRANCH   7   8
ENDBRANCH   6   7
ENDBRANCH   5   6
ENDBRANCH   3   5
TORSDOF 10
ENDMDL
MODEL       93
REMARK 921   NORMALIZED FREE ENERGY PREDICTED BY IDOCK:   -4.97 KCAL/MOL
REMARK 922        TOTAL FREE ENERGY PREDICTED BY IDOCK:   -9.83 KCAL/MOL
REMARK 923 INTER-LIGAND FREE ENERGY PREDICTED BY IDOCK:   -8.45 KCAL/MOL
REMARK 924 INTRA-LIGAND FREE ENERGY PREDICTED BY IDOCK:   -1.38 KCAL/MOL
REMARK 927      BINDING AFFINITY PREDICTED BY RF-SCORE:    0.00 PKD
ROOT
HETATM    1  N   UNK A   1      -8.176  17.761  67.474  1.00  0.00    -0.223 NA 
HETATM    2  H2  UNK A   1      -7.388  17.963  66.859  1.00  0.00     0.000 HD 
HETATM    3  C   UNK A   1      -8.815  16.492  67.152  1.00  0.00    -0.195 C  
HETATM    4  H1  UNK A   1      -8.873  18.506  67.464  1.00  0.00     0.000 HD 
ENDROOT
BRANCH   3   5
HETATM    5  C   UNK A   1      -7.773  15.379  67.168  1.00  0.00    -0.246 C  
BRANCH   5   6
HETATM    6  C   UNK A   1      -8.196  14.205  68.059  1.00  0.00    -0.152 C  
BRANCH   6   7
HETATM    7  C   UNK A   1      -7.645  12.899  67.477  1.00  0.00    -0.164 C  
BRANCH   7   8
HETATM    8  C   UNK A   1      -8.629  11.719  67.421  1.00  0.00    -0.160 C  
BRANCH   8   9
HETATM    9  N   UNK A   1      -8.064  10.430  67.925  1.00  0.00    -0.102 NA 
HETATM   10  H   UNK A   1      -7.112  10.303  67.581  1.00  0.00     0.000 HD 
BRANCH   9  11
HETATM   11  C   UNK A   1      -8.105  10.264  69.412  1.00  0.00    -0.163 C  
HETATM   12  C   UNK A   1      -6.651  10.182  69.914  1.00  0.00    -0.100 C  
HETATM   13  O   UNK A   1      -6.283  10.492  71.037  1.00  0.00    -0.328 OA 
HETATM   14  O   UNK A   1      -5.809   9.710  68.961  1.00  0.00    -0.036 OA 
BRANCH  11  15
HETATM   15  C   UNK A   1      -8.862   8.987  69.837  1.00  0.00    -0.164 C  
BRANCH  15  16
HETATM   16  C   UNK A   1      -9.292   9.000  71.314  1.00  0.00    -0.324 C  
BRANCH  16  17
HETATM   17  C   UNK A   1     -10.780   9.207  71.490  1.00  0.00    -0.437 A  
HETATM   18  C   UNK A   1     -11.536   8.295  72.239  1.00  0.00    -0.452 A  
HETATM   19  C   UNK A   1     -13.544   9.575  71.830  1.00  0.00    -0.468 A  
HETATM   20  C   UNK A   1     -12.909   8.480  72.409  1.00  0.00    -0.373 A  
HETATM   21  C   UNK A   1     -12.802  10.497  71.096  1.00  0.00    -0.513 A  
HETATM   22  C   UNK A   1     -11.429  10.317  70.927  1.00  0.00    -0.425 A  
ENDBRANCH  16  17
ENDBRANCH  15  16
ENDBRANCH  11  15
ENDBRANCH   9  11
ENDBRANCH   8   9
BRANCH   8  23
HETATM   23  C   UNK A   1      -9.211  11.468  65.983  1.00  0.00    -0.217 C  
ATOM     24  OXT PRO A   2     -12.178  13.536  68.477  1.00  0.00    -0.320 OA 
HETATM   25  O   UNK A   1      -8.560  10.829  65.155  1.00  0.00    -0.178 OA 
ATOM     26  N   PRO A   2     -10.498  11.920  65.692  1.00  0.00    -0.252 N  
ATOM     27  CD  PRO A   2     -11.130  11.608  64.414  1.00  0.00    -0.317 C  
ATOM     28  O   PRO A   2     -12.178  11.404  67.727  1.00  0.00    -0.537 OA 
ATOM     29  C   PRO A   2     -11.862  12.717  67.629  1.00  0.00    -0.329 C  
ATOM     30  CA  PRO A   2     -11.157  13.076  66.322  1.00  0.00    -0.289 C  
ATOM     31  CB  PRO A   2     -12.183  13.574  65.300  1.00  0.00    -0.474 C  
ATOM     32  CG  PRO A   2     -11.795  12.903  63.988  1.00  0.00    -0.512 C  
ENDBRANCH   8  23
ENDBRANCH   7   8
ENDBRANCH   6   7
ENDBRANCH   5   6
ENDBRANCH   3   5
TORSDOF 10
ENDMDL
MODEL       94
REMARK 921   NORMALIZED FREE ENERGY PREDICTED BY IDOCK:   -4.97 KCAL/MOL
REMARK 922        TOTAL FREE ENERGY PREDICTED BY IDOCK:   -9.82 KCAL/MOL
REMARK 923 INTER-LIGAND FREE ENERGY PREDICTED BY IDOCK:   -8.38 KCAL/MOL
REMARK 924 INTRA-LIGAND FREE ENERGY PREDICTED BY IDOCK:   -1.44 KCAL/MOL
REMARK 927      BINDING AFFINITY PREDICTED BY RF-SCORE:    0.00 PKD
ROOT
HETATM    1  N   UNK A   1     -14.157   9.077  72.913  1.00  0.00    -1.110 NA 
HETATM    2  H2  UNK A   1     -14.687   8.441  72.317  1.00  0.00     0.000 HD 
HETATM    3  C   UNK A   1     -12.884   9.461  72.316  1.00  0.00    -0.375 C  
HETATM    4  H1  UNK A   1     -13.994   8.687  73.842  1.00  0.00     0.000 HD 
ENDROOT
BRANCH   3   5
HETATM    5  C   UNK A   1     -13.128  10.044  70.928  1.00  0.00    -0.381 C  
BRANCH   5   6
HETATM    6  C   UNK A   1     -11.893  10.769  70.382  1.00  0.00    -0.450 C  
BRANCH   6   7
HETATM    7  C   UNK A   1     -12.179  11.261  68.960  1.00  0.00    -0.211 C  
BRANCH   7   8
HETATM    8  C   UNK A   1     -11.062  11.025  67.928  1.00  0.00    -0.288 C  
BRANCH   8   9
HETATM    9  N   UNK A   1     -10.204   9.836  68.220  1.00  0.00    -0.175 NA 
HETATM   10  H   UNK A   1     -10.141   9.684  69.227  1.00  0.00     0.000 HD 
BRANCH   9  11
HETATM   11  C   UNK A   1     -10.621   8.575  67.531  1.00  0.00    -0.214 C  
HETATM   12  C   UNK A   1     -10.613   7.444  68.577  1.00  0.00    -0.153 C  
HETATM   13  O   UNK A   1     -11.294   6.432  68.515  1.00  0.00    -0.303 OA 
HETATM   14  O   UNK A   1      -9.744   7.693  69.588  1.00  0.00    -0.170 OA 
BRANCH  11  15
HETATM   15  C   UNK A   1      -9.672   8.201  66.372  1.00  0.00    -0.275 C  
BRANCH  15  16
HETATM   16  C   UNK A   1      -8.338   8.966  66.410  1.00  0.00    -0.117 C  
BRANCH  16  17
HETATM   17  C   UNK A   1      -7.886   9.427  65.042  1.00  0.00    -0.115 A  
HETATM   18  C   UNK A   1      -8.725   9.267  63.930  1.00  0.00    -0.193 A  
HETATM   19  C   UNK A   1      -7.067  10.279  62.493  1.00  0.00    -0.151 A  
HETATM   20  C   UNK A   1      -8.317   9.693  62.664  1.00  0.00    -0.163 A  
HETATM   21  C   UNK A   1      -6.229  10.457  63.592  1.00  0.00    -0.074 A  
HETATM   22  C   UNK A   1      -6.635  10.036  64.858  1.00  0.00    -0.126 A  
ENDBRANCH  16  17
ENDBRANCH  15  16
ENDBRANCH  11  15
ENDBRANCH   9  11
ENDBRANCH   8   9
BRANCH   8  23
HETATM   23  C   UNK A   1     -10.123  12.270  67.740  1.00  0.00    -0.201 C  
ATOM     24  OXT PRO A   2     -13.118  12.134  64.530  1.00  0.00    -0.720 OA 
HETATM   25  O   UNK A   1      -9.165  12.444  68.496  1.00  0.00    -0.170 OA 
ATOM     26  N   PRO A   2     -10.354  13.129  66.665  1.00  0.00    -0.262 N  
ATOM     27  CD  PRO A   2      -9.441  14.230  66.376  1.00  0.00    -0.275 C  
ATOM     28  O   PRO A   2     -10.895  11.737  64.428  1.00  0.00    -0.297 OA 
ATOM     29  C   PRO A   2     -11.990  12.343  64.946  1.00  0.00    -0.398 C  
ATOM     30  CA  PRO A   2     -11.662  13.366  66.032  1.00  0.00    -0.362 C  
ATOM     31  CB  PRO A   2     -11.573  14.765  65.415  1.00  0.00    -0.316 C  
ATOM     32  CG  PRO A   2     -10.345  15.403  66.050  1.00  0.00    -0.339 C  
ENDBRANCH   8  23
ENDBRANCH   7   8
ENDBRANCH   6   7
ENDBRANCH   5   6
ENDBRANCH   3   5
TORSDOF 10
ENDMDL
MODEL       95
REMARK 921   NORMALIZED FREE ENERGY PREDICTED BY IDOCK:   -4.95 KCAL/MOL
REMARK 922        TOTAL FREE ENERGY PREDICTED BY IDOCK:   -9.80 KCAL/MOL
REMARK 923 INTER-LIGAND FREE ENERGY PREDICTED BY IDOCK:   -8.08 KCAL/MOL
REMARK 924 INTRA-LIGAND FREE ENERGY PREDICTED BY IDOCK:   -1.72 KCAL/MOL
REMARK 927      BINDING AFFINITY PREDICTED BY RF-SCORE:    0.00 PKD
ROOT
HETATM    1  N   UNK A   1      -6.571  11.394  70.321  1.00  0.00    -0.488 NA 
HETATM    2  H2  UNK A   1      -5.957  10.803  70.882  1.00  0.00     0.000 HD 
HETATM    3  C   UNK A   1      -6.992  10.739  69.089  1.00  0.00    -0.091 C  
HETATM    4  H1  UNK A   1      -6.143  12.293  70.100  1.00  0.00     0.000 HD 
ENDROOT
BRANCH   3   5
HETATM    5  C   UNK A   1      -7.631   9.394  69.419  1.00  0.00    -0.083 C  
BRANCH   5   6
HETATM    6  C   UNK A   1      -7.797   9.191  70.930  1.00  0.00    -0.163 C  
BRANCH   6   7
HETATM    7  C   UNK A   1      -9.288   9.180  71.281  1.00  0.00    -0.285 C  
BRANCH   7   8
HETATM    8  C   UNK A   1     -10.206   8.437  70.296  1.00  0.00    -0.196 C  
BRANCH   8   9
HETATM    9  N   UNK A   1     -11.618   8.930  70.288  1.00  0.00    -0.456 NA 
HETATM   10  H   UNK A   1     -12.182   8.396  70.950  1.00  0.00     0.000 HD 
BRANCH   9  11
HETATM   11  C   UNK A   1     -11.773  10.397  70.541  1.00  0.00    -0.344 C  
HETATM   12  C   UNK A   1     -12.984  10.586  71.474  1.00  0.00    -0.460 C  
HETATM   13  O   UNK A   1     -13.139  11.532  72.232  1.00  0.00    -0.373 OA 
HETATM   14  O   UNK A   1     -13.880   9.576  71.357  1.00  0.00    -0.310 OA 
BRANCH  11  15
HETATM   15  C   UNK A   1     -12.008  11.193  69.238  1.00  0.00    -0.421 C  
BRANCH  15  16
HETATM   16  C   UNK A   1     -10.747  11.315  68.366  1.00  0.00    -0.238 C  
BRANCH  16  17
HETATM   17  C   UNK A   1     -11.041  11.840  66.979  1.00  0.00    -0.358 A  
HETATM   18  C   UNK A   1     -10.459  11.235  65.857  1.00  0.00    -0.314 A  
HETATM   19  C   UNK A   1     -11.578  12.798  64.393  1.00  0.00    -0.415 A  
HETATM   20  C   UNK A   1     -10.728  11.711  64.572  1.00  0.00    -0.378 A  
HETATM   21  C   UNK A   1     -12.176  13.399  65.498  1.00  0.00    -0.499 A  
HETATM   22  C   UNK A   1     -11.911  12.924  66.783  1.00  0.00    -0.418 A  
ENDBRANCH  16  17
ENDBRANCH  15  16
ENDBRANCH  11  15
ENDBRANCH   9  11
ENDBRANCH   8   9
BRANCH   8  23
HETATM   23  C   UNK A   1     -10.233   6.884  70.528  1.00  0.00    -0.192 C  
ATOM     24  OXT PRO A   2      -9.243   7.772  66.341  1.00  0.00    -0.169 OA 
HETATM   25  O   UNK A   1     -10.569   6.427  71.622  1.00  0.00    -0.213 OA 
ATOM     26  N   PRO A   2      -9.939   6.040  69.457  1.00  0.00    -0.169 N  
ATOM     27  CD  PRO A   2     -10.066   4.592  69.586  1.00  0.00    -0.162 C  
ATOM     28  O   PRO A   2     -11.138   6.895  67.206  1.00  0.00    -0.339 OA 
ATOM     29  C   PRO A   2      -9.801   7.111  67.202  1.00  0.00    -0.181 C  
ATOM     30  CA  PRO A   2      -9.064   6.379  68.322  1.00  0.00    -0.114 C  
ATOM     31  CB  PRO A   2      -8.528   5.042  67.801  1.00  0.00    -0.104 C  
ATOM     32  CG  PRO A   2      -8.833   4.035  68.902  1.00  0.00    -0.149 C  
ENDBRANCH   8  23
ENDBRANCH   7   8
ENDBRANCH   6   7
ENDBRANCH   5   6
ENDBRANCH   3   5
TORSDOF 10
ENDMDL
MODEL       96
REMARK 921   NORMALIZED FREE ENERGY PREDICTED BY IDOCK:   -4.95 KCAL/MOL
REMARK 922        TOTAL FREE ENERGY PREDICTED BY IDOCK:   -9.80 KCAL/MOL
REMARK 923 INTER-LIGAND FREE ENERGY PREDICTED BY IDOCK:   -8.07 KCAL/MOL
REMARK 924 INTRA-LIGAND FREE ENERGY PREDICTED BY IDOCK:   -1.73 KCAL/MOL
REMARK 927      BINDING AFFINITY PREDICTED BY RF-SCORE:    0.00 PKD
ROOT
HETATM    1  N   UNK A   1     -13.684  13.285  72.485  1.00  0.00    -0.695 NA 
HETATM    2  H2  UNK A   1     -13.401  12.912  73.391  1.00  0.00     0.000 HD 
HETATM    3  C   UNK A   1     -12.913  12.714  71.388  1.00  0.00    -0.258 C  
HETATM    4  H1  UNK A   1     -13.623  14.303  72.452  1.00  0.00     0.000 HD 
ENDROOT
BRANCH   3   5
HETATM    5  C   UNK A   1     -13.004  11.193  71.439  1.00  0.00    -0.506 C  
BRANCH   5   6
HETATM    6  C   UNK A   1     -12.076  10.525  70.417  1.00  0.00    -0.418 C  
BRANCH   6   7
HETATM    7  C   UNK A   1     -12.009  11.387  69.152  1.00  0.00    -0.395 C  
BRANCH   7   8
HETATM    8  C   UNK A   1     -10.646  11.432  68.440  1.00  0.00    -0.202 C  
BRANCH   8   9
HETATM    9  N   UNK A   1     -10.573  12.425  67.325  1.00  0.00    -0.221 NA 
HETATM   10  H   UNK A   1     -10.015  12.053  66.556  1.00  0.00     0.000 HD 
BRANCH   9  11
HETATM   11  C   UNK A   1     -11.900  12.900  66.820  1.00  0.00    -0.385 C  
HETATM   12  C   UNK A   1     -11.982  12.553  65.321  1.00  0.00    -0.438 C  
HETATM   13  O   UNK A   1     -13.020  12.372  64.703  1.00  0.00    -0.793 OA 
HETATM   14  O   UNK A   1     -10.755  12.478  64.748  1.00  0.00    -0.279 OA 
BRANCH  11  15
HETATM   15  C   UNK A   1     -12.081  14.424  66.998  1.00  0.00    -0.374 C  
BRANCH  15  16
HETATM   16  C   UNK A   1     -11.529  14.948  68.334  1.00  0.00    -0.338 C  
BRANCH  16  17
HETATM   17  C   UNK A   1     -10.459  16.001  68.154  1.00  0.00    -0.269 A  
HETATM   18  C   UNK A   1      -9.218  15.660  67.600  1.00  0.00    -0.193 A  
HETATM   19  C   UNK A   1      -8.458  17.944  67.809  1.00  0.00    -0.242 A  
HETATM   20  C   UNK A   1      -8.225  16.626  67.427  1.00  0.00    -0.189 A  
HETATM   21  C   UNK A   1      -9.693  18.301  68.347  1.00  0.00    -0.373 A  
HETATM   22  C   UNK A   1     -10.688  17.337  68.518  1.00  0.00    -0.305 A  
ENDBRANCH  16  17
ENDBRANCH  15  16
ENDBRANCH  11  15
ENDBRANCH   9  11
ENDBRANCH   8   9
BRANCH   8  23
HETATM   23  C   UNK A   1     -10.195  10.036  67.880  1.00  0.00    -0.188 C  
ATOM     24  OXT PRO A   2      -6.696  12.333  69.215  1.00  0.00    -0.105 OA 
HETATM   25  O   UNK A   1     -11.023   9.272  67.382  1.00  0.00    -0.188 OA 
ATOM     26  N   PRO A   2      -8.838   9.713  67.894  1.00  0.00    -0.119 N  
ATOM     27  CD  PRO A   2      -8.353   8.483  67.278  1.00  0.00    -0.115 C  
ATOM     28  O   PRO A   2      -7.346  11.811  67.114  1.00  0.00    -0.132 OA 
ATOM     29  C   PRO A   2      -7.258  11.572  68.444  1.00  0.00    -0.089 C  
ATOM     30  CA  PRO A   2      -7.852  10.227  68.860  1.00  0.00    -0.106 C  
ATOM     31  CB  PRO A   2      -6.745   9.169  68.920  1.00  0.00    -0.052 C  
ATOM     32  CG  PRO A   2      -7.341   7.931  68.263  1.00  0.00    -0.098 C  
ENDBRANCH   8  23
ENDBRANCH   7   8
ENDBRANCH   6   7
ENDBRANCH   5   6
ENDBRANCH   3   5
TORSDOF 10
ENDMDL
MODEL       97
REMARK 921   NORMALIZED FREE ENERGY PREDICTED BY IDOCK:   -4.94 KCAL/MOL
REMARK 922        TOTAL FREE ENERGY PREDICTED BY IDOCK:   -9.79 KCAL/MOL
REMARK 923 INTER-LIGAND FREE ENERGY PREDICTED BY IDOCK:   -7.44 KCAL/MOL
REMARK 924 INTRA-LIGAND FREE ENERGY PREDICTED BY IDOCK:   -2.35 KCAL/MOL
REMARK 927      BINDING AFFINITY PREDICTED BY RF-SCORE:    0.00 PKD
ROOT
HETATM    1  N   UNK A   1      -7.452  16.853  69.198  1.00  0.00    -0.220 NA 
HETATM    2  H2  UNK A   1      -7.402  16.607  70.186  1.00  0.00     0.000 HD 
HETATM    3  C   UNK A   1      -6.996  15.770  68.336  1.00  0.00    -0.116 C  
HETATM    4  H1  UNK A   1      -6.927  17.702  68.985  1.00  0.00     0.000 HD 
ENDROOT
BRANCH   3   5
HETATM    5  C   UNK A   1      -7.781  14.502  68.653  1.00  0.00    -0.137 C  
BRANCH   5   6
HETATM    6  C   UNK A   1      -7.677  13.463  67.530  1.00  0.00    -0.182 C  
BRANCH   6   7
HETATM    7  C   UNK A   1      -8.694  12.345  67.776  1.00  0.00    -0.176 C  
BRANCH   7   8
HETATM    8  C   UNK A   1      -8.803  11.279  66.672  1.00  0.00    -0.175 C  
BRANCH   8   9
HETATM    9  N   UNK A   1      -9.180  11.824  65.332  1.00  0.00    -0.417 NA 
HETATM   10  H   UNK A   1      -9.029  11.121  64.609  1.00  0.00     0.000 HD 
BRANCH   9  11
HETATM   11  C   UNK A   1     -10.572  12.367  65.245  1.00  0.00    -0.290 C  
HETATM   12  C   UNK A   1     -11.172  11.904  63.904  1.00  0.00    -0.420 C  
HETATM   13  O   UNK A   1     -12.366  11.761  63.686  1.00  0.00    -0.471 OA 
HETATM   14  O   UNK A   1     -10.216  11.675  62.970  1.00  0.00    -0.350 OA 
BRANCH  11  15
HETATM   15  C   UNK A   1     -10.603  13.910  65.307  1.00  0.00    -0.372 C  
BRANCH  15  16
HETATM   16  C   UNK A   1     -11.854  14.464  66.009  1.00  0.00    -0.379 C  
BRANCH  16  17
HETATM   17  C   UNK A   1     -11.644  14.688  67.490  1.00  0.00    -0.396 A  
HETATM   18  C   UNK A   1     -11.120  15.902  67.954  1.00  0.00    -0.317 A  
HETATM   19  C   UNK A   1     -11.250  15.124  70.238  1.00  0.00    -0.306 A  
HETATM   20  C   UNK A   1     -10.927  16.118  69.320  1.00  0.00    -0.315 A  
HETATM   21  C   UNK A   1     -11.786  13.918  69.792  1.00  0.00    -0.390 A  
HETATM   22  C   UNK A   1     -11.984  13.700  68.428  1.00  0.00    -0.391 A  
ENDBRANCH  16  17
ENDBRANCH  15  16
ENDBRANCH  11  15
ENDBRANCH   9  11
ENDBRANCH   8   9
BRANCH   8  23
HETATM   23  C   UNK A   1      -9.805  10.122  67.027  1.00  0.00    -0.191 C  
ATOM     24  OXT PRO A   2      -6.507   8.570  64.574  1.00  0.00    -0.065 OA 
HETATM   25  O   UNK A   1     -10.842  10.369  67.645  1.00  0.00    -0.264 OA 
ATOM     26  N   PRO A   2      -9.531   8.833  66.569  1.00  0.00    -0.200 N  
ATOM     27  CD  PRO A   2     -10.487   7.748  66.768  1.00  0.00    -0.248 C  
ATOM     28  O   PRO A   2      -8.676   8.884  64.020  1.00  0.00    -0.155 OA 
ATOM     29  C   PRO A   2      -7.683   8.614  64.900  1.00  0.00    -0.106 C  
ATOM     30  CA  PRO A   2      -8.188   8.291  66.305  1.00  0.00    -0.112 C  
ATOM     31  CB  PRO A   2      -8.314   6.774  66.474  1.00  0.00    -0.121 C  
ATOM     32  CG  PRO A   2      -9.641   6.563  67.191  1.00  0.00    -0.162 C  
ENDBRANCH   8  23
ENDBRANCH   7   8
ENDBRANCH   6   7
ENDBRANCH   5   6
ENDBRANCH   3   5
TORSDOF 10
ENDMDL
MODEL       98
REMARK 921   NORMALIZED FREE ENERGY PREDICTED BY IDOCK:   -4.94 KCAL/MOL
REMARK 922        TOTAL FREE ENERGY PREDICTED BY IDOCK:   -9.79 KCAL/MOL
REMARK 923 INTER-LIGAND FREE ENERGY PREDICTED BY IDOCK:   -8.24 KCAL/MOL
REMARK 924 INTRA-LIGAND FREE ENERGY PREDICTED BY IDOCK:   -1.55 KCAL/MOL
REMARK 927      BINDING AFFINITY PREDICTED BY RF-SCORE:    0.00 PKD
ROOT
HETATM    1  N   UNK A   1     -13.408  12.227  64.188  1.00  0.00    -0.591 NA 
HETATM    2  H2  UNK A   1     -13.212  11.900  65.134  1.00  0.00     0.000 HD 
HETATM    3  C   UNK A   1     -12.200  12.647  63.489  1.00  0.00    -0.547 C  
HETATM    4  H1  UNK A   1     -14.089  12.987  64.176  1.00  0.00     0.000 HD 
ENDROOT
BRANCH   3   5
HETATM    5  C   UNK A   1     -11.182  11.512  63.506  1.00  0.00    -0.412 C  
BRANCH   5   6
HETATM    6  C   UNK A   1      -9.812  11.974  64.020  1.00  0.00    -0.237 C  
BRANCH   6   7
HETATM    7  C   UNK A   1      -9.302  10.982  65.070  1.00  0.00    -0.250 C  
BRANCH   7   8
HETATM    8  C   UNK A   1      -9.246  11.502  66.517  1.00  0.00    -0.194 C  
BRANCH   8   9
HETATM    9  N   UNK A   1      -9.704  12.916  66.674  1.00  0.00    -0.248 NA 
HETATM   10  H   UNK A   1     -10.397  13.145  65.961  1.00  0.00     0.000 HD 
BRANCH   9  11
HETATM   11  C   UNK A   1     -10.228  13.260  68.034  1.00  0.00    -0.240 C  
HETATM   12  C   UNK A   1     -11.600  12.577  68.194  1.00  0.00    -0.340 C  
HETATM   13  O   UNK A   1     -12.099  12.257  69.262  1.00  0.00    -0.258 OA 
HETATM   14  O   UNK A   1     -12.210  12.374  66.999  1.00  0.00    -0.508 OA 
BRANCH  11  15
HETATM   15  C   UNK A   1     -10.394  14.783  68.228  1.00  0.00    -0.238 C  
BRANCH  15  16
HETATM   16  C   UNK A   1     -10.163  15.588  66.938  1.00  0.00    -0.279 C  
BRANCH  16  17
HETATM   17  C   UNK A   1     -10.186  17.082  67.166  1.00  0.00    -0.306 A  
HETATM   18  C   UNK A   1      -9.995  17.603  68.453  1.00  0.00    -0.356 A  
HETATM   19  C   UNK A   1     -10.221  19.856  67.610  1.00  0.00    -0.564 A  
HETATM   20  C   UNK A   1     -10.011  18.982  68.672  1.00  0.00    -0.482 A  
HETATM   21  C   UNK A   1     -10.397  19.353  66.323  1.00  0.00    -0.584 A  
HETATM   22  C   UNK A   1     -10.378  17.976  66.100  1.00  0.00    -0.368 A  
ENDBRANCH  16  17
ENDBRANCH  15  16
ENDBRANCH  11  15
ENDBRANCH   9  11
ENDBRANCH   8   9
BRANCH   8  23
HETATM   23  C   UNK A   1      -7.820  11.377  67.163  1.00  0.00    -0.156 C  
ATOM     24  OXT PRO A   2     -10.498   8.301  68.797  1.00  0.00    -0.214 OA 
HETATM   25  O   UNK A   1      -6.943  12.200  66.894  1.00  0.00    -0.104 OA 
ATOM     26  N   PRO A   2      -7.591  10.363  68.094  1.00  0.00    -0.090 N  
ATOM     27  CD  PRO A   2      -6.324  10.276  68.811  1.00  0.00    -0.047 C  
ATOM     28  O   PRO A   2      -9.659  10.145  69.799  1.00  0.00    -0.222 OA 
ATOM     29  C   PRO A   2      -9.605   9.127  68.909  1.00  0.00    -0.152 C  
ATOM     30  CA  PRO A   2      -8.292   9.069  68.131  1.00  0.00    -0.121 C  
ATOM     31  CB  PRO A   2      -7.327   8.097  68.816  1.00  0.00    -0.088 C  
ATOM     32  CG  PRO A   2      -5.976   8.800  68.800  1.00  0.00    -0.044 C  
ENDBRANCH   8  23
ENDBRANCH   7   8
ENDBRANCH   6   7
ENDBRANCH   5   6
ENDBRANCH   3   5
TORSDOF 10
ENDMDL
MODEL       99
REMARK 921   NORMALIZED FREE ENERGY PREDICTED BY IDOCK:   -4.94 KCAL/MOL
REMARK 922        TOTAL FREE ENERGY PREDICTED BY IDOCK:   -9.78 KCAL/MOL
REMARK 923 INTER-LIGAND FREE ENERGY PREDICTED BY IDOCK:   -8.26 KCAL/MOL
REMARK 924 INTRA-LIGAND FREE ENERGY PREDICTED BY IDOCK:   -1.52 KCAL/MOL
REMARK 927      BINDING AFFINITY PREDICTED BY RF-SCORE:    0.00 PKD
ROOT
HETATM    1  N   UNK A   1      -6.315  14.825  69.716  1.00  0.00    -0.140 NA 
HETATM    2  H2  UNK A   1      -6.023  14.044  70.303  1.00  0.00     0.000 HD 
HETATM    3  C   UNK A   1      -5.849  14.687  68.342  1.00  0.00    -0.105 C  
HETATM    4  H1  UNK A   1      -6.009  15.724  70.090  1.00  0.00     0.000 HD 
ENDROOT
BRANCH   3   5
HETATM    5  C   UNK A   1      -6.306  13.344  67.782  1.00  0.00    -0.164 C  
BRANCH   5   6
HETATM    6  C   UNK A   1      -7.817  13.136  67.944  1.00  0.00    -0.151 C  
BRANCH   6   7
HETATM    7  C   UNK A   1      -8.551  13.826  66.790  1.00  0.00    -0.058 C  
BRANCH   7   8
HETATM    8  C   UNK A   1      -9.869  14.530  67.156  1.00  0.00    -0.245 C  
BRANCH   8   9
HETATM    9  N   UNK A   1     -11.095  13.769  66.767  1.00  0.00    -0.304 NA 
HETATM   10  H   UNK A   1     -11.924  14.353  66.879  1.00  0.00     0.000 HD 
BRANCH   9  11
HETATM   11  C   UNK A   1     -11.059  13.180  65.391  1.00  0.00    -0.278 C  
HETATM   12  C   UNK A   1     -12.254  13.753  64.605  1.00  0.00    -0.406 C  
HETATM   13  O   UNK A   1     -12.299  13.866  63.389  1.00  0.00    -0.760 OA 
HETATM   14  O   UNK A   1     -13.274  14.115  65.421  1.00  0.00    -0.741 OA 
BRANCH  11  15
HETATM   15  C   UNK A   1     -11.159  11.639  65.413  1.00  0.00    -0.299 C  
BRANCH  15  16
HETATM   16  C   UNK A   1      -9.806  10.941  65.191  1.00  0.00    -0.329 C  
BRANCH  16  17
HETATM   17  C   UNK A   1      -9.637   9.705  66.045  1.00  0.00    -0.305 A  
HETATM   18  C   UNK A   1     -10.420   9.527  67.193  1.00  0.00    -0.322 A  
HETATM   19  C   UNK A   1      -9.338   7.414  67.645  1.00  0.00    -0.145 A  
HETATM   20  C   UNK A   1     -10.272   8.387  67.987  1.00  0.00    -0.263 A  
HETATM   21  C   UNK A   1      -8.563   7.571  66.498  1.00  0.00    -0.134 A  
HETATM   22  C   UNK A   1      -8.711   8.707  65.702  1.00  0.00    -0.214 A  
ENDBRANCH  16  17
ENDBRANCH  15  16
ENDBRANCH  11  15
ENDBRANCH   9  11
ENDBRANCH   8   9
BRANCH   8  23
HETATM   23  C   UNK A   1      -9.983  15.977  66.555  1.00  0.00    -0.279 C  
ATOM     24  OXT PRO A   2     -10.998  16.026  70.830  1.00  0.00    -0.314 OA 
HETATM   25  O   UNK A   1      -9.814  16.163  65.349  1.00  0.00    -0.474 OA 
ATOM     26  N   PRO A   2     -10.346  17.027  67.399  1.00  0.00    -0.312 N  
ATOM     27  CD  PRO A   2     -10.582  18.366  66.870  1.00  0.00    -0.347 C  
ATOM     28  O   PRO A   2     -12.349  16.291  69.036  1.00  0.00     0.104 OA 
ATOM     29  C   PRO A   2     -11.160  16.393  69.676  1.00  0.00    -0.306 C  
ATOM     30  CA  PRO A   2     -10.080  17.086  68.846  1.00  0.00    -0.307 C  
ATOM     31  CB  PRO A   2     -10.035  18.577  69.197  1.00  0.00    -0.221 C  
ATOM     32  CG  PRO A   2      -9.907  19.296  67.860  1.00  0.00    -0.441 C  
ENDBRANCH   8  23
ENDBRANCH   7   8
ENDBRANCH   6   7
ENDBRANCH   5   6
ENDBRANCH   3   5
TORSDOF 10
ENDMDL
MODEL      100
REMARK 921   NORMALIZED FREE ENERGY PREDICTED BY IDOCK:   -4.92 KCAL/MOL
REMARK 922        TOTAL FREE ENERGY PREDICTED BY IDOCK:   -9.75 KCAL/MOL
REMARK 923 INTER-LIGAND FREE ENERGY PREDICTED BY IDOCK:   -8.47 KCAL/MOL
REMARK 924 INTRA-LIGAND FREE ENERGY PREDICTED BY IDOCK:   -1.29 KCAL/MOL
REMARK 927      BINDING AFFINITY PREDICTED BY RF-SCORE:    0.00 PKD
ROOT
HETATM    1  N   UNK A   1      -5.586   9.603  71.492  1.00  0.00    -0.074 NA 
HETATM    2  H2  UNK A   1      -5.933   9.333  72.412  1.00  0.00     0.000 HD 
HETATM    3  C   UNK A   1      -6.257   8.885  70.416  1.00  0.00    -0.040 C  
HETATM    4  H1  UNK A   1      -4.576   9.477  71.409  1.00  0.00     0.000 HD 
ENDROOT
BRANCH   3   5
HETATM    5  C   UNK A   1      -7.764   9.075  70.540  1.00  0.00    -0.123 C  
BRANCH   5   6
HETATM    6  C   UNK A   1      -8.301   8.566  71.884  1.00  0.00    -0.218 C  
BRANCH   6   7
HETATM    7  C   UNK A   1      -9.832   8.541  71.844  1.00  0.00    -0.358 C  
BRANCH   7   8
HETATM    8  C   UNK A   1     -10.462   7.887  70.602  1.00  0.00    -0.213 C  
BRANCH   8   9
HETATM    9  N   UNK A   1     -11.905   8.223  70.402  1.00  0.00    -0.474 NA 
HETATM   10  H   UNK A   1     -12.456   7.371  70.306  1.00  0.00     0.000 HD 
BRANCH   9  11
HETATM   11  C   UNK A   1     -12.496   9.107  71.456  1.00  0.00    -0.346 C  
HETATM   12  C   UNK A   1     -13.785   8.433  71.963  1.00  0.00    -0.374 C  
HETATM   13  O   UNK A   1     -14.271   8.601  73.072  1.00  0.00    -0.348 OA 
HETATM   14  O   UNK A   1     -14.340   7.626  71.026  1.00  0.00    -0.271 OA 
BRANCH  11  15
HETATM   15  C   UNK A   1     -12.837  10.513  70.916  1.00  0.00    -0.485 C  
BRANCH  15  16
HETATM   16  C   UNK A   1     -13.279  11.494  72.015  1.00  0.00    -0.443 C  
BRANCH  16  17
HETATM   17  C   UNK A   1     -13.057  12.941  71.635  1.00  0.00    -0.430 A  
HETATM   18  C   UNK A   1     -13.661  13.967  72.375  1.00  0.00    -0.676 A  
HETATM   19  C   UNK A   1     -12.654  15.635  70.946  1.00  0.00    -0.503 A  
HETATM   20  C   UNK A   1     -13.458  15.305  72.032  1.00  0.00    -0.547 A  
HETATM   21  C   UNK A   1     -12.035  14.625  70.211  1.00  0.00    -0.370 A  
HETATM   22  C   UNK A   1     -12.233  13.287  70.552  1.00  0.00    -0.416 A  
ENDBRANCH  16  17
ENDBRANCH  15  16
ENDBRANCH  11  15
ENDBRANCH   9  11
ENDBRANCH   8   9
BRANCH   8  23
HETATM   23  C   UNK A   1     -10.319   6.323  70.588  1.00  0.00    -0.203 C  
ATOM     24  OXT PRO A   2      -9.454   7.959  66.603  1.00  0.00    -0.184 OA 
HETATM   25  O   UNK A   1     -10.597   5.667  71.592  1.00  0.00    -0.227 OA 
ATOM     26  N   PRO A   2      -9.942   5.694  69.401  1.00  0.00    -0.180 N  
ATOM     27  CD  PRO A   2      -9.911   4.239  69.301  1.00  0.00    -0.110 C  
ATOM     28  O   PRO A   2     -11.239   6.758  67.299  1.00  0.00    -0.348 OA 
ATOM     29  C   PRO A   2      -9.933   7.115  67.343  1.00  0.00    -0.172 C  
ATOM     30  CA  PRO A   2      -9.115   6.300  68.344  1.00  0.00    -0.114 C  
ATOM     31  CB  PRO A   2      -8.440   5.127  67.626  1.00  0.00    -0.105 C  
ATOM     32  CG  PRO A   2      -8.628   3.932  68.552  1.00  0.00    -0.117 C  
ENDBRANCH   8  23
ENDBRANCH   7   8
ENDBRANCH   6   7
ENDBRANCH   5   6
ENDBRANCH   3   5
TORSDOF 10
ENDMDL
MODEL      101
REMARK 921   NORMALIZED FREE ENERGY PREDICTED BY IDOCK:   -4.90 KCAL/MOL
REMARK 922        TOTAL FREE ENERGY PREDICTED BY IDOCK:   -9.72 KCAL/MOL
REMARK 923 INTER-LIGAND FREE ENERGY PREDICTED BY IDOCK:   -8.51 KCAL/MOL
REMARK 924 INTRA-LIGAND FREE ENERGY PREDICTED BY IDOCK:   -1.20 KCAL/MOL
REMARK 927      BINDING AFFINITY PREDICTED BY RF-SCORE:    0.00 PKD
ROOT
HETATM    1  N   UNK A   1     -11.605   8.181  70.116  1.00  0.00    -0.468 NA 
HETATM    2  H2  UNK A   1     -12.220   8.992  70.038  1.00  0.00     0.000 HD 
HETATM    3  C   UNK A   1     -10.672   8.088  69.001  1.00  0.00    -0.088 C  
HETATM    4  H1  UNK A   1     -12.128   7.308  70.197  1.00  0.00     0.000 HD 
ENDROOT
BRANCH   3   5
HETATM    5  C   UNK A   1      -9.891   9.392  68.879  1.00  0.00    -0.176 C  
BRANCH   5   6
HETATM    6  C   UNK A   1     -10.267  10.173  67.614  1.00  0.00    -0.246 C  
BRANCH   6   7
HETATM    7  C   UNK A   1     -11.504  11.033  67.896  1.00  0.00    -0.358 C  
BRANCH   7   8
HETATM    8  C   UNK A   1     -11.282  12.252  68.807  1.00  0.00    -0.265 C  
BRANCH   8   9
HETATM    9  N   UNK A   1      -9.844  12.587  69.038  1.00  0.00    -0.396 NA 
HETATM   10  H   UNK A   1      -9.355  11.787  69.440  1.00  0.00     0.000 HD 
BRANCH   9  11
HETATM   11  C   UNK A   1      -9.113  13.088  67.831  1.00  0.00    -0.207 C  
HETATM   12  C   UNK A   1      -7.798  12.294  67.717  1.00  0.00    -0.151 C  
HETATM   13  O   UNK A   1      -7.189  12.099  66.676  1.00  0.00     0.023 OA 
HETATM   14  O   UNK A   1      -7.375  11.834  68.921  1.00  0.00    -0.112 OA 
BRANCH  11  15
HETATM   15  C   UNK A   1      -8.789  14.595  67.928  1.00  0.00    -0.170 C  
BRANCH  15  16
HETATM   16  C   UNK A   1      -9.159  15.377  66.656  1.00  0.00    -0.310 C  
BRANCH  16  17
HETATM   17  C   UNK A   1      -9.432  16.840  66.926  1.00  0.00    -0.253 A  
HETATM   18  C   UNK A   1     -10.263  17.574  66.069  1.00  0.00    -0.306 A  
HETATM   19  C   UNK A   1      -9.954  19.558  67.413  1.00  0.00    -0.498 A  
HETATM   20  C   UNK A   1     -10.523  18.924  66.313  1.00  0.00    -0.510 A  
HETATM   21  C   UNK A   1      -9.139  18.837  68.282  1.00  0.00    -0.356 A  
HETATM   22  C   UNK A   1      -8.879  17.487  68.043  1.00  0.00    -0.258 A  
ENDBRANCH  16  17
ENDBRANCH  15  16
ENDBRANCH  11  15
ENDBRANCH   9  11
ENDBRANCH   8   9
BRANCH   8  23
HETATM   23  C   UNK A   1     -11.981  12.112  70.207  1.00  0.00    -0.305 C  
ATOM     24  OXT PRO A   2     -11.823  16.336  69.008  1.00  0.00    -0.267 OA 
HETATM   25  O   UNK A   1     -12.054  11.012  70.756  1.00  0.00    -0.335 OA 
ATOM     26  N   PRO A   2     -12.451  13.263  70.841  1.00  0.00    -0.366 N  
ATOM     27  CD  PRO A   2     -12.999  13.204  72.192  1.00  0.00    -0.276 C  
ATOM     28  O   PRO A   2     -10.669  15.267  70.631  1.00  0.00    -0.280 OA 
ATOM     29  C   PRO A   2     -11.754  15.446  69.841  1.00  0.00    -0.336 C  
ATOM     30  CA  PRO A   2     -12.900  14.487  70.157  1.00  0.00    -0.119 C  
ATOM     31  CB  PRO A   2     -13.886  15.158  71.119  1.00  0.00    -0.495 C  
ATOM     32  CG  PRO A   2     -14.230  14.088  72.146  1.00  0.00    -0.628 C  
ENDBRANCH   8  23
ENDBRANCH   7   8
ENDBRANCH   6   7
ENDBRANCH   5   6
ENDBRANCH   3   5
TORSDOF 10
ENDMDL
MODEL      102
REMARK 921   NORMALIZED FREE ENERGY PREDICTED BY IDOCK:   -4.89 KCAL/MOL
REMARK 922        TOTAL FREE ENERGY PREDICTED BY IDOCK:   -9.71 KCAL/MOL
REMARK 923 INTER-LIGAND FREE ENERGY PREDICTED BY IDOCK:   -8.51 KCAL/MOL
REMARK 924 INTRA-LIGAND FREE ENERGY PREDICTED BY IDOCK:   -1.20 KCAL/MOL
REMARK 927      BINDING AFFINITY PREDICTED BY RF-SCORE:    0.00 PKD
ROOT
HETATM    1  N   UNK A   1      -7.798   4.434  71.894  1.00  0.00    -0.083 NA 
HETATM    2  H2  UNK A   1      -8.248   4.166  72.770  1.00  0.00     0.000 HD 
HETATM    3  C   UNK A   1      -8.475   5.551  71.247  1.00  0.00    -0.127 C  
HETATM    4  H1  UNK A   1      -7.729   3.653  71.242  1.00  0.00     0.000 HD 
ENDROOT
BRANCH   3   5
HETATM    5  C   UNK A   1      -8.577   6.719  72.222  1.00  0.00    -0.121 C  
BRANCH   5   6
HETATM    6  C   UNK A   1      -9.848   7.548  71.996  1.00  0.00    -0.200 C  
BRANCH   6   7
HETATM    7  C   UNK A   1      -9.498   8.806  71.195  1.00  0.00    -0.306 C  
BRANCH   7   8
HETATM    8  C   UNK A   1     -10.450   9.154  70.038  1.00  0.00    -0.221 C  
BRANCH   8   9
HETATM    9  N   UNK A   1     -11.888   8.862  70.323  1.00  0.00    -0.463 NA 
HETATM   10  H   UNK A   1     -12.016   7.868  70.513  1.00  0.00     0.000 HD 
BRANCH   9  11
HETATM   11  C   UNK A   1     -12.489   9.681  71.423  1.00  0.00    -0.373 C  
HETATM   12  C   UNK A   1     -13.710   8.914  71.965  1.00  0.00    -0.459 C  
HETATM   13  O   UNK A   1     -14.158   9.025  73.096  1.00  0.00    -0.313 OA 
HETATM   14  O   UNK A   1     -14.252   8.094  71.030  1.00  0.00    -0.176 OA 
BRANCH  11  15
HETATM   15  C   UNK A   1     -12.941  11.074  70.934  1.00  0.00    -0.314 C  
BRANCH  15  16
HETATM   16  C   UNK A   1     -13.371  12.008  72.078  1.00  0.00    -0.447 C  
BRANCH  16  17
HETATM   17  C   UNK A   1     -12.889  13.429  71.888  1.00  0.00    -0.354 A  
HETATM   18  C   UNK A   1     -12.503  13.880  70.618  1.00  0.00    -0.436 A  
HETATM   19  C   UNK A   1     -11.995  16.067  71.512  1.00  0.00    -0.539 A  
HETATM   20  C   UNK A   1     -12.061  15.192  70.433  1.00  0.00    -0.373 A  
HETATM   21  C   UNK A   1     -12.391  15.636  72.777  1.00  0.00    -0.535 A  
HETATM   22  C   UNK A   1     -12.836  14.327  72.965  1.00  0.00    -0.461 A  
ENDBRANCH  16  17
ENDBRANCH  15  16
ENDBRANCH  11  15
ENDBRANCH   9  11
ENDBRANCH   8   9
BRANCH   8  23
HETATM   23  C   UNK A   1     -10.068   8.445  68.689  1.00  0.00    -0.193 C  
ATOM     24  OXT PRO A   2     -10.688  12.743  68.020  1.00  0.00    -0.218 OA 
HETATM   25  O   UNK A   1      -9.928   7.222  68.650  1.00  0.00    -0.158 OA 
ATOM     26  N   PRO A   2      -9.959   9.218  67.532  1.00  0.00    -0.189 N  
ATOM     27  CD  PRO A   2      -9.725   8.595  66.234  1.00  0.00    -0.251 C  
ATOM     28  O   PRO A   2     -11.971  10.996  67.377  1.00  0.00    -0.450 OA 
ATOM     29  C   PRO A   2     -10.786  11.573  67.686  1.00  0.00    -0.211 C  
ATOM     30  CA  PRO A   2      -9.589  10.642  67.492  1.00  0.00    -0.161 C  
ATOM     31  CB  PRO A   2      -8.975  10.870  66.108  1.00  0.00    -0.196 C  
ATOM     32  CG  PRO A   2      -8.687   9.476  65.566  1.00  0.00    -0.180 C  
ENDBRANCH   8  23
ENDBRANCH   7   8
ENDBRANCH   6   7
ENDBRANCH   5   6
ENDBRANCH   3   5
TORSDOF 10
ENDMDL
MODEL      103
REMARK 921   NORMALIZED FREE ENERGY PREDICTED BY IDOCK:   -4.89 KCAL/MOL
REMARK 922        TOTAL FREE ENERGY PREDICTED BY IDOCK:   -9.70 KCAL/MOL
REMARK 923 INTER-LIGAND FREE ENERGY PREDICTED BY IDOCK:   -8.44 KCAL/MOL
REMARK 924 INTRA-LIGAND FREE ENERGY PREDICTED BY IDOCK:   -1.27 KCAL/MOL
REMARK 927      BINDING AFFINITY PREDICTED BY RF-SCORE:    0.00 PKD
ROOT
HETATM    1  N   UNK A   1     -11.122  15.855  70.655  1.00  0.00    -0.350 NA 
HETATM    2  H2  UNK A   1     -10.768  16.703  70.212  1.00  0.00     0.000 HD 
HETATM    3  C   UNK A   1     -12.214  15.254  69.899  1.00  0.00    -0.323 C  
HETATM    4  H1  UNK A   1     -11.422  16.019  71.616  1.00  0.00     0.000 HD 
ENDROOT
BRANCH   3   5
HETATM    5  C   UNK A   1     -11.765  15.008  68.463  1.00  0.00    -0.345 C  
BRANCH   5   6
HETATM    6  C   UNK A   1     -11.032  16.220  67.873  1.00  0.00    -0.310 C  
BRANCH   6   7
HETATM    7  C   UNK A   1     -10.239  15.782  66.638  1.00  0.00    -0.290 C  
BRANCH   7   8
HETATM    8  C   UNK A   1      -8.709  15.749  66.797  1.00  0.00    -0.271 C  
BRANCH   8   9
HETATM    9  N   UNK A   1      -8.115  14.381  66.688  1.00  0.00    -0.288 NA 
HETATM   10  H   UNK A   1      -7.126  14.444  66.443  1.00  0.00     0.000 HD 
BRANCH   9  11
HETATM   11  C   UNK A   1      -8.294  13.520  67.899  1.00  0.00    -0.175 C  
HETATM   12  C   UNK A   1      -6.919  12.929  68.262  1.00  0.00    -0.099 C  
HETATM   13  O   UNK A   1      -6.586  12.573  69.383  1.00  0.00    -0.112 OA 
HETATM   14  O   UNK A   1      -6.103  12.836  67.183  1.00  0.00    -0.289 OA 
BRANCH  11  15
HETATM   15  C   UNK A   1      -9.292  12.366  67.652  1.00  0.00    -0.188 C  
BRANCH  15  16
HETATM   16  C   UNK A   1      -9.123  11.703  66.275  1.00  0.00    -0.219 C  
BRANCH  16  17
HETATM   17  C   UNK A   1     -10.275  11.991  65.340  1.00  0.00    -0.295 A  
HETATM   18  C   UNK A   1     -11.505  12.431  65.848  1.00  0.00    -0.422 A  
HETATM   19  C   UNK A   1     -12.428  12.535  63.618  1.00  0.00    -0.570 A  
HETATM   20  C   UNK A   1     -12.573  12.703  64.991  1.00  0.00    -0.504 A  
HETATM   21  C   UNK A   1     -11.207  12.112  63.097  1.00  0.00    -0.258 A  
HETATM   22  C   UNK A   1     -10.136  11.843  63.950  1.00  0.00    -0.396 A  
ENDBRANCH  16  17
ENDBRANCH  15  16
ENDBRANCH  11  15
ENDBRANCH   9  11
ENDBRANCH   8   9
BRANCH   8  23
HETATM   23  C   UNK A   1      -8.214  16.389  68.143  1.00  0.00    -0.170 C  
ATOM     24  OXT PRO A   2      -6.487  18.535  64.721  1.00  0.00    -0.434 OA 
HETATM   25  O   UNK A   1      -8.525  15.881  69.222  1.00  0.00    -0.242 OA 
ATOM     26  N   PRO A   2      -7.365  17.495  68.088  1.00  0.00    -0.211 N  
ATOM     27  CD  PRO A   2      -6.782  18.053  69.304  1.00  0.00    -0.209 C  
ATOM     28  O   PRO A   2      -5.477  17.159  66.203  1.00  0.00    -0.328 OA 
ATOM     29  C   PRO A   2      -6.421  18.061  65.844  1.00  0.00    -0.270 C  
ATOM     30  CA  PRO A   2      -7.327  18.484  66.999  1.00  0.00    -0.212 C  
ATOM     31  CB  PRO A   2      -6.792  19.773  67.631  1.00  0.00    -0.276 C  
ATOM     32  CG  PRO A   2      -6.905  19.555  69.134  1.00  0.00    -0.381 C  
ENDBRANCH   8  23
ENDBRANCH   7   8
ENDBRANCH   6   7
ENDBRANCH   5   6
ENDBRANCH   3   5
TORSDOF 10
ENDMDL
MODEL      104
REMARK 921   NORMALIZED FREE ENERGY PREDICTED BY IDOCK:   -4.89 KCAL/MOL
REMARK 922        TOTAL FREE ENERGY PREDICTED BY IDOCK:   -9.70 KCAL/MOL
REMARK 923 INTER-LIGAND FREE ENERGY PREDICTED BY IDOCK:   -8.58 KCAL/MOL
REMARK 924 INTRA-LIGAND FREE ENERGY PREDICTED BY IDOCK:   -1.13 KCAL/MOL
REMARK 927      BINDING AFFINITY PREDICTED BY RF-SCORE:    0.00 PKD
ROOT
HETATM    1  N   UNK A   1     -10.803   4.781  66.299  1.00  0.00    -0.528 NA 
HETATM    2  H2  UNK A   1     -11.452   4.150  66.770  1.00  0.00     0.000 HD 
HETATM    3  C   UNK A   1     -10.664   6.052  66.999  1.00  0.00    -0.337 C  
HETATM    4  H1  UNK A   1     -11.069   4.953  65.329  1.00  0.00     0.000 HD 
ENDROOT
BRANCH   3   5
HETATM    5  C   UNK A   1     -10.267   5.794  68.448  1.00  0.00    -0.242 C  
BRANCH   5   6
HETATM    6  C   UNK A   1      -9.543   6.995  69.070  1.00  0.00    -0.141 C  
BRANCH   6   7
HETATM    7  C   UNK A   1     -10.432   8.238  68.957  1.00  0.00    -0.212 C  
BRANCH   7   8
HETATM    8  C   UNK A   1     -10.481   9.145  70.199  1.00  0.00    -0.218 C  
BRANCH   8   9
HETATM    9  N   UNK A   1      -9.809  10.468  70.014  1.00  0.00    -0.378 NA 
HETATM   10  H   UNK A   1      -8.835  10.415  70.311  1.00  0.00     0.000 HD 
BRANCH   9  11
HETATM   11  C   UNK A   1      -9.898  11.030  68.629  1.00  0.00    -0.193 C  
HETATM   12  C   UNK A   1      -8.462  11.291  68.136  1.00  0.00    -0.145 C  
HETATM   13  O   UNK A   1      -8.120  11.310  66.964  1.00  0.00    -0.136 OA 
HETATM   14  O   UNK A   1      -7.604  11.512  69.163  1.00  0.00    -0.097 OA 
BRANCH  11  15
HETATM   15  C   UNK A   1     -10.698  12.351  68.585  1.00  0.00    -0.260 C  
BRANCH  15  16
HETATM   16  C   UNK A   1     -11.773  12.372  67.485  1.00  0.00    -0.425 C  
BRANCH  16  17
HETATM   17  C   UNK A   1     -11.574  13.496  66.492  1.00  0.00    -0.391 A  
HETATM   18  C   UNK A   1     -12.451  13.644  65.409  1.00  0.00    -0.537 A  
HETATM   19  C   UNK A   1     -11.225  15.578  64.639  1.00  0.00    -0.381 A  
HETATM   20  C   UNK A   1     -12.277  14.681  64.489  1.00  0.00    -0.473 A  
HETATM   21  C   UNK A   1     -10.355  15.452  65.720  1.00  0.00    -0.381 A  
HETATM   22  C   UNK A   1     -10.528  14.419  66.642  1.00  0.00    -0.274 A  
ENDBRANCH  16  17
ENDBRANCH  15  16
ENDBRANCH  11  15
ENDBRANCH   9  11
ENDBRANCH   8   9
BRANCH   8  23
HETATM   23  C   UNK A   1      -9.879   8.469  71.482  1.00  0.00    -0.239 C  
ATOM     24  OXT PRO A   2     -14.100   7.342  71.012  1.00  0.00    -0.267 OA 
HETATM   25  O   UNK A   1      -8.726   8.722  71.834  1.00  0.00    -0.284 OA 
ATOM     26  N   PRO A   2     -10.697   7.636  72.247  1.00  0.00    -0.242 N  
ATOM     27  CD  PRO A   2     -10.225   7.079  73.511  1.00  0.00    -0.333 C  
ATOM     28  O   PRO A   2     -13.146   8.706  72.542  1.00  0.00    -0.363 OA 
ATOM     29  C   PRO A   2     -13.134   7.653  71.691  1.00  0.00    -0.353 C  
ATOM     30  CA  PRO A   2     -11.833   6.853  71.733  1.00  0.00    -0.316 C  
ATOM     31  CB  PRO A   2     -11.985   5.668  72.691  1.00  0.00    -0.120 C  
ATOM     32  CG  PRO A   2     -10.689   5.635  73.491  1.00  0.00    -0.311 C  
ENDBRANCH   8  23
ENDBRANCH   7   8
ENDBRANCH   6   7
ENDBRANCH   5   6
ENDBRANCH   3   5
TORSDOF 10
ENDMDL
MODEL      105
REMARK 921   NORMALIZED FREE ENERGY PREDICTED BY IDOCK:   -4.89 KCAL/MOL
REMARK 922        TOTAL FREE ENERGY PREDICTED BY IDOCK:   -9.70 KCAL/MOL
REMARK 923 INTER-LIGAND FREE ENERGY PREDICTED BY IDOCK:   -7.67 KCAL/MOL
REMARK 924 INTRA-LIGAND FREE ENERGY PREDICTED BY IDOCK:   -2.03 KCAL/MOL
REMARK 927      BINDING AFFINITY PREDICTED BY RF-SCORE:    0.00 PKD
ROOT
HETATM    1  N   UNK A   1     -11.463   7.572  70.189  1.00  0.00    -0.471 NA 
HETATM    2  H2  UNK A   1     -10.775   7.109  70.784  1.00  0.00     0.000 HD 
HETATM    3  C   UNK A   1     -11.643   8.974  70.544  1.00  0.00    -0.175 C  
HETATM    4  H1  UNK A   1     -12.366   7.098  70.204  1.00  0.00     0.000 HD 
ENDROOT
BRANCH   3   5
HETATM    5  C   UNK A   1     -10.293   9.683  70.521  1.00  0.00    -0.359 C  
BRANCH   5   6
HETATM    6  C   UNK A   1     -10.283  10.872  69.553  1.00  0.00    -0.097 C  
BRANCH   6   7
HETATM    7  C   UNK A   1     -10.932  10.455  68.229  1.00  0.00    -0.321 C  
BRANCH   7   8
HETATM    8  C   UNK A   1      -9.965  10.054  67.102  1.00  0.00    -0.201 C  
BRANCH   8   9
HETATM    9  N   UNK A   1     -10.195  10.777  65.814  1.00  0.00    -0.257 NA 
HETATM   10  H   UNK A   1     -10.411  10.114  65.070  1.00  0.00     0.000 HD 
BRANCH   9  11
HETATM   11  C   UNK A   1     -11.240  11.848  65.873  1.00  0.00    -0.322 C  
HETATM   12  C   UNK A   1     -11.887  11.948  64.479  1.00  0.00    -0.224 C  
HETATM   13  O   UNK A   1     -13.019  12.353  64.263  1.00  0.00    -0.737 OA 
HETATM   14  O   UNK A   1     -11.046  11.540  63.497  1.00  0.00    -0.407 OA 
BRANCH  11  15
HETATM   15  C   UNK A   1     -10.648  13.222  66.258  1.00  0.00    -0.294 C  
BRANCH  15  16
HETATM   16  C   UNK A   1     -11.713  14.237  66.705  1.00  0.00    -0.417 C  
BRANCH  16  17
HETATM   17  C   UNK A   1     -11.562  14.648  68.152  1.00  0.00    -0.362 A  
HETATM   18  C   UNK A   1     -12.253  13.959  69.158  1.00  0.00    -0.305 A  
HETATM   19  C   UNK A   1     -11.291  15.394  70.848  1.00  0.00    -0.395 A  
HETATM   20  C   UNK A   1     -12.116  14.330  70.497  1.00  0.00    -0.413 A  
HETATM   21  C   UNK A   1     -10.585  16.078  69.859  1.00  0.00    -0.314 A  
HETATM   22  C   UNK A   1     -10.718  15.708  68.520  1.00  0.00    -0.264 A  
ENDBRANCH  16  17
ENDBRANCH  15  16
ENDBRANCH  11  15
ENDBRANCH   9  11
ENDBRANCH   8   9
BRANCH   8  23
HETATM   23  C   UNK A   1      -9.972   8.512  66.803  1.00  0.00    -0.281 C  
ATOM     24  OXT PRO A   2      -6.242  10.320  65.348  1.00  0.00    -0.106 OA 
HETATM   25  O   UNK A   1     -10.967   7.835  67.064  1.00  0.00    -0.247 OA 
ATOM     26  N   PRO A   2      -8.862   7.945  66.176  1.00  0.00    -0.160 N  
ATOM     27  CD  PRO A   2      -8.866   6.544  65.768  1.00  0.00    -0.084 C  
ATOM     28  O   PRO A   2      -7.992   9.510  64.169  1.00  0.00    -0.122 OA 
ATOM     29  C   PRO A   2      -7.174   9.539  65.247  1.00  0.00    -0.104 C  
ATOM     30  CA  PRO A   2      -7.481   8.448  66.272  1.00  0.00    -0.089 C  
ATOM     31  CB  PRO A   2      -6.582   7.233  66.021  1.00  0.00    -0.052 C  
ATOM     32  CG  PRO A   2      -7.497   6.024  66.163  1.00  0.00    -0.085 C  
ENDBRANCH   8  23
ENDBRANCH   7   8
ENDBRANCH   6   7
ENDBRANCH   5   6
ENDBRANCH   3   5
TORSDOF 10
ENDMDL
MODEL      106
REMARK 921   NORMALIZED FREE ENERGY PREDICTED BY IDOCK:   -4.87 KCAL/MOL
REMARK 922        TOTAL FREE ENERGY PREDICTED BY IDOCK:   -9.68 KCAL/MOL
REMARK 923 INTER-LIGAND FREE ENERGY PREDICTED BY IDOCK:   -8.09 KCAL/MOL
REMARK 924 INTRA-LIGAND FREE ENERGY PREDICTED BY IDOCK:   -1.58 KCAL/MOL
REMARK 927      BINDING AFFINITY PREDICTED BY RF-SCORE:    0.00 PKD
ROOT
HETATM    1  N   UNK A   1      -9.676   9.639  65.028  1.00  0.00    -0.436 NA 
HETATM    2  H2  UNK A   1      -8.663   9.666  64.910  1.00  0.00     0.000 HD 
HETATM    3  C   UNK A   1     -10.064   9.534  66.429  1.00  0.00    -0.258 C  
HETATM    4  H1  UNK A   1     -10.106   8.882  64.497  1.00  0.00     0.000 HD 
ENDROOT
BRANCH   3   5
HETATM    5  C   UNK A   1      -9.421  10.665  67.223  1.00  0.00    -0.178 C  
BRANCH   5   6
HETATM    6  C   UNK A   1      -8.342  10.154  68.186  1.00  0.00    -0.117 C  
BRANCH   6   7
HETATM    7  C   UNK A   1      -8.925  10.062  69.599  1.00  0.00    -0.221 C  
BRANCH   7   8
HETATM    8  C   UNK A   1      -9.545   8.708  69.985  1.00  0.00    -0.170 C  
BRANCH   8   9
HETATM    9  N   UNK A   1     -11.037   8.721  70.067  1.00  0.00    -0.373 NA 
HETATM   10  H   UNK A   1     -11.379   7.833  70.434  1.00  0.00     0.000 HD 
BRANCH   9  11
HETATM   11  C   UNK A   1     -11.613   9.860  70.850  1.00  0.00    -0.373 C  
HETATM   12  C   UNK A   1     -12.622   9.275  71.856  1.00  0.00    -0.390 C  
HETATM   13  O   UNK A   1     -12.934   9.798  72.915  1.00  0.00     0.131 OA 
HETATM   14  O   UNK A   1     -13.145   8.099  71.427  1.00  0.00    -0.298 OA 
BRANCH  11  15
HETATM   15  C   UNK A   1     -12.335  10.884  69.945  1.00  0.00    -0.354 C  
BRANCH  15  16
HETATM   16  C   UNK A   1     -11.679  12.275  69.962  1.00  0.00    -0.319 C  
BRANCH  16  17
HETATM   17  C   UNK A   1     -12.451  13.278  70.789  1.00  0.00    -0.403 A  
HETATM   18  C   UNK A   1     -12.320  14.651  70.539  1.00  0.00    -0.400 A  
HETATM   19  C   UNK A   1     -13.880  15.157  72.313  1.00  0.00    -0.618 A  
HETATM   20  C   UNK A   1     -13.033  15.583  71.296  1.00  0.00    -0.565 A  
HETATM   21  C   UNK A   1     -14.031  13.795  72.564  1.00  0.00    -0.572 A  
HETATM   22  C   UNK A   1     -13.323  12.860  71.807  1.00  0.00    -0.451 A  
ENDBRANCH  16  17
ENDBRANCH  15  16
ENDBRANCH  11  15
ENDBRANCH   9  11
ENDBRANCH   8   9
BRANCH   8  23
HETATM   23  C   UNK A   1      -8.987   8.137  71.339  1.00  0.00    -0.150 C  
ATOM     24  OXT PRO A   2     -10.359   4.854  68.761  1.00  0.00    -0.108 OA 
HETATM   25  O   UNK A   1      -8.624   8.905  72.232  1.00  0.00    -0.397 OA 
ATOM     26  N   PRO A   2      -8.978   6.755  71.531  1.00  0.00    -0.138 N  
ATOM     27  CD  PRO A   2      -8.584   6.180  72.813  1.00  0.00    -0.123 C  
ATOM     28  O   PRO A   2     -11.274   5.653  70.668  1.00  0.00    -0.210 OA 
ATOM     29  C   PRO A   2     -10.227   5.390  69.851  1.00  0.00    -0.281 C  
ATOM     30  CA  PRO A   2      -8.874   5.748  70.463  1.00  0.00    -0.139 C  
ATOM     31  CB  PRO A   2      -8.259   4.510  71.122  1.00  0.00    -0.087 C  
ATOM     32  CG  PRO A   2      -7.700   5.002  72.450  1.00  0.00    -0.096 C  
ENDBRANCH   8  23
ENDBRANCH   7   8
ENDBRANCH   6   7
ENDBRANCH   5   6
ENDBRANCH   3   5
TORSDOF 10
ENDMDL
MODEL      107
REMARK 921   NORMALIZED FREE ENERGY PREDICTED BY IDOCK:   -4.87 KCAL/MOL
REMARK 922        TOTAL FREE ENERGY PREDICTED BY IDOCK:   -9.67 KCAL/MOL
REMARK 923 INTER-LIGAND FREE ENERGY PREDICTED BY IDOCK:   -7.76 KCAL/MOL
REMARK 924 INTRA-LIGAND FREE ENERGY PREDICTED BY IDOCK:   -1.90 KCAL/MOL
REMARK 927      BINDING AFFINITY PREDICTED BY RF-SCORE:    0.00 PKD
ROOT
HETATM    1  N   UNK A   1     -11.319   4.801  65.421  1.00  0.00    -1.000 NA 
HETATM    2  H2  UNK A   1     -10.550   4.683  64.761  1.00  0.00     0.000 HD 
HETATM    3  C   UNK A   1     -10.880   5.401  66.675  1.00  0.00    -0.141 C  
HETATM    4  H1  UNK A   1     -11.800   3.922  65.614  1.00  0.00     0.000 HD 
ENDROOT
BRANCH   3   5
HETATM    5  C   UNK A   1     -10.161   6.715  66.387  1.00  0.00    -0.027 C  
BRANCH   5   6
HETATM    6  C   UNK A   1      -8.664   6.507  66.127  1.00  0.00    -0.153 C  
BRANCH   6   7
HETATM    7  C   UNK A   1      -7.856   7.425  67.049  1.00  0.00    -0.116 C  
BRANCH   7   8
HETATM    8  C   UNK A   1      -8.650   8.536  67.758  1.00  0.00    -0.134 C  
BRANCH   8   9
HETATM    9  N   UNK A   1      -8.256   9.920  67.353  1.00  0.00    -0.117 NA 
HETATM   10  H   UNK A   1      -7.728  10.370  68.101  1.00  0.00     0.000 HD 
BRANCH   9  11
HETATM   11  C   UNK A   1      -7.503  10.007  66.062  1.00  0.00    -0.112 C  
HETATM   12  C   UNK A   1      -6.409  11.078  66.229  1.00  0.00    -0.119 C  
HETATM   13  O   UNK A   1      -5.362  11.111  65.600  1.00  0.00    -0.181 OA 
HETATM   14  O   UNK A   1      -6.742  12.005  67.162  1.00  0.00    -0.137 OA 
BRANCH  11  15
HETATM   15  C   UNK A   1      -8.415  10.395  64.878  1.00  0.00    -0.179 C  
BRANCH  15  16
HETATM   16  C   UNK A   1      -9.910  10.400  65.241  1.00  0.00    -0.361 C  
BRANCH  16  17
HETATM   17  C   UNK A   1     -10.591  11.708  64.906  1.00  0.00    -0.349 A  
HETATM   18  C   UNK A   1     -11.435  11.800  63.791  1.00  0.00    -0.510 A  
HETATM   19  C   UNK A   1     -11.867  14.128  64.268  1.00  0.00    -0.420 A  
HETATM   20  C   UNK A   1     -12.070  13.003  63.476  1.00  0.00    -0.617 A  
HETATM   21  C   UNK A   1     -11.043  14.047  65.389  1.00  0.00    -0.318 A  
HETATM   22  C   UNK A   1     -10.409  12.846  65.708  1.00  0.00    -0.297 A  
ENDBRANCH  16  17
ENDBRANCH  15  16
ENDBRANCH  11  15
ENDBRANCH   9  11
ENDBRANCH   8   9
BRANCH   8  23
HETATM   23  C   UNK A   1      -8.575   8.446  69.324  1.00  0.00    -0.130 C  
ATOM     24  OXT PRO A   2     -12.024  10.882  68.110  1.00  0.00    -0.581 OA 
HETATM   25  O   UNK A   1      -7.631   7.870  69.867  1.00  0.00    -0.085 OA 
ATOM     26  N   PRO A   2      -9.556   9.088  70.081  1.00  0.00    -0.181 N  
ATOM     27  CD  PRO A   2      -9.467   9.136  71.536  1.00  0.00    -0.169 C  
ATOM     28  O   PRO A   2     -10.089  11.528  69.085  1.00  0.00    -0.113 OA 
ATOM     29  C   PRO A   2     -11.079  10.637  68.844  1.00  0.00    -0.261 C  
ATOM     30  CA  PRO A   2     -10.938   9.342  69.642  1.00  0.00    -0.175 C  
ATOM     31  CB  PRO A   2     -11.768   9.432  70.926  1.00  0.00    -0.378 C  
ATOM     32  CG  PRO A   2     -10.877   8.854  72.018  1.00  0.00    -0.404 C  
ENDBRANCH   8  23
ENDBRANCH   7   8
ENDBRANCH   6   7
ENDBRANCH   5   6
ENDBRANCH   3   5
TORSDOF 10
ENDMDL
MODEL      108
REMARK 921   NORMALIZED FREE ENERGY PREDICTED BY IDOCK:   -4.86 KCAL/MOL
REMARK 922        TOTAL FREE ENERGY PREDICTED BY IDOCK:   -9.66 KCAL/MOL
REMARK 923 INTER-LIGAND FREE ENERGY PREDICTED BY IDOCK:   -8.41 KCAL/MOL
REMARK 924 INTRA-LIGAND FREE ENERGY PREDICTED BY IDOCK:   -1.25 KCAL/MOL
REMARK 927      BINDING AFFINITY PREDICTED BY RF-SCORE:    0.00 PKD
ROOT
HETATM    1  N   UNK A   1      -8.610  20.131  65.644  1.00  0.00    -0.484 NA 
HETATM    2  H2  UNK A   1      -9.300  20.334  64.921  1.00  0.00     0.000 HD 
HETATM    3  C   UNK A   1      -9.187  19.410  66.771  1.00  0.00    -0.333 C  
HETATM    4  H1  UNK A   1      -8.146  20.976  65.981  1.00  0.00     0.000 HD 
ENDROOT
BRANCH   3   5
HETATM    5  C   UNK A   1      -9.880  18.149  66.267  1.00  0.00    -0.311 C  
BRANCH   5   6
HETATM    6  C   UNK A   1      -8.914  16.963  66.162  1.00  0.00    -0.271 C  
BRANCH   6   7
HETATM    7  C   UNK A   1      -9.715  15.663  66.041  1.00  0.00    -0.378 C  
BRANCH   7   8
HETATM    8  C   UNK A   1      -9.408  14.582  67.092  1.00  0.00    -0.218 C  
BRANCH   8   9
HETATM    9  N   UNK A   1     -10.591  13.754  67.478  1.00  0.00    -0.244 NA 
HETATM   10  H   UNK A   1     -11.449  14.298  67.385  1.00  0.00     0.000 HD 
BRANCH   9  11
HETATM   11  C   UNK A   1     -10.718  12.457  66.741  1.00  0.00    -0.234 C  
HETATM   12  C   UNK A   1     -11.756  12.654  65.620  1.00  0.00    -0.412 C  
HETATM   13  O   UNK A   1     -11.793  12.011  64.582  1.00  0.00    -0.330 OA 
HETATM   14  O   UNK A   1     -12.648  13.631  65.919  1.00  0.00    -0.460 OA 
BRANCH  11  15
HETATM   15  C   UNK A   1     -11.178  11.305  67.661  1.00  0.00    -0.357 C  
BRANCH  15  16
HETATM   16  C   UNK A   1     -11.789  11.794  68.986  1.00  0.00    -0.379 C  
BRANCH  16  17
HETATM   17  C   UNK A   1     -11.720  10.754  70.082  1.00  0.00    -0.425 A  
HETATM   18  C   UNK A   1     -12.815  10.552  70.933  1.00  0.00    -0.485 A  
HETATM   19  C   UNK A   1     -11.614   8.826  72.123  1.00  0.00    -0.434 A  
HETATM   20  C   UNK A   1     -12.762   9.592  71.946  1.00  0.00    -0.499 A  
HETATM   21  C   UNK A   1     -10.523   9.006  71.274  1.00  0.00    -0.381 A  
HETATM   22  C   UNK A   1     -10.575   9.962  70.260  1.00  0.00    -0.359 A  
ENDBRANCH  16  17
ENDBRANCH  15  16
ENDBRANCH  11  15
ENDBRANCH   9  11
ENDBRANCH   8   9
BRANCH   8  23
HETATM   23  C   UNK A   1      -8.769  15.161  68.404  1.00  0.00    -0.169 C  
ATOM     24  OXT PRO A   2      -6.083  12.193  66.592  1.00  0.00    -0.189 OA 
HETATM   25  O   UNK A   1      -9.401  15.953  69.105  1.00  0.00    -0.222 OA 
ATOM     26  N   PRO A   2      -7.507  14.708  68.793  1.00  0.00    -0.128 N  
ATOM     27  CD  PRO A   2      -6.921  15.122  70.063  1.00  0.00    -0.082 C  
ATOM     28  O   PRO A   2      -7.310  12.043  68.485  1.00  0.00    -0.100 OA 
ATOM     29  C   PRO A   2      -6.606  12.731  67.556  1.00  0.00    -0.158 C  
ATOM     30  CA  PRO A   2      -6.462  14.217  67.880  1.00  0.00    -0.165 C  
ATOM     31  CB  PRO A   2      -5.134  14.463  68.603  1.00  0.00    -0.096 C  
ATOM     32  CG  PRO A   2      -5.471  15.423  69.737  1.00  0.00    -0.106 C  
ENDBRANCH   8  23
ENDBRANCH   7   8
ENDBRANCH   6   7
ENDBRANCH   5   6
ENDBRANCH   3   5
TORSDOF 10
ENDMDL
MODEL      109
REMARK 921   NORMALIZED FREE ENERGY PREDICTED BY IDOCK:   -4.86 KCAL/MOL
REMARK 922        TOTAL FREE ENERGY PREDICTED BY IDOCK:   -9.65 KCAL/MOL
REMARK 923 INTER-LIGAND FREE ENERGY PREDICTED BY IDOCK:   -7.83 KCAL/MOL
REMARK 924 INTRA-LIGAND FREE ENERGY PREDICTED BY IDOCK:   -1.82 KCAL/MOL
REMARK 927      BINDING AFFINITY PREDICTED BY RF-SCORE:    0.00 PKD
ROOT
HETATM    1  N   UNK A   1     -11.453   4.641  65.161  1.00  0.00    -1.107 NA 
HETATM    2  H2  UNK A   1     -11.777   5.467  64.657  1.00  0.00     0.000 HD 
HETATM    3  C   UNK A   1     -10.470   4.969  66.185  1.00  0.00    -0.286 C  
HETATM    4  H1  UNK A   1     -11.069   3.934  64.533  1.00  0.00     0.000 HD 
ENDROOT
BRANCH   3   5
HETATM    5  C   UNK A   1     -11.044   6.025  67.122  1.00  0.00    -0.255 C  
BRANCH   5   6
HETATM    6  C   UNK A   1     -10.060   7.176  67.366  1.00  0.00    -0.260 C  
BRANCH   6   7
HETATM    7  C   UNK A   1     -10.647   8.475  66.805  1.00  0.00    -0.227 C  
BRANCH   7   8
HETATM    8  C   UNK A   1     -10.310   9.758  67.584  1.00  0.00    -0.230 C  
BRANCH   8   9
HETATM    9  N   UNK A   1     -11.503  10.582  67.947  1.00  0.00    -0.633 NA 
HETATM   10  H   UNK A   1     -12.308  10.303  67.387  1.00  0.00     0.000 HD 
BRANCH   9  11
HETATM   11  C   UNK A   1     -11.856  10.570  69.402  1.00  0.00    -0.199 C  
HETATM   12  C   UNK A   1     -11.957  12.034  69.871  1.00  0.00    -0.318 C  
HETATM   13  O   UNK A   1     -12.634  12.419  70.812  1.00  0.00    -0.303 OA 
HETATM   14  O   UNK A   1     -11.193  12.864  69.118  1.00  0.00    -0.256 OA 
BRANCH  11  15
HETATM   15  C   UNK A   1     -10.796   9.838  70.254  1.00  0.00    -0.356 C  
BRANCH  15  16
HETATM   16  C   UNK A   1     -11.341   9.342  71.604  1.00  0.00    -0.467 C  
BRANCH  16  17
HETATM   17  C   UNK A   1     -10.994   7.896  71.882  1.00  0.00    -0.308 A  
HETATM   18  C   UNK A   1     -10.893   6.979  70.828  1.00  0.00    -0.272 A  
HETATM   19  C   UNK A   1     -10.346   5.208  72.377  1.00  0.00    -0.257 A  
HETATM   20  C   UNK A   1     -10.569   5.643  71.075  1.00  0.00    -0.318 A  
HETATM   21  C   UNK A   1     -10.427   6.112  73.434  1.00  0.00    -0.269 A  
HETATM   22  C   UNK A   1     -10.748   7.448  73.190  1.00  0.00    -0.436 A  
ENDBRANCH  16  17
ENDBRANCH  15  16
ENDBRANCH  11  15
ENDBRANCH   9  11
ENDBRANCH   8   9
BRANCH   8  23
HETATM   23  C   UNK A   1      -9.287  10.685  66.835  1.00  0.00    -0.159 C  
ATOM     24  OXT PRO A   2      -7.195   8.206  69.799  1.00  0.00    -0.062 OA 
HETATM   25  O   UNK A   1      -9.687  11.514  66.017  1.00  0.00    -0.212 OA 
ATOM     26  N   PRO A   2      -7.934  10.596  67.166  1.00  0.00    -0.119 N  
ATOM     27  CD  PRO A   2      -6.960  11.516  66.587  1.00  0.00    -0.069 C  
ATOM     28  O   PRO A   2      -7.609  10.428  69.830  1.00  0.00    -0.159 OA 
ATOM     29  C   PRO A   2      -7.371   9.255  69.198  1.00  0.00    -0.071 C  
ATOM     30  CA  PRO A   2      -7.261   9.393  67.681  1.00  0.00    -0.083 C  
ATOM     31  CB  PRO A   2      -5.790   9.539  67.280  1.00  0.00    -0.045 C  
ATOM     32  CG  PRO A   2      -5.772  10.643  66.231  1.00  0.00    -0.098 C  
ENDBRANCH   8  23
ENDBRANCH   7   8
ENDBRANCH   6   7
ENDBRANCH   5   6
ENDBRANCH   3   5
TORSDOF 10
ENDMDL
MODEL      110
REMARK 921   NORMALIZED FREE ENERGY PREDICTED BY IDOCK:   -4.86 KCAL/MOL
REMARK 922        TOTAL FREE ENERGY PREDICTED BY IDOCK:   -9.65 KCAL/MOL
REMARK 923 INTER-LIGAND FREE ENERGY PREDICTED BY IDOCK:   -9.05 KCAL/MOL
REMARK 924 INTRA-LIGAND FREE ENERGY PREDICTED BY IDOCK:   -0.60 KCAL/MOL
REMARK 927      BINDING AFFINITY PREDICTED BY RF-SCORE:    0.00 PKD
ROOT
HETATM    1  N   UNK A   1     -13.428  16.090  73.685  1.00  0.00    -0.872 NA 
HETATM    2  H2  UNK A   1     -12.578  16.633  73.536  1.00  0.00     0.000 HD 
HETATM    3  C   UNK A   1     -14.019  15.635  72.433  1.00  0.00    -0.515 C  
HETATM    4  H1  UNK A   1     -14.125  16.607  74.223  1.00  0.00     0.000 HD 
ENDROOT
BRANCH   3   5
HETATM    5  C   UNK A   1     -12.977  14.863  71.630  1.00  0.00    -0.415 C  
BRANCH   5   6
HETATM    6  C   UNK A   1     -12.627  15.566  70.313  1.00  0.00    -0.362 C  
BRANCH   6   7
HETATM    7  C   UNK A   1     -12.272  14.517  69.255  1.00  0.00    -0.264 C  
BRANCH   7   8
HETATM    8  C   UNK A   1     -11.455  15.022  68.054  1.00  0.00    -0.342 C  
BRANCH   8   9
HETATM    9  N   UNK A   1     -11.108  13.959  67.062  1.00  0.00    -0.295 NA 
HETATM   10  H   UNK A   1     -10.751  14.379  66.204  1.00  0.00     0.000 HD 
BRANCH   9  11
HETATM   11  C   UNK A   1     -10.156  12.918  67.564  1.00  0.00    -0.214 C  
HETATM   12  C   UNK A   1      -9.378  12.371  66.352  1.00  0.00    -0.219 C  
HETATM   13  O   UNK A   1      -8.262  11.876  66.405  1.00  0.00    -0.088 OA 
HETATM   14  O   UNK A   1     -10.081  12.492  65.199  1.00  0.00    -0.279 OA 
BRANCH  11  15
HETATM   15  C   UNK A   1     -10.884  11.751  68.267  1.00  0.00    -0.259 C  
BRANCH  15  16
HETATM   16  C   UNK A   1     -11.029  10.504  67.379  1.00  0.00    -0.352 C  
BRANCH  16  17
HETATM   17  C   UNK A   1     -10.729   9.219  68.119  1.00  0.00    -0.205 A  
HETATM   18  C   UNK A   1     -10.146   8.136  67.447  1.00  0.00    -0.298 A  
HETATM   19  C   UNK A   1     -10.162   6.826  69.476  1.00  0.00    -0.202 A  
HETATM   20  C   UNK A   1      -9.863   6.948  68.123  1.00  0.00    -0.145 A  
HETATM   21  C   UNK A   1     -10.728   7.899  70.160  1.00  0.00    -0.244 A  
HETATM   22  C   UNK A   1     -11.009   9.089  69.488  1.00  0.00    -0.118 A  
ENDBRANCH  16  17
ENDBRANCH  15  16
ENDBRANCH  11  15
ENDBRANCH   9  11
ENDBRANCH   8   9
BRANCH   8  23
HETATM   23  C   UNK A   1     -10.128  15.751  68.472  1.00  0.00    -0.215 C  
ATOM     24  OXT PRO A   2     -11.340  17.007  64.440  1.00  0.00    -1.140 OA 
HETATM   25  O   UNK A   1      -9.580  15.475  69.540  1.00  0.00    -0.260 OA 
ATOM     26  N   PRO A   2      -9.551  16.658  67.582  1.00  0.00    -0.237 N  
ATOM     27  CD  PRO A   2      -8.259  17.271  67.869  1.00  0.00    -0.219 C  
ATOM     28  O   PRO A   2      -9.606  15.701  65.069  1.00  0.00    -0.191 OA 
ATOM     29  C   PRO A   2     -10.497  16.700  65.268  1.00  0.00    -0.173 C  
ATOM     30  CA  PRO A   2     -10.285  17.451  66.582  1.00  0.00    -0.324 C  
ATOM     31  CB  PRO A   2      -9.428  18.696  66.334  1.00  0.00    -0.319 C  
ATOM     32  CG  PRO A   2      -8.429  18.727  67.483  1.00  0.00    -0.288 C  
ENDBRANCH   8  23
ENDBRANCH   7   8
ENDBRANCH   6   7
ENDBRANCH   5   6
ENDBRANCH   3   5
TORSDOF 10
ENDMDL
MODEL      111
REMARK 921   NORMALIZED FREE ENERGY PREDICTED BY IDOCK:   -4.83 KCAL/MOL
REMARK 922        TOTAL FREE ENERGY PREDICTED BY IDOCK:   -9.61 KCAL/MOL
REMARK 923 INTER-LIGAND FREE ENERGY PREDICTED BY IDOCK:   -8.74 KCAL/MOL
REMARK 924 INTRA-LIGAND FREE ENERGY PREDICTED BY IDOCK:   -0.87 KCAL/MOL
REMARK 927      BINDING AFFINITY PREDICTED BY RF-SCORE:    0.00 PKD
ROOT
HETATM    1  N   UNK A   1      -7.132  15.581  67.440  1.00  0.00    -0.192 NA 
HETATM    2  H2  UNK A   1      -7.563  16.071  68.224  1.00  0.00     0.000 HD 
HETATM    3  C   UNK A   1      -6.445  14.366  67.861  1.00  0.00    -0.164 C  
HETATM    4  H1  UNK A   1      -6.486  16.176  66.921  1.00  0.00     0.000 HD 
ENDROOT
BRANCH   3   5
HETATM    5  C   UNK A   1      -7.410  13.477  68.636  1.00  0.00    -0.112 C  
BRANCH   5   6
HETATM    6  C   UNK A   1      -8.129  12.474  67.725  1.00  0.00    -0.164 C  
BRANCH   6   7
HETATM    7  C   UNK A   1      -9.205  11.737  68.528  1.00  0.00    -0.152 C  
BRANCH   7   8
HETATM    8  C   UNK A   1     -10.509  12.514  68.779  1.00  0.00    -0.144 C  
BRANCH   8   9
HETATM    9  N   UNK A   1     -11.237  12.101  70.017  1.00  0.00    -0.470 NA 
HETATM   10  H   UNK A   1     -12.087  12.653  70.128  1.00  0.00     0.000 HD 
BRANCH   9  11
HETATM   11  C   UNK A   1     -11.555  10.640  70.100  1.00  0.00    -0.330 C  
HETATM   12  C   UNK A   1     -12.743  10.473  71.066  1.00  0.00    -0.408 C  
HETATM   13  O   UNK A   1     -13.539   9.547  71.039  1.00  0.00    -0.288 OA 
HETATM   14  O   UNK A   1     -12.808  11.480  71.972  1.00  0.00    -0.350 OA 
BRANCH  11  15
HETATM   15  C   UNK A   1     -10.359   9.811  70.620  1.00  0.00    -0.330 C  
BRANCH  15  16
HETATM   16  C   UNK A   1     -10.376   8.352  70.133  1.00  0.00    -0.214 C  
BRANCH  16  17
HETATM   17  C   UNK A   1     -10.537   7.359  71.262  1.00  0.00    -0.231 A  
HETATM   18  C   UNK A   1     -10.450   7.783  72.595  1.00  0.00    -0.363 A  
HETATM   19  C   UNK A   1     -10.837   5.529  73.373  1.00  0.00    -0.332 A  
HETATM   20  C   UNK A   1     -10.601   6.873  73.643  1.00  0.00    -0.371 A  
HETATM   21  C   UNK A   1     -10.941   5.095  72.053  1.00  0.00    -0.143 A  
HETATM   22  C   UNK A   1     -10.794   6.003  71.004  1.00  0.00    -0.345 A  
ENDBRANCH  16  17
ENDBRANCH  15  16
ENDBRANCH  11  15
ENDBRANCH   9  11
ENDBRANCH   8   9
BRANCH   8  23
HETATM   23  C   UNK A   1     -11.514  12.439  67.574  1.00  0.00    -0.346 C  
ATOM     24  OXT PRO A   2      -9.865  16.496  67.918  1.00  0.00    -0.233 OA 
HETATM   25  O   UNK A   1     -12.144  11.402  67.357  1.00  0.00    -0.533 OA 
ATOM     26  N   PRO A   2     -11.726  13.583  66.804  1.00  0.00    -0.369 N  
ATOM     27  CD  PRO A   2     -12.736  13.601  65.751  1.00  0.00    -0.416 C  
ATOM     28  O   PRO A   2     -11.954  15.759  68.368  1.00  0.00    -0.269 OA 
ATOM     29  C   PRO A   2     -10.778  15.716  67.698  1.00  0.00    -0.302 C  
ATOM     30  CA  PRO A   2     -10.746  14.661  66.594  1.00  0.00    -0.305 C  
ATOM     31  CB  PRO A   2     -11.119  15.302  65.254  1.00  0.00    -0.382 C  
ATOM     32  CG  PRO A   2     -12.068  14.313  64.590  1.00  0.00    -0.478 C  
ENDBRANCH   8  23
ENDBRANCH   7   8
ENDBRANCH   6   7
ENDBRANCH   5   6
ENDBRANCH   3   5
TORSDOF 10
ENDMDL
MODEL      112
REMARK 921   NORMALIZED FREE ENERGY PREDICTED BY IDOCK:   -4.82 KCAL/MOL
REMARK 922        TOTAL FREE ENERGY PREDICTED BY IDOCK:   -9.59 KCAL/MOL
REMARK 923 INTER-LIGAND FREE ENERGY PREDICTED BY IDOCK:   -7.67 KCAL/MOL
REMARK 924 INTRA-LIGAND FREE ENERGY PREDICTED BY IDOCK:   -1.92 KCAL/MOL
REMARK 927      BINDING AFFINITY PREDICTED BY RF-SCORE:    0.00 PKD
ROOT
HETATM    1  N   UNK A   1     -12.427  14.060  63.077  1.00  0.00    -0.988 NA 
HETATM    2  H2  UNK A   1     -12.008  14.745  63.707  1.00  0.00     0.000 HD 
HETATM    3  C   UNK A   1     -12.152  12.690  63.489  1.00  0.00    -0.561 C  
HETATM    4  H1  UNK A   1     -12.126  14.192  62.111  1.00  0.00     0.000 HD 
ENDROOT
BRANCH   3   5
HETATM    5  C   UNK A   1     -12.601  12.493  64.933  1.00  0.00    -0.469 C  
BRANCH   5   6
HETATM    6  C   UNK A   1     -11.594  13.073  65.934  1.00  0.00    -0.405 C  
BRANCH   6   7
HETATM    7  C   UNK A   1     -11.514  12.160  67.162  1.00  0.00    -0.413 C  
BRANCH   7   8
HETATM    8  C   UNK A   1     -10.527  12.593  68.260  1.00  0.00    -0.239 C  
BRANCH   8   9
HETATM    9  N   UNK A   1     -10.148  11.498  69.205  1.00  0.00    -0.417 NA 
HETATM   10  H   UNK A   1     -10.980  11.116  69.655  1.00  0.00     0.000 HD 
BRANCH   9  11
HETATM   11  C   UNK A   1      -9.336  10.397  68.597  1.00  0.00    -0.167 C  
HETATM   12  C   UNK A   1      -9.379   9.196  69.561  1.00  0.00    -0.163 C  
HETATM   13  O   UNK A   1      -9.235   8.030  69.229  1.00  0.00    -0.151 OA 
HETATM   14  O   UNK A   1      -9.589   9.581  70.844  1.00  0.00    -0.251 OA 
BRANCH  11  15
HETATM   15  C   UNK A   1      -7.865  10.813  68.370  1.00  0.00    -0.120 C  
BRANCH  15  16
HETATM   16  C   UNK A   1      -7.614  11.419  66.979  1.00  0.00    -0.151 C  
BRANCH  16  17
HETATM   17  C   UNK A   1      -7.915  10.452  65.855  1.00  0.00    -0.151 A  
HETATM   18  C   UNK A   1      -7.180   9.265  65.729  1.00  0.00    -0.090 A  
HETATM   19  C   UNK A   1      -8.461   8.642  63.777  1.00  0.00    -0.066 A  
HETATM   20  C   UNK A   1      -7.454   8.366  64.696  1.00  0.00    -0.098 A  
HETATM   21  C   UNK A   1      -9.209   9.811  63.899  1.00  0.00    -0.248 A  
HETATM   22  C   UNK A   1      -8.940  10.710  64.932  1.00  0.00    -0.218 A  
ENDBRANCH  16  17
ENDBRANCH  15  16
ENDBRANCH  11  15
ENDBRANCH   9  11
ENDBRANCH   8   9
BRANCH   8  23
HETATM   23  C   UNK A   1     -11.041  13.812  69.107  1.00  0.00    -0.240 C  
ATOM     24  OXT PRO A   2      -7.280  14.849  67.088  1.00  0.00    -0.165 OA 
HETATM   25  O   UNK A   1     -12.044  13.696  69.813  1.00  0.00    -0.320 OA 
ATOM     26  N   PRO A   2     -10.303  14.995  69.096  1.00  0.00    -0.242 N  
ATOM     27  CD  PRO A   2     -10.669  16.115  69.957  1.00  0.00    -0.318 C  
ATOM     28  O   PRO A   2      -7.669  14.483  69.284  1.00  0.00    -0.119 OA 
ATOM     29  C   PRO A   2      -8.037  14.884  68.045  1.00  0.00    -0.136 C  
ATOM     30  CA  PRO A   2      -9.452  15.458  67.987  1.00  0.00    -0.201 C  
ATOM     31  CB  PRO A   2      -9.398  16.983  68.117  1.00  0.00    -0.254 C  
ATOM     32  CG  PRO A   2     -10.526  17.341  69.076  1.00  0.00    -0.309 C  
ENDBRANCH   8  23
ENDBRANCH   7   8
ENDBRANCH   6   7
ENDBRANCH   5   6
ENDBRANCH   3   5
TORSDOF 10
ENDMDL
MODEL      113
REMARK 921   NORMALIZED FREE ENERGY PREDICTED BY IDOCK:   -4.81 KCAL/MOL
REMARK 922        TOTAL FREE ENERGY PREDICTED BY IDOCK:   -9.57 KCAL/MOL
REMARK 923 INTER-LIGAND FREE ENERGY PREDICTED BY IDOCK:   -7.27 KCAL/MOL
REMARK 924 INTRA-LIGAND FREE ENERGY PREDICTED BY IDOCK:   -2.31 KCAL/MOL
REMARK 927      BINDING AFFINITY PREDICTED BY RF-SCORE:    0.00 PKD
ROOT
HETATM    1  N   UNK A   1      -9.689   9.869  63.260  1.00  0.00    -0.513 NA 
HETATM    2  H2  UNK A   1      -9.565   9.245  64.057  1.00  0.00     0.000 HD 
HETATM    3  C   UNK A   1     -10.345  11.116  63.632  1.00  0.00    -0.389 C  
HETATM    4  H1  UNK A   1     -10.207   9.424  62.501  1.00  0.00     0.000 HD 
ENDROOT
BRANCH   3   5
HETATM    5  C   UNK A   1      -9.571  11.779  64.765  1.00  0.00    -0.110 C  
BRANCH   5   6
HETATM    6  C   UNK A   1      -9.752  11.040  66.097  1.00  0.00    -0.257 C  
BRANCH   6   7
HETATM    7  C   UNK A   1      -8.446  11.105  66.896  1.00  0.00    -0.147 C  
BRANCH   7   8
HETATM    8  C   UNK A   1      -8.543  11.736  68.295  1.00  0.00    -0.162 C  
BRANCH   8   9
HETATM    9  N   UNK A   1      -7.679  12.942  68.481  1.00  0.00    -0.179 NA 
HETATM   10  H   UNK A   1      -6.866  12.892  67.867  1.00  0.00     0.000 HD 
BRANCH   9  11
HETATM   11  C   UNK A   1      -8.382  14.252  68.303  1.00  0.00    -0.165 C  
HETATM   12  C   UNK A   1      -7.625  15.306  69.132  1.00  0.00    -0.192 C  
HETATM   13  O   UNK A   1      -7.614  16.505  68.894  1.00  0.00    -0.214 OA 
HETATM   14  O   UNK A   1      -6.968  14.753  70.181  1.00  0.00    -0.160 OA 
BRANCH  11  15
HETATM   15  C   UNK A   1      -9.852  14.195  68.774  1.00  0.00    -0.168 C  
BRANCH  15  16
HETATM   16  C   UNK A   1     -10.736  15.280  68.136  1.00  0.00    -0.257 C  
BRANCH  16  17
HETATM   17  C   UNK A   1     -11.281  14.872  66.785  1.00  0.00    -0.338 A  
HETATM   18  C   UNK A   1     -10.903  15.570  65.630  1.00  0.00    -0.354 A  
HETATM   19  C   UNK A   1     -12.280  14.127  64.267  1.00  0.00    -0.449 A  
HETATM   20  C   UNK A   1     -11.399  15.198  64.379  1.00  0.00    -0.211 A  
HETATM   21  C   UNK A   1     -12.653  13.415  65.405  1.00  0.00    -0.528 A  
HETATM   22  C   UNK A   1     -12.157  13.783  66.656  1.00  0.00    -0.471 A  
ENDBRANCH  16  17
ENDBRANCH  15  16
ENDBRANCH  11  15
ENDBRANCH   9  11
ENDBRANCH   8   9
BRANCH   8  23
HETATM   23  C   UNK A   1      -8.223  10.724  69.453  1.00  0.00    -0.023 C  
ATOM     24  OXT PRO A   2     -12.534  10.743  68.606  1.00  0.00    -0.348 OA 
HETATM   25  O   UNK A   1      -7.076  10.629  69.893  1.00  0.00    -0.153 OA 
ATOM     26  N   PRO A   2      -9.270   9.993  70.014  1.00  0.00    -0.173 N  
ATOM     27  CD  PRO A   2      -9.047   9.131  71.169  1.00  0.00    -0.205 C  
ATOM     28  O   PRO A   2     -11.426  11.554  70.402  1.00  0.00    -0.218 OA 
ATOM     29  C   PRO A   2     -11.583  10.691  69.371  1.00  0.00    -0.280 C  
ATOM     30  CA  PRO A   2     -10.508   9.607  69.316  1.00  0.00    -0.217 C  
ATOM     31  CB  PRO A   2     -11.007   8.346  70.028  1.00  0.00    -0.194 C  
ATOM     32  CG  PRO A   2      -9.825   7.866  70.861  1.00  0.00    -0.192 C  
ENDBRANCH   8  23
ENDBRANCH   7   8
ENDBRANCH   6   7
ENDBRANCH   5   6
ENDBRANCH   3   5
TORSDOF 10
ENDMDL
MODEL      114
REMARK 921   NORMALIZED FREE ENERGY PREDICTED BY IDOCK:   -4.80 KCAL/MOL
REMARK 922        TOTAL FREE ENERGY PREDICTED BY IDOCK:   -9.57 KCAL/MOL
REMARK 923 INTER-LIGAND FREE ENERGY PREDICTED BY IDOCK:   -8.52 KCAL/MOL
REMARK 924 INTRA-LIGAND FREE ENERGY PREDICTED BY IDOCK:   -1.05 KCAL/MOL
REMARK 927      BINDING AFFINITY PREDICTED BY RF-SCORE:    0.00 PKD
ROOT
HETATM    1  N   UNK A   1     -11.042   4.991  65.867  1.00  0.00    -0.825 NA 
HETATM    2  H2  UNK A   1     -10.151   4.564  65.617  1.00  0.00     0.000 HD 
HETATM    3  C   UNK A   1     -10.915   5.920  66.983  1.00  0.00    -0.211 C  
HETATM    4  H1  UNK A   1     -11.756   4.294  66.083  1.00  0.00     0.000 HD 
ENDROOT
BRANCH   3   5
HETATM    5  C   UNK A   1      -9.849   6.961  66.659  1.00  0.00    -0.217 C  
BRANCH   5   6
HETATM    6  C   UNK A   1     -10.339   8.390  66.923  1.00  0.00    -0.378 C  
BRANCH   6   7
HETATM    7  C   UNK A   1      -9.387   9.081  67.903  1.00  0.00    -0.155 C  
BRANCH   7   8
HETATM    8  C   UNK A   1     -10.043   9.735  69.132  1.00  0.00    -0.192 C  
BRANCH   8   9
HETATM    9  N   UNK A   1     -10.037  11.230  69.102  1.00  0.00    -0.403 NA 
HETATM   10  H   UNK A   1      -9.249  11.570  68.552  1.00  0.00     0.000 HD 
BRANCH   9  11
HETATM   11  C   UNK A   1     -11.311  11.854  68.623  1.00  0.00    -0.276 C  
HETATM   12  C   UNK A   1     -11.164  12.120  67.113  1.00  0.00    -0.314 C  
HETATM   13  O   UNK A   1     -12.093  12.187  66.323  1.00  0.00    -0.626 OA 
HETATM   14  O   UNK A   1      -9.868  12.284  66.749  1.00  0.00    -0.202 OA 
BRANCH  11  15
HETATM   15  C   UNK A   1     -11.617  13.185  69.345  1.00  0.00    -0.360 C  
BRANCH  15  16
HETATM   16  C   UNK A   1     -11.813  14.366  68.380  1.00  0.00    -0.354 C  
BRANCH  16  17
HETATM   17  C   UNK A   1     -10.725  15.409  68.500  1.00  0.00    -0.256 A  
HETATM   18  C   UNK A   1     -11.018  16.763  68.288  1.00  0.00    -0.327 A  
HETATM   19  C   UNK A   1      -8.718  17.363  68.724  1.00  0.00    -0.223 A  
HETATM   20  C   UNK A   1     -10.019  17.733  68.401  1.00  0.00    -0.362 A  
HETATM   21  C   UNK A   1      -8.416  16.022  68.952  1.00  0.00    -0.232 A  
HETATM   22  C   UNK A   1      -9.412  15.051  68.843  1.00  0.00    -0.211 A  
ENDBRANCH  16  17
ENDBRANCH  15  16
ENDBRANCH  11  15
ENDBRANCH   9  11
ENDBRANCH   8   9
BRANCH   8  23
HETATM   23  C   UNK A   1      -9.407   9.272  70.491  1.00  0.00    -0.264 C  
ATOM     24  OXT PRO A   2     -13.791   9.229  70.776  1.00  0.00    -0.029 OA 
HETATM   25  O   UNK A   1      -8.185   9.290  70.641  1.00  0.00    -0.166 OA 
ATOM     26  N   PRO A   2     -10.254   8.909  71.539  1.00  0.00    -0.300 N  
ATOM     27  CD  PRO A   2      -9.719   8.587  72.858  1.00  0.00    -0.091 C  
ATOM     28  O   PRO A   2     -12.309  10.632  71.748  1.00  0.00    -0.302 OA 
ATOM     29  C   PRO A   2     -12.681   9.433  71.240  1.00  0.00    -0.314 C  
ATOM     30  CA  PRO A   2     -11.609   8.354  71.384  1.00  0.00    -0.284 C  
ATOM     31  CB  PRO A   2     -11.866   7.535  72.653  1.00  0.00    -0.221 C  
ATOM     32  CG  PRO A   2     -10.498   7.363  73.300  1.00  0.00    -0.424 C  
ENDBRANCH   8  23
ENDBRANCH   7   8
ENDBRANCH   6   7
ENDBRANCH   5   6
ENDBRANCH   3   5
TORSDOF 10
ENDMDL
MODEL      115
REMARK 921   NORMALIZED FREE ENERGY PREDICTED BY IDOCK:   -4.79 KCAL/MOL
REMARK 922        TOTAL FREE ENERGY PREDICTED BY IDOCK:   -9.55 KCAL/MOL
REMARK 923 INTER-LIGAND FREE ENERGY PREDICTED BY IDOCK:   -7.83 KCAL/MOL
REMARK 924 INTRA-LIGAND FREE ENERGY PREDICTED BY IDOCK:   -1.72 KCAL/MOL
REMARK 927      BINDING AFFINITY PREDICTED BY RF-SCORE:    0.00 PKD
ROOT
HETATM    1  N   UNK A   1      -7.501  12.033  69.247  1.00  0.00    -0.336 NA 
HETATM    2  H2  UNK A   1      -7.346  12.689  70.012  1.00  0.00     0.000 HD 
HETATM    3  C   UNK A   1      -6.395  11.096  69.092  1.00  0.00    -0.064 C  
HETATM    4  H1  UNK A   1      -7.671  12.508  68.360  1.00  0.00     0.000 HD 
ENDROOT
BRANCH   3   5
HETATM    5  C   UNK A   1      -6.140  10.386  70.417  1.00  0.00    -0.118 C  
BRANCH   5   6
HETATM    6  C   UNK A   1      -6.674   8.948  70.412  1.00  0.00    -0.047 C  
BRANCH   6   7
HETATM    7  C   UNK A   1      -8.089   8.929  70.999  1.00  0.00    -0.205 C  
BRANCH   7   8
HETATM    8  C   UNK A   1      -9.227   8.644  70.004  1.00  0.00    -0.157 C  
BRANCH   8   9
HETATM    9  N   UNK A   1      -8.773   8.484  68.588  1.00  0.00    -0.138 NA 
HETATM   10  H   UNK A   1      -8.155   7.677  68.504  1.00  0.00     0.000 HD 
BRANCH   9  11
HETATM   11  C   UNK A   1      -9.876   8.399  67.581  1.00  0.00    -0.173 C  
HETATM   12  C   UNK A   1     -10.199   6.909  67.364  1.00  0.00    -0.203 C  
HETATM   13  O   UNK A   1     -11.280   6.476  66.993  1.00  0.00    -0.397 OA 
HETATM   14  O   UNK A   1      -9.133   6.113  67.627  1.00  0.00    -0.113 OA 
BRANCH  11  15
HETATM   15  C   UNK A   1      -9.483   9.034  66.228  1.00  0.00    -0.306 C  
BRANCH  15  16
HETATM   16  C   UNK A   1      -9.132  10.527  66.339  1.00  0.00    -0.181 C  
BRANCH  16  17
HETATM   17  C   UNK A   1     -10.016  11.403  65.481  1.00  0.00    -0.282 A  
HETATM   18  C   UNK A   1     -10.329  12.707  65.889  1.00  0.00    -0.295 A  
HETATM   19  C   UNK A   1     -11.656  13.048  63.899  1.00  0.00    -0.508 A  
HETATM   20  C   UNK A   1     -11.142  13.524  65.101  1.00  0.00    -0.326 A  
HETATM   21  C   UNK A   1     -11.341  11.759  63.474  1.00  0.00    -0.496 A  
HETATM   22  C   UNK A   1     -10.526  10.941  64.257  1.00  0.00    -0.405 A  
ENDBRANCH  16  17
ENDBRANCH  15  16
ENDBRANCH  11  15
ENDBRANCH   9  11
ENDBRANCH   8   9
BRANCH   8  23
HETATM   23  C   UNK A   1     -10.359   9.732  70.033  1.00  0.00    -0.263 C  
ATOM     24  OXT PRO A   2     -11.709   6.086  72.078  1.00  0.00    -0.307 OA 
HETATM   25  O   UNK A   1     -10.205  10.802  69.442  1.00  0.00    -0.217 OA 
ATOM     26  N   PRO A   2     -11.560   9.434  70.678  1.00  0.00    -0.274 N  
ATOM     27  CD  PRO A   2     -12.686  10.361  70.631  1.00  0.00    -0.333 C  
ATOM     28  O   PRO A   2     -12.368   6.937  70.090  1.00  0.00    -0.119 OA 
ATOM     29  C   PRO A   2     -11.897   7.051  71.355  1.00  0.00    -0.320 C  
ATOM     30  CA  PRO A   2     -11.711   8.499  71.805  1.00  0.00    -0.327 C  
ATOM     31  CB  PRO A   2     -12.954   8.968  72.566  1.00  0.00    -0.429 C  
ATOM     32  CG  PRO A   2     -13.234  10.372  72.045  1.00  0.00    -0.497 C  
ENDBRANCH   8  23
ENDBRANCH   7   8
ENDBRANCH   6   7
ENDBRANCH   5   6
ENDBRANCH   3   5
TORSDOF 10
ENDMDL
MODEL      116
REMARK 921   NORMALIZED FREE ENERGY PREDICTED BY IDOCK:   -4.78 KCAL/MOL
REMARK 922        TOTAL FREE ENERGY PREDICTED BY IDOCK:   -9.53 KCAL/MOL
REMARK 923 INTER-LIGAND FREE ENERGY PREDICTED BY IDOCK:   -9.21 KCAL/MOL
REMARK 924 INTRA-LIGAND FREE ENERGY PREDICTED BY IDOCK:   -0.32 KCAL/MOL
REMARK 927      BINDING AFFINITY PREDICTED BY RF-SCORE:    0.00 PKD
ROOT
HETATM    1  N   UNK A   1     -11.537  16.217  63.925  1.00  0.00    -1.573 NA 
HETATM    2  H2  UNK A   1     -12.294  15.536  63.860  1.00  0.00     0.000 HD 
HETATM    3  C   UNK A   1     -10.891  16.201  65.231  1.00  0.00    -0.336 C  
HETATM    4  H1  UNK A   1     -11.852  17.164  63.712  1.00  0.00     0.000 HD 
ENDROOT
BRANCH   3   5
HETATM    5  C   UNK A   1     -10.420  14.786  65.548  1.00  0.00    -0.378 C  
BRANCH   5   6
HETATM    6  C   UNK A   1     -10.827  14.346  66.960  1.00  0.00    -0.297 C  
BRANCH   6   7
HETATM    7  C   UNK A   1      -9.812  13.328  67.488  1.00  0.00    -0.220 C  
BRANCH   7   8
HETATM    8  C   UNK A   1     -10.247  11.854  67.439  1.00  0.00    -0.196 C  
BRANCH   8   9
HETATM    9  N   UNK A   1      -9.611  10.995  68.484  1.00  0.00    -0.181 NA 
HETATM   10  H   UNK A   1      -8.781  11.453  68.860  1.00  0.00     0.000 HD 
BRANCH   9  11
HETATM   11  C   UNK A   1     -10.523  10.579  69.596  1.00  0.00    -0.219 C  
HETATM   12  C   UNK A   1     -10.650   9.044  69.548  1.00  0.00    -0.225 C  
HETATM   13  O   UNK A   1     -10.915   8.336  70.508  1.00  0.00    -0.238 OA 
HETATM   14  O   UNK A   1     -10.441   8.554  68.301  1.00  0.00    -0.210 OA 
BRANCH  11  15
HETATM   15  C   UNK A   1     -11.927  11.208  69.466  1.00  0.00    -0.425 C  
BRANCH  15  16
HETATM   16  C   UNK A   1     -12.619  11.431  70.822  1.00  0.00    -0.409 C  
BRANCH  16  17
HETATM   17  C   UNK A   1     -12.835  12.895  71.136  1.00  0.00    -0.326 A  
HETATM   18  C   UNK A   1     -12.331  13.883  70.280  1.00  0.00    -0.413 A  
HETATM   19  C   UNK A   1     -13.229  15.619  71.701  1.00  0.00    -0.554 A  
HETATM   20  C   UNK A   1     -12.529  15.237  70.562  1.00  0.00    -0.454 A  
HETATM   21  C   UNK A   1     -13.749  14.646  72.553  1.00  0.00    -0.572 A  
HETATM   22  C   UNK A   1     -13.555  13.293  72.273  1.00  0.00    -0.703 A  
ENDBRANCH  16  17
ENDBRANCH  15  16
ENDBRANCH  11  15
ENDBRANCH   9  11
ENDBRANCH   8   9
BRANCH   8  23
HETATM   23  C   UNK A   1     -10.000  11.184  66.040  1.00  0.00    -0.236 C  
ATOM     24  OXT PRO A   2      -6.379  10.908  68.512  1.00  0.00    -0.049 OA 
HETATM   25  O   UNK A   1     -10.872  11.226  65.170  1.00  0.00    -0.270 OA 
ATOM     26  N   PRO A   2      -8.756  10.607  65.782  1.00  0.00    -0.177 N  
ATOM     27  CD  PRO A   2      -8.434  10.078  64.461  1.00  0.00    -0.174 C  
ATOM     28  O   PRO A   2      -6.767  12.178  66.682  1.00  0.00     0.018 OA 
ATOM     29  C   PRO A   2      -6.948  11.074  67.445  1.00  0.00    -0.086 C  
ATOM     30  CA  PRO A   2      -7.859  10.031  66.798  1.00  0.00    -0.110 C  
ATOM     31  CB  PRO A   2      -7.012   8.991  66.058  1.00  0.00    -0.085 C  
ATOM     32  CG  PRO A   2      -7.729   8.764  64.734  1.00  0.00    -0.113 C  
ENDBRANCH   8  23
ENDBRANCH   7   8
ENDBRANCH   6   7
ENDBRANCH   5   6
ENDBRANCH   3   5
TORSDOF 10
ENDMDL
MODEL      117
REMARK 921   NORMALIZED FREE ENERGY PREDICTED BY IDOCK:   -4.76 KCAL/MOL
REMARK 922        TOTAL FREE ENERGY PREDICTED BY IDOCK:   -9.50 KCAL/MOL
REMARK 923 INTER-LIGAND FREE ENERGY PREDICTED BY IDOCK:   -8.25 KCAL/MOL
REMARK 924 INTRA-LIGAND FREE ENERGY PREDICTED BY IDOCK:   -1.26 KCAL/MOL
REMARK 927      BINDING AFFINITY PREDICTED BY RF-SCORE:    0.00 PKD
ROOT
HETATM    1  N   UNK A   1     -12.486   6.837  71.986  1.00  0.00    -0.500 NA 
HETATM    2  H2  UNK A   1     -11.742   6.146  72.088  1.00  0.00     0.000 HD 
HETATM    3  C   UNK A   1     -12.019   8.192  72.251  1.00  0.00    -0.377 C  
HETATM    4  H1  UNK A   1     -13.288   6.630  72.581  1.00  0.00     0.000 HD 
ENDROOT
BRANCH   3   5
HETATM    5  C   UNK A   1     -10.820   8.501  71.361  1.00  0.00    -0.327 C  
BRANCH   5   6
HETATM    6  C   UNK A   1     -10.930   9.883  70.704  1.00  0.00    -0.405 C  
BRANCH   6   7
HETATM    7  C   UNK A   1     -11.409   9.722  69.258  1.00  0.00    -0.059 C  
BRANCH   7   8
HETATM    8  C   UNK A   1     -10.328   9.852  68.172  1.00  0.00    -0.195 C  
BRANCH   8   9
HETATM    9  N   UNK A   1     -10.676  10.807  67.076  1.00  0.00    -0.264 NA 
HETATM   10  H   UNK A   1     -11.094  10.307  66.291  1.00  0.00     0.000 HD 
BRANCH   9  11
HETATM   11  C   UNK A   1     -11.554  11.946  67.491  1.00  0.00    -0.304 C  
HETATM   12  C   UNK A   1     -11.894  12.760  66.228  1.00  0.00    -0.423 C  
HETATM   13  O   UNK A   1     -12.895  13.447  66.090  1.00  0.00    -0.255 OA 
HETATM   14  O   UNK A   1     -10.941  12.637  65.272  1.00  0.00    -0.276 OA 
BRANCH  11  15
HETATM   15  C   UNK A   1     -10.865  12.870  68.519  1.00  0.00    -0.283 C  
BRANCH  15  16
HETATM   16  C   UNK A   1     -11.634  14.179  68.769  1.00  0.00    -0.362 C  
BRANCH  16  17
HETATM   17  C   UNK A   1     -12.357  14.191  70.097  1.00  0.00    -0.413 A  
HETATM   18  C   UNK A   1     -12.820  15.397  70.639  1.00  0.00    -0.484 A  
HETATM   19  C   UNK A   1     -13.704  14.233  72.563  1.00  0.00    -0.608 A  
HETATM   20  C   UNK A   1     -13.491  15.416  71.863  1.00  0.00    -0.571 A  
HETATM   21  C   UNK A   1     -13.262  13.024  72.029  1.00  0.00    -0.543 A  
HETATM   22  C   UNK A   1     -12.594  13.001  70.804  1.00  0.00    -0.321 A  
ENDBRANCH  16  17
ENDBRANCH  15  16
ENDBRANCH  11  15
ENDBRANCH   9  11
ENDBRANCH   8   9
BRANCH   8  23
HETATM   23  C   UNK A   1      -9.943   8.477  67.517  1.00  0.00    -0.200 C  
ATOM     24  OXT PRO A   2      -6.574  11.283  67.240  1.00  0.00    -0.076 OA 
HETATM   25  O   UNK A   1     -10.781   7.579  67.423  1.00  0.00    -0.280 OA 
ATOM     26  N   PRO A   2      -8.662   8.322  66.985  1.00  0.00    -0.125 N  
ATOM     27  CD  PRO A   2      -8.293   7.111  66.260  1.00  0.00    -0.129 C  
ATOM     28  O   PRO A   2      -7.929  10.510  65.603  1.00  0.00    -0.157 OA 
ATOM     29  C   PRO A   2      -7.282  10.397  66.788  1.00  0.00    -0.109 C  
ATOM     30  CA  PRO A   2      -7.458   9.031  67.448  1.00  0.00    -0.085 C  
ATOM     31  CB  PRO A   2      -6.279   8.123  67.081  1.00  0.00    -0.055 C  
ATOM     32  CG  PRO A   2      -6.903   6.771  66.761  1.00  0.00    -0.061 C  
ENDBRANCH   8  23
ENDBRANCH   7   8
ENDBRANCH   6   7
ENDBRANCH   5   6
ENDBRANCH   3   5
TORSDOF 10
ENDMDL
MODEL      118
REMARK 921   NORMALIZED FREE ENERGY PREDICTED BY IDOCK:   -4.75 KCAL/MOL
REMARK 922        TOTAL FREE ENERGY PREDICTED BY IDOCK:   -9.48 KCAL/MOL
REMARK 923 INTER-LIGAND FREE ENERGY PREDICTED BY IDOCK:   -7.92 KCAL/MOL
REMARK 924 INTRA-LIGAND FREE ENERGY PREDICTED BY IDOCK:   -1.56 KCAL/MOL
REMARK 927      BINDING AFFINITY PREDICTED BY RF-SCORE:    0.00 PKD
ROOT
HETATM    1  N   UNK A   1     -12.345  11.622  63.008  1.00  0.00    -0.956 NA 
HETATM    2  H2  UNK A   1     -12.439  10.810  63.620  1.00  0.00     0.000 HD 
HETATM    3  C   UNK A   1     -11.521  12.666  63.602  1.00  0.00    -0.495 C  
HETATM    4  H1  UNK A   1     -13.250  12.011  62.743  1.00  0.00     0.000 HD 
ENDROOT
BRANCH   3   5
HETATM    5  C   UNK A   1     -10.168  12.085  63.998  1.00  0.00    -0.391 C  
BRANCH   5   6
HETATM    6  C   UNK A   1     -10.290  10.651  64.530  1.00  0.00    -0.352 C  
BRANCH   6   7
HETATM    7  C   UNK A   1      -8.941  10.204  65.101  1.00  0.00    -0.225 C  
BRANCH   7   8
HETATM    8  C   UNK A   1      -8.981   9.002  66.061  1.00  0.00    -0.185 C  
BRANCH   8   9
HETATM    9  N   UNK A   1      -8.514   9.313  67.446  1.00  0.00    -0.121 NA 
HETATM   10  H   UNK A   1      -7.506   9.468  67.453  1.00  0.00     0.000 HD 
BRANCH   9  11
HETATM   11  C   UNK A   1      -9.218  10.458  68.105  1.00  0.00    -0.145 C  
HETATM   12  C   UNK A   1      -8.189  11.585  68.310  1.00  0.00    -0.152 C  
HETATM   13  O   UNK A   1      -8.462  12.774  68.387  1.00  0.00    -0.164 OA 
HETATM   14  O   UNK A   1      -6.923  11.108  68.407  1.00  0.00    -0.066 OA 
BRANCH  11  15
HETATM   15  C   UNK A   1      -9.818  10.065  69.473  1.00  0.00    -0.249 C  
BRANCH  15  16
HETATM   16  C   UNK A   1     -11.356  10.012  69.468  1.00  0.00    -0.220 C  
BRANCH  16  17
HETATM   17  C   UNK A   1     -11.984  11.135  70.261  1.00  0.00    -0.460 A  
HETATM   18  C   UNK A   1     -11.742  12.470  69.909  1.00  0.00    -0.327 A  
HETATM   19  C   UNK A   1     -13.146  13.237  71.720  1.00  0.00    -0.472 A  
HETATM   20  C   UNK A   1     -12.322  13.514  70.634  1.00  0.00    -0.432 A  
HETATM   21  C   UNK A   1     -13.408  11.914  72.072  1.00  0.00    -0.425 A  
HETATM   22  C   UNK A   1     -12.833  10.869  71.347  1.00  0.00    -0.554 A  
ENDBRANCH  16  17
ENDBRANCH  15  16
ENDBRANCH  11  15
ENDBRANCH   9  11
ENDBRANCH   8   9
BRANCH   8  23
HETATM   23  C   UNK A   1      -8.166   7.767  65.537  1.00  0.00    -0.137 C  
ATOM     24  OXT PRO A   2     -11.271   6.449  68.351  1.00  0.00    -0.320 OA 
HETATM   25  O   UNK A   1      -7.196   7.933  64.795  1.00  0.00    -0.069 OA 
ATOM     26  N   PRO A   2      -8.518   6.492  65.982  1.00  0.00    -0.139 N  
ATOM     27  CD  PRO A   2      -7.721   5.325  65.621  1.00  0.00    -0.087 C  
ATOM     28  O   PRO A   2      -9.028   6.508  68.623  1.00  0.00    -0.127 OA 
ATOM     29  C   PRO A   2     -10.150   6.387  67.874  1.00  0.00    -0.148 C  
ATOM     30  CA  PRO A   2      -9.868   6.081  66.403  1.00  0.00    -0.110 C  
ATOM     31  CB  PRO A   2      -9.931   4.569  66.167  1.00  0.00    -0.267 C  
ATOM     32  CG  PRO A   2      -8.738   4.256  65.273  1.00  0.00    -0.124 C  
ENDBRANCH   8  23
ENDBRANCH   7   8
ENDBRANCH   6   7
ENDBRANCH   5   6
ENDBRANCH   3   5
TORSDOF 10
ENDMDL
MODEL      119
REMARK 921   NORMALIZED FREE ENERGY PREDICTED BY IDOCK:   -4.73 KCAL/MOL
REMARK 922        TOTAL FREE ENERGY PREDICTED BY IDOCK:   -9.46 KCAL/MOL
REMARK 923 INTER-LIGAND FREE ENERGY PREDICTED BY IDOCK:   -8.12 KCAL/MOL
REMARK 924 INTRA-LIGAND FREE ENERGY PREDICTED BY IDOCK:   -1.34 KCAL/MOL
REMARK 927      BINDING AFFINITY PREDICTED BY RF-SCORE:    0.00 PKD
ROOT
HETATM    1  N   UNK A   1      -8.478   9.364  70.902  1.00  0.00    -0.288 NA 
HETATM    2  H2  UNK A   1      -8.404  10.369  71.062  1.00  0.00     0.000 HD 
HETATM    3  C   UNK A   1      -9.785   8.840  71.281  1.00  0.00    -0.265 C  
HETATM    4  H1  UNK A   1      -7.748   8.842  71.388  1.00  0.00     0.000 HD 
ENDROOT
BRANCH   3   5
HETATM    5  C   UNK A   1     -10.876   9.620  70.555  1.00  0.00    -0.371 C  
BRANCH   5   6
HETATM    6  C   UNK A   1     -10.333  10.367  69.330  1.00  0.00    -0.259 C  
BRANCH   6   7
HETATM    7  C   UNK A   1     -11.498  10.752  68.412  1.00  0.00    -0.358 C  
BRANCH   7   8
HETATM    8  C   UNK A   1     -11.123  11.117  66.966  1.00  0.00    -0.273 C  
BRANCH   8   9
HETATM    9  N   UNK A   1     -10.315  10.073  66.264  1.00  0.00    -0.200 NA 
HETATM   10  H   UNK A   1     -10.523  10.077  65.266  1.00  0.00     0.000 HD 
BRANCH   9  11
HETATM   11  C   UNK A   1      -8.837  10.169  66.485  1.00  0.00    -0.140 C  
HETATM   12  C   UNK A   1      -8.158  10.206  65.103  1.00  0.00    -0.148 C  
HETATM   13  O   UNK A   1      -7.071  10.714  64.874  1.00  0.00    -0.027 OA 
HETATM   14  O   UNK A   1      -8.905   9.594  64.152  1.00  0.00    -0.204 OA 
BRANCH  11  15
HETATM   15  C   UNK A   1      -8.288   8.969  67.288  1.00  0.00    -0.111 C  
BRANCH  15  16
HETATM   16  C   UNK A   1      -8.912   7.625  66.873  1.00  0.00    -0.156 C  
BRANCH  16  17
HETATM   17  C   UNK A   1      -9.468   6.850  68.046  1.00  0.00    -0.124 A  
HETATM   18  C   UNK A   1      -8.606   6.164  68.912  1.00  0.00    -0.121 A  
HETATM   19  C   UNK A   1     -10.481   5.406  70.233  1.00  0.00    -0.355 A  
HETATM   20  C   UNK A   1      -9.110   5.449  70.000  1.00  0.00    -0.160 A  
HETATM   21  C   UNK A   1     -11.349   6.095  69.389  1.00  0.00    -0.401 A  
HETATM   22  C   UNK A   1     -10.848   6.814  68.303  1.00  0.00    -0.290 A  
ENDBRANCH  16  17
ENDBRANCH  15  16
ENDBRANCH  11  15
ENDBRANCH   9  11
ENDBRANCH   8   9
BRANCH   8  23
HETATM   23  C   UNK A   1     -10.358  12.484  66.852  1.00  0.00    -0.229 C  
ATOM     24  OXT PRO A   2     -13.090  11.990  63.448  1.00  0.00    -0.747 OA 
HETATM   25  O   UNK A   1      -9.485  12.775  67.672  1.00  0.00    -0.179 OA 
ATOM     26  N   PRO A   2     -10.637  13.322  65.772  1.00  0.00    -0.279 N  
ATOM     27  CD  PRO A   2      -9.871  14.544  65.555  1.00  0.00    -0.285 C  
ATOM     28  O   PRO A   2     -10.831  11.910  63.491  1.00  0.00    -0.387 OA 
ATOM     29  C   PRO A   2     -12.031  12.347  63.940  1.00  0.00    -0.486 C  
ATOM     30  CA  PRO A   2     -11.921  13.386  65.056  1.00  0.00    -0.374 C  
ATOM     31  CB  PRO A   2     -11.991  14.795  64.459  1.00  0.00    -0.451 C  
ATOM     32  CG  PRO A   2     -10.908  15.586  65.181  1.00  0.00    -0.452 C  
ENDBRANCH   8  23
ENDBRANCH   7   8
ENDBRANCH   6   7
ENDBRANCH   5   6
ENDBRANCH   3   5
TORSDOF 10
ENDMDL
MODEL      120
REMARK 921   NORMALIZED FREE ENERGY PREDICTED BY IDOCK:   -4.72 KCAL/MOL
REMARK 922        TOTAL FREE ENERGY PREDICTED BY IDOCK:   -9.43 KCAL/MOL
REMARK 923 INTER-LIGAND FREE ENERGY PREDICTED BY IDOCK:   -7.96 KCAL/MOL
REMARK 924 INTRA-LIGAND FREE ENERGY PREDICTED BY IDOCK:   -1.48 KCAL/MOL
REMARK 927      BINDING AFFINITY PREDICTED BY RF-SCORE:    0.00 PKD
ROOT
HETATM    1  N   UNK A   1     -12.928  12.651  64.803  1.00  0.00    -0.867 NA 
HETATM    2  H2  UNK A   1     -13.256  13.617  64.809  1.00  0.00     0.000 HD 
HETATM    3  C   UNK A   1     -11.703  12.480  65.574  1.00  0.00    -0.409 C  
HETATM    4  H1  UNK A   1     -12.787  12.298  63.856  1.00  0.00     0.000 HD 
ENDROOT
BRANCH   3   5
HETATM    5  C   UNK A   1     -11.914  13.009  66.989  1.00  0.00    -0.409 C  
BRANCH   5   6
HETATM    6  C   UNK A   1     -11.550  11.967  68.054  1.00  0.00    -0.401 C  
BRANCH   6   7
HETATM    7  C   UNK A   1     -11.031  10.699  67.368  1.00  0.00    -0.361 C  
BRANCH   7   8
HETATM    8  C   UNK A   1      -9.598  10.276  67.732  1.00  0.00    -0.152 C  
BRANCH   8   9
HETATM    9  N   UNK A   1      -9.118  10.813  69.043  1.00  0.00    -0.282 NA 
HETATM   10  H   UNK A   1      -9.676  11.620  69.319  1.00  0.00     0.000 HD 
BRANCH   9  11
HETATM   11  C   UNK A   1      -9.071   9.810  70.153  1.00  0.00    -0.197 C  
HETATM   12  C   UNK A   1      -7.590   9.537  70.477  1.00  0.00    -0.149 C  
HETATM   13  O   UNK A   1      -7.172   9.156  71.560  1.00  0.00    -0.277 OA 
HETATM   14  O   UNK A   1      -6.786   9.760  69.408  1.00  0.00    -0.051 OA 
BRANCH  11  15
HETATM   15  C   UNK A   1      -9.759   8.481  69.770  1.00  0.00    -0.179 C  
BRANCH  15  16
HETATM   16  C   UNK A   1     -10.289   7.700  70.984  1.00  0.00    -0.208 C  
BRANCH  16  17
HETATM   17  C   UNK A   1     -11.728   8.029  71.312  1.00  0.00    -0.311 A  
HETATM   18  C   UNK A   1     -12.083   9.325  71.712  1.00  0.00    -0.457 A  
HETATM   19  C   UNK A   1     -14.397   8.662  71.922  1.00  0.00    -0.492 A  
HETATM   20  C   UNK A   1     -13.410   9.638  72.013  1.00  0.00    -0.547 A  
HETATM   21  C   UNK A   1     -14.061   7.373  71.511  1.00  0.00    -0.541 A  
HETATM   22  C   UNK A   1     -12.736   7.058  71.207  1.00  0.00    -0.400 A  
ENDBRANCH  16  17
ENDBRANCH  15  16
ENDBRANCH  11  15
ENDBRANCH   9  11
ENDBRANCH   8   9
BRANCH   8  23
HETATM   23  C   UNK A   1      -8.543  10.659  66.633  1.00  0.00    -0.139 C  
ATOM     24  OXT PRO A   2      -9.101   6.302  66.745  1.00  0.00    -0.126 OA 
HETATM   25  O   UNK A   1      -8.187  11.830  66.497  1.00  0.00    -0.152 OA 
ATOM     26  N   PRO A   2      -7.971   9.641  65.869  1.00  0.00    -0.110 N  
ATOM     27  CD  PRO A   2      -6.901   9.928  64.919  1.00  0.00    -0.127 C  
ATOM     28  O   PRO A   2      -7.325   7.533  67.410  1.00  0.00    -0.093 OA 
ATOM     29  C   PRO A   2      -8.407   7.300  66.629  1.00  0.00    -0.121 C  
ATOM     30  CA  PRO A   2      -8.614   8.357  65.545  1.00  0.00    -0.176 C  
ATOM     31  CB  PRO A   2      -7.967   7.890  64.237  1.00  0.00    -0.130 C  
ATOM     32  CG  PRO A   2      -7.253   9.117  63.687  1.00  0.00    -0.093 C  
ENDBRANCH   8  23
ENDBRANCH   7   8
ENDBRANCH   6   7
ENDBRANCH   5   6
ENDBRANCH   3   5
TORSDOF 10
ENDMDL
MODEL      121
REMARK 921   NORMALIZED FREE ENERGY PREDICTED BY IDOCK:   -4.72 KCAL/MOL
REMARK 922        TOTAL FREE ENERGY PREDICTED BY IDOCK:   -9.43 KCAL/MOL
REMARK 923 INTER-LIGAND FREE ENERGY PREDICTED BY IDOCK:   -8.11 KCAL/MOL
REMARK 924 INTRA-LIGAND FREE ENERGY PREDICTED BY IDOCK:   -1.33 KCAL/MOL
REMARK 927      BINDING AFFINITY PREDICTED BY RF-SCORE:    0.00 PKD
ROOT
HETATM    1  N   UNK A   1     -10.937  11.314  62.941  1.00  0.00    -0.786 NA 
HETATM    2  H2  UNK A   1     -10.313  11.200  63.740  1.00  0.00     0.000 HD 
HETATM    3  C   UNK A   1     -12.217  11.899  63.321  1.00  0.00    -0.374 C  
HETATM    4  H1  UNK A   1     -11.096  10.435  62.449  1.00  0.00     0.000 HD 
ENDROOT
BRANCH   3   5
HETATM    5  C   UNK A   1     -11.978  13.213  64.056  1.00  0.00    -0.524 C  
BRANCH   5   6
HETATM    6  C   UNK A   1     -12.649  13.232  65.435  1.00  0.00    -0.526 C  
BRANCH   6   7
HETATM    7  C   UNK A   1     -11.749  13.973  66.429  1.00  0.00    -0.407 C  
BRANCH   7   8
HETATM    8  C   UNK A   1     -10.939  13.089  67.392  1.00  0.00    -0.260 C  
BRANCH   8   9
HETATM    9  N   UNK A   1     -10.533  11.771  66.815  1.00  0.00    -0.219 NA 
HETATM   10  H   UNK A   1     -11.150  11.519  66.042  1.00  0.00     0.000 HD 
BRANCH   9  11
HETATM   11  C   UNK A   1      -9.102  11.688  66.383  1.00  0.00    -0.206 C  
HETATM   12  C   UNK A   1      -9.023  10.689  65.213  1.00  0.00    -0.190 C  
HETATM   13  O   UNK A   1      -8.163  10.698  64.345  1.00  0.00    -0.111 OA 
HETATM   14  O   UNK A   1     -10.023   9.774  65.256  1.00  0.00    -0.318 OA 
BRANCH  11  15
HETATM   15  C   UNK A   1      -8.175  11.209  67.522  1.00  0.00    -0.119 C  
BRANCH  15  16
HETATM   16  C   UNK A   1      -8.927  10.485  68.652  1.00  0.00    -0.162 C  
BRANCH  16  17
HETATM   17  C   UNK A   1      -9.091   9.004  68.392  1.00  0.00    -0.133 A  
HETATM   18  C   UNK A   1     -10.352   8.403  68.501  1.00  0.00    -0.232 A  
HETATM   19  C   UNK A   1      -9.416   6.255  67.911  1.00  0.00    -0.115 A  
HETATM   20  C   UNK A   1     -10.512   7.037  68.260  1.00  0.00    -0.237 A  
HETATM   21  C   UNK A   1      -8.159   6.843  67.784  1.00  0.00    -0.114 A  
HETATM   22  C   UNK A   1      -7.996   8.208  68.022  1.00  0.00    -0.127 A  
ENDBRANCH  16  17
ENDBRANCH  15  16
ENDBRANCH  11  15
ENDBRANCH   9  11
ENDBRANCH   8   9
BRANCH   8  23
HETATM   23  C   UNK A   1     -11.678  12.818  68.751  1.00  0.00    -0.323 C  
ATOM     24  OXT PRO A   2     -10.140  16.932  68.656  1.00  0.00    -0.257 OA 
HETATM   25  O   UNK A   1     -12.115  11.695  69.006  1.00  0.00    -0.313 OA 
ATOM     26  N   PRO A   2     -11.767  13.852  69.684  1.00  0.00    -0.293 N  
ATOM     27  CD  PRO A   2     -12.336  13.620  71.008  1.00  0.00    -0.354 C  
ATOM     28  O   PRO A   2      -9.430  15.169  69.879  1.00  0.00    -0.130 OA 
ATOM     29  C   PRO A   2     -10.380  15.882  69.230  1.00  0.00    -0.249 C  
ATOM     30  CA  PRO A   2     -11.782  15.289  69.363  1.00  0.00    -0.341 C  
ATOM     31  CB  PRO A   2     -12.521  15.962  70.523  1.00  0.00    -0.241 C  
ATOM     32  CG  PRO A   2     -13.216  14.828  71.265  1.00  0.00    -0.447 C  
ENDBRANCH   8  23
ENDBRANCH   7   8
ENDBRANCH   6   7
ENDBRANCH   5   6
ENDBRANCH   3   5
TORSDOF 10
ENDMDL
MODEL      122
REMARK 921   NORMALIZED FREE ENERGY PREDICTED BY IDOCK:   -4.71 KCAL/MOL
REMARK 922        TOTAL FREE ENERGY PREDICTED BY IDOCK:   -9.42 KCAL/MOL
REMARK 923 INTER-LIGAND FREE ENERGY PREDICTED BY IDOCK:   -7.84 KCAL/MOL
REMARK 924 INTRA-LIGAND FREE ENERGY PREDICTED BY IDOCK:   -1.58 KCAL/MOL
REMARK 927      BINDING AFFINITY PREDICTED BY RF-SCORE:    0.00 PKD
ROOT
HETATM    1  N   UNK A   1     -13.734   7.988  71.955  1.00  0.00    -0.442 NA 
HETATM    2  H2  UNK A   1     -14.588   8.243  71.459  1.00  0.00     0.000 HD 
HETATM    3  C   UNK A   1     -12.602   8.819  71.563  1.00  0.00    -0.326 C  
HETATM    4  H1  UNK A   1     -13.494   7.004  71.829  1.00  0.00     0.000 HD 
ENDROOT
BRANCH   3   5
HETATM    5  C   UNK A   1     -12.960  10.289  71.751  1.00  0.00    -0.574 C  
BRANCH   5   6
HETATM    6  C   UNK A   1     -12.080  11.210  70.898  1.00  0.00    -0.427 C  
BRANCH   6   7
HETATM    7  C   UNK A   1     -12.448  11.041  69.420  1.00  0.00    -0.075 C  
BRANCH   7   8
HETATM    8  C   UNK A   1     -11.398  11.522  68.405  1.00  0.00    -0.279 C  
BRANCH   8   9
HETATM    9  N   UNK A   1      -9.994  11.491  68.919  1.00  0.00    -0.375 NA 
HETATM   10  H   UNK A   1      -9.911  12.069  69.755  1.00  0.00     0.000 HD 
BRANCH   9  11
HETATM   11  C   UNK A   1      -9.451  10.121  69.181  1.00  0.00    -0.206 C  
HETATM   12  C   UNK A   1      -7.917  10.232  69.265  1.00  0.00    -0.149 C  
HETATM   13  O   UNK A   1      -7.195   9.466  69.885  1.00  0.00    -0.064 OA 
HETATM   14  O   UNK A   1      -7.444  11.287  68.555  1.00  0.00    -0.099 OA 
BRANCH  11  15
HETATM   15  C   UNK A   1      -9.826   9.121  68.064  1.00  0.00    -0.197 C  
BRANCH  15  16
HETATM   16  C   UNK A   1     -10.484   7.836  68.597  1.00  0.00    -0.199 C  
BRANCH  16  17
HETATM   17  C   UNK A   1      -9.831   6.580  68.066  1.00  0.00    -0.129 A  
HETATM   18  C   UNK A   1      -8.499   6.284  68.390  1.00  0.00    -0.115 A  
HETATM   19  C   UNK A   1      -8.601   4.248  67.093  1.00  0.00    -0.104 A  
HETATM   20  C   UNK A   1      -7.890   5.124  67.907  1.00  0.00    -0.091 A  
HETATM   21  C   UNK A   1      -9.930   4.521  66.776  1.00  0.00    -0.240 A  
HETATM   22  C   UNK A   1     -10.543   5.678  67.260  1.00  0.00    -0.328 A  
ENDBRANCH  16  17
ENDBRANCH  15  16
ENDBRANCH  11  15
ENDBRANCH   9  11
ENDBRANCH   8   9
BRANCH   8  23
HETATM   23  C   UNK A   1     -11.684  12.966  67.857  1.00  0.00    -0.357 C  
ATOM     24  OXT PRO A   2     -10.242  10.376  64.615  1.00  0.00    -0.346 OA 
HETATM   25  O   UNK A   1     -12.023  13.865  68.629  1.00  0.00    -0.353 OA 
ATOM     26  N   PRO A   2     -11.480  13.223  66.501  1.00  0.00    -0.323 N  
ATOM     27  CD  PRO A   2     -11.615  14.573  65.965  1.00  0.00    -0.356 C  
ATOM     28  O   PRO A   2      -9.194  12.093  65.647  1.00  0.00    -0.108 OA 
ATOM     29  C   PRO A   2     -10.296  11.447  65.200  1.00  0.00    -0.290 C  
ATOM     30  CA  PRO A   2     -11.590  12.228  65.422  1.00  0.00    -0.363 C  
ATOM     31  CB  PRO A   2     -11.936  13.026  64.160  1.00  0.00    -0.494 C  
ATOM     32  CG  PRO A   2     -12.372  14.396  64.663  1.00  0.00    -0.435 C  
ENDBRANCH   8  23
ENDBRANCH   7   8
ENDBRANCH   6   7
ENDBRANCH   5   6
ENDBRANCH   3   5
TORSDOF 10
ENDMDL
MODEL      123
REMARK 921   NORMALIZED FREE ENERGY PREDICTED BY IDOCK:   -4.70 KCAL/MOL
REMARK 922        TOTAL FREE ENERGY PREDICTED BY IDOCK:   -9.40 KCAL/MOL
REMARK 923 INTER-LIGAND FREE ENERGY PREDICTED BY IDOCK:   -8.02 KCAL/MOL
REMARK 924 INTRA-LIGAND FREE ENERGY PREDICTED BY IDOCK:   -1.38 KCAL/MOL
REMARK 927      BINDING AFFINITY PREDICTED BY RF-SCORE:    0.00 PKD
ROOT
HETATM    1  N   UNK A   1     -10.187   4.042  65.837  1.00  0.00    -0.439 NA 
HETATM    2  H2  UNK A   1     -10.933   3.371  66.022  1.00  0.00     0.000 HD 
HETATM    3  C   UNK A   1      -9.852   4.833  67.013  1.00  0.00    -0.200 C  
HETATM    4  H1  UNK A   1     -10.414   4.664  65.060  1.00  0.00     0.000 HD 
ENDROOT
BRANCH   3   5
HETATM    5  C   UNK A   1      -9.514   3.903  68.173  1.00  0.00    -0.219 C  
BRANCH   5   6
HETATM    6  C   UNK A   1      -9.881   4.517  69.530  1.00  0.00    -0.277 C  
BRANCH   6   7
HETATM    7  C   UNK A   1     -10.858   5.677  69.316  1.00  0.00    -0.309 C  
BRANCH   7   8
HETATM    8  C   UNK A   1     -10.811   6.799  70.367  1.00  0.00    -0.262 C  
BRANCH   8   9
HETATM    9  N   UNK A   1     -11.667   7.979  70.037  1.00  0.00    -0.424 NA 
HETATM   10  H   UNK A   1     -12.587   7.672  69.722  1.00  0.00     0.000 HD 
BRANCH   9  11
HETATM   11  C   UNK A   1     -11.807   8.982  71.140  1.00  0.00    -0.301 C  
HETATM   12  C   UNK A   1     -13.055   8.604  71.961  1.00  0.00    -0.381 C  
HETATM   13  O   UNK A   1     -13.228   8.886  73.137  1.00  0.00    -0.221 OA 
HETATM   14  O   UNK A   1     -13.963   7.921  71.222  1.00  0.00    -0.295 OA 
BRANCH  11  15
HETATM   15  C   UNK A   1     -11.970  10.421  70.604  1.00  0.00    -0.448 C  
BRANCH  15  16
HETATM   16  C   UNK A   1     -10.796  10.875  69.719  1.00  0.00    -0.247 C  
BRANCH  16  17
HETATM   17  C   UNK A   1     -11.215  11.856  68.648  1.00  0.00    -0.311 A  
HETATM   18  C   UNK A   1     -11.198  11.479  67.298  1.00  0.00    -0.365 A  
HETATM   19  C   UNK A   1     -11.992  13.665  66.643  1.00  0.00    -0.458 A  
HETATM   20  C   UNK A   1     -11.586  12.379  66.303  1.00  0.00    -0.449 A  
HETATM   21  C   UNK A   1     -12.028  14.049  67.982  1.00  0.00    -0.386 A  
HETATM   22  C   UNK A   1     -11.644  13.151  68.979  1.00  0.00    -0.360 A  
ENDBRANCH  16  17
ENDBRANCH  15  16
ENDBRANCH  11  15
ENDBRANCH   9  11
ENDBRANCH   8   9
BRANCH   8  23
HETATM   23  C   UNK A   1      -9.356   7.317  70.654  1.00  0.00    -0.157 C  
ATOM     24  OXT PRO A   2     -10.871   5.067  74.110  1.00  0.00    -0.291 OA 
HETATM   25  O   UNK A   1      -8.783   8.039  69.836  1.00  0.00    -0.136 OA 
ATOM     26  N   PRO A   2      -8.760   7.002  71.875  1.00  0.00    -0.125 N  
ATOM     27  CD  PRO A   2      -7.461   7.556  72.240  1.00  0.00    -0.074 C  
ATOM     28  O   PRO A   2     -10.511   7.288  73.897  1.00  0.00    -0.353 OA 
ATOM     29  C   PRO A   2     -10.248   5.991  73.611  1.00  0.00    -0.232 C  
ATOM     30  CA  PRO A   2      -9.051   5.804  72.680  1.00  0.00    -0.131 C  
ATOM     31  CB  PRO A   2      -7.788   5.545  73.506  1.00  0.00    -0.103 C  
ATOM     32  CG  PRO A   2      -6.705   6.394  72.853  1.00  0.00    -0.069 C  
ENDBRANCH   8  23
ENDBRANCH   7   8
ENDBRANCH   6   7
ENDBRANCH   5   6
ENDBRANCH   3   5
TORSDOF 10
ENDMDL
MODEL      124
REMARK 921   NORMALIZED FREE ENERGY PREDICTED BY IDOCK:   -4.66 KCAL/MOL
REMARK 922        TOTAL FREE ENERGY PREDICTED BY IDOCK:   -9.33 KCAL/MOL
REMARK 923 INTER-LIGAND FREE ENERGY PREDICTED BY IDOCK:   -9.26 KCAL/MOL
REMARK 924 INTRA-LIGAND FREE ENERGY PREDICTED BY IDOCK:   -0.07 KCAL/MOL
REMARK 927      BINDING AFFINITY PREDICTED BY RF-SCORE:    0.00 PKD
ROOT
HETATM    1  N   UNK A   1      -8.568   5.578  74.394  1.00  0.00    -0.115 NA 
HETATM    2  H2  UNK A   1      -8.008   6.423  74.512  1.00  0.00     0.000 HD 
HETATM    3  C   UNK A   1      -9.993   5.834  74.559  1.00  0.00    -0.278 C  
HETATM    4  H1  UNK A   1      -8.280   4.833  75.029  1.00  0.00     0.000 HD 
ENDROOT
BRANCH   3   5
HETATM    5  C   UNK A   1     -10.424   6.947  73.610  1.00  0.00    -0.400 C  
BRANCH   5   6
HETATM    6  C   UNK A   1      -9.323   7.998  73.416  1.00  0.00    -0.323 C  
BRANCH   6   7
HETATM    7  C   UNK A   1      -8.966   8.092  71.929  1.00  0.00    -0.200 C  
BRANCH   7   8
HETATM    8  C   UNK A   1      -9.746   9.138  71.115  1.00  0.00    -0.290 C  
BRANCH   8   9
HETATM    9  N   UNK A   1     -11.177   8.779  70.871  1.00  0.00    -0.261 NA 
HETATM   10  H   UNK A   1     -11.372   7.844  71.229  1.00  0.00     0.000 HD 
BRANCH   9  11
HETATM   11  C   UNK A   1     -12.172   9.758  71.411  1.00  0.00    -0.397 C  
HETATM   12  C   UNK A   1     -13.376   8.958  71.942  1.00  0.00    -0.405 C  
HETATM   13  O   UNK A   1     -14.135   9.340  72.820  1.00  0.00    -0.481 OA 
HETATM   14  O   UNK A   1     -13.512   7.765  71.313  1.00  0.00    -0.277 OA 
BRANCH  11  15
HETATM   15  C   UNK A   1     -12.659  10.751  70.333  1.00  0.00    -0.395 C  
BRANCH  15  16
HETATM   16  C   UNK A   1     -11.835  12.049  70.288  1.00  0.00    -0.356 C  
BRANCH  16  17
HETATM   17  C   UNK A   1     -12.547  13.218  70.932  1.00  0.00    -0.386 A  
HETATM   18  C   UNK A   1     -13.298  13.031  72.100  1.00  0.00    -0.622 A  
HETATM   19  C   UNK A   1     -13.873  15.377  72.146  1.00  0.00    -0.636 A  
HETATM   20  C   UNK A   1     -13.955  14.106  72.703  1.00  0.00    -0.412 A  
HETATM   21  C   UNK A   1     -13.117  15.581  70.993  1.00  0.00    -0.551 A  
HETATM   22  C   UNK A   1     -12.456  14.510  70.390  1.00  0.00    -0.407 A  
ENDBRANCH  16  17
ENDBRANCH  15  16
ENDBRANCH  11  15
ENDBRANCH   9  11
ENDBRANCH   8   9
BRANCH   8  23
HETATM   23  C   UNK A   1      -9.082   9.462  69.729  1.00  0.00    -0.193 C  
ATOM     24  OXT PRO A   2     -11.228   5.634  69.523  1.00  0.00    -0.249 OA 
HETATM   25  O   UNK A   1      -8.367  10.458  69.602  1.00  0.00    -0.152 OA 
ATOM     26  N   PRO A   2      -9.262   8.568  68.673  1.00  0.00    -0.142 N  
ATOM     27  CD  PRO A   2      -8.570   8.759  67.403  1.00  0.00    -0.126 C  
ATOM     28  O   PRO A   2      -9.002   6.027  69.517  1.00  0.00    -0.129 OA 
ATOM     29  C   PRO A   2     -10.286   6.361  69.248  1.00  0.00    -0.192 C  
ATOM     30  CA  PRO A   2     -10.425   7.684  68.496  1.00  0.00    -0.174 C  
ATOM     31  CB  PRO A   2     -10.515   7.416  66.990  1.00  0.00    -0.404 C  
ATOM     32  CG  PRO A   2      -9.617   8.465  66.346  1.00  0.00    -0.307 C  
ENDBRANCH   8  23
ENDBRANCH   7   8
ENDBRANCH   6   7
ENDBRANCH   5   6
ENDBRANCH   3   5
TORSDOF 10
ENDMDL
MODEL      125
REMARK 921   NORMALIZED FREE ENERGY PREDICTED BY IDOCK:   -4.65 KCAL/MOL
REMARK 922        TOTAL FREE ENERGY PREDICTED BY IDOCK:   -9.32 KCAL/MOL
REMARK 923 INTER-LIGAND FREE ENERGY PREDICTED BY IDOCK:   -8.38 KCAL/MOL
REMARK 924 INTRA-LIGAND FREE ENERGY PREDICTED BY IDOCK:   -0.95 KCAL/MOL
REMARK 927      BINDING AFFINITY PREDICTED BY RF-SCORE:    0.00 PKD
ROOT
HETATM    1  N   UNK A   1     -14.101   8.975  72.985  1.00  0.00    -1.146 NA 
HETATM    2  H2  UNK A   1     -14.848   8.738  72.332  1.00  0.00     0.000 HD 
HETATM    3  C   UNK A   1     -12.829   9.196  72.311  1.00  0.00    -0.401 C  
HETATM    4  H1  UNK A   1     -13.985   8.266  73.710  1.00  0.00     0.000 HD 
ENDROOT
BRANCH   3   5
HETATM    5  C   UNK A   1     -13.003  10.256  71.228  1.00  0.00    -0.517 C  
BRANCH   5   6
HETATM    6  C   UNK A   1     -11.660  10.715  70.648  1.00  0.00    -0.432 C  
BRANCH   6   7
HETATM    7  C   UNK A   1     -11.897  11.406  69.302  1.00  0.00    -0.417 C  
BRANCH   7   8
HETATM    8  C   UNK A   1     -10.867  11.106  68.200  1.00  0.00    -0.219 C  
BRANCH   8   9
HETATM    9  N   UNK A   1     -10.046   9.882  68.450  1.00  0.00    -0.161 NA 
HETATM   10  H   UNK A   1      -9.844   9.789  69.446  1.00  0.00     0.000 HD 
BRANCH   9  11
HETATM   11  C   UNK A   1     -10.635   8.611  67.921  1.00  0.00    -0.161 C  
HETATM   12  C   UNK A   1     -10.519   7.545  69.027  1.00  0.00    -0.208 C  
HETATM   13  O   UNK A   1     -11.255   6.576  69.141  1.00  0.00    -0.318 OA 
HETATM   14  O   UNK A   1      -9.489   7.797  69.871  1.00  0.00    -0.161 OA 
BRANCH  11  15
HETATM   15  C   UNK A   1      -9.903   8.111  66.656  1.00  0.00    -0.331 C  
BRANCH  15  16
HETATM   16  C   UNK A   1      -8.580   7.390  66.966  1.00  0.00    -0.119 C  
BRANCH  16  17
HETATM   17  C   UNK A   1      -8.466   6.051  66.273  1.00  0.00    -0.130 A  
HETATM   18  C   UNK A   1      -8.526   4.863  67.015  1.00  0.00    -0.105 A  
HETATM   19  C   UNK A   1      -8.258   3.553  65.003  1.00  0.00    -0.094 A  
HETATM   20  C   UNK A   1      -8.424   3.623  66.383  1.00  0.00    -0.107 A  
HETATM   21  C   UNK A   1      -8.211   4.725  64.251  1.00  0.00    -0.117 A  
HETATM   22  C   UNK A   1      -8.316   5.966  64.880  1.00  0.00    -0.115 A  
ENDBRANCH  16  17
ENDBRANCH  15  16
ENDBRANCH  11  15
ENDBRANCH   9  11
ENDBRANCH   8   9
BRANCH   8  23
HETATM   23  C   UNK A   1      -9.886  12.303  67.929  1.00  0.00    -0.201 C  
ATOM     24  OXT PRO A   2     -13.213  12.389  65.060  1.00  0.00    -0.607 OA 
HETATM   25  O   UNK A   1      -8.845  12.411  68.578  1.00  0.00    -0.151 OA 
ATOM     26  N   PRO A   2     -10.184  13.194  66.897  1.00  0.00    -0.243 N  
ATOM     27  CD  PRO A   2      -9.249  14.250  66.526  1.00  0.00    -0.235 C  
ATOM     28  O   PRO A   2     -11.038  11.878  64.712  1.00  0.00    -0.303 OA 
ATOM     29  C   PRO A   2     -12.036  12.530  65.354  1.00  0.00    -0.435 C  
ATOM     30  CA  PRO A   2     -11.538  13.512  66.413  1.00  0.00    -0.350 C  
ATOM     31  CB  PRO A   2     -11.440  14.917  65.810  1.00  0.00    -0.281 C  
ATOM     32  CG  PRO A   2     -10.117  15.476  66.317  1.00  0.00    -0.312 C  
ENDBRANCH   8  23
ENDBRANCH   7   8
ENDBRANCH   6   7
ENDBRANCH   5   6
ENDBRANCH   3   5
TORSDOF 10
ENDMDL
MODEL      126
REMARK 921   NORMALIZED FREE ENERGY PREDICTED BY IDOCK:   -4.64 KCAL/MOL
REMARK 922        TOTAL FREE ENERGY PREDICTED BY IDOCK:   -9.31 KCAL/MOL
REMARK 923 INTER-LIGAND FREE ENERGY PREDICTED BY IDOCK:   -8.31 KCAL/MOL
REMARK 924 INTRA-LIGAND FREE ENERGY PREDICTED BY IDOCK:   -1.01 KCAL/MOL
REMARK 927      BINDING AFFINITY PREDICTED BY RF-SCORE:    0.00 PKD
ROOT
HETATM    1  N   UNK A   1     -11.986   5.743  72.559  1.00  0.00    -0.457 NA 
HETATM    2  H2  UNK A   1     -11.844   6.035  71.592  1.00  0.00     0.000 HD 
HETATM    3  C   UNK A   1     -10.756   5.263  73.176  1.00  0.00    -0.266 C  
HETATM    4  H1  UNK A   1     -12.711   5.030  72.643  1.00  0.00     0.000 HD 
ENDROOT
BRANCH   3   5
HETATM    5  C   UNK A   1      -9.673   6.328  73.050  1.00  0.00    -0.158 C  
BRANCH   5   6
HETATM    6  C   UNK A   1      -9.593   6.903  71.630  1.00  0.00    -0.161 C  
BRANCH   6   7
HETATM    7  C   UNK A   1      -9.885   8.407  71.673  1.00  0.00    -0.290 C  
BRANCH   7   8
HETATM    8  C   UNK A   1     -10.365   9.037  70.355  1.00  0.00    -0.212 C  
BRANCH   8   9
HETATM    9  N   UNK A   1     -11.849   9.191  70.257  1.00  0.00    -0.468 NA 
HETATM   10  H   UNK A   1     -12.292   8.279  70.148  1.00  0.00     0.000 HD 
BRANCH   9  11
HETATM   11  C   UNK A   1     -12.478   9.941  71.390  1.00  0.00    -0.398 C  
HETATM   12  C   UNK A   1     -13.668   9.106  71.901  1.00  0.00    -0.424 C  
HETATM   13  O   UNK A   1     -14.117   9.154  73.036  1.00  0.00    -0.406 OA 
HETATM   14  O   UNK A   1     -14.180   8.304  70.934  1.00  0.00    -0.049 OA 
BRANCH  11  15
HETATM   15  C   UNK A   1     -12.986  11.335  70.958  1.00  0.00    -0.304 C  
BRANCH  15  16
HETATM   16  C   UNK A   1     -13.399  12.224  72.143  1.00  0.00    -0.473 C  
BRANCH  16  17
HETATM   17  C   UNK A   1     -12.834  13.623  72.051  1.00  0.00    -0.367 A  
HETATM   18  C   UNK A   1     -12.992  14.520  73.116  1.00  0.00    -0.577 A  
HETATM   19  C   UNK A   1     -11.789  16.227  71.901  1.00  0.00    -0.538 A  
HETATM   20  C   UNK A   1     -12.471  15.814  73.041  1.00  0.00    -0.581 A  
HETATM   21  C   UNK A   1     -11.611  15.341  70.841  1.00  0.00    -0.382 A  
HETATM   22  C   UNK A   1     -12.128  14.047  70.914  1.00  0.00    -0.404 A  
ENDBRANCH  16  17
ENDBRANCH  15  16
ENDBRANCH  11  15
ENDBRANCH   9  11
ENDBRANCH   8   9
BRANCH   8  23
HETATM   23  C   UNK A   1      -9.871   8.259  69.083  1.00  0.00    -0.179 C  
ATOM     24  OXT PRO A   2      -6.692  10.900  70.573  1.00  0.00    -0.292 OA 
HETATM   25  O   UNK A   1     -10.645   7.524  68.467  1.00  0.00    -0.195 OA 
ATOM     26  N   PRO A   2      -8.569   8.473  68.629  1.00  0.00    -0.134 N  
ATOM     27  CD  PRO A   2      -8.100   7.869  67.386  1.00  0.00    -0.123 C  
ATOM     28  O   PRO A   2      -7.947  11.088  68.702  1.00  0.00    -0.127 OA 
ATOM     29  C   PRO A   2      -7.326  10.375  69.671  1.00  0.00    -0.156 C  
ATOM     30  CA  PRO A   2      -7.428   8.864  69.473  1.00  0.00    -0.075 C  
ATOM     31  CB  PRO A   2      -6.182   8.353  68.743  1.00  0.00    -0.045 C  
ATOM     32  CG  PRO A   2      -6.704   7.369  67.705  1.00  0.00    -0.066 C  
ENDBRANCH   8  23
ENDBRANCH   7   8
ENDBRANCH   6   7
ENDBRANCH   5   6
ENDBRANCH   3   5
TORSDOF 10
ENDMDL
MODEL      127
REMARK 921   NORMALIZED FREE ENERGY PREDICTED BY IDOCK:   -4.64 KCAL/MOL
REMARK 922        TOTAL FREE ENERGY PREDICTED BY IDOCK:   -9.31 KCAL/MOL
REMARK 923 INTER-LIGAND FREE ENERGY PREDICTED BY IDOCK:   -6.97 KCAL/MOL
REMARK 924 INTRA-LIGAND FREE ENERGY PREDICTED BY IDOCK:   -2.34 KCAL/MOL
REMARK 927      BINDING AFFINITY PREDICTED BY RF-SCORE:    0.00 PKD
ROOT
HETATM    1  N   UNK A   1      -7.768  10.979  65.649  1.00  0.00    -0.365 NA 
HETATM    2  H2  UNK A   1      -8.120  10.053  65.894  1.00  0.00     0.000 HD 
HETATM    3  C   UNK A   1      -7.991  11.952  66.711  1.00  0.00    -0.087 C  
HETATM    4  H1  UNK A   1      -8.170  11.326  64.778  1.00  0.00     0.000 HD 
ENDROOT
BRANCH   3   5
HETATM    5  C   UNK A   1      -7.390  11.432  68.013  1.00  0.00    -0.090 C  
BRANCH   5   6
HETATM    6  C   UNK A   1      -8.469  11.043  69.031  1.00  0.00    -0.082 C  
BRANCH   6   7
HETATM    7  C   UNK A   1      -7.995   9.827  69.834  1.00  0.00    -0.184 C  
BRANCH   7   8
HETATM    8  C   UNK A   1      -9.045   8.729  70.075  1.00  0.00    -0.160 C  
BRANCH   8   9
HETATM    9  N   UNK A   1      -9.550   8.668  71.481  1.00  0.00    -0.230 NA 
HETATM   10  H   UNK A   1      -8.855   9.049  72.123  1.00  0.00     0.000 HD 
BRANCH   9  11
HETATM   11  C   UNK A   1     -10.876   9.327  71.701  1.00  0.00    -0.348 C  
HETATM   12  C   UNK A   1     -11.823   8.280  72.318  1.00  0.00    -0.388 C  
HETATM   13  O   UNK A   1     -12.786   8.541  73.023  1.00  0.00    -0.218 OA 
HETATM   14  O   UNK A   1     -11.472   7.015  71.980  1.00  0.00    -0.255 OA 
BRANCH  11  15
HETATM   15  C   UNK A   1     -11.491   9.855  70.387  1.00  0.00    -0.372 C  
BRANCH  15  16
HETATM   16  C   UNK A   1     -12.372  11.100  70.587  1.00  0.00    -0.482 C  
BRANCH  16  17
HETATM   17  C   UNK A   1     -12.084  12.191  69.580  1.00  0.00    -0.263 A  
HETATM   18  C   UNK A   1     -12.053  13.533  69.981  1.00  0.00    -0.411 A  
HETATM   19  C   UNK A   1     -11.548  14.231  67.723  1.00  0.00    -0.383 A  
HETATM   20  C   UNK A   1     -11.785  14.546  69.057  1.00  0.00    -0.346 A  
HETATM   21  C   UNK A   1     -11.560  12.899  67.313  1.00  0.00    -0.416 A  
HETATM   22  C   UNK A   1     -11.825  11.885  68.234  1.00  0.00    -0.343 A  
ENDBRANCH  16  17
ENDBRANCH  15  16
ENDBRANCH  11  15
ENDBRANCH   9  11
ENDBRANCH   8   9
BRANCH   8  23
HETATM   23  C   UNK A   1      -8.543   7.296  69.675  1.00  0.00    -0.137 C  
ATOM     24  OXT PRO A   2     -10.257   9.331  66.179  1.00  0.00    -0.273 OA 
HETATM   25  O   UNK A   1      -8.099   6.532  70.534  1.00  0.00    -0.113 OA 
ATOM     26  N   PRO A   2      -8.675   6.884  68.348  1.00  0.00    -0.125 N  
ATOM     27  CD  PRO A   2      -8.335   5.523  67.948  1.00  0.00    -0.099 C  
ATOM     28  O   PRO A   2     -11.076   7.588  67.363  1.00  0.00    -0.159 OA 
ATOM     29  C   PRO A   2     -10.066   8.340  66.866  1.00  0.00    -0.296 C  
ATOM     30  CA  PRO A   2      -8.680   7.777  67.178  1.00  0.00    -0.125 C  
ATOM     31  CB  PRO A   2      -8.193   6.921  66.004  1.00  0.00    -0.125 C  
ATOM     32  CG  PRO A   2      -7.580   5.682  66.643  1.00  0.00    -0.092 C  
ENDBRANCH   8  23
ENDBRANCH   7   8
ENDBRANCH   6   7
ENDBRANCH   5   6
ENDBRANCH   3   5
TORSDOF 10
ENDMDL
MODEL      128
REMARK 921   NORMALIZED FREE ENERGY PREDICTED BY IDOCK:   -4.63 KCAL/MOL
REMARK 922        TOTAL FREE ENERGY PREDICTED BY IDOCK:   -9.29 KCAL/MOL
REMARK 923 INTER-LIGAND FREE ENERGY PREDICTED BY IDOCK:   -7.77 KCAL/MOL
REMARK 924 INTRA-LIGAND FREE ENERGY PREDICTED BY IDOCK:   -1.53 KCAL/MOL
REMARK 927      BINDING AFFINITY PREDICTED BY RF-SCORE:    0.00 PKD
ROOT
HETATM    1  N   UNK A   1      -5.337  15.564  67.267  1.00  0.00    -0.329 NA 
HETATM    2  H2  UNK A   1      -5.067  14.931  66.513  1.00  0.00     0.000 HD 
HETATM    3  C   UNK A   1      -6.672  15.276  67.776  1.00  0.00    -0.167 C  
HETATM    4  H1  UNK A   1      -5.283  16.543  66.985  1.00  0.00     0.000 HD 
ENDROOT
BRANCH   3   5
HETATM    5  C   UNK A   1      -6.753  13.813  68.196  1.00  0.00    -0.124 C  
BRANCH   5   6
HETATM    6  C   UNK A   1      -7.785  13.033  67.373  1.00  0.00    -0.159 C  
BRANCH   6   7
HETATM    7  C   UNK A   1      -8.743  12.302  68.319  1.00  0.00    -0.178 C  
BRANCH   7   8
HETATM    8  C   UNK A   1     -10.126  11.955  67.742  1.00  0.00    -0.191 C  
BRANCH   8   9
HETATM    9  N   UNK A   1     -11.237  12.806  68.267  1.00  0.00    -0.252 NA 
HETATM   10  H   UNK A   1     -11.628  12.394  69.114  1.00  0.00     0.000 HD 
BRANCH   9  11
HETATM   11  C   UNK A   1     -10.872  14.238  68.508  1.00  0.00    -0.253 C  
HETATM   12  C   UNK A   1     -11.598  14.697  69.787  1.00  0.00    -0.296 C  
HETATM   13  O   UNK A   1     -11.216  15.597  70.520  1.00  0.00    -0.302 OA 
HETATM   14  O   UNK A   1     -12.733  13.990  70.010  1.00  0.00    -0.276 OA 
BRANCH  11  15
HETATM   15  C   UNK A   1     -11.285  15.152  67.334  1.00  0.00    -0.323 C  
BRANCH  15  16
HETATM   16  C   UNK A   1     -10.098  15.890  66.693  1.00  0.00    -0.287 C  
BRANCH  16  17
HETATM   17  C   UNK A   1     -10.105  17.374  66.981  1.00  0.00    -0.313 A  
HETATM   18  C   UNK A   1      -9.848  17.844  68.276  1.00  0.00    -0.348 A  
HETATM   19  C   UNK A   1     -10.110  20.129  67.535  1.00  0.00    -0.549 A  
HETATM   20  C   UNK A   1      -9.850  19.214  68.549  1.00  0.00    -0.483 A  
HETATM   21  C   UNK A   1     -10.352  19.677  66.239  1.00  0.00    -0.619 A  
HETATM   22  C   UNK A   1     -10.348  18.309  65.962  1.00  0.00    -0.377 A  
ENDBRANCH  16  17
ENDBRANCH  15  16
ENDBRANCH  11  15
ENDBRANCH   9  11
ENDBRANCH   8   9
BRANCH   8  23
HETATM   23  C   UNK A   1     -10.523  10.450  67.953  1.00  0.00    -0.209 C  
ATOM     24  OXT PRO A   2      -8.398  10.935  64.138  1.00  0.00    -0.004 OA 
HETATM   25  O   UNK A   1     -11.197  10.118  68.929  1.00  0.00    -0.225 OA 
ATOM     26  N   PRO A   2     -10.159   9.517  66.981  1.00  0.00    -0.217 N  
ATOM     27  CD  PRO A   2     -10.605   8.131  67.069  1.00  0.00    -0.275 C  
ATOM     28  O   PRO A   2     -10.583  10.492  64.511  1.00  0.00    -0.246 OA 
ATOM     29  C   PRO A   2      -9.269  10.437  64.834  1.00  0.00    -0.221 C  
ATOM     30  CA  PRO A   2      -8.987   9.624  66.096  1.00  0.00    -0.154 C  
ATOM     31  CB  PRO A   2      -8.625   8.186  65.715  1.00  0.00    -0.175 C  
ATOM     32  CG  PRO A   2      -9.383   7.310  66.704  1.00  0.00    -0.215 C  
ENDBRANCH   8  23
ENDBRANCH   7   8
ENDBRANCH   6   7
ENDBRANCH   5   6
ENDBRANCH   3   5
TORSDOF 10
ENDMDL
MODEL      129
REMARK 921   NORMALIZED FREE ENERGY PREDICTED BY IDOCK:   -4.62 KCAL/MOL
REMARK 922        TOTAL FREE ENERGY PREDICTED BY IDOCK:   -9.28 KCAL/MOL
REMARK 923 INTER-LIGAND FREE ENERGY PREDICTED BY IDOCK:   -7.76 KCAL/MOL
REMARK 924 INTRA-LIGAND FREE ENERGY PREDICTED BY IDOCK:   -1.52 KCAL/MOL
REMARK 927      BINDING AFFINITY PREDICTED BY RF-SCORE:    0.00 PKD
ROOT
HETATM    1  N   UNK A   1      -6.364  21.108  65.188  1.00  0.00    -0.453 NA 
HETATM    2  H2  UNK A   1      -6.999  20.882  64.422  1.00  0.00     0.000 HD 
HETATM    3  C   UNK A   1      -6.256  20.021  66.153  1.00  0.00    -0.183 C  
HETATM    4  H1  UNK A   1      -6.634  21.966  65.670  1.00  0.00     0.000 HD 
ENDROOT
BRANCH   3   5
HETATM    5  C   UNK A   1      -5.854  18.739  65.432  1.00  0.00    -0.261 C  
BRANCH   5   6
HETATM    6  C   UNK A   1      -6.274  17.485  66.209  1.00  0.00    -0.267 C  
BRANCH   6   7
HETATM    7  C   UNK A   1      -7.768  17.227  65.987  1.00  0.00    -0.223 C  
BRANCH   7   8
HETATM    8  C   UNK A   1      -8.396  16.121  66.852  1.00  0.00    -0.236 C  
BRANCH   8   9
HETATM    9  N   UNK A   1      -9.889  16.078  66.798  1.00  0.00    -0.241 NA 
HETATM   10  H   UNK A   1     -10.238  16.761  66.126  1.00  0.00     0.000 HD 
BRANCH   9  11
HETATM   11  C   UNK A   1     -10.469  14.728  66.511  1.00  0.00    -0.291 C  
HETATM   12  C   UNK A   1     -10.846  14.687  65.018  1.00  0.00    -0.417 C  
HETATM   13  O   UNK A   1     -10.912  13.671  64.343  1.00  0.00    -0.386 OA 
HETATM   14  O   UNK A   1     -11.111  15.923  64.526  1.00  0.00    -0.495 OA 
BRANCH  11  15
HETATM   15  C   UNK A   1     -11.727  14.440  67.360  1.00  0.00    -0.424 C  
BRANCH  15  16
HETATM   16  C   UNK A   1     -11.650  15.031  68.778  1.00  0.00    -0.357 C  
BRANCH  16  17
HETATM   17  C   UNK A   1     -12.118  14.065  69.842  1.00  0.00    -0.406 A  
HETATM   18  C   UNK A   1     -11.807  12.702  69.745  1.00  0.00    -0.379 A  
HETATM   19  C   UNK A   1     -12.975  12.254  71.812  1.00  0.00    -0.431 A  
HETATM   20  C   UNK A   1     -12.233  11.803  70.726  1.00  0.00    -0.424 A  
HETATM   21  C   UNK A   1     -13.278  13.609  71.930  1.00  0.00    -0.497 A  
HETATM   22  C   UNK A   1     -12.852  14.510  70.953  1.00  0.00    -0.425 A  
ENDBRANCH  16  17
ENDBRANCH  15  16
ENDBRANCH  11  15
ENDBRANCH   9  11
ENDBRANCH   8   9
BRANCH   8  23
HETATM   23  C   UNK A   1      -7.965  16.198  68.361  1.00  0.00    -0.162 C  
ATOM     24  OXT PRO A   2      -6.527  12.455  66.565  1.00  0.00     0.126 OA 
HETATM   25  O   UNK A   1      -8.340  17.137  69.065  1.00  0.00    -0.220 OA 
ATOM     26  N   PRO A   2      -7.214  15.152  68.899  1.00  0.00    -0.123 N  
ATOM     27  CD  PRO A   2      -6.891  15.117  70.321  1.00  0.00     0.048 C  
ATOM     28  O   PRO A   2      -8.168  12.772  68.087  1.00  0.00    -0.152 OA 
ATOM     29  C   PRO A   2      -6.997  13.099  67.490  1.00  0.00    -0.149 C  
ATOM     30  CA  PRO A   2      -6.294  14.288  68.141  1.00  0.00    -0.132 C  
ATOM     31  CB  PRO A   2      -5.266  13.787  69.160  1.00  0.00    -0.077 C  
ATOM     32  CG  PRO A   2      -5.436  14.690  70.374  1.00  0.00    -0.126 C  
ENDBRANCH   8  23
ENDBRANCH   7   8
ENDBRANCH   6   7
ENDBRANCH   5   6
ENDBRANCH   3   5
TORSDOF 10
ENDMDL
MODEL      130
REMARK 921   NORMALIZED FREE ENERGY PREDICTED BY IDOCK:   -4.61 KCAL/MOL
REMARK 922        TOTAL FREE ENERGY PREDICTED BY IDOCK:   -9.26 KCAL/MOL
REMARK 923 INTER-LIGAND FREE ENERGY PREDICTED BY IDOCK:   -7.38 KCAL/MOL
REMARK 924 INTRA-LIGAND FREE ENERGY PREDICTED BY IDOCK:   -1.88 KCAL/MOL
REMARK 927      BINDING AFFINITY PREDICTED BY RF-SCORE:    0.00 PKD
ROOT
HETATM    1  N   UNK A   1      -7.506  10.215  65.170  1.00  0.00    -0.139 NA 
HETATM    2  H2  UNK A   1      -7.439  10.048  66.174  1.00  0.00     0.000 HD 
HETATM    3  C   UNK A   1      -8.697   9.611  64.588  1.00  0.00    -0.201 C  
HETATM    4  H1  UNK A   1      -6.679   9.889  64.669  1.00  0.00     0.000 HD 
ENDROOT
BRANCH   3   5
HETATM    5  C   UNK A   1      -9.933  10.099  65.337  1.00  0.00    -0.377 C  
BRANCH   5   6
HETATM    6  C   UNK A   1     -10.192  11.594  65.109  1.00  0.00    -0.319 C  
BRANCH   6   7
HETATM    7  C   UNK A   1     -11.435  12.020  65.897  1.00  0.00    -0.392 C  
BRANCH   7   8
HETATM    8  C   UNK A   1     -11.225  12.278  67.398  1.00  0.00    -0.301 C  
BRANCH   8   9
HETATM    9  N   UNK A   1     -12.149  11.507  68.285  1.00  0.00    -0.575 NA 
HETATM   10  H   UNK A   1     -12.883  11.066  67.732  1.00  0.00     0.000 HD 
BRANCH   9  11
HETATM   11  C   UNK A   1     -11.479  10.492  69.159  1.00  0.00    -0.247 C  
HETATM   12  C   UNK A   1     -11.902  10.774  70.613  1.00  0.00    -0.360 C  
HETATM   13  O   UNK A   1     -11.935   9.939  71.504  1.00  0.00    -0.379 OA 
HETATM   14  O   UNK A   1     -12.231  12.075  70.804  1.00  0.00    -0.377 OA 
BRANCH  11  15
HETATM   15  C   UNK A   1      -9.939  10.558  69.057  1.00  0.00    -0.223 C  
BRANCH  15  16
HETATM   16  C   UNK A   1      -9.295   9.200  68.732  1.00  0.00    -0.139 C  
BRANCH  16  17
HETATM   17  C   UNK A   1      -9.775   8.090  69.640  1.00  0.00    -0.169 A  
HETATM   18  C   UNK A   1     -10.726   7.166  69.184  1.00  0.00    -0.216 A  
HETATM   19  C   UNK A   1     -10.678   6.019  71.310  1.00  0.00    -0.320 A  
HETATM   20  C   UNK A   1     -11.172   6.137  70.015  1.00  0.00    -0.471 A  
HETATM   21  C   UNK A   1      -9.722   6.921  71.771  1.00  0.00    -0.163 A  
HETATM   22  C   UNK A   1      -9.271   7.949  70.942  1.00  0.00    -0.160 A  
ENDBRANCH  16  17
ENDBRANCH  15  16
ENDBRANCH  11  15
ENDBRANCH   9  11
ENDBRANCH   8   9
BRANCH   8  23
HETATM   23  C   UNK A   1     -11.334  13.797  67.785  1.00  0.00    -0.303 C  
ATOM     24  OXT PRO A   2      -7.174  12.778  66.805  1.00  0.00     0.160 OA 
HETATM   25  O   UNK A   1     -12.408  14.263  68.169  1.00  0.00    -0.212 OA 
ATOM     26  N   PRO A   2     -10.181  14.583  67.750  1.00  0.00    -0.225 N  
ATOM     27  CD  PRO A   2     -10.203  15.966  68.213  1.00  0.00    -0.227 C  
ATOM     28  O   PRO A   2      -8.092  13.264  68.813  1.00  0.00    -0.067 OA 
ATOM     29  C   PRO A   2      -8.015  13.367  67.465  1.00  0.00    -0.183 C  
ATOM     30  CA  PRO A   2      -9.021  14.353  66.873  1.00  0.00    -0.243 C  
ATOM     31  CB  PRO A   2      -8.361  15.724  66.696  1.00  0.00    -0.319 C  
ATOM     32  CG  PRO A   2      -9.396  16.730  67.182  1.00  0.00    -0.236 C  
ENDBRANCH   8  23
ENDBRANCH   7   8
ENDBRANCH   6   7
ENDBRANCH   5   6
ENDBRANCH   3   5
TORSDOF 10
ENDMDL
MODEL      131
REMARK 921   NORMALIZED FREE ENERGY PREDICTED BY IDOCK:   -4.60 KCAL/MOL
REMARK 922        TOTAL FREE ENERGY PREDICTED BY IDOCK:   -9.25 KCAL/MOL
REMARK 923 INTER-LIGAND FREE ENERGY PREDICTED BY IDOCK:   -8.21 KCAL/MOL
REMARK 924 INTRA-LIGAND FREE ENERGY PREDICTED BY IDOCK:   -1.04 KCAL/MOL
REMARK 927      BINDING AFFINITY PREDICTED BY RF-SCORE:    0.00 PKD
ROOT
HETATM    1  N   UNK A   1      -9.450   4.667  64.428  1.00  0.00    -0.330 NA 
HETATM    2  H2  UNK A   1     -10.194   5.079  63.865  1.00  0.00     0.000 HD 
HETATM    3  C   UNK A   1      -9.302   5.331  65.717  1.00  0.00    -0.139 C  
HETATM    4  H1  UNK A   1      -8.553   4.667  63.940  1.00  0.00     0.000 HD 
ENDROOT
BRANCH   3   5
HETATM    5  C   UNK A   1     -10.641   5.331  66.446  1.00  0.00    -0.338 C  
BRANCH   5   6
HETATM    6  C   UNK A   1     -10.995   6.715  67.003  1.00  0.00    -0.463 C  
BRANCH   6   7
HETATM    7  C   UNK A   1      -9.925   7.145  68.012  1.00  0.00    -0.184 C  
BRANCH   7   8
HETATM    8  C   UNK A   1     -10.275   8.362  68.887  1.00  0.00    -0.210 C  
BRANCH   8   9
HETATM    9  N   UNK A   1     -10.273   9.663  68.150  1.00  0.00    -0.180 NA 
HETATM   10  H   UNK A   1     -11.109   9.742  67.571  1.00  0.00     0.000 HD 
BRANCH   9  11
HETATM   11  C   UNK A   1     -10.127  10.875  69.017  1.00  0.00    -0.196 C  
HETATM   12  C   UNK A   1     -11.536  11.445  69.266  1.00  0.00    -0.317 C  
HETATM   13  O   UNK A   1     -11.856  12.112  70.239  1.00  0.00    -0.329 OA 
HETATM   14  O   UNK A   1     -12.398  11.129  68.268  1.00  0.00    -0.532 OA 
BRANCH  11  15
HETATM   15  C   UNK A   1      -9.250  11.962  68.357  1.00  0.00    -0.173 C  
BRANCH  15  16
HETATM   16  C   UNK A   1      -9.089  11.772  66.839  1.00  0.00    -0.192 C  
BRANCH  16  17
HETATM   17  C   UNK A   1     -10.165  12.477  66.043  1.00  0.00    -0.269 A  
HETATM   18  C   UNK A   1     -11.028  11.743  65.217  1.00  0.00    -0.350 A  
HETATM   19  C   UNK A   1     -12.172  13.767  64.558  1.00  0.00    -0.441 A  
HETATM   20  C   UNK A   1     -12.026  12.385  64.481  1.00  0.00    -0.474 A  
HETATM   21  C   UNK A   1     -11.331  14.507  65.387  1.00  0.00    -0.341 A  
HETATM   22  C   UNK A   1     -10.335  13.868  66.126  1.00  0.00    -0.303 A  
ENDBRANCH  16  17
ENDBRANCH  15  16
ENDBRANCH  11  15
ENDBRANCH   9  11
ENDBRANCH   8   9
BRANCH   8  23
HETATM   23  C   UNK A   1      -9.341   8.510  70.141  1.00  0.00    -0.161 C  
ATOM     24  OXT PRO A   2     -13.326   7.132  71.375  1.00  0.00    -0.381 OA 
HETATM   25  O   UNK A   1      -8.201   8.961  70.014  1.00  0.00    -0.106 OA 
ATOM     26  N   PRO A   2      -9.850   8.188  71.399  1.00  0.00    -0.167 N  
ATOM     27  CD  PRO A   2      -9.066   8.421  72.607  1.00  0.00    -0.241 C  
ATOM     28  O   PRO A   2     -12.347   9.144  71.695  1.00  0.00    -0.317 OA 
ATOM     29  C   PRO A   2     -12.316   7.800  71.535  1.00  0.00    -0.320 C  
ATOM     30  CA  PRO A   2     -10.915   7.205  71.659  1.00  0.00    -0.228 C  
ATOM     31  CB  PRO A   2     -10.685   6.718  73.094  1.00  0.00    -0.326 C  
ATOM     32  CG  PRO A   2      -9.276   7.176  73.448  1.00  0.00    -0.206 C  
ENDBRANCH   8  23
ENDBRANCH   7   8
ENDBRANCH   6   7
ENDBRANCH   5   6
ENDBRANCH   3   5
TORSDOF 10
ENDMDL
MODEL      132
REMARK 921   NORMALIZED FREE ENERGY PREDICTED BY IDOCK:   -4.58 KCAL/MOL
REMARK 922        TOTAL FREE ENERGY PREDICTED BY IDOCK:   -9.21 KCAL/MOL
REMARK 923 INTER-LIGAND FREE ENERGY PREDICTED BY IDOCK:   -7.42 KCAL/MOL
REMARK 924 INTRA-LIGAND FREE ENERGY PREDICTED BY IDOCK:   -1.79 KCAL/MOL
REMARK 927      BINDING AFFINITY PREDICTED BY RF-SCORE:    0.00 PKD
ROOT
HETATM    1  N   UNK A   1     -10.830   5.523  66.089  1.00  0.00    -0.706 NA 
HETATM    2  H2  UNK A   1      -9.853   5.527  65.795  1.00  0.00     0.000 HD 
HETATM    3  C   UNK A   1     -11.055   6.353  67.266  1.00  0.00    -0.330 C  
HETATM    4  H1  UNK A   1     -11.174   4.579  66.267  1.00  0.00     0.000 HD 
ENDROOT
BRANCH   3   5
HETATM    5  C   UNK A   1     -10.540   7.764  67.000  1.00  0.00    -0.396 C  
BRANCH   5   6
HETATM    6  C   UNK A   1      -9.168   7.757  66.315  1.00  0.00    -0.217 C  
BRANCH   6   7
HETATM    7  C   UNK A   1      -8.099   8.211  67.315  1.00  0.00    -0.121 C  
BRANCH   7   8
HETATM    8  C   UNK A   1      -8.577   8.420  68.762  1.00  0.00    -0.135 C  
BRANCH   8   9
HETATM    9  N   UNK A   1      -8.451   9.829  69.247  1.00  0.00    -0.139 NA 
HETATM   10  H   UNK A   1      -7.649   9.918  69.870  1.00  0.00     0.000 HD 
BRANCH   9  11
HETATM   11  C   UNK A   1      -8.385  10.862  68.167  1.00  0.00    -0.123 C  
HETATM   12  C   UNK A   1      -7.165  11.759  68.449  1.00  0.00    -0.089 C  
HETATM   13  O   UNK A   1      -6.547  12.383  67.600  1.00  0.00    -0.099 OA 
HETATM   14  O   UNK A   1      -6.849  11.788  69.767  1.00  0.00    -0.054 OA 
BRANCH  11  15
HETATM   15  C   UNK A   1      -9.657  11.739  68.118  1.00  0.00    -0.193 C  
BRANCH  15  16
HETATM   16  C   UNK A   1     -10.796  11.108  67.299  1.00  0.00    -0.326 C  
BRANCH  16  17
HETATM   17  C   UNK A   1     -11.305  12.018  66.204  1.00  0.00    -0.407 A  
HETATM   18  C   UNK A   1     -12.098  13.130  66.520  1.00  0.00    -0.423 A  
HETATM   19  C   UNK A   1     -12.256  13.722  64.183  1.00  0.00    -0.443 A  
HETATM   20  C   UNK A   1     -12.568  13.977  65.514  1.00  0.00    -0.543 A  
HETATM   21  C   UNK A   1     -11.456  12.630  63.855  1.00  0.00    -0.509 A  
HETATM   22  C   UNK A   1     -10.981  11.783  64.858  1.00  0.00    -0.358 A  
ENDBRANCH  16  17
ENDBRANCH  15  16
ENDBRANCH  11  15
ENDBRANCH   9  11
ENDBRANCH   8   9
BRANCH   8  23
HETATM   23  C   UNK A   1      -7.851   7.483  69.793  1.00  0.00    -0.108 C  
ATOM     24  OXT PRO A   2     -12.047   8.061  70.962  1.00  0.00    -0.292 OA 
HETATM   25  O   UNK A   1      -6.644   7.260  69.685  1.00  0.00    -0.039 OA 
ATOM     26  N   PRO A   2      -8.584   6.970  70.864  1.00  0.00    -0.138 N  
ATOM     27  CD  PRO A   2      -7.932   6.194  71.914  1.00  0.00    -0.106 C  
ATOM     28  O   PRO A   2     -10.169   8.861  71.933  1.00  0.00    -0.324 OA 
ATOM     29  C   PRO A   2     -10.860   7.940  71.221  1.00  0.00    -0.235 C  
ATOM     30  CA  PRO A   2     -10.032   6.708  70.856  1.00  0.00    -0.187 C  
ATOM     31  CB  PRO A   2     -10.258   5.606  71.895  1.00  0.00    -0.244 C  
ATOM     32  CG  PRO A   2      -8.874   5.035  72.176  1.00  0.00    -0.137 C  
ENDBRANCH   8  23
ENDBRANCH   7   8
ENDBRANCH   6   7
ENDBRANCH   5   6
ENDBRANCH   3   5
TORSDOF 10
ENDMDL
MODEL      133
REMARK 921   NORMALIZED FREE ENERGY PREDICTED BY IDOCK:   -4.57 KCAL/MOL
REMARK 922        TOTAL FREE ENERGY PREDICTED BY IDOCK:   -9.19 KCAL/MOL
REMARK 923 INTER-LIGAND FREE ENERGY PREDICTED BY IDOCK:   -8.14 KCAL/MOL
REMARK 924 INTRA-LIGAND FREE ENERGY PREDICTED BY IDOCK:   -1.05 KCAL/MOL
REMARK 927      BINDING AFFINITY PREDICTED BY RF-SCORE:    0.00 PKD
ROOT
HETATM    1  N   UNK A   1      -7.017  10.970  70.172  1.00  0.00    -0.461 NA 
HETATM    2  H2  UNK A   1      -6.777  10.024  69.873  1.00  0.00     0.000 HD 
HETATM    3  C   UNK A   1      -5.967  11.930  69.857  1.00  0.00    -0.148 C  
HETATM    4  H1  UNK A   1      -7.233  11.015  71.168  1.00  0.00     0.000 HD 
ENDROOT
BRANCH   3   5
HETATM    5  C   UNK A   1      -5.643  11.861  68.369  1.00  0.00    -0.049 C  
BRANCH   5   6
HETATM    6  C   UNK A   1      -6.004  13.162  67.640  1.00  0.00    -0.136 C  
BRANCH   6   7
HETATM    7  C   UNK A   1      -7.492  13.145  67.277  1.00  0.00    -0.076 C  
BRANCH   7   8
HETATM    8  C   UNK A   1      -8.315  14.355  67.753  1.00  0.00    -0.169 C  
BRANCH   8   9
HETATM    9  N   UNK A   1      -9.689  14.008  68.228  1.00  0.00    -0.221 NA 
HETATM   10  H   UNK A   1     -10.336  14.771  68.025  1.00  0.00     0.000 HD 
BRANCH   9  11
HETATM   11  C   UNK A   1     -10.230  12.716  67.699  1.00  0.00    -0.217 C  
HETATM   12  C   UNK A   1     -11.626  12.998  67.111  1.00  0.00    -0.358 C  
HETATM   13  O   UNK A   1     -12.157  12.340  66.230  1.00  0.00    -0.626 OA 
HETATM   14  O   UNK A   1     -12.217  14.069  67.695  1.00  0.00    -0.352 OA 
BRANCH  11  15
HETATM   15  C   UNK A   1     -10.351  11.639  68.799  1.00  0.00    -0.213 C  
BRANCH  15  16
HETATM   16  C   UNK A   1     -11.728  11.624  69.483  1.00  0.00    -0.410 C  
BRANCH  16  17
HETATM   17  C   UNK A   1     -11.881  10.487  70.469  1.00  0.00    -0.442 A  
HETATM   18  C   UNK A   1     -10.815   9.609  70.706  1.00  0.00    -0.400 A  
HETATM   19  C   UNK A   1     -12.145   8.371  72.298  1.00  0.00    -0.456 A  
HETATM   20  C   UNK A   1     -10.947   8.559  71.617  1.00  0.00    -0.362 A  
HETATM   21  C   UNK A   1     -13.208   9.245  72.084  1.00  0.00    -0.535 A  
HETATM   22  C   UNK A   1     -13.079  10.297  71.176  1.00  0.00    -0.481 A  
ENDBRANCH  16  17
ENDBRANCH  15  16
ENDBRANCH  11  15
ENDBRANCH   9  11
ENDBRANCH   8   9
BRANCH   8  23
HETATM   23  C   UNK A   1      -8.444  15.480  66.665  1.00  0.00    -0.279 C  
ATOM     24  OXT PRO A   2      -5.408  16.591  69.640  1.00  0.00    -0.132 OA 
HETATM   25  O   UNK A   1      -9.300  15.394  65.783  1.00  0.00    -0.325 OA 
ATOM     26  N   PRO A   2      -7.622  16.603  66.760  1.00  0.00    -0.229 N  
ATOM     27  CD  PRO A   2      -7.783  17.730  65.847  1.00  0.00    -0.098 C  
ATOM     28  O   PRO A   2      -7.466  17.463  69.304  1.00  0.00    -0.173 OA 
ATOM     29  C   PRO A   2      -6.329  16.859  68.885  1.00  0.00    -0.179 C  
ATOM     30  CA  PRO A   2      -6.284  16.629  67.375  1.00  0.00    -0.160 C  
ATOM     31  CB  PRO A   2      -5.541  17.784  66.698  1.00  0.00    -0.205 C  
ATOM     32  CG  PRO A   2      -6.369  18.121  65.465  1.00  0.00    -0.249 C  
ENDBRANCH   8  23
ENDBRANCH   7   8
ENDBRANCH   6   7
ENDBRANCH   5   6
ENDBRANCH   3   5
TORSDOF 10
ENDMDL
MODEL      134
REMARK 921   NORMALIZED FREE ENERGY PREDICTED BY IDOCK:   -4.56 KCAL/MOL
REMARK 922        TOTAL FREE ENERGY PREDICTED BY IDOCK:   -9.19 KCAL/MOL
REMARK 923 INTER-LIGAND FREE ENERGY PREDICTED BY IDOCK:   -7.49 KCAL/MOL
REMARK 924 INTRA-LIGAND FREE ENERGY PREDICTED BY IDOCK:   -1.69 KCAL/MOL
REMARK 927      BINDING AFFINITY PREDICTED BY RF-SCORE:    0.00 PKD
ROOT
HETATM    1  N   UNK A   1     -12.148  14.893  68.647  1.00  0.00    -0.574 NA 
HETATM    2  H2  UNK A   1     -11.662  14.205  69.222  1.00  0.00     0.000 HD 
HETATM    3  C   UNK A   1     -11.254  15.933  68.156  1.00  0.00    -0.339 C  
HETATM    4  H1  UNK A   1     -12.932  15.322  69.140  1.00  0.00     0.000 HD 
ENDROOT
BRANCH   3   5
HETATM    5  C   UNK A   1     -10.083  15.292  67.419  1.00  0.00    -0.232 C  
BRANCH   5   6
HETATM    6  C   UNK A   1      -9.248  14.391  68.337  1.00  0.00    -0.195 C  
BRANCH   6   7
HETATM    7  C   UNK A   1      -8.253  13.588  67.492  1.00  0.00    -0.186 C  
BRANCH   7   8
HETATM    8  C   UNK A   1      -8.341  12.058  67.622  1.00  0.00    -0.160 C  
BRANCH   8   9
HETATM    9  N   UNK A   1      -7.330  11.466  68.550  1.00  0.00    -0.098 NA 
HETATM   10  H   UNK A   1      -6.680  12.184  68.869  1.00  0.00     0.000 HD 
BRANCH   9  11
HETATM   11  C   UNK A   1      -7.905  10.731  69.721  1.00  0.00     0.143 C  
HETATM   12  C   UNK A   1      -6.773   9.902  70.356  1.00  0.00    -0.136 C  
HETATM   13  O   UNK A   1      -6.736   9.555  71.527  1.00  0.00    -0.304 OA 
HETATM   14  O   UNK A   1      -5.808   9.584  69.458  1.00  0.00    -0.033 OA 
BRANCH  11  15
HETATM   15  C   UNK A   1      -9.056   9.786  69.309  1.00  0.00    -0.189 C  
BRANCH  15  16
HETATM   16  C   UNK A   1     -10.311   9.942  70.183  1.00  0.00    -0.336 C  
BRANCH  16  17
HETATM   17  C   UNK A   1     -10.633   8.694  70.975  1.00  0.00    -0.278 A  
HETATM   18  C   UNK A   1     -11.267   7.608  70.356  1.00  0.00    -0.258 A  
HETATM   19  C   UNK A   1     -11.237   6.367  72.428  1.00  0.00    -0.313 A  
HETATM   20  C   UNK A   1     -11.564   6.451  71.079  1.00  0.00    -0.386 A  
HETATM   21  C   UNK A   1     -10.593   7.433  73.053  1.00  0.00    -0.392 A  
HETATM   22  C   UNK A   1     -10.291   8.589  72.333  1.00  0.00    -0.372 A  
ENDBRANCH  16  17
ENDBRANCH  15  16
ENDBRANCH  11  15
ENDBRANCH   9  11
ENDBRANCH   8   9
BRANCH   8  23
HETATM   23  C   UNK A   1      -8.231  11.314  66.243  1.00  0.00    -0.126 C  
ATOM     24  OXT PRO A   2     -12.346  12.713  66.885  1.00  0.00    -0.430 OA 
HETATM   25  O   UNK A   1      -7.173  10.777  65.911  1.00  0.00    -0.144 OA 
ATOM     26  N   PRO A   2      -9.368  11.216  65.441  1.00  0.00    -0.217 N  
ATOM     27  CD  PRO A   2      -9.351  10.434  64.209  1.00  0.00    -0.277 C  
ATOM     28  O   PRO A   2     -11.531  10.604  66.917  1.00  0.00    -0.241 OA 
ATOM     29  C   PRO A   2     -11.533  11.890  66.493  1.00  0.00    -0.314 C  
ATOM     30  CA  PRO A   2     -10.482  12.178  65.423  1.00  0.00    -0.270 C  
ATOM     31  CB  PRO A   2     -11.112  12.054  64.032  1.00  0.00    -0.452 C  
ATOM     32  CG  PRO A   2     -10.090  11.291  63.199  1.00  0.00    -0.385 C  
ENDBRANCH   8  23
ENDBRANCH   7   8
ENDBRANCH   6   7
ENDBRANCH   5   6
ENDBRANCH   3   5
TORSDOF 10
ENDMDL
MODEL      135
REMARK 921   NORMALIZED FREE ENERGY PREDICTED BY IDOCK:   -4.56 KCAL/MOL
REMARK 922        TOTAL FREE ENERGY PREDICTED BY IDOCK:   -9.18 KCAL/MOL
REMARK 923 INTER-LIGAND FREE ENERGY PREDICTED BY IDOCK:   -9.17 KCAL/MOL
REMARK 924 INTRA-LIGAND FREE ENERGY PREDICTED BY IDOCK:   -0.01 KCAL/MOL
REMARK 927      BINDING AFFINITY PREDICTED BY RF-SCORE:    0.00 PKD
ROOT
HETATM    1  N   UNK A   1     -12.497  13.719  62.871  1.00  0.00    -0.876 NA 
HETATM    2  H2  UNK A   1     -11.705  13.977  62.282  1.00  0.00     0.000 HD 
HETATM    3  C   UNK A   1     -12.121  13.591  64.274  1.00  0.00    -0.431 C  
HETATM    4  H1  UNK A   1     -12.946  12.858  62.559  1.00  0.00     0.000 HD 
ENDROOT
BRANCH   3   5
HETATM    5  C   UNK A   1     -11.450  14.878  64.741  1.00  0.00    -0.410 C  
BRANCH   5   6
HETATM    6  C   UNK A   1     -10.276  14.605  65.689  1.00  0.00    -0.382 C  
BRANCH   6   7
HETATM    7  C   UNK A   1     -10.301  13.135  66.119  1.00  0.00    -0.287 C  
BRANCH   7   8
HETATM    8  C   UNK A   1     -10.557  12.875  67.613  1.00  0.00    -0.223 C  
BRANCH   8   9
HETATM    9  N   UNK A   1      -9.401  13.216  68.498  1.00  0.00    -0.371 NA 
HETATM   10  H   UNK A   1      -8.615  12.595  68.307  1.00  0.00     0.000 HD 
BRANCH   9  11
HETATM   11  C   UNK A   1      -8.961  14.645  68.433  1.00  0.00    -0.180 C  
HETATM   12  C   UNK A   1      -7.422  14.665  68.512  1.00  0.00    -0.120 C  
HETATM   13  O   UNK A   1      -6.712  15.547  68.054  1.00  0.00    -0.117 OA 
HETATM   14  O   UNK A   1      -6.932  13.582  69.165  1.00  0.00    -0.106 OA 
BRANCH  11  15
HETATM   15  C   UNK A   1      -9.539  15.488  69.591  1.00  0.00    -0.264 C  
BRANCH  15  16
HETATM   16  C   UNK A   1     -11.044  15.766  69.445  1.00  0.00    -0.314 C  
BRANCH  16  17
HETATM   17  C   UNK A   1     -11.847  15.289  70.635  1.00  0.00    -0.376 A  
HETATM   18  C   UNK A   1     -12.519  14.060  70.587  1.00  0.00    -0.435 A  
HETATM   19  C   UNK A   1     -13.342  14.384  72.835  1.00  0.00    -0.575 A  
HETATM   20  C   UNK A   1     -13.260  13.611  71.682  1.00  0.00    -0.447 A  
HETATM   21  C   UNK A   1     -12.667  15.601  72.903  1.00  0.00    -0.559 A  
HETATM   22  C   UNK A   1     -11.923  16.052  71.811  1.00  0.00    -0.592 A  
ENDBRANCH  16  17
ENDBRANCH  15  16
ENDBRANCH  11  15
ENDBRANCH   9  11
ENDBRANCH   8   9
BRANCH   8  23
HETATM   23  C   UNK A   1     -10.984  11.394  67.918  1.00  0.00    -0.240 C  
ATOM     24  OXT PRO A   2      -6.786  11.526  66.629  1.00  0.00    -0.133 OA 
HETATM   25  O   UNK A   1     -12.150  11.135  68.219  1.00  0.00    -0.620 OA 
ATOM     26  N   PRO A   2     -10.037  10.379  67.772  1.00  0.00    -0.174 N  
ATOM     27  CD  PRO A   2     -10.412   8.977  67.926  1.00  0.00    -0.234 C  
ATOM     28  O   PRO A   2      -8.594  10.731  65.530  1.00  0.00    -0.182 OA 
ATOM     29  C   PRO A   2      -7.893  11.011  66.654  1.00  0.00    -0.153 C  
ATOM     30  CA  PRO A   2      -8.583  10.543  67.934  1.00  0.00    -0.123 C  
ATOM     31  CB  PRO A   2      -8.055   9.161  68.331  1.00  0.00    -0.104 C  
ATOM     32  CG  PRO A   2      -9.287   8.366  68.739  1.00  0.00    -0.143 C  
ENDBRANCH   8  23
ENDBRANCH   7   8
ENDBRANCH   6   7
ENDBRANCH   5   6
ENDBRANCH   3   5
TORSDOF 10
ENDMDL
MODEL      136
REMARK 921   NORMALIZED FREE ENERGY PREDICTED BY IDOCK:   -4.55 KCAL/MOL
REMARK 922        TOTAL FREE ENERGY PREDICTED BY IDOCK:   -9.17 KCAL/MOL
REMARK 923 INTER-LIGAND FREE ENERGY PREDICTED BY IDOCK:   -7.72 KCAL/MOL
REMARK 924 INTRA-LIGAND FREE ENERGY PREDICTED BY IDOCK:   -1.45 KCAL/MOL
REMARK 927      BINDING AFFINITY PREDICTED BY RF-SCORE:    0.00 PKD
ROOT
HETATM    1  N   UNK A   1      -9.415  20.828  66.426  1.00  0.00    -0.538 NA 
HETATM    2  H2  UNK A   1      -9.754  21.062  65.494  1.00  0.00     0.000 HD 
HETATM    3  C   UNK A   1     -10.319  19.930  67.133  1.00  0.00    -0.446 C  
HETATM    4  H1  UNK A   1      -9.246  21.659  66.995  1.00  0.00     0.000 HD 
ENDROOT
BRANCH   3   5
HETATM    5  C   UNK A   1     -10.571  18.689  66.284  1.00  0.00    -0.396 C  
BRANCH   5   6
HETATM    6  C   UNK A   1      -9.334  17.786  66.201  1.00  0.00    -0.153 C  
BRANCH   6   7
HETATM    7  C   UNK A   1      -9.772  16.319  66.242  1.00  0.00    -0.329 C  
BRANCH   7   8
HETATM    8  C   UNK A   1      -9.914  15.697  67.642  1.00  0.00    -0.237 C  
BRANCH   8   9
HETATM    9  N   UNK A   1     -11.195  16.038  68.333  1.00  0.00    -0.356 NA 
HETATM   10  H   UNK A   1     -11.694  16.761  67.815  1.00  0.00     0.000 HD 
BRANCH   9  11
HETATM   11  C   UNK A   1     -12.097  14.873  68.596  1.00  0.00    -0.170 C  
HETATM   12  C   UNK A   1     -12.154  14.658  70.120  1.00  0.00    -0.327 C  
HETATM   13  O   UNK A   1     -13.083  14.136  70.717  1.00  0.00    -0.321 OA 
HETATM   14  O   UNK A   1     -11.036  15.112  70.740  1.00  0.00    -0.293 OA 
BRANCH  11  15
HETATM   15  C   UNK A   1     -11.590  13.579  67.921  1.00  0.00    -0.377 C  
BRANCH  15  16
HETATM   16  C   UNK A   1     -12.267  13.296  66.569  1.00  0.00    -0.389 C  
BRANCH  16  17
HETATM   17  C   UNK A   1     -11.418  12.441  65.655  1.00  0.00    -0.412 A  
HETATM   18  C   UNK A   1     -11.028  12.922  64.398  1.00  0.00    -0.400 A  
HETATM   19  C   UNK A   1      -9.837  10.870  63.944  1.00  0.00    -0.385 A  
HETATM   20  C   UNK A   1     -10.241  12.141  63.549  1.00  0.00    -0.453 A  
HETATM   21  C   UNK A   1     -10.204  10.385  65.198  1.00  0.00    -0.326 A  
HETATM   22  C   UNK A   1     -10.988  11.164  66.049  1.00  0.00    -0.189 A  
ENDBRANCH  16  17
ENDBRANCH  15  16
ENDBRANCH  11  15
ENDBRANCH   9  11
ENDBRANCH   8   9
BRANCH   8  23
HETATM   23  C   UNK A   1      -8.728  16.066  68.604  1.00  0.00    -0.206 C  
ATOM     24  OXT PRO A   2      -7.931  12.229  66.618  1.00  0.00    -0.054 OA 
HETATM   25  O   UNK A   1      -8.796  17.070  69.315  1.00  0.00    -0.094 OA 
ATOM     26  N   PRO A   2      -7.637  15.200  68.686  1.00  0.00    -0.120 N  
ATOM     27  CD  PRO A   2      -6.567  15.433  69.650  1.00  0.00    -0.178 C  
ATOM     28  O   PRO A   2      -8.451  12.639  68.779  1.00  0.00    -0.005 OA 
ATOM     29  C   PRO A   2      -7.901  12.970  67.587  1.00  0.00    -0.166 C  
ATOM     30  CA  PRO A   2      -7.172  14.313  67.607  1.00  0.00    -0.183 C  
ATOM     31  CB  PRO A   2      -5.680  14.089  67.872  1.00  0.00    -0.116 C  
ATOM     32  CG  PRO A   2      -5.289  15.162  68.880  1.00  0.00    -0.095 C  
ENDBRANCH   8  23
ENDBRANCH   7   8
ENDBRANCH   6   7
ENDBRANCH   5   6
ENDBRANCH   3   5
TORSDOF 10
ENDMDL
MODEL      137
REMARK 921   NORMALIZED FREE ENERGY PREDICTED BY IDOCK:   -4.55 KCAL/MOL
REMARK 922        TOTAL FREE ENERGY PREDICTED BY IDOCK:   -9.17 KCAL/MOL
REMARK 923 INTER-LIGAND FREE ENERGY PREDICTED BY IDOCK:   -9.20 KCAL/MOL
REMARK 924 INTRA-LIGAND FREE ENERGY PREDICTED BY IDOCK:    0.03 KCAL/MOL
REMARK 927      BINDING AFFINITY PREDICTED BY RF-SCORE:    0.00 PKD
ROOT
HETATM    1  N   UNK A   1     -13.970  15.955  73.450  1.00  0.00    -0.606 NA 
HETATM    2  H2  UNK A   1     -13.495  16.815  73.176  1.00  0.00     0.000 HD 
HETATM    3  C   UNK A   1     -14.135  15.036  72.332  1.00  0.00    -0.476 C  
HETATM    4  H1  UNK A   1     -14.879  16.137  73.879  1.00  0.00     0.000 HD 
ENDROOT
BRANCH   3   5
HETATM    5  C   UNK A   1     -12.778  14.764  71.692  1.00  0.00    -0.399 C  
BRANCH   5   6
HETATM    6  C   UNK A   1     -12.509  15.688  70.497  1.00  0.00    -0.440 C  
BRANCH   6   7
HETATM    7  C   UNK A   1     -11.128  15.373  69.912  1.00  0.00    -0.304 C  
BRANCH   7   8
HETATM    8  C   UNK A   1     -10.993  15.523  68.387  1.00  0.00    -0.297 C  
BRANCH   8   9
HETATM    9  N   UNK A   1     -11.872  14.601  67.604  1.00  0.00    -0.472 NA 
HETATM   10  H   UNK A   1     -12.739  15.073  67.346  1.00  0.00     0.000 HD 
BRANCH   9  11
HETATM   11  C   UNK A   1     -11.230  14.000  66.392  1.00  0.00    -0.319 C  
HETATM   12  C   UNK A   1     -12.195  14.189  65.207  1.00  0.00    -0.434 C  
HETATM   13  O   UNK A   1     -11.858  14.245  64.034  1.00  0.00    -0.352 OA 
HETATM   14  O   UNK A   1     -13.487  14.280  65.612  1.00  0.00    -0.502 OA 
BRANCH  11  15
HETATM   15  C   UNK A   1     -10.938  12.494  66.573  1.00  0.00    -0.303 C  
BRANCH  15  16
HETATM   16  C   UNK A   1      -9.480  12.117  66.257  1.00  0.00    -0.238 C  
BRANCH  16  17
HETATM   17  C   UNK A   1      -9.351  11.255  65.022  1.00  0.00    -0.200 A  
HETATM   18  C   UNK A   1      -8.623  10.058  65.069  1.00  0.00    -0.173 A  
HETATM   19  C   UNK A   1      -9.103   9.636  62.739  1.00  0.00    -0.254 A  
HETATM   20  C   UNK A   1      -8.502   9.254  63.934  1.00  0.00    -0.198 A  
HETATM   21  C   UNK A   1      -9.843  10.816  62.682  1.00  0.00    -0.166 A  
HETATM   22  C   UNK A   1      -9.968  11.620  63.815  1.00  0.00    -0.378 A  
ENDBRANCH  16  17
ENDBRANCH  15  16
ENDBRANCH  11  15
ENDBRANCH   9  11
ENDBRANCH   8   9
BRANCH   8  23
HETATM   23  C   UNK A   1      -9.519  15.342  67.877  1.00  0.00    -0.197 C  
ATOM     24  OXT PRO A   2     -11.101  19.233  66.589  1.00  0.00    -0.262 OA 
HETATM   25  O   UNK A   1      -8.923  14.281  68.068  1.00  0.00    -0.169 OA 
ATOM     26  N   PRO A   2      -8.929  16.376  67.148  1.00  0.00    -0.197 N  
ATOM     27  CD  PRO A   2      -7.609  16.212  66.550  1.00  0.00    -0.133 C  
ATOM     28  O   PRO A   2     -10.659  17.391  65.356  1.00  0.00    -0.638 OA 
ATOM     29  C   PRO A   2     -10.446  18.219  66.406  1.00  0.00    -0.366 C  
ATOM     30  CA  PRO A   2      -9.262  17.804  67.277  1.00  0.00    -0.253 C  
ATOM     31  CB  PRO A   2      -8.005  18.561  66.835  1.00  0.00    -0.250 C  
ATOM     32  CG  PRO A   2      -6.894  17.519  66.832  1.00  0.00    -0.220 C  
ENDBRANCH   8  23
ENDBRANCH   7   8
ENDBRANCH   6   7
ENDBRANCH   5   6
ENDBRANCH   3   5
TORSDOF 10
ENDMDL
MODEL      138
REMARK 921   NORMALIZED FREE ENERGY PREDICTED BY IDOCK:   -4.55 KCAL/MOL
REMARK 922        TOTAL FREE ENERGY PREDICTED BY IDOCK:   -9.17 KCAL/MOL
REMARK 923 INTER-LIGAND FREE ENERGY PREDICTED BY IDOCK:   -6.71 KCAL/MOL
REMARK 924 INTRA-LIGAND FREE ENERGY PREDICTED BY IDOCK:   -2.45 KCAL/MOL
REMARK 927      BINDING AFFINITY PREDICTED BY RF-SCORE:    0.00 PKD
ROOT
HETATM    1  N   UNK A   1      -5.376  16.875  67.962  1.00  0.00    -0.117 NA 
HETATM    2  H2  UNK A   1      -5.442  16.942  66.946  1.00  0.00     0.000 HD 
HETATM    3  C   UNK A   1      -6.422  16.033  68.528  1.00  0.00    -0.115 C  
HETATM    4  H1  UNK A   1      -5.397  17.792  68.410  1.00  0.00     0.000 HD 
ENDROOT
BRANCH   3   5
HETATM    5  C   UNK A   1      -6.392  14.664  67.858  1.00  0.00    -0.173 C  
BRANCH   5   6
HETATM    6  C   UNK A   1      -7.577  13.788  68.282  1.00  0.00    -0.129 C  
BRANCH   6   7
HETATM    7  C   UNK A   1      -7.761  12.655  67.267  1.00  0.00    -0.140 C  
BRANCH   7   8
HETATM    8  C   UNK A   1      -8.966  11.729  67.503  1.00  0.00    -0.168 C  
BRANCH   8   9
HETATM    9  N   UNK A   1      -9.494  11.759  68.901  1.00  0.00    -0.410 NA 
HETATM   10  H   UNK A   1      -8.901  12.343  69.490  1.00  0.00     0.000 HD 
BRANCH   9  11
HETATM   11  C   UNK A   1     -10.924  12.183  69.024  1.00  0.00    -0.205 C  
HETATM   12  C   UNK A   1     -11.655  11.126  69.874  1.00  0.00    -0.337 C  
HETATM   13  O   UNK A   1     -12.656  11.338  70.542  1.00  0.00    -0.291 OA 
HETATM   14  O   UNK A   1     -11.062   9.909  69.793  1.00  0.00    -0.239 OA 
BRANCH  11  15
HETATM   15  C   UNK A   1     -11.620  12.297  67.650  1.00  0.00    -0.421 C  
BRANCH  15  16
HETATM   16  C   UNK A   1     -12.280  13.666  67.417  1.00  0.00    -0.283 C  
BRANCH  16  17
HETATM   17  C   UNK A   1     -11.273  14.778  67.223  1.00  0.00    -0.351 A  
HETATM   18  C   UNK A   1     -10.467  14.808  66.077  1.00  0.00    -0.312 A  
HETATM   19  C   UNK A   1      -9.399  16.836  66.842  1.00  0.00    -0.250 A  
HETATM   20  C   UNK A   1      -9.537  15.833  65.888  1.00  0.00    -0.382 A  
HETATM   21  C   UNK A   1     -10.204  16.826  67.979  1.00  0.00    -0.300 A  
HETATM   22  C   UNK A   1     -11.137  15.806  68.169  1.00  0.00    -0.341 A  
ENDBRANCH  16  17
ENDBRANCH  15  16
ENDBRANCH  11  15
ENDBRANCH   9  11
ENDBRANCH   8   9
BRANCH   8  23
HETATM   23  C   UNK A   1      -8.679  10.233  67.122  1.00  0.00    -0.129 C  
ATOM     24  OXT PRO A   2      -9.990  12.473  63.577  1.00  0.00    -0.380 OA 
HETATM   25  O   UNK A   1      -8.374   9.419  67.995  1.00  0.00    -0.118 OA 
ATOM     26  N   PRO A   2      -8.844   9.834  65.795  1.00  0.00    -0.146 N  
ATOM     27  CD  PRO A   2      -8.706   8.433  65.410  1.00  0.00    -0.141 C  
ATOM     28  O   PRO A   2     -11.089  10.884  64.752  1.00  0.00    -0.095 OA 
ATOM     29  C   PRO A   2      -9.966  11.470  64.274  1.00  0.00    -0.271 C  
ATOM     30  CA  PRO A   2      -8.688  10.707  64.619  1.00  0.00    -0.152 C  
ATOM     31  CB  PRO A   2      -8.312   9.777  63.462  1.00  0.00    -0.168 C  
ATOM     32  CG  PRO A   2      -7.908   8.465  64.121  1.00  0.00    -0.145 C  
ENDBRANCH   8  23
ENDBRANCH   7   8
ENDBRANCH   6   7
ENDBRANCH   5   6
ENDBRANCH   3   5
TORSDOF 10
ENDMDL
MODEL      139
REMARK 921   NORMALIZED FREE ENERGY PREDICTED BY IDOCK:   -4.49 KCAL/MOL
REMARK 922        TOTAL FREE ENERGY PREDICTED BY IDOCK:   -9.08 KCAL/MOL
REMARK 923 INTER-LIGAND FREE ENERGY PREDICTED BY IDOCK:   -9.69 KCAL/MOL
REMARK 924 INTRA-LIGAND FREE ENERGY PREDICTED BY IDOCK:    0.61 KCAL/MOL
REMARK 927      BINDING AFFINITY PREDICTED BY RF-SCORE:    0.00 PKD
ROOT
HETATM    1  N   UNK A   1      -9.700  20.183  65.535  1.00  0.00    -0.472 NA 
HETATM    2  H2  UNK A   1     -10.608  20.237  65.072  1.00  0.00     0.000 HD 
HETATM    3  C   UNK A   1      -9.817  20.260  66.986  1.00  0.00    -0.467 C  
HETATM    4  H1  UNK A   1      -9.056  20.903  65.206  1.00  0.00     0.000 HD 
ENDROOT
BRANCH   3   5
HETATM    5  C   UNK A   1     -10.779  19.185  67.477  1.00  0.00    -0.555 C  
BRANCH   5   6
HETATM    6  C   UNK A   1     -10.089  18.170  68.397  1.00  0.00    -0.401 C  
BRANCH   6   7
HETATM    7  C   UNK A   1     -10.134  16.783  67.748  1.00  0.00    -0.281 C  
BRANCH   7   8
HETATM    8  C   UNK A   1      -9.044  16.493  66.703  1.00  0.00    -0.255 C  
BRANCH   8   9
HETATM    9  N   UNK A   1      -9.574  16.071  65.370  1.00  0.00    -0.385 NA 
HETATM   10  H   UNK A   1      -8.813  15.742  64.775  1.00  0.00     0.000 HD 
BRANCH   9  11
HETATM   11  C   UNK A   1     -10.667  15.049  65.423  1.00  0.00    -0.374 C  
HETATM   12  C   UNK A   1     -11.681  15.390  64.315  1.00  0.00    -0.206 C  
HETATM   13  O   UNK A   1     -12.419  14.581  63.772  1.00  0.00    -0.809 OA 
HETATM   14  O   UNK A   1     -11.673  16.710  64.005  1.00  0.00    -1.143 OA 
BRANCH  11  15
HETATM   15  C   UNK A   1     -11.392  15.041  66.787  1.00  0.00    -0.293 C  
BRANCH  15  16
HETATM   16  C   UNK A   1     -12.405  13.892  66.928  1.00  0.00    -0.331 C  
BRANCH  16  17
HETATM   17  C   UNK A   1     -11.763  12.594  67.366  1.00  0.00    -0.432 A  
HETATM   18  C   UNK A   1     -11.781  12.218  68.716  1.00  0.00    -0.390 A  
HETATM   19  C   UNK A   1     -10.580  10.186  68.200  1.00  0.00    -0.262 A  
HETATM   20  C   UNK A   1     -11.194  11.020  69.129  1.00  0.00    -0.318 A  
HETATM   21  C   UNK A   1     -10.568  10.540  66.853  1.00  0.00    -0.303 A  
HETATM   22  C   UNK A   1     -11.157  11.735  66.437  1.00  0.00    -0.360 A  
ENDBRANCH  16  17
ENDBRANCH  15  16
ENDBRANCH  11  15
ENDBRANCH   9  11
ENDBRANCH   8   9
BRANCH   8  23
HETATM   23  C   UNK A   1      -8.004  15.415  67.177  1.00  0.00    -0.217 C  
ATOM     24  OXT PRO A   2      -6.465  19.454  67.965  1.00  0.00    -0.219 OA 
HETATM   25  O   UNK A   1      -8.215  14.218  66.973  1.00  0.00    -0.180 OA 
ATOM     26  N   PRO A   2      -6.815  15.844  67.768  1.00  0.00    -0.139 N  
ATOM     27  CD  PRO A   2      -5.766  14.892  68.117  1.00  0.00    -0.136 C  
ATOM     28  O   PRO A   2      -5.784  17.938  66.432  1.00  0.00    -0.146 OA 
ATOM     29  C   PRO A   2      -6.321  18.290  67.624  1.00  0.00    -0.186 C  
ATOM     30  CA  PRO A   2      -6.644  17.096  68.522  1.00  0.00    -0.167 C  
ATOM     31  CB  PRO A   2      -5.478  16.843  69.483  1.00  0.00    -0.164 C  
ATOM     32  CG  PRO A   2      -5.288  15.332  69.487  1.00  0.00    -0.094 C  
ENDBRANCH   8  23
ENDBRANCH   7   8
ENDBRANCH   6   7
ENDBRANCH   5   6
ENDBRANCH   3   5
TORSDOF 10
ENDMDL
MODEL      140
REMARK 921   NORMALIZED FREE ENERGY PREDICTED BY IDOCK:   -4.48 KCAL/MOL
REMARK 922        TOTAL FREE ENERGY PREDICTED BY IDOCK:   -9.05 KCAL/MOL
REMARK 923 INTER-LIGAND FREE ENERGY PREDICTED BY IDOCK:   -6.50 KCAL/MOL
REMARK 924 INTRA-LIGAND FREE ENERGY PREDICTED BY IDOCK:   -2.55 KCAL/MOL
REMARK 927      BINDING AFFINITY PREDICTED BY RF-SCORE:    0.00 PKD
ROOT
HETATM    1  N   UNK A   1     -13.548   9.687  70.815  1.00  0.00    -0.563 NA 
HETATM    2  H2  UNK A   1     -13.715   9.133  69.974  1.00  0.00     0.000 HD 
HETATM    3  C   UNK A   1     -12.133   9.970  71.017  1.00  0.00    -0.373 C  
HETATM    4  H1  UNK A   1     -13.930   9.243  71.650  1.00  0.00     0.000 HD 
ENDROOT
BRANCH   3   5
HETATM    5  C   UNK A   1     -11.563  10.633  69.768  1.00  0.00    -0.385 C  
BRANCH   5   6
HETATM    6  C   UNK A   1     -10.193  10.060  69.385  1.00  0.00    -0.239 C  
BRANCH   6   7
HETATM    7  C   UNK A   1     -10.358   8.605  68.936  1.00  0.00    -0.228 C  
BRANCH   7   8
HETATM    8  C   UNK A   1      -9.336   7.605  69.504  1.00  0.00    -0.153 C  
BRANCH   8   9
HETATM    9  N   UNK A   1      -8.323   7.137  68.509  1.00  0.00    -0.124 NA 
HETATM   10  H   UNK A   1      -8.018   6.190  68.734  1.00  0.00     0.000 HD 
BRANCH   9  11
HETATM   11  C   UNK A   1      -8.764   7.213  67.080  1.00  0.00    -0.121 C  
HETATM   12  C   UNK A   1      -8.714   5.788  66.498  1.00  0.00    -0.123 C  
HETATM   13  O   UNK A   1      -9.395   5.392  65.564  1.00  0.00    -0.136 OA 
HETATM   14  O   UNK A   1      -7.808   5.008  67.138  1.00  0.00    -0.095 OA 
BRANCH  11  15
HETATM   15  C   UNK A   1      -7.858   8.138  66.238  1.00  0.00    -0.095 C  
BRANCH  15  16
HETATM   16  C   UNK A   1      -8.637   8.981  65.214  1.00  0.00    -0.199 C  
BRANCH  16  17
HETATM   17  C   UNK A   1      -9.122  10.295  65.785  1.00  0.00    -0.202 A  
HETATM   18  C   UNK A   1      -8.232  11.147  66.453  1.00  0.00    -0.164 A  
HETATM   19  C   UNK A   1     -10.004  12.741  66.849  1.00  0.00    -0.232 A  
HETATM   20  C   UNK A   1      -8.671  12.363  66.980  1.00  0.00    -0.207 A  
HETATM   21  C   UNK A   1     -10.896  11.911  66.174  1.00  0.00    -0.334 A  
HETATM   22  C   UNK A   1     -10.460  10.697  65.643  1.00  0.00    -0.235 A  
ENDBRANCH  16  17
ENDBRANCH  15  16
ENDBRANCH  11  15
ENDBRANCH   9  11
ENDBRANCH   8   9
BRANCH   8  23
HETATM   23  C   UNK A   1     -10.005   6.339  70.151  1.00  0.00    -0.172 C  
ATOM     24  OXT PRO A   2      -7.925   8.691  73.224  1.00  0.00    -0.399 OA 
HETATM   25  O   UNK A   1     -10.572   5.508  69.441  1.00  0.00    -0.284 OA 
ATOM     26  N   PRO A   2      -9.882   6.145  71.527  1.00  0.00    -0.166 N  
ATOM     27  CD  PRO A   2     -10.380   4.928  72.159  1.00  0.00    -0.200 C  
ATOM     28  O   PRO A   2      -7.378   6.680  72.349  1.00  0.00    -0.087 OA 
ATOM     29  C   PRO A   2      -8.265   7.632  72.720  1.00  0.00    -0.121 C  
ATOM     30  CA  PRO A   2      -9.722   7.214  72.526  1.00  0.00    -0.154 C  
ATOM     31  CB  PRO A   2     -10.275   6.641  73.835  1.00  0.00    -0.379 C  
ATOM     32  CG  PRO A   2     -11.064   5.404  73.425  1.00  0.00    -0.326 C  
ENDBRANCH   8  23
ENDBRANCH   7   8
ENDBRANCH   6   7
ENDBRANCH   5   6
ENDBRANCH   3   5
TORSDOF 10
ENDMDL
MODEL      141
REMARK 921   NORMALIZED FREE ENERGY PREDICTED BY IDOCK:   -4.46 KCAL/MOL
REMARK 922        TOTAL FREE ENERGY PREDICTED BY IDOCK:   -9.03 KCAL/MOL
REMARK 923 INTER-LIGAND FREE ENERGY PREDICTED BY IDOCK:   -7.70 KCAL/MOL
REMARK 924 INTRA-LIGAND FREE ENERGY PREDICTED BY IDOCK:   -1.33 KCAL/MOL
REMARK 927      BINDING AFFINITY PREDICTED BY RF-SCORE:    0.00 PKD
ROOT
HETATM    1  N   UNK A   1     -13.644   7.374  70.867  1.00  0.00    -0.590 NA 
HETATM    2  H2  UNK A   1     -12.649   7.157  70.806  1.00  0.00     0.000 HD 
HETATM    3  C   UNK A   1     -13.968   8.146  72.060  1.00  0.00    -0.335 C  
HETATM    4  H1  UNK A   1     -14.224   6.535  70.836  1.00  0.00     0.000 HD 
ENDROOT
BRANCH   3   5
HETATM    5  C   UNK A   1     -13.101   9.399  72.107  1.00  0.00    -0.526 C  
BRANCH   5   6
HETATM    6  C   UNK A   1     -12.650   9.841  70.709  1.00  0.00    -0.276 C  
BRANCH   6   7
HETATM    7  C   UNK A   1     -11.162  10.200  70.745  1.00  0.00    -0.414 C  
BRANCH   7   8
HETATM    8  C   UNK A   1     -10.284   9.544  69.665  1.00  0.00    -0.218 C  
BRANCH   8   9
HETATM    9  N   UNK A   1     -10.415  10.167  68.312  1.00  0.00    -0.199 NA 
HETATM   10  H   UNK A   1     -11.115  10.908  68.330  1.00  0.00     0.000 HD 
BRANCH   9  11
HETATM   11  C   UNK A   1      -9.134  10.679  67.730  1.00  0.00    -0.143 C  
HETATM   12  C   UNK A   1      -8.902  12.098  68.282  1.00  0.00    -0.182 C  
HETATM   13  O   UNK A   1      -7.809  12.631  68.400  1.00  0.00    -0.136 OA 
HETATM   14  O   UNK A   1     -10.065  12.709  68.620  1.00  0.00    -0.206 OA 
BRANCH  11  15
HETATM   15  C   UNK A   1      -9.175  10.735  66.187  1.00  0.00    -0.202 C  
BRANCH  15  16
HETATM   16  C   UNK A   1     -10.603  10.829  65.622  1.00  0.00    -0.199 C  
BRANCH  16  17
HETATM   17  C   UNK A   1     -11.024  12.250  65.322  1.00  0.00    -0.347 A  
HETATM   18  C   UNK A   1     -12.382  12.594  65.296  1.00  0.00    -0.528 A  
HETATM   19  C   UNK A   1     -11.825  14.886  64.771  1.00  0.00    -0.385 A  
HETATM   20  C   UNK A   1     -12.779  13.905  65.024  1.00  0.00    -0.372 A  
HETATM   21  C   UNK A   1     -10.471  14.561  64.808  1.00  0.00    -0.365 A  
HETATM   22  C   UNK A   1     -10.071  13.253  65.083  1.00  0.00    -0.249 A  
ENDBRANCH  16  17
ENDBRANCH  15  16
ENDBRANCH  11  15
ENDBRANCH   9  11
ENDBRANCH   8   9
BRANCH   8  23
HETATM   23  C   UNK A   1     -10.538   8.001  69.517  1.00  0.00    -0.214 C  
ATOM     24  OXT PRO A   2      -8.442   8.838  73.287  1.00  0.00    -0.366 OA 
HETATM   25  O   UNK A   1     -11.046   7.552  68.488  1.00  0.00     0.041 OA 
ATOM     26  N   PRO A   2     -10.115   7.151  70.539  1.00  0.00    -0.194 N  
ATOM     27  CD  PRO A   2     -10.218   5.702  70.400  1.00  0.00    -0.235 C  
ATOM     28  O   PRO A   2      -7.667   7.844  71.410  1.00  0.00    -0.077 OA 
ATOM     29  C   PRO A   2      -8.645   8.162  72.291  1.00  0.00    -0.175 C  
ATOM     30  CA  PRO A   2      -9.992   7.522  71.959  1.00  0.00    -0.175 C  
ATOM     31  CB  PRO A   2     -10.152   6.216  72.742  1.00  0.00    -0.195 C  
ATOM     32  CG  PRO A   2     -10.729   5.221  71.744  1.00  0.00    -0.240 C  
ENDBRANCH   8  23
ENDBRANCH   7   8
ENDBRANCH   6   7
ENDBRANCH   5   6
ENDBRANCH   3   5
TORSDOF 10
ENDMDL
MODEL      142
REMARK 921   NORMALIZED FREE ENERGY PREDICTED BY IDOCK:   -4.46 KCAL/MOL
REMARK 922        TOTAL FREE ENERGY PREDICTED BY IDOCK:   -9.02 KCAL/MOL
REMARK 923 INTER-LIGAND FREE ENERGY PREDICTED BY IDOCK:   -7.56 KCAL/MOL
REMARK 924 INTRA-LIGAND FREE ENERGY PREDICTED BY IDOCK:   -1.46 KCAL/MOL
REMARK 927      BINDING AFFINITY PREDICTED BY RF-SCORE:    0.00 PKD
ROOT
HETATM    1  N   UNK A   1      -9.402   2.712  66.024  1.00  0.00    -0.350 NA 
HETATM    2  H2  UNK A   1      -9.734   1.856  66.469  1.00  0.00     0.000 HD 
HETATM    3  C   UNK A   1      -9.590   3.882  66.872  1.00  0.00    -0.200 C  
HETATM    4  H1  UNK A   1      -9.845   2.872  65.119  1.00  0.00     0.000 HD 
ENDROOT
BRANCH   3   5
HETATM    5  C   UNK A   1      -8.928   3.642  68.225  1.00  0.00    -0.173 C  
BRANCH   5   6
HETATM    6  C   UNK A   1      -9.502   4.553  69.317  1.00  0.00    -0.242 C  
BRANCH   6   7
HETATM    7  C   UNK A   1     -10.412   5.606  68.675  1.00  0.00    -0.277 C  
BRANCH   7   8
HETATM    8  C   UNK A   1     -10.431   6.985  69.358  1.00  0.00    -0.214 C  
BRANCH   8   9
HETATM    9  N   UNK A   1     -11.756   7.356  69.943  1.00  0.00    -0.498 NA 
HETATM   10  H   UNK A   1     -12.288   6.517  70.175  1.00  0.00     0.000 HD 
BRANCH   9  11
HETATM   11  C   UNK A   1     -11.686   8.269  71.128  1.00  0.00    -0.280 C  
HETATM   12  C   UNK A   1     -11.592   7.391  72.390  1.00  0.00    -0.284 C  
HETATM   13  O   UNK A   1     -11.084   7.740  73.446  1.00  0.00    -0.316 OA 
HETATM   14  O   UNK A   1     -12.151   6.170  72.205  1.00  0.00    -0.327 OA 
BRANCH  11  15
HETATM   15  C   UNK A   1     -12.928   9.181  71.236  1.00  0.00    -0.307 C  
BRANCH  15  16
HETATM   16  C   UNK A   1     -12.629  10.534  71.905  1.00  0.00    -0.349 C  
BRANCH  16  17
HETATM   17  C   UNK A   1     -12.380  11.640  70.904  1.00  0.00    -0.436 A  
HETATM   18  C   UNK A   1     -12.574  12.980  71.269  1.00  0.00    -0.373 A  
HETATM   19  C   UNK A   1     -11.920  13.710  69.061  1.00  0.00    -0.392 A  
HETATM   20  C   UNK A   1     -12.343  14.007  70.353  1.00  0.00    -0.429 A  
HETATM   21  C   UNK A   1     -11.709  12.384  68.689  1.00  0.00    -0.372 A  
HETATM   22  C   UNK A   1     -11.936  11.355  69.604  1.00  0.00    -0.416 A  
ENDBRANCH  16  17
ENDBRANCH  15  16
ENDBRANCH  11  15
ENDBRANCH   9  11
ENDBRANCH   8   9
BRANCH   8  23
HETATM   23  C   UNK A   1      -9.974   8.150  68.409  1.00  0.00    -0.190 C  
ATOM     24  OXT PRO A   2      -6.943   7.442  71.510  1.00  0.00    -0.054 OA 
HETATM   25  O   UNK A   1     -10.723   8.555  67.519  1.00  0.00    -0.248 OA 
ATOM     26  N   PRO A   2      -8.739   8.758  68.640  1.00  0.00    -0.134 N  
ATOM     27  CD  PRO A   2      -8.320   9.921  67.865  1.00  0.00    -0.114 C  
ATOM     28  O   PRO A   2      -8.360   9.186  71.268  1.00  0.00    -0.288 OA 
ATOM     29  C   PRO A   2      -7.597   8.176  70.787  1.00  0.00    -0.071 C  
ATOM     30  CA  PRO A   2      -7.574   8.106  69.260  1.00  0.00    -0.095 C  
ATOM     31  CB  PRO A   2      -6.350   8.857  68.727  1.00  0.00    -0.049 C  
ATOM     32  CG  PRO A   2      -6.862   9.660  67.539  1.00  0.00    -0.082 C  
ENDBRANCH   8  23
ENDBRANCH   7   8
ENDBRANCH   6   7
ENDBRANCH   5   6
ENDBRANCH   3   5
TORSDOF 10
ENDMDL
MODEL      143
REMARK 921   NORMALIZED FREE ENERGY PREDICTED BY IDOCK:   -4.46 KCAL/MOL
REMARK 922        TOTAL FREE ENERGY PREDICTED BY IDOCK:   -9.02 KCAL/MOL
REMARK 923 INTER-LIGAND FREE ENERGY PREDICTED BY IDOCK:   -7.70 KCAL/MOL
REMARK 924 INTRA-LIGAND FREE ENERGY PREDICTED BY IDOCK:   -1.32 KCAL/MOL
REMARK 927      BINDING AFFINITY PREDICTED BY RF-SCORE:    0.00 PKD
ROOT
HETATM    1  N   UNK A   1     -12.965  12.101  63.679  1.00  0.00    -0.790 NA 
HETATM    2  H2  UNK A   1     -13.032  11.685  64.608  1.00  0.00     0.000 HD 
HETATM    3  C   UNK A   1     -11.670  12.728  63.447  1.00  0.00    -0.488 C  
HETATM    4  H1  UNK A   1     -13.708  12.780  63.507  1.00  0.00     0.000 HD 
ENDROOT
BRANCH   3   5
HETATM    5  C   UNK A   1     -10.561  11.714  63.703  1.00  0.00    -0.493 C  
BRANCH   5   6
HETATM    6  C   UNK A   1     -10.569  11.204  65.150  1.00  0.00    -0.319 C  
BRANCH   6   7
HETATM    7  C   UNK A   1      -9.895   9.829  65.208  1.00  0.00    -0.335 C  
BRANCH   7   8
HETATM    8  C   UNK A   1      -9.313   9.422  66.572  1.00  0.00    -0.171 C  
BRANCH   8   9
HETATM    9  N   UNK A   1      -9.488  10.452  67.641  1.00  0.00    -0.148 NA 
HETATM   10  H   UNK A   1      -9.657  11.368  67.225  1.00  0.00     0.000 HD 
BRANCH   9  11
HETATM   11  C   UNK A   1     -10.548  10.137  68.650  1.00  0.00    -0.210 C  
HETATM   12  C   UNK A   1     -11.484  11.357  68.743  1.00  0.00    -0.290 C  
HETATM   13  O   UNK A   1     -12.655  11.313  69.088  1.00  0.00    -0.320 OA 
HETATM   14  O   UNK A   1     -10.855  12.509  68.402  1.00  0.00    -0.224 OA 
BRANCH  11  15
HETATM   15  C   UNK A   1      -9.957   9.845  70.047  1.00  0.00    -0.302 C  
BRANCH  15  16
HETATM   16  C   UNK A   1     -10.347   8.461  70.593  1.00  0.00    -0.224 C  
BRANCH  16  17
HETATM   17  C   UNK A   1     -11.759   8.421  71.135  1.00  0.00    -0.315 A  
HETATM   18  C   UNK A   1     -12.574   7.305  70.901  1.00  0.00    -0.237 A  
HETATM   19  C   UNK A   1     -14.382   8.325  72.137  1.00  0.00    -0.498 A  
HETATM   20  C   UNK A   1     -13.877   7.258  71.401  1.00  0.00    -0.416 A  
HETATM   21  C   UNK A   1     -13.577   9.434  72.390  1.00  0.00    -0.498 A  
HETATM   22  C   UNK A   1     -12.274   9.483  71.895  1.00  0.00    -0.432 A  
ENDBRANCH  16  17
ENDBRANCH  15  16
ENDBRANCH  11  15
ENDBRANCH   9  11
ENDBRANCH   8   9
BRANCH   8  23
HETATM   23  C   UNK A   1      -7.791   9.042  66.506  1.00  0.00    -0.100 C  
ATOM     24  OXT PRO A   2     -10.267   5.422  66.259  1.00  0.00    -0.199 OA 
HETATM   25  O   UNK A   1      -6.928   9.912  66.638  1.00  0.00    -0.083 OA 
ATOM     26  N   PRO A   2      -7.439   7.699  66.365  1.00  0.00    -0.082 N  
ATOM     27  CD  PRO A   2      -6.043   7.280  66.418  1.00  0.00    -0.040 C  
ATOM     28  O   PRO A   2      -8.953   6.142  67.952  1.00  0.00    -0.115 OA 
ATOM     29  C   PRO A   2      -9.282   6.033  66.643  1.00  0.00    -0.142 C  
ATOM     30  CA  PRO A   2      -8.260   6.670  65.704  1.00  0.00    -0.137 C  
ATOM     31  CB  PRO A   2      -7.272   5.607  65.215  1.00  0.00    -0.067 C  
ATOM     32  CG  PRO A   2      -5.902   6.268  65.297  1.00  0.00    -0.025 C  
ENDBRANCH   8  23
ENDBRANCH   7   8
ENDBRANCH   6   7
ENDBRANCH   5   6
ENDBRANCH   3   5
TORSDOF 10
ENDMDL
MODEL      144
REMARK 921   NORMALIZED FREE ENERGY PREDICTED BY IDOCK:   -4.46 KCAL/MOL
REMARK 922        TOTAL FREE ENERGY PREDICTED BY IDOCK:   -9.02 KCAL/MOL
REMARK 923 INTER-LIGAND FREE ENERGY PREDICTED BY IDOCK:   -7.75 KCAL/MOL
REMARK 924 INTRA-LIGAND FREE ENERGY PREDICTED BY IDOCK:   -1.27 KCAL/MOL
REMARK 927      BINDING AFFINITY PREDICTED BY RF-SCORE:    0.00 PKD
ROOT
HETATM    1  N   UNK A   1     -12.382   7.855  72.138  1.00  0.00    -0.403 NA 
HETATM    2  H2  UNK A   1     -12.102   8.482  71.383  1.00  0.00     0.000 HD 
HETATM    3  C   UNK A   1     -11.459   6.739  72.299  1.00  0.00    -0.276 C  
HETATM    4  H1  UNK A   1     -13.329   7.498  72.009  1.00  0.00     0.000 HD 
ENDROOT
BRANCH   3   5
HETATM    5  C   UNK A   1     -10.044   7.273  72.491  1.00  0.00    -0.224 C  
BRANCH   5   6
HETATM    6  C   UNK A   1      -9.917   8.740  72.060  1.00  0.00    -0.391 C  
BRANCH   6   7
HETATM    7  C   UNK A   1      -8.865   8.855  70.953  1.00  0.00    -0.268 C  
BRANCH   7   8
HETATM    8  C   UNK A   1      -9.377   9.342  69.586  1.00  0.00    -0.179 C  
BRANCH   8   9
HETATM    9  N   UNK A   1      -9.918  10.735  69.599  1.00  0.00    -0.442 NA 
HETATM   10  H   UNK A   1      -9.180  11.399  69.831  1.00  0.00     0.000 HD 
BRANCH   9  11
HETATM   11  C   UNK A   1     -10.612  11.152  68.339  1.00  0.00    -0.193 C  
HETATM   12  C   UNK A   1      -9.572  11.846  67.439  1.00  0.00    -0.174 C  
HETATM   13  O   UNK A   1      -9.634  11.907  66.221  1.00  0.00    -0.218 OA 
HETATM   14  O   UNK A   1      -8.565  12.401  68.159  1.00  0.00    -0.173 OA 
BRANCH  11  15
HETATM   15  C   UNK A   1     -11.779  12.126  68.609  1.00  0.00    -0.382 C  
BRANCH  15  16
HETATM   16  C   UNK A   1     -11.337  13.423  69.308  1.00  0.00    -0.314 C  
BRANCH  16  17
HETATM   17  C   UNK A   1     -12.275  13.840  70.418  1.00  0.00    -0.433 A  
HETATM   18  C   UNK A   1     -12.744  15.159  70.489  1.00  0.00    -0.416 A  
HETATM   19  C   UNK A   1     -14.021  14.635  72.471  1.00  0.00    -0.518 A  
HETATM   20  C   UNK A   1     -13.613  15.552  71.509  1.00  0.00    -0.571 A  
HETATM   21  C   UNK A   1     -13.575  13.316  72.405  1.00  0.00    -0.694 A  
HETATM   22  C   UNK A   1     -12.709  12.920  71.385  1.00  0.00    -0.366 A  
ENDBRANCH  16  17
ENDBRANCH  15  16
ENDBRANCH  11  15
ENDBRANCH   9  11
ENDBRANCH   8   9
BRANCH   8  23
HETATM   23  C   UNK A   1     -10.470   8.400  68.965  1.00  0.00    -0.201 C  
ATOM     24  OXT PRO A   2      -6.617   7.788  66.944  1.00  0.00    -0.056 OA 
HETATM   25  O   UNK A   1     -11.640   8.476  69.343  1.00  0.00     0.392 OA 
ATOM     26  N   PRO A   2     -10.102   7.532  67.936  1.00  0.00    -0.173 N  
ATOM     27  CD  PRO A   2     -11.101   6.724  67.245  1.00  0.00    -0.324 C  
ATOM     28  O   PRO A   2      -8.499   8.771  66.167  1.00  0.00    -0.120 OA 
ATOM     29  C   PRO A   2      -7.835   7.882  66.943  1.00  0.00    -0.104 C  
ATOM     30  CA  PRO A   2      -8.758   6.964  67.742  1.00  0.00    -0.120 C  
ATOM     31  CB  PRO A   2      -8.971   5.653  66.980  1.00  0.00    -0.114 C  
ATOM     32  CG  PRO A   2     -10.459   5.357  67.104  1.00  0.00    -0.298 C  
ENDBRANCH   8  23
ENDBRANCH   7   8
ENDBRANCH   6   7
ENDBRANCH   5   6
ENDBRANCH   3   5
TORSDOF 10
ENDMDL
MODEL      145
REMARK 921   NORMALIZED FREE ENERGY PREDICTED BY IDOCK:   -4.46 KCAL/MOL
REMARK 922        TOTAL FREE ENERGY PREDICTED BY IDOCK:   -9.02 KCAL/MOL
REMARK 923 INTER-LIGAND FREE ENERGY PREDICTED BY IDOCK:   -7.19 KCAL/MOL
REMARK 924 INTRA-LIGAND FREE ENERGY PREDICTED BY IDOCK:   -1.82 KCAL/MOL
REMARK 927      BINDING AFFINITY PREDICTED BY RF-SCORE:    0.00 PKD
ROOT
HETATM    1  N   UNK A   1      -6.910  10.683  64.617  1.00  0.00    -0.356 NA 
HETATM    2  H2  UNK A   1      -6.972  11.398  65.342  1.00  0.00     0.000 HD 
HETATM    3  C   UNK A   1      -7.414   9.393  65.070  1.00  0.00    -0.106 C  
HETATM    4  H1  UNK A   1      -5.958  10.572  64.265  1.00  0.00     0.000 HD 
ENDROOT
BRANCH   3   5
HETATM    5  C   UNK A   1      -8.836   9.559  65.595  1.00  0.00    -0.194 C  
BRANCH   5   6
HETATM    6  C   UNK A   1      -9.226   8.439  66.568  1.00  0.00    -0.238 C  
BRANCH   6   7
HETATM    7  C   UNK A   1     -10.427   8.888  67.405  1.00  0.00    -0.347 C  
BRANCH   7   8
HETATM    8  C   UNK A   1     -10.191  10.098  68.327  1.00  0.00    -0.166 C  
BRANCH   8   9
HETATM    9  N   UNK A   1     -10.079   9.747  69.775  1.00  0.00    -0.223 NA 
HETATM   10  H   UNK A   1     -10.542  10.453  70.347  1.00  0.00     0.000 HD 
BRANCH   9  11
HETATM   11  C   UNK A   1     -10.579   8.382  70.132  1.00  0.00    -0.233 C  
HETATM   12  C   UNK A   1     -11.747   8.555  71.122  1.00  0.00    -0.281 C  
HETATM   13  O   UNK A   1     -12.656   7.753  71.275  1.00  0.00    -0.311 OA 
HETATM   14  O   UNK A   1     -11.651   9.710  71.826  1.00  0.00    -0.378 OA 
BRANCH  11  15
HETATM   15  C   UNK A   1      -9.484   7.512  70.788  1.00  0.00    -0.163 C  
BRANCH  15  16
HETATM   16  C   UNK A   1      -9.660   6.008  70.513  1.00  0.00    -0.198 C  
BRANCH  16  17
HETATM   17  C   UNK A   1      -9.955   5.214  71.766  1.00  0.00    -0.244 A  
HETATM   18  C   UNK A   1      -9.998   3.814  71.721  1.00  0.00    -0.227 A  
HETATM   19  C   UNK A   1     -10.499   3.720  74.083  1.00  0.00    -0.268 A  
HETATM   20  C   UNK A   1     -10.267   3.073  72.873  1.00  0.00    -0.235 A  
HETATM   21  C   UNK A   1     -10.444   5.111  74.145  1.00  0.00    -0.326 A  
HETATM   22  C   UNK A   1     -10.173   5.854  72.996  1.00  0.00    -0.211 A  
ENDBRANCH  16  17
ENDBRANCH  15  16
ENDBRANCH  11  15
ENDBRANCH   9  11
ENDBRANCH   8   9
BRANCH   8  23
HETATM   23  C   UNK A   1     -11.290  11.210  68.178  1.00  0.00    -0.309 C  
ATOM     24  OXT PRO A   2      -7.402  12.727  66.805  1.00  0.00     0.140 OA 
HETATM   25  O   UNK A   1     -12.436  11.008  68.583  1.00  0.00    -0.462 OA 
ATOM     26  N   PRO A   2     -10.925  12.447  67.647  1.00  0.00    -0.227 N  
ATOM     27  CD  PRO A   2     -11.876  13.553  67.598  1.00  0.00    -0.363 C  
ATOM     28  O   PRO A   2      -8.573  13.269  68.661  1.00  0.00    -0.101 OA 
ATOM     29  C   PRO A   2      -8.474  12.861  67.374  1.00  0.00    -0.196 C  
ATOM     30  CA  PRO A   2      -9.828  12.672  66.691  1.00  0.00    -0.244 C  
ATOM     31  CB  PRO A   2     -10.203  13.944  65.924  1.00  0.00    -0.326 C  
ATOM     32  CG  PRO A   2     -11.678  14.171  66.228  1.00  0.00    -0.402 C  
ENDBRANCH   8  23
ENDBRANCH   7   8
ENDBRANCH   6   7
ENDBRANCH   5   6
ENDBRANCH   3   5
TORSDOF 10
ENDMDL
MODEL      146
REMARK 921   NORMALIZED FREE ENERGY PREDICTED BY IDOCK:   -4.43 KCAL/MOL
REMARK 922        TOTAL FREE ENERGY PREDICTED BY IDOCK:   -8.98 KCAL/MOL
REMARK 923 INTER-LIGAND FREE ENERGY PREDICTED BY IDOCK:   -7.07 KCAL/MOL
REMARK 924 INTRA-LIGAND FREE ENERGY PREDICTED BY IDOCK:   -1.90 KCAL/MOL
REMARK 927      BINDING AFFINITY PREDICTED BY RF-SCORE:    0.00 PKD
ROOT
HETATM    1  N   UNK A   1      -7.473  13.760  69.362  1.00  0.00    -0.327 NA 
HETATM    2  H2  UNK A   1      -6.974  13.908  70.239  1.00  0.00     0.000 HD 
HETATM    3  C   UNK A   1      -6.584  13.344  68.285  1.00  0.00    -0.105 C  
HETATM    4  H1  UNK A   1      -7.995  14.588  69.072  1.00  0.00     0.000 HD 
ENDROOT
BRANCH   3   5
HETATM    5  C   UNK A   1      -5.805  12.107  68.717  1.00  0.00    -0.055 C  
BRANCH   5   6
HETATM    6  C   UNK A   1      -6.350  10.827  68.073  1.00  0.00    -0.058 C  
BRANCH   6   7
HETATM    7  C   UNK A   1      -6.912   9.908  69.162  1.00  0.00    -0.057 C  
BRANCH   7   8
HETATM    8  C   UNK A   1      -8.442   9.761  69.195  1.00  0.00    -0.143 C  
BRANCH   8   9
HETATM    9  N   UNK A   1      -9.177  11.057  69.323  1.00  0.00    -0.403 NA 
HETATM   10  H   UNK A   1      -8.541  11.795  69.626  1.00  0.00     0.000 HD 
BRANCH   9  11
HETATM   11  C   UNK A   1      -9.918  11.484  68.094  1.00  0.00    -0.192 C  
HETATM   12  C   UNK A   1     -11.416  11.542  68.447  1.00  0.00    -0.298 C  
HETATM   13  O   UNK A   1     -12.238  12.247  67.882  1.00  0.00    -0.409 OA 
HETATM   14  O   UNK A   1     -11.733  10.703  69.465  1.00  0.00    -0.270 OA 
BRANCH  11  15
HETATM   15  C   UNK A   1      -9.711  10.503  66.919  1.00  0.00    -0.218 C  
BRANCH  15  16
HETATM   16  C   UNK A   1      -9.190  11.187  65.643  1.00  0.00    -0.238 C  
BRANCH  16  17
HETATM   17  C   UNK A   1     -10.207  12.115  65.017  1.00  0.00    -0.312 A  
HETATM   18  C   UNK A   1     -11.192  11.607  64.159  1.00  0.00    -0.421 A  
HETATM   19  C   UNK A   1     -12.108  13.820  63.846  1.00  0.00    -0.423 A  
HETATM   20  C   UNK A   1     -12.137  12.455  63.579  1.00  0.00    -0.651 A  
HETATM   21  C   UNK A   1     -11.144  14.337  64.709  1.00  0.00    -0.398 A  
HETATM   22  C   UNK A   1     -10.200  13.491  65.292  1.00  0.00    -0.323 A  
ENDBRANCH  16  17
ENDBRANCH  15  16
ENDBRANCH  11  15
ENDBRANCH   9  11
ENDBRANCH   8   9
BRANCH   8  23
HETATM   23  C   UNK A   1      -8.946   8.801  70.332  1.00  0.00    -0.169 C  
ATOM     24  OXT PRO A   2      -9.245   6.812  66.426  1.00  0.00    -0.160 OA 
HETATM   25  O   UNK A   1      -9.016   9.201  71.495  1.00  0.00    -0.319 OA 
ATOM     26  N   PRO A   2      -9.375   7.519  69.986  1.00  0.00    -0.154 N  
ATOM     27  CD  PRO A   2      -9.963   6.632  70.984  1.00  0.00    -0.183 C  
ATOM     28  O   PRO A   2     -10.893   7.584  67.767  1.00  0.00    -0.180 OA 
ATOM     29  C   PRO A   2      -9.663   7.063  67.545  1.00  0.00    -0.136 C  
ATOM     30  CA  PRO A   2      -8.897   6.746  68.829  1.00  0.00    -0.131 C  
ATOM     31  CB  PRO A   2      -9.102   5.274  69.203  1.00  0.00    -0.136 C  
ATOM     32  CG  PRO A   2      -9.342   5.276  70.707  1.00  0.00    -0.205 C  
ENDBRANCH   8  23
ENDBRANCH   7   8
ENDBRANCH   6   7
ENDBRANCH   5   6
ENDBRANCH   3   5
TORSDOF 10
ENDMDL
MODEL      147
REMARK 921   NORMALIZED FREE ENERGY PREDICTED BY IDOCK:   -4.43 KCAL/MOL
REMARK 922        TOTAL FREE ENERGY PREDICTED BY IDOCK:   -8.97 KCAL/MOL
REMARK 923 INTER-LIGAND FREE ENERGY PREDICTED BY IDOCK:   -8.66 KCAL/MOL
REMARK 924 INTRA-LIGAND FREE ENERGY PREDICTED BY IDOCK:   -0.31 KCAL/MOL
REMARK 927      BINDING AFFINITY PREDICTED BY RF-SCORE:    0.00 PKD
ROOT
HETATM    1  N   UNK A   1     -13.594   9.376  72.460  1.00  0.00    -0.679 NA 
HETATM    2  H2  UNK A   1     -13.541   8.601  73.121  1.00  0.00     0.000 HD 
HETATM    3  C   UNK A   1     -12.314   9.637  71.813  1.00  0.00    -0.392 C  
HETATM    4  H1  UNK A   1     -13.936  10.233  72.896  1.00  0.00     0.000 HD 
ENDROOT
BRANCH   3   5
HETATM    5  C   UNK A   1     -11.802   8.358  71.161  1.00  0.00    -0.314 C  
BRANCH   5   6
HETATM    6  C   UNK A   1     -10.480   8.579  70.416  1.00  0.00    -0.227 C  
BRANCH   6   7
HETATM    7  C   UNK A   1     -10.714   9.531  69.238  1.00  0.00    -0.240 C  
BRANCH   7   8
HETATM    8  C   UNK A   1      -9.723  10.701  69.112  1.00  0.00    -0.189 C  
BRANCH   8   9
HETATM    9  N   UNK A   1      -9.979  11.592  67.940  1.00  0.00    -0.178 NA 
HETATM   10  H   UNK A   1      -9.804  11.090  67.069  1.00  0.00     0.000 HD 
BRANCH   9  11
HETATM   11  C   UNK A   1     -11.337  12.220  67.912  1.00  0.00    -0.298 C  
HETATM   12  C   UNK A   1     -11.562  12.789  66.499  1.00  0.00    -0.376 C  
HETATM   13  O   UNK A   1     -12.656  12.955  65.979  1.00  0.00    -0.467 OA 
HETATM   14  O   UNK A   1     -10.395  13.101  65.883  1.00  0.00    -0.279 OA 
BRANCH  11  15
HETATM   15  C   UNK A   1     -11.475  13.361  68.945  1.00  0.00    -0.347 C  
BRANCH  15  16
HETATM   16  C   UNK A   1     -12.373  12.993  70.138  1.00  0.00    -0.270 C  
BRANCH  16  17
HETATM   17  C   UNK A   1     -12.363  14.044  71.226  1.00  0.00    -0.436 A  
HETATM   18  C   UNK A   1     -11.621  15.222  71.064  1.00  0.00    -0.399 A  
HETATM   19  C   UNK A   1     -12.333  16.008  73.234  1.00  0.00    -0.644 A  
HETATM   20  C   UNK A   1     -11.609  16.198  72.062  1.00  0.00    -0.477 A  
HETATM   21  C   UNK A   1     -13.087  14.849  73.403  1.00  0.00    -0.506 A  
HETATM   22  C   UNK A   1     -13.104  13.873  72.406  1.00  0.00    -0.532 A  
ENDBRANCH  16  17
ENDBRANCH  15  16
ENDBRANCH  11  15
ENDBRANCH   9  11
ENDBRANCH   8   9
BRANCH   8  23
HETATM   23  C   UNK A   1      -8.224  10.237  69.054  1.00  0.00    -0.139 C  
ATOM     24  OXT PRO A   2     -10.111   9.758  65.116  1.00  0.00    -0.262 OA 
HETATM   25  O   UNK A   1      -7.540  10.219  70.079  1.00  0.00    -0.163 OA 
ATOM     26  N   PRO A   2      -7.708   9.783  67.840  1.00  0.00    -0.087 N  
ATOM     27  CD  PRO A   2      -6.361   9.229  67.758  1.00  0.00    -0.059 C  
ATOM     28  O   PRO A   2      -9.468   8.174  66.595  1.00  0.00    -0.182 OA 
ATOM     29  C   PRO A   2      -9.362   9.389  66.007  1.00  0.00    -0.220 C  
ATOM     30  CA  PRO A   2      -8.172  10.205  66.508  1.00  0.00    -0.124 C  
ATOM     31  CB  PRO A   2      -6.976  10.004  65.572  1.00  0.00    -0.124 C  
ATOM     32  CG  PRO A   2      -5.776   9.827  66.493  1.00  0.00    -0.053 C  
ENDBRANCH   8  23
ENDBRANCH   7   8
ENDBRANCH   6   7
ENDBRANCH   5   6
ENDBRANCH   3   5
TORSDOF 10
ENDMDL
MODEL      148
REMARK 921   NORMALIZED FREE ENERGY PREDICTED BY IDOCK:   -4.41 KCAL/MOL
REMARK 922        TOTAL FREE ENERGY PREDICTED BY IDOCK:   -8.95 KCAL/MOL
REMARK 923 INTER-LIGAND FREE ENERGY PREDICTED BY IDOCK:   -7.14 KCAL/MOL
REMARK 924 INTRA-LIGAND FREE ENERGY PREDICTED BY IDOCK:   -1.81 KCAL/MOL
REMARK 927      BINDING AFFINITY PREDICTED BY RF-SCORE:    0.00 PKD
ROOT
HETATM    1  N   UNK A   1     -12.662  10.631  70.791  1.00  0.00    -0.371 NA 
HETATM    2  H2  UNK A   1     -11.787  10.203  71.094  1.00  0.00     0.000 HD 
HETATM    3  C   UNK A   1     -12.457  11.617  69.738  1.00  0.00    -0.025 C  
HETATM    4  H1  UNK A   1     -13.169  11.060  71.565  1.00  0.00     0.000 HD 
ENDROOT
BRANCH   3   5
HETATM    5  C   UNK A   1     -11.698  10.977  68.581  1.00  0.00    -0.367 C  
BRANCH   5   6
HETATM    6  C   UNK A   1     -11.726  11.849  67.320  1.00  0.00    -0.319 C  
BRANCH   6   7
HETATM    7  C   UNK A   1     -10.291  12.198  66.911  1.00  0.00    -0.235 C  
BRANCH   7   8
HETATM    8  C   UNK A   1      -9.187  11.760  67.889  1.00  0.00    -0.181 C  
BRANCH   8   9
HETATM    9  N   UNK A   1      -8.394  12.892  68.460  1.00  0.00    -0.308 NA 
HETATM   10  H   UNK A   1      -7.396  12.688  68.402  1.00  0.00     0.000 HD 
BRANCH   9  11
HETATM   11  C   UNK A   1      -8.685  14.230  67.855  1.00  0.00    -0.178 C  
HETATM   12  C   UNK A   1      -7.336  14.892  67.512  1.00  0.00    -0.204 C  
HETATM   13  O   UNK A   1      -7.174  15.732  66.640  1.00  0.00    -0.168 OA 
HETATM   14  O   UNK A   1      -6.332  14.441  68.303  1.00  0.00    -0.096 OA 
BRANCH  11  15
HETATM   15  C   UNK A   1      -9.469  15.148  68.819  1.00  0.00    -0.209 C  
BRANCH  15  16
HETATM   16  C   UNK A   1     -10.700  15.801  68.166  1.00  0.00    -0.285 C  
BRANCH  16  17
HETATM   17  C   UNK A   1     -10.500  17.272  67.879  1.00  0.00    -0.382 A  
HETATM   18  C   UNK A   1     -10.159  18.154  68.914  1.00  0.00    -0.354 A  
HETATM   19  C   UNK A   1     -10.122  20.009  67.366  1.00  0.00    -0.568 A  
HETATM   20  C   UNK A   1      -9.969  19.513  68.657  1.00  0.00    -0.538 A  
HETATM   21  C   UNK A   1     -10.446  19.141  66.325  1.00  0.00    -0.551 A  
HETATM   22  C   UNK A   1     -10.633  17.781  66.578  1.00  0.00    -0.220 A  
ENDBRANCH  16  17
ENDBRANCH  15  16
ENDBRANCH  11  15
ENDBRANCH   9  11
ENDBRANCH   8   9
BRANCH   8  23
HETATM   23  C   UNK A   1      -8.183  10.727  67.264  1.00  0.00    -0.121 C  
ATOM     24  OXT PRO A   2      -9.633   9.269  71.146  1.00  0.00    -0.273 OA 
HETATM   25  O   UNK A   1      -7.603  10.988  66.208  1.00  0.00    -0.145 OA 
ATOM     26  N   PRO A   2      -7.912   9.549  67.960  1.00  0.00    -0.091 N  
ATOM     27  CD  PRO A   2      -6.899   8.613  67.483  1.00  0.00    -0.071 C  
ATOM     28  O   PRO A   2      -7.584  10.040  70.583  1.00  0.00    -0.286 OA 
ATOM     29  C   PRO A   2      -8.758   9.425  70.309  1.00  0.00    -0.230 C  
ATOM     30  CA  PRO A   2      -8.838   8.875  68.885  1.00  0.00    -0.137 C  
ATOM     31  CB  PRO A   2      -8.429   7.399  68.876  1.00  0.00    -0.129 C  
ATOM     32  CG  PRO A   2      -7.527   7.244  67.659  1.00  0.00    -0.101 C  
ENDBRANCH   8  23
ENDBRANCH   7   8
ENDBRANCH   6   7
ENDBRANCH   5   6
ENDBRANCH   3   5
TORSDOF 10
ENDMDL
MODEL      149
REMARK 921   NORMALIZED FREE ENERGY PREDICTED BY IDOCK:   -4.40 KCAL/MOL
REMARK 922        TOTAL FREE ENERGY PREDICTED BY IDOCK:   -8.93 KCAL/MOL
REMARK 923 INTER-LIGAND FREE ENERGY PREDICTED BY IDOCK:   -7.86 KCAL/MOL
REMARK 924 INTRA-LIGAND FREE ENERGY PREDICTED BY IDOCK:   -1.07 KCAL/MOL
REMARK 927      BINDING AFFINITY PREDICTED BY RF-SCORE:    0.00 PKD
ROOT
HETATM    1  N   UNK A   1      -6.362  18.398  69.139  1.00  0.00    -0.243 NA 
HETATM    2  H2  UNK A   1      -6.783  19.222  68.710  1.00  0.00     0.000 HD 
HETATM    3  C   UNK A   1      -6.928  17.158  68.624  1.00  0.00    -0.209 C  
HETATM    4  H1  UNK A   1      -6.440  18.411  70.156  1.00  0.00     0.000 HD 
ENDROOT
BRANCH   3   5
HETATM    5  C   UNK A   1      -6.812  17.138  67.103  1.00  0.00    -0.211 C  
BRANCH   5   6
HETATM    6  C   UNK A   1      -7.952  16.349  66.448  1.00  0.00    -0.329 C  
BRANCH   6   7
HETATM    7  C   UNK A   1      -8.190  15.054  67.231  1.00  0.00    -0.236 C  
BRANCH   7   8
HETATM    8  C   UNK A   1      -9.636  14.530  67.243  1.00  0.00    -0.226 C  
BRANCH   8   9
HETATM    9  N   UNK A   1     -10.016  13.816  68.500  1.00  0.00    -0.256 NA 
HETATM   10  H   UNK A   1      -9.196  13.377  68.919  1.00  0.00     0.000 HD 
BRANCH   9  11
HETATM   11  C   UNK A   1     -10.724  14.661  69.513  1.00  0.00    -0.184 C  
HETATM   12  C   UNK A   1     -11.865  13.818  70.112  1.00  0.00    -0.290 C  
HETATM   13  O   UNK A   1     -12.345  13.982  71.224  1.00  0.00    -0.347 OA 
HETATM   14  O   UNK A   1     -12.296  12.860  69.253  1.00  0.00    -0.132 OA 
BRANCH  11  15
HETATM   15  C   UNK A   1     -11.316  15.945  68.891  1.00  0.00    -0.377 C  
BRANCH  15  16
HETATM   16  C   UNK A   1     -10.650  17.232  69.407  1.00  0.00    -0.079 C  
BRANCH  16  17
HETATM   17  C   UNK A   1     -10.411  18.249  68.314  1.00  0.00    -0.379 A  
HETATM   18  C   UNK A   1      -9.740  19.446  68.596  1.00  0.00    -0.504 A  
HETATM   19  C   UNK A   1      -9.953  20.148  66.294  1.00  0.00    -0.557 A  
HETATM   20  C   UNK A   1      -9.512  20.389  67.592  1.00  0.00    -0.485 A  
HETATM   21  C   UNK A   1     -10.608  18.955  65.995  1.00  0.00    -0.470 A  
HETATM   22  C   UNK A   1     -10.834  18.010  66.997  1.00  0.00    -0.134 A  
ENDBRANCH  16  17
ENDBRANCH  15  16
ENDBRANCH  11  15
ENDBRANCH   9  11
ENDBRANCH   8   9
BRANCH   8  23
HETATM   23  C   UNK A   1      -9.961  13.586  66.030  1.00  0.00    -0.299 C  
ATOM     24  OXT PRO A   2      -7.618  11.420  69.049  1.00  0.00    -0.126 OA 
HETATM   25  O   UNK A   1     -10.545  14.029  65.039  1.00  0.00    -0.360 OA 
ATOM     26  N   PRO A   2      -9.515  12.265  66.069  1.00  0.00    -0.223 N  
ATOM     27  CD  PRO A   2      -9.685  11.382  64.920  1.00  0.00    -0.247 C  
ATOM     28  O   PRO A   2      -6.994  12.133  66.997  1.00  0.00    -0.137 OA 
ATOM     29  C   PRO A   2      -7.906  11.689  67.894  1.00  0.00    -0.129 C  
ATOM     30  CA  PRO A   2      -9.295  11.478  67.294  1.00  0.00    -0.166 C  
ATOM     31  CB  PRO A   2      -9.462  10.013  66.878  1.00  0.00    -0.203 C  
ATOM     32  CG  PRO A   2     -10.137  10.062  65.513  1.00  0.00    -0.325 C  
ENDBRANCH   8  23
ENDBRANCH   7   8
ENDBRANCH   6   7
ENDBRANCH   5   6
ENDBRANCH   3   5
TORSDOF 10
ENDMDL
MODEL      150
REMARK 921   NORMALIZED FREE ENERGY PREDICTED BY IDOCK:   -4.37 KCAL/MOL
REMARK 922        TOTAL FREE ENERGY PREDICTED BY IDOCK:   -8.87 KCAL/MOL
REMARK 923 INTER-LIGAND FREE ENERGY PREDICTED BY IDOCK:   -8.43 KCAL/MOL
REMARK 924 INTRA-LIGAND FREE ENERGY PREDICTED BY IDOCK:   -0.44 KCAL/MOL
REMARK 927      BINDING AFFINITY PREDICTED BY RF-SCORE:    0.00 PKD
ROOT
HETATM    1  N   UNK A   1      -9.785   9.842  64.710  1.00  0.00    -0.397 NA 
HETATM    2  H2  UNK A   1      -9.775   9.360  65.609  1.00  0.00     0.000 HD 
HETATM    3  C   UNK A   1     -10.689  10.985  64.707  1.00  0.00    -0.234 C  
HETATM    4  H1  UNK A   1     -10.024   9.217  63.940  1.00  0.00     0.000 HD 
ENDROOT
BRANCH   3   5
HETATM    5  C   UNK A   1     -10.332  11.919  65.858  1.00  0.00    -0.277 C  
BRANCH   5   6
HETATM    6  C   UNK A   1     -11.257  11.726  67.066  1.00  0.00    -0.382 C  
BRANCH   6   7
HETATM    7  C   UNK A   1     -10.423  11.320  68.285  1.00  0.00    -0.220 C  
BRANCH   7   8
HETATM    8  C   UNK A   1     -10.662   9.897  68.820  1.00  0.00    -0.220 C  
BRANCH   8   9
HETATM    9  N   UNK A   1     -10.166   9.679  70.213  1.00  0.00    -0.261 NA 
HETATM   10  H   UNK A   1      -9.439  10.358  70.440  1.00  0.00     0.000 HD 
BRANCH   9  11
HETATM   11  C   UNK A   1     -11.230   9.687  71.267  1.00  0.00    -0.376 C  
HETATM   12  C   UNK A   1     -11.446   8.233  71.725  1.00  0.00    -0.293 C  
HETATM   13  O   UNK A   1     -11.869   7.903  72.823  1.00  0.00    -0.340 OA 
HETATM   14  O   UNK A   1     -11.119   7.340  70.758  1.00  0.00    -0.252 OA 
BRANCH  11  15
HETATM   15  C   UNK A   1     -12.566  10.258  70.743  1.00  0.00    -0.442 C  
BRANCH  15  16
HETATM   16  C   UNK A   1     -13.286  11.153  71.767  1.00  0.00    -0.486 C  
BRANCH  16  17
HETATM   17  C   UNK A   1     -13.056  12.627  71.521  1.00  0.00    -0.373 A  
HETATM   18  C   UNK A   1     -13.822  13.584  72.199  1.00  0.00    -0.628 A  
HETATM   19  C   UNK A   1     -12.641  15.371  71.081  1.00  0.00    -0.485 A  
HETATM   20  C   UNK A   1     -13.614  14.948  71.981  1.00  0.00    -0.508 A  
HETATM   21  C   UNK A   1     -11.861  14.431  70.412  1.00  0.00    -0.381 A  
HETATM   22  C   UNK A   1     -12.064  13.067  70.630  1.00  0.00    -0.333 A  
ENDBRANCH  16  17
ENDBRANCH  15  16
ENDBRANCH  11  15
ENDBRANCH   9  11
ENDBRANCH   8   9
BRANCH   8  23
HETATM   23  C   UNK A   1     -10.045   8.782  67.902  1.00  0.00    -0.207 C  
ATOM     24  OXT PRO A   2      -6.968  10.412  70.582  1.00  0.00    -0.324 OA 
HETATM   25  O   UNK A   1     -10.729   8.253  67.024  1.00  0.00    -0.307 OA 
ATOM     26  N   PRO A   2      -8.697   8.455  68.057  1.00  0.00    -0.138 N  
ATOM     27  CD  PRO A   2      -8.046   7.514  67.152  1.00  0.00    -0.118 C  
ATOM     28  O   PRO A   2      -7.203  10.672  68.349  1.00  0.00    -0.079 OA 
ATOM     29  C   PRO A   2      -7.342   9.979  69.503  1.00  0.00    -0.112 C  
ATOM     30  CA  PRO A   2      -7.929   8.582  69.306  1.00  0.00    -0.111 C  
ATOM     31  CB  PRO A   2      -6.797   7.556  69.200  1.00  0.00    -0.056 C  
ATOM     32  CG  PRO A   2      -7.199   6.637  68.054  1.00  0.00    -0.091 C  
ENDBRANCH   8  23
ENDBRANCH   7   8
ENDBRANCH   6   7
ENDBRANCH   5   6
ENDBRANCH   3   5
TORSDOF 10
ENDMDL
MODEL      151
REMARK 921   NORMALIZED FREE ENERGY PREDICTED BY IDOCK:   -4.36 KCAL/MOL
REMARK 922        TOTAL FREE ENERGY PREDICTED BY IDOCK:   -8.87 KCAL/MOL
REMARK 923 INTER-LIGAND FREE ENERGY PREDICTED BY IDOCK:   -7.26 KCAL/MOL
REMARK 924 INTRA-LIGAND FREE ENERGY PREDICTED BY IDOCK:   -1.61 KCAL/MOL
REMARK 927      BINDING AFFINITY PREDICTED BY RF-SCORE:    0.00 PKD
ROOT
HETATM    1  N   UNK A   1      -6.708  17.680  68.394  1.00  0.00    -0.196 NA 
HETATM    2  H2  UNK A   1      -7.014  17.550  67.430  1.00  0.00     0.000 HD 
HETATM    3  C   UNK A   1      -7.145  16.593  69.261  1.00  0.00    -0.212 C  
HETATM    4  H1  UNK A   1      -7.021  18.571  68.781  1.00  0.00     0.000 HD 
ENDROOT
BRANCH   3   5
HETATM    5  C   UNK A   1      -6.677  15.262  68.684  1.00  0.00    -0.101 C  
BRANCH   5   6
HETATM    6  C   UNK A   1      -7.522  14.827  67.480  1.00  0.00    -0.221 C  
BRANCH   6   7
HETATM    7  C   UNK A   1      -8.098  13.431  67.740  1.00  0.00    -0.173 C  
BRANCH   7   8
HETATM    8  C   UNK A   1      -8.952  12.834  66.609  1.00  0.00    -0.150 C  
BRANCH   8   9
HETATM    9  N   UNK A   1     -10.395  12.665  66.959  1.00  0.00    -0.232 NA 
HETATM   10  H   UNK A   1     -10.563  11.726  67.322  1.00  0.00     0.000 HD 
BRANCH   9  11
HETATM   11  C   UNK A   1     -10.937  13.691  67.905  1.00  0.00    -0.259 C  
HETATM   12  C   UNK A   1     -11.868  12.968  68.897  1.00  0.00    -0.316 C  
HETATM   13  O   UNK A   1     -12.118  13.357  70.028  1.00  0.00    -0.326 OA 
HETATM   14  O   UNK A   1     -12.398  11.838  68.367  1.00  0.00    -0.364 OA 
BRANCH  11  15
HETATM   15  C   UNK A   1     -11.732  14.796  67.176  1.00  0.00    -0.351 C  
BRANCH  15  16
HETATM   16  C   UNK A   1     -10.892  15.566  66.143  1.00  0.00    -0.295 C  
BRANCH  16  17
HETATM   17  C   UNK A   1     -10.607  16.991  66.564  1.00  0.00    -0.172 A  
HETATM   18  C   UNK A   1     -10.508  18.005  65.603  1.00  0.00    -0.101 A  
HETATM   19  C   UNK A   1     -10.081  19.643  67.327  1.00  0.00    -0.534 A  
HETATM   20  C   UNK A   1     -10.249  19.324  65.984  1.00  0.00    -0.512 A  
HETATM   21  C   UNK A   1     -10.192  18.647  68.295  1.00  0.00    -0.423 A  
HETATM   22  C   UNK A   1     -10.455  17.329  67.918  1.00  0.00    -0.382 A  
ENDBRANCH  16  17
ENDBRANCH  15  16
ENDBRANCH  11  15
ENDBRANCH   9  11
ENDBRANCH   8   9
BRANCH   8  23
HETATM   23  C   UNK A   1      -8.411  11.453  66.091  1.00  0.00    -0.071 C  
ATOM     24  OXT PRO A   2     -11.493  12.992  63.365  1.00  0.00    -0.425 OA 
HETATM   25  O   UNK A   1      -7.593  10.818  66.759  1.00  0.00    -0.116 OA 
ATOM     26  N   PRO A   2      -8.925  10.934  64.902  1.00  0.00    -0.182 N  
ATOM     27  CD  PRO A   2      -8.546   9.603  64.439  1.00  0.00    -0.191 C  
ATOM     28  O   PRO A   2     -11.594  11.246  64.797  1.00  0.00    -0.010 OA 
ATOM     29  C   PRO A   2     -10.936  12.086  63.964  1.00  0.00    -0.381 C  
ATOM     30  CA  PRO A   2      -9.460  11.732  63.787  1.00  0.00    -0.061 C  
ATOM     31  CB  PRO A   2      -9.282  10.865  62.537  1.00  0.00    -0.339 C  
ATOM     32  CG  PRO A   2      -8.312   9.766  62.950  1.00  0.00    -0.163 C  
ENDBRANCH   8  23
ENDBRANCH   7   8
ENDBRANCH   6   7
ENDBRANCH   5   6
ENDBRANCH   3   5
TORSDOF 10
ENDMDL
MODEL      152
REMARK 921   NORMALIZED FREE ENERGY PREDICTED BY IDOCK:   -4.36 KCAL/MOL
REMARK 922        TOTAL FREE ENERGY PREDICTED BY IDOCK:   -8.86 KCAL/MOL
REMARK 923 INTER-LIGAND FREE ENERGY PREDICTED BY IDOCK:   -8.08 KCAL/MOL
REMARK 924 INTRA-LIGAND FREE ENERGY PREDICTED BY IDOCK:   -0.78 KCAL/MOL
REMARK 927      BINDING AFFINITY PREDICTED BY RF-SCORE:    0.00 PKD
ROOT
HETATM    1  N   UNK A   1     -12.620  14.042  63.660  1.00  0.00    -0.956 NA 
HETATM    2  H2  UNK A   1     -12.036  14.722  63.172  1.00  0.00     0.000 HD 
HETATM    3  C   UNK A   1     -12.171  12.673  63.442  1.00  0.00    -0.517 C  
HETATM    4  H1  UNK A   1     -13.604  14.124  63.401  1.00  0.00     0.000 HD 
ENDROOT
BRANCH   3   5
HETATM    5  C   UNK A   1     -10.701  12.552  63.829  1.00  0.00    -0.483 C  
BRANCH   5   6
HETATM    6  C   UNK A   1     -10.475  12.809  65.324  1.00  0.00    -0.312 C  
BRANCH   6   7
HETATM    7  C   UNK A   1      -9.108  12.252  65.735  1.00  0.00     0.113 C  
BRANCH   7   8
HETATM    8  C   UNK A   1      -8.617  12.643  67.139  1.00  0.00    -0.199 C  
BRANCH   8   9
HETATM    9  N   UNK A   1      -7.657  13.789  67.152  1.00  0.00    -0.360 NA 
HETATM   10  H   UNK A   1      -7.291  13.954  66.215  1.00  0.00     0.000 HD 
BRANCH   9  11
HETATM   11  C   UNK A   1      -8.204  15.059  67.726  1.00  0.00    -0.153 C  
HETATM   12  C   UNK A   1      -7.408  15.375  69.007  1.00  0.00    -0.159 C  
HETATM   13  O   UNK A   1      -7.253  16.493  69.474  1.00  0.00    -0.209 OA 
HETATM   14  O   UNK A   1      -6.895  14.256  69.577  1.00  0.00    -0.131 OA 
BRANCH  11  15
HETATM   15  C   UNK A   1      -9.704  14.944  68.077  1.00  0.00    -0.212 C  
BRANCH  15  16
HETATM   16  C   UNK A   1     -10.212  16.102  68.951  1.00  0.00    -0.245 C  
BRANCH  16  17
HETATM   17  C   UNK A   1     -10.239  17.424  68.217  1.00  0.00    -0.362 A  
HETATM   18  C   UNK A   1     -10.072  18.626  68.918  1.00  0.00    -0.357 A  
HETATM   19  C   UNK A   1     -10.283  19.889  66.869  1.00  0.00    -0.600 A  
HETATM   20  C   UNK A   1     -10.092  19.850  68.247  1.00  0.00    -0.571 A  
HETATM   21  C   UNK A   1     -10.435  18.701  66.157  1.00  0.00    -0.473 A  
HETATM   22  C   UNK A   1     -10.413  17.476  66.825  1.00  0.00    -0.270 A  
ENDBRANCH  16  17
ENDBRANCH  15  16
ENDBRANCH  11  15
ENDBRANCH   9  11
ENDBRANCH   8   9
BRANCH   8  23
HETATM   23  C   UNK A   1      -7.959  11.447  67.917  1.00  0.00    -0.120 C  
ATOM     24  OXT PRO A   2     -12.330  11.011  67.886  1.00  0.00    -0.196 OA 
HETATM   25  O   UNK A   1      -6.741  11.426  68.106  1.00  0.00    -0.057 OA 
ATOM     26  N   PRO A   2      -8.784  10.455  68.446  1.00  0.00    -0.124 N  
ATOM     27  CD  PRO A   2      -8.237   9.389  69.278  1.00  0.00    -0.111 C  
ATOM     28  O   PRO A   2     -10.958  11.535  69.604  1.00  0.00    -0.181 OA 
ATOM     29  C   PRO A   2     -11.240  10.925  68.429  1.00  0.00    -0.285 C  
ATOM     30  CA  PRO A   2     -10.095  10.061  67.903  1.00  0.00    -0.169 C  
ATOM     31  CB  PRO A   2     -10.302   8.607  68.340  1.00  0.00    -0.239 C  
ATOM     32  CG  PRO A   2      -8.929   8.129  68.794  1.00  0.00    -0.144 C  
ENDBRANCH   8  23
ENDBRANCH   7   8
ENDBRANCH   6   7
ENDBRANCH   5   6
ENDBRANCH   3   5
TORSDOF 10
ENDMDL
MODEL      153
REMARK 921   NORMALIZED FREE ENERGY PREDICTED BY IDOCK:   -4.36 KCAL/MOL
REMARK 922        TOTAL FREE ENERGY PREDICTED BY IDOCK:   -8.86 KCAL/MOL
REMARK 923 INTER-LIGAND FREE ENERGY PREDICTED BY IDOCK:   -7.91 KCAL/MOL
REMARK 924 INTRA-LIGAND FREE ENERGY PREDICTED BY IDOCK:   -0.95 KCAL/MOL
REMARK 927      BINDING AFFINITY PREDICTED BY RF-SCORE:    0.00 PKD
ROOT
HETATM    1  N   UNK A   1     -13.468  16.051  73.385  1.00  0.00    -0.774 NA 
HETATM    2  H2  UNK A   1     -13.315  16.802  72.713  1.00  0.00     0.000 HD 
HETATM    3  C   UNK A   1     -13.494  14.739  72.751  1.00  0.00    -0.474 C  
HETATM    4  H1  UNK A   1     -14.324  16.185  73.925  1.00  0.00     0.000 HD 
ENDROOT
BRANCH   3   5
HETATM    5  C   UNK A   1     -12.215  14.539  71.945  1.00  0.00    -0.363 C  
BRANCH   5   6
HETATM    6  C   UNK A   1     -12.474  14.570  70.434  1.00  0.00    -0.407 C  
BRANCH   6   7
HETATM    7  C   UNK A   1     -11.992  13.258  69.807  1.00  0.00    -0.391 C  
BRANCH   7   8
HETATM    8  C   UNK A   1     -11.354  13.373  68.412  1.00  0.00    -0.294 C  
BRANCH   8   9
HETATM    9  N   UNK A   1     -10.778  12.093  67.898  1.00  0.00    -0.201 NA 
HETATM   10  H   UNK A   1     -10.286  12.255  67.020  1.00  0.00     0.000 HD 
BRANCH   9  11
HETATM   11  C   UNK A   1      -9.890  11.371  68.864  1.00  0.00    -0.112 C  
HETATM   12  C   UNK A   1      -8.506  11.221  68.205  1.00  0.00    -0.152 C  
HETATM   13  O   UNK A   1      -7.452  11.108  68.814  1.00  0.00    -0.102 OA 
HETATM   14  O   UNK A   1      -8.583  11.217  66.852  1.00  0.00    -0.139 OA 
BRANCH  11  15
HETATM   15  C   UNK A   1     -10.435   9.971  69.224  1.00  0.00    -0.245 C  
BRANCH  15  16
HETATM   16  C   UNK A   1      -9.881   8.855  68.322  1.00  0.00    -0.187 C  
BRANCH  16  17
HETATM   17  C   UNK A   1     -10.014   7.481  68.940  1.00  0.00    -0.168 A  
HETATM   18  C   UNK A   1      -9.113   6.464  68.601  1.00  0.00    -0.127 A  
HETATM   19  C   UNK A   1     -10.243   4.924  70.080  1.00  0.00    -0.310 A  
HETATM   20  C   UNK A   1      -9.226   5.193  69.170  1.00  0.00    -0.150 A  
HETATM   21  C   UNK A   1     -11.137   5.930  70.438  1.00  0.00    -0.353 A  
HETATM   22  C   UNK A   1     -11.024   7.202  69.874  1.00  0.00    -0.278 A  
ENDBRANCH  16  17
ENDBRANCH  15  16
ENDBRANCH  11  15
ENDBRANCH   9  11
ENDBRANCH   8   9
BRANCH   8  23
HETATM   23  C   UNK A   1     -10.240  14.477  68.331  1.00  0.00    -0.239 C  
ATOM     24  OXT PRO A   2     -12.249  14.067  64.446  1.00  0.00    -0.478 OA 
HETATM   25  O   UNK A   1      -9.507  14.689  69.299  1.00  0.00    -0.122 OA 
ATOM     26  N   PRO A   2     -10.054  15.156  67.127  1.00  0.00    -0.238 N  
ATOM     27  CD  PRO A   2      -8.957  16.104  66.963  1.00  0.00    -0.211 C  
ATOM     28  O   PRO A   2     -10.156  13.458  65.044  1.00  0.00    -0.301 OA 
ATOM     29  C   PRO A   2     -11.257  14.240  65.136  1.00  0.00    -0.345 C  
ATOM     30  CA  PRO A   2     -11.098  15.400  66.118  1.00  0.00    -0.230 C  
ATOM     31  CB  PRO A   2     -10.658  16.659  65.365  1.00  0.00    -0.254 C  
ATOM     32  CG  PRO A   2      -9.572  17.282  66.232  1.00  0.00    -0.268 C  
ENDBRANCH   8  23
ENDBRANCH   7   8
ENDBRANCH   6   7
ENDBRANCH   5   6
ENDBRANCH   3   5
TORSDOF 10
ENDMDL
MODEL      154
REMARK 921   NORMALIZED FREE ENERGY PREDICTED BY IDOCK:   -4.35 KCAL/MOL
REMARK 922        TOTAL FREE ENERGY PREDICTED BY IDOCK:   -8.85 KCAL/MOL
REMARK 923 INTER-LIGAND FREE ENERGY PREDICTED BY IDOCK:   -7.14 KCAL/MOL
REMARK 924 INTRA-LIGAND FREE ENERGY PREDICTED BY IDOCK:   -1.71 KCAL/MOL
REMARK 927      BINDING AFFINITY PREDICTED BY RF-SCORE:    0.00 PKD
ROOT
HETATM    1  N   UNK A   1     -11.614   4.482  65.269  1.00  0.00    -0.943 NA 
HETATM    2  H2  UNK A   1     -12.425   4.907  65.719  1.00  0.00     0.000 HD 
HETATM    3  C   UNK A   1     -10.358   5.018  65.778  1.00  0.00    -0.120 C  
HETATM    4  H1  UNK A   1     -11.641   4.581  64.254  1.00  0.00     0.000 HD 
ENDROOT
BRANCH   3   5
HETATM    5  C   UNK A   1     -10.318   4.869  67.295  1.00  0.00    -0.154 C  
BRANCH   5   6
HETATM    6  C   UNK A   1     -10.975   6.058  68.008  1.00  0.00    -0.340 C  
BRANCH   6   7
HETATM    7  C   UNK A   1     -10.702   7.340  67.215  1.00  0.00    -0.391 C  
BRANCH   7   8
HETATM    8  C   UNK A   1      -9.298   7.948  67.380  1.00  0.00    -0.141 C  
BRANCH   8   9
HETATM    9  N   UNK A   1      -9.197   8.961  68.474  1.00  0.00    -0.137 NA 
HETATM   10  H   UNK A   1      -8.706   9.791  68.144  1.00  0.00     0.000 HD 
BRANCH   9  11
HETATM   11  C   UNK A   1     -10.504   9.347  69.096  1.00  0.00    -0.217 C  
HETATM   12  C   UNK A   1     -10.953  10.675  68.457  1.00  0.00    -0.248 C  
HETATM   13  O   UNK A   1     -12.112  11.049  68.369  1.00  0.00    -0.594 OA 
HETATM   14  O   UNK A   1      -9.902  11.402  68.004  1.00  0.00    -0.174 OA 
BRANCH  11  15
HETATM   15  C   UNK A   1     -10.391   9.532  70.625  1.00  0.00    -0.369 C  
BRANCH  15  16
HETATM   16  C   UNK A   1     -11.595   8.964  71.395  1.00  0.00    -0.382 C  
BRANCH  16  17
HETATM   17  C   UNK A   1     -11.246   7.736  72.206  1.00  0.00    -0.365 A  
HETATM   18  C   UNK A   1     -10.366   7.834  73.293  1.00  0.00    -0.364 A  
HETATM   19  C   UNK A   1     -10.589   5.467  73.728  1.00  0.00    -0.316 A  
HETATM   20  C   UNK A   1     -10.042   6.706  74.049  1.00  0.00    -0.373 A  
HETATM   21  C   UNK A   1     -11.477   5.359  72.660  1.00  0.00    -0.305 A  
HETATM   22  C   UNK A   1     -11.806   6.485  71.904  1.00  0.00    -0.381 A  
ENDBRANCH  16  17
ENDBRANCH  15  16
ENDBRANCH  11  15
ENDBRANCH   9  11
ENDBRANCH   8   9
BRANCH   8  23
HETATM   23  C   UNK A   1      -8.749   8.599  66.061  1.00  0.00    -0.170 C  
ATOM     24  OXT PRO A   2      -5.421   7.133  68.526  1.00  0.00    -0.019 OA 
HETATM   25  O   UNK A   1      -9.521   9.142  65.269  1.00  0.00    -0.221 OA 
ATOM     26  N   PRO A   2      -7.371   8.611  65.841  1.00  0.00    -0.083 N  
ATOM     27  CD  PRO A   2      -6.800   9.308  64.693  1.00  0.00    -0.092 C  
ATOM     28  O   PRO A   2      -6.049   9.261  68.092  1.00  0.00    -0.051 OA 
ATOM     29  C   PRO A   2      -5.931   7.950  67.776  1.00  0.00    -0.042 C  
ATOM     30  CA  PRO A   2      -6.418   7.619  66.365  1.00  0.00    -0.049 C  
ATOM     31  CB  PRO A   2      -5.234   7.631  65.393  1.00  0.00    -0.029 C  
ATOM     32  CG  PRO A   2      -5.741   8.364  64.158  1.00  0.00    -0.064 C  
ENDBRANCH   8  23
ENDBRANCH   7   8
ENDBRANCH   6   7
ENDBRANCH   5   6
ENDBRANCH   3   5
TORSDOF 10
ENDMDL
MODEL      155
REMARK 921   NORMALIZED FREE ENERGY PREDICTED BY IDOCK:   -4.34 KCAL/MOL
REMARK 922        TOTAL FREE ENERGY PREDICTED BY IDOCK:   -8.84 KCAL/MOL
REMARK 923 INTER-LIGAND FREE ENERGY PREDICTED BY IDOCK:   -7.25 KCAL/MOL
REMARK 924 INTRA-LIGAND FREE ENERGY PREDICTED BY IDOCK:   -1.59 KCAL/MOL
REMARK 927      BINDING AFFINITY PREDICTED BY RF-SCORE:    0.00 PKD
ROOT
HETATM    1  N   UNK A   1      -7.515  10.674  64.283  1.00  0.00    -0.347 NA 
HETATM    2  H2  UNK A   1      -7.410  10.725  65.297  1.00  0.00     0.000 HD 
HETATM    3  C   UNK A   1      -8.577   9.760  63.884  1.00  0.00    -0.199 C  
HETATM    4  H1  UNK A   1      -6.645  10.410  63.819  1.00  0.00     0.000 HD 
ENDROOT
BRANCH   3   5
HETATM    5  C   UNK A   1      -9.876  10.155  64.577  1.00  0.00    -0.334 C  
BRANCH   5   6
HETATM    6  C   UNK A   1     -10.009  11.675  64.731  1.00  0.00    -0.292 C  
BRANCH   6   7
HETATM    7  C   UNK A   1     -11.164  11.991  65.686  1.00  0.00    -0.377 C  
BRANCH   7   8
HETATM    8  C   UNK A   1     -10.843  11.892  67.187  1.00  0.00    -0.255 C  
BRANCH   8   9
HETATM    9  N   UNK A   1     -11.839  11.102  67.973  1.00  0.00    -0.631 NA 
HETATM   10  H   UNK A   1     -12.263  10.383  67.386  1.00  0.00     0.000 HD 
BRANCH   9  11
HETATM   11  C   UNK A   1     -11.306  10.494  69.233  1.00  0.00    -0.262 C  
HETATM   12  C   UNK A   1     -10.413   9.303  68.837  1.00  0.00    -0.215 C  
HETATM   13  O   UNK A   1      -9.490   8.869  69.510  1.00  0.00    -0.155 OA 
HETATM   14  O   UNK A   1     -10.774   8.771  67.642  1.00  0.00    -0.234 OA 
BRANCH  11  15
HETATM   15  C   UNK A   1     -12.433   9.995  70.164  1.00  0.00    -0.015 C  
BRANCH  15  16
HETATM   16  C   UNK A   1     -12.000   9.886  71.636  1.00  0.00    -0.427 C  
BRANCH  16  17
HETATM   17  C   UNK A   1     -11.723   8.462  72.062  1.00  0.00    -0.417 A  
HETATM   18  C   UNK A   1     -10.699   8.185  72.978  1.00  0.00    -0.208 A  
HETATM   19  C   UNK A   1     -11.196   5.823  72.870  1.00  0.00    -0.319 A  
HETATM   20  C   UNK A   1     -10.439   6.873  73.380  1.00  0.00    -0.360 A  
HETATM   21  C   UNK A   1     -12.227   6.085  71.970  1.00  0.00    -0.091 A  
HETATM   22  C   UNK A   1     -12.491   7.395  71.569  1.00  0.00    -0.394 A  
ENDBRANCH  16  17
ENDBRANCH  15  16
ENDBRANCH  11  15
ENDBRANCH   9  11
ENDBRANCH   8   9
BRANCH   8  23
HETATM   23  C   UNK A   1     -10.680  13.294  67.877  1.00  0.00    -0.239 C  
ATOM     24  OXT PRO A   2      -6.740  11.472  67.199  1.00  0.00    -0.106 OA 
HETATM   25  O   UNK A   1     -11.675  13.934  68.223  1.00  0.00    -0.320 OA 
ATOM     26  N   PRO A   2      -9.394  13.763  68.149  1.00  0.00    -0.206 N  
ATOM     27  CD  PRO A   2      -9.190  15.000  68.894  1.00  0.00    -0.206 C  
ATOM     28  O   PRO A   2      -7.850  11.797  69.141  1.00  0.00     0.003 OA 
ATOM     29  C   PRO A   2      -7.530  12.121  67.867  1.00  0.00    -0.117 C  
ATOM     30  CA  PRO A   2      -8.184  13.416  67.387  1.00  0.00    -0.183 C  
ATOM     31  CB  PRO A   2      -7.219  14.589  67.589  1.00  0.00    -0.206 C  
ATOM     32  CG  PRO A   2      -8.075  15.715  68.155  1.00  0.00    -0.136 C  
ENDBRANCH   8  23
ENDBRANCH   7   8
ENDBRANCH   6   7
ENDBRANCH   5   6
ENDBRANCH   3   5
TORSDOF 10
ENDMDL
MODEL      156
REMARK 921   NORMALIZED FREE ENERGY PREDICTED BY IDOCK:   -4.34 KCAL/MOL
REMARK 922        TOTAL FREE ENERGY PREDICTED BY IDOCK:   -8.83 KCAL/MOL
REMARK 923 INTER-LIGAND FREE ENERGY PREDICTED BY IDOCK:   -6.63 KCAL/MOL
REMARK 924 INTRA-LIGAND FREE ENERGY PREDICTED BY IDOCK:   -2.20 KCAL/MOL
REMARK 927      BINDING AFFINITY PREDICTED BY RF-SCORE:    0.00 PKD
ROOT
HETATM    1  N   UNK A   1      -9.883   5.505  65.633  1.00  0.00    -0.370 NA 
HETATM    2  H2  UNK A   1     -10.866   5.614  65.885  1.00  0.00     0.000 HD 
HETATM    3  C   UNK A   1      -9.015   6.382  66.407  1.00  0.00    -0.153 C  
HETATM    4  H1  UNK A   1      -9.722   5.657  64.637  1.00  0.00     0.000 HD 
ENDROOT
BRANCH   3   5
HETATM    5  C   UNK A   1      -9.256   6.153  67.895  1.00  0.00    -0.115 C  
BRANCH   5   6
HETATM    6  C   UNK A   1     -10.553   6.814  68.377  1.00  0.00    -0.270 C  
BRANCH   6   7
HETATM    7  C   UNK A   1     -10.576   8.278  67.925  1.00  0.00    -0.212 C  
BRANCH   7   8
HETATM    8  C   UNK A   1     -10.519   9.329  69.047  1.00  0.00    -0.216 C  
BRANCH   8   9
HETATM    9  N   UNK A   1     -11.832   9.575  69.719  1.00  0.00    -0.427 NA 
HETATM   10  H   UNK A   1     -12.600   9.357  69.085  1.00  0.00     0.000 HD 
BRANCH   9  11
HETATM   11  C   UNK A   1     -12.015   8.858  71.021  1.00  0.00    -0.261 C  
HETATM   12  C   UNK A   1     -13.101   9.603  71.818  1.00  0.00    -0.421 C  
HETATM   13  O   UNK A   1     -13.814   9.095  72.670  1.00  0.00    -0.470 OA 
HETATM   14  O   UNK A   1     -13.178  10.913  71.473  1.00  0.00    -0.386 OA 
BRANCH  11  15
HETATM   15  C   UNK A   1     -10.714   8.817  71.853  1.00  0.00    -0.429 C  
BRANCH  15  16
HETATM   16  C   UNK A   1     -10.703   7.694  72.905  1.00  0.00    -0.428 C  
BRANCH  16  17
HETATM   17  C   UNK A   1     -10.076   6.417  72.393  1.00  0.00    -0.191 A  
HETATM   18  C   UNK A   1     -10.728   5.189  72.571  1.00  0.00    -0.286 A  
HETATM   19  C   UNK A   1      -8.929   4.033  71.446  1.00  0.00    -0.160 A  
HETATM   20  C   UNK A   1     -10.158   4.005  72.098  1.00  0.00    -0.233 A  
HETATM   21  C   UNK A   1      -8.277   5.248  71.249  1.00  0.00    -0.119 A  
HETATM   22  C   UNK A   1      -8.846   6.433  71.717  1.00  0.00    -0.139 A  
ENDBRANCH  16  17
ENDBRANCH  15  16
ENDBRANCH  11  15
ENDBRANCH   9  11
ENDBRANCH   8   9
BRANCH   8  23
HETATM   23  C   UNK A   1      -9.951  10.713  68.568  1.00  0.00    -0.167 C  
ATOM     24  OXT PRO A   2      -6.656   8.008  69.630  1.00  0.00    -0.037 OA 
HETATM   25  O   UNK A   1     -10.719  11.638  68.298  1.00  0.00    -0.194 OA 
ATOM     26  N   PRO A   2      -8.568  10.891  68.522  1.00  0.00    -0.145 N  
ATOM     27  CD  PRO A   2      -7.990  12.192  68.200  1.00  0.00    -0.151 C  
ATOM     28  O   PRO A   2      -7.396   9.852  70.709  1.00  0.00    -0.312 OA 
ATOM     29  C   PRO A   2      -7.181   9.110  69.597  1.00  0.00    -0.061 C  
ATOM     30  CA  PRO A   2      -7.579   9.822  68.305  1.00  0.00    -0.081 C  
ATOM     31  CB  PRO A   2      -6.355  10.510  67.695  1.00  0.00    -0.056 C  
ATOM     32  CG  PRO A   2      -6.849  11.881  67.251  1.00  0.00    -0.142 C  
ENDBRANCH   8  23
ENDBRANCH   7   8
ENDBRANCH   6   7
ENDBRANCH   5   6
ENDBRANCH   3   5
TORSDOF 10
ENDMDL
MODEL      157
REMARK 921   NORMALIZED FREE ENERGY PREDICTED BY IDOCK:   -4.31 KCAL/MOL
REMARK 922        TOTAL FREE ENERGY PREDICTED BY IDOCK:   -8.79 KCAL/MOL
REMARK 923 INTER-LIGAND FREE ENERGY PREDICTED BY IDOCK:   -7.39 KCAL/MOL
REMARK 924 INTRA-LIGAND FREE ENERGY PREDICTED BY IDOCK:   -1.41 KCAL/MOL
REMARK 927      BINDING AFFINITY PREDICTED BY RF-SCORE:    0.00 PKD
ROOT
HETATM    1  N   UNK A   1      -6.874  14.341  70.339  1.00  0.00    -0.403 NA 
HETATM    2  H2  UNK A   1      -7.736  14.032  69.889  1.00  0.00     0.000 HD 
HETATM    3  C   UNK A   1      -5.705  13.633  69.834  1.00  0.00    -0.117 C  
HETATM    4  H1  UNK A   1      -6.916  14.250  71.354  1.00  0.00     0.000 HD 
ENDROOT
BRANCH   3   5
HETATM    5  C   UNK A   1      -5.642  13.769  68.317  1.00  0.00    -0.109 C  
BRANCH   5   6
HETATM    6  C   UNK A   1      -6.307  12.585  67.604  1.00  0.00    -0.140 C  
BRANCH   6   7
HETATM    7  C   UNK A   1      -7.750  12.952  67.247  1.00  0.00    -0.122 C  
BRANCH   7   8
HETATM    8  C   UNK A   1      -8.758  11.790  67.236  1.00  0.00    -0.163 C  
BRANCH   8   9
HETATM    9  N   UNK A   1      -8.169  10.470  67.618  1.00  0.00    -0.111 NA 
HETATM   10  H   UNK A   1      -7.249  10.601  68.039  1.00  0.00     0.000 HD 
BRANCH   9  11
HETATM   11  C   UNK A   1      -9.031   9.632  68.510  1.00  0.00    -0.124 C  
HETATM   12  C   UNK A   1      -8.504   9.784  69.949  1.00  0.00    -0.201 C  
HETATM   13  O   UNK A   1      -9.177   9.637  70.958  1.00  0.00    -0.175 OA 
HETATM   14  O   UNK A   1      -7.184  10.096  69.978  1.00  0.00    -0.136 OA 
BRANCH  11  15
HETATM   15  C   UNK A   1      -9.003   8.139  68.116  1.00  0.00    -0.135 C  
BRANCH  15  16
HETATM   16  C   UNK A   1     -10.355   7.433  68.319  1.00  0.00    -0.231 C  
BRANCH  16  17
HETATM   17  C   UNK A   1     -10.478   6.782  69.678  1.00  0.00    -0.243 A  
HETATM   18  C   UNK A   1      -9.431   6.000  70.184  1.00  0.00    -0.182 A  
HETATM   19  C   UNK A   1     -10.687   5.566  72.203  1.00  0.00    -0.288 A  
HETATM   20  C   UNK A   1      -9.535   5.398  71.440  1.00  0.00    -0.188 A  
HETATM   21  C   UNK A   1     -11.729   6.354  71.718  1.00  0.00    -0.376 A  
HETATM   22  C   UNK A   1     -11.627   6.959  70.465  1.00  0.00    -0.396 A  
ENDBRANCH  16  17
ENDBRANCH  15  16
ENDBRANCH  11  15
ENDBRANCH   9  11
ENDBRANCH   8   9
BRANCH   8  23
HETATM   23  C   UNK A   1      -9.486  11.617  65.855  1.00  0.00    -0.228 C  
ATOM     24  OXT PRO A   2     -12.063  13.801  68.664  1.00  0.00    -0.359 OA 
HETATM   25  O   UNK A   1      -8.960  10.961  64.954  1.00  0.00    -0.193 OA 
ATOM     26  N   PRO A   2     -10.762  12.159  65.697  1.00  0.00    -0.265 N  
ATOM     27  CD  PRO A   2     -11.530  11.925  64.478  1.00  0.00    -0.294 C  
ATOM     28  O   PRO A   2     -12.276  11.695  67.871  1.00  0.00    -0.560 OA 
ATOM     29  C   PRO A   2     -11.884  12.987  67.772  1.00  0.00    -0.347 C  
ATOM     30  CA  PRO A   2     -11.281  13.336  66.412  1.00  0.00    -0.302 C  
ATOM     31  CB  PRO A   2     -12.362  13.928  65.503  1.00  0.00    -0.506 C  
ATOM     32  CG  PRO A   2     -12.145  13.271  64.147  1.00  0.00    -0.494 C  
ENDBRANCH   8  23
ENDBRANCH   7   8
ENDBRANCH   6   7
ENDBRANCH   5   6
ENDBRANCH   3   5
TORSDOF 10
ENDMDL
MODEL      158
REMARK 921   NORMALIZED FREE ENERGY PREDICTED BY IDOCK:   -4.31 KCAL/MOL
REMARK 922        TOTAL FREE ENERGY PREDICTED BY IDOCK:   -8.79 KCAL/MOL
REMARK 923 INTER-LIGAND FREE ENERGY PREDICTED BY IDOCK:   -7.37 KCAL/MOL
REMARK 924 INTRA-LIGAND FREE ENERGY PREDICTED BY IDOCK:   -1.42 KCAL/MOL
REMARK 927      BINDING AFFINITY PREDICTED BY RF-SCORE:    0.00 PKD
ROOT
HETATM    1  N   UNK A   1      -7.084  16.520  68.127  1.00  0.00    -0.141 NA 
HETATM    2  H2  UNK A   1      -7.626  16.624  68.984  1.00  0.00     0.000 HD 
HETATM    3  C   UNK A   1      -6.006  15.550  68.271  1.00  0.00    -0.116 C  
HETATM    4  H1  UNK A   1      -6.702  17.408  67.802  1.00  0.00     0.000 HD 
ENDROOT
BRANCH   3   5
HETATM    5  C   UNK A   1      -6.577  14.222  68.756  1.00  0.00    -0.092 C  
BRANCH   5   6
HETATM    6  C   UNK A   1      -6.603  13.165  67.645  1.00  0.00    -0.165 C  
BRANCH   6   7
HETATM    7  C   UNK A   1      -7.818  12.252  67.841  1.00  0.00    -0.146 C  
BRANCH   7   8
HETATM    8  C   UNK A   1      -9.176  12.959  67.982  1.00  0.00    -0.212 C  
BRANCH   8   9
HETATM    9  N   UNK A   1     -10.134  12.264  68.896  1.00  0.00    -0.427 NA 
HETATM   10  H   UNK A   1     -11.094  12.514  68.658  1.00  0.00     0.000 HD 
BRANCH   9  11
HETATM   11  C   UNK A   1      -9.984  10.776  68.948  1.00  0.00    -0.202 C  
HETATM   12  C   UNK A   1     -11.020  10.166  67.984  1.00  0.00    -0.270 C  
HETATM   13  O   UNK A   1     -10.907   9.081  67.435  1.00  0.00    -0.230 OA 
HETATM   14  O   UNK A   1     -12.095  10.975  67.815  1.00  0.00    -0.534 OA 
BRANCH  11  15
HETATM   15  C   UNK A   1     -10.221  10.214  70.368  1.00  0.00    -0.116 C  
BRANCH  15  16
HETATM   16  C   UNK A   1      -9.176   9.166  70.787  1.00  0.00    -0.321 C  
BRANCH  16  17
HETATM   17  C   UNK A   1      -9.799   7.912  71.357  1.00  0.00    -0.203 A  
HETATM   18  C   UNK A   1     -10.022   6.798  70.537  1.00  0.00    -0.197 A  
HETATM   19  C   UNK A   1     -10.953   5.571  72.398  1.00  0.00    -0.310 A  
HETATM   20  C   UNK A   1     -10.594   5.635  71.056  1.00  0.00    -0.318 A  
HETATM   21  C   UNK A   1     -10.723   6.666  73.229  1.00  0.00    -0.315 A  
HETATM   22  C   UNK A   1     -10.149   7.829  72.714  1.00  0.00    -0.344 A  
ENDBRANCH  16  17
ENDBRANCH  15  16
ENDBRANCH  11  15
ENDBRANCH   9  11
ENDBRANCH   8   9
BRANCH   8  23
HETATM   23  C   UNK A   1      -9.897  13.192  66.606  1.00  0.00    -0.261 C  
ATOM     24  OXT PRO A   2     -10.666  16.570  69.307  1.00  0.00    -0.295 OA 
HETATM   25  O   UNK A   1      -9.869  12.319  65.736  1.00  0.00    -0.249 OA 
ATOM     26  N   PRO A   2     -10.623  14.368  66.418  1.00  0.00    -0.292 N  
ATOM     27  CD  PRO A   2     -11.409  14.580  65.207  1.00  0.00    -0.353 C  
ATOM     28  O   PRO A   2     -12.080  14.953  68.603  1.00  0.00    -0.266 OA 
ATOM     29  C   PRO A   2     -11.011  15.771  68.451  1.00  0.00    -0.323 C  
ATOM     30  CA  PRO A   2     -10.345  15.653  67.081  1.00  0.00    -0.285 C  
ATOM     31  CB  PRO A   2     -10.899  16.729  66.142  1.00  0.00    -0.006 C  
ATOM     32  CG  PRO A   2     -11.133  16.018  64.816  1.00  0.00    -0.378 C  
ENDBRANCH   8  23
ENDBRANCH   7   8
ENDBRANCH   6   7
ENDBRANCH   5   6
ENDBRANCH   3   5
TORSDOF 10
ENDMDL
MODEL      159
REMARK 921   NORMALIZED FREE ENERGY PREDICTED BY IDOCK:   -4.30 KCAL/MOL
REMARK 922        TOTAL FREE ENERGY PREDICTED BY IDOCK:   -8.77 KCAL/MOL
REMARK 923 INTER-LIGAND FREE ENERGY PREDICTED BY IDOCK:   -7.89 KCAL/MOL
REMARK 924 INTRA-LIGAND FREE ENERGY PREDICTED BY IDOCK:   -0.88 KCAL/MOL
REMARK 927      BINDING AFFINITY PREDICTED BY RF-SCORE:    0.00 PKD
ROOT
HETATM    1  N   UNK A   1      -6.973   9.763  68.024  1.00  0.00    -0.077 NA 
HETATM    2  H2  UNK A   1      -7.518   9.510  68.849  1.00  0.00     0.000 HD 
HETATM    3  C   UNK A   1      -7.094   8.774  66.960  1.00  0.00    -0.078 C  
HETATM    4  H1  UNK A   1      -5.987   9.908  68.244  1.00  0.00     0.000 HD 
ENDROOT
BRANCH   3   5
HETATM    5  C   UNK A   1      -8.568   8.557  66.632  1.00  0.00    -0.122 C  
BRANCH   5   6
HETATM    6  C   UNK A   1      -9.028   9.418  65.450  1.00  0.00    -0.251 C  
BRANCH   6   7
HETATM    7  C   UNK A   1     -10.325  10.142  65.823  1.00  0.00    -0.216 C  
BRANCH   7   8
HETATM    8  C   UNK A   1     -10.289  10.960  67.125  1.00  0.00    -0.220 C  
BRANCH   8   9
HETATM    9  N   UNK A   1     -11.633  11.187  67.740  1.00  0.00    -0.555 NA 
HETATM   10  H   UNK A   1     -12.361  10.762  67.165  1.00  0.00     0.000 HD 
BRANCH   9  11
HETATM   11  C   UNK A   1     -11.761  10.729  69.159  1.00  0.00    -0.296 C  
HETATM   12  C   UNK A   1     -12.248  11.928  69.996  1.00  0.00    -0.217 C  
HETATM   13  O   UNK A   1     -12.874  11.840  71.041  1.00  0.00    -0.309 OA 
HETATM   14  O   UNK A   1     -11.892  13.113  69.443  1.00  0.00    -0.304 OA 
BRANCH  11  15
HETATM   15  C   UNK A   1     -10.418  10.223  69.732  1.00  0.00    -0.300 C  
BRANCH  15  16
HETATM   16  C   UNK A   1     -10.591   9.229  70.893  1.00  0.00    -0.366 C  
BRANCH  16  17
HETATM   17  C   UNK A   1     -10.200   7.817  70.519  1.00  0.00    -0.201 A  
HETATM   18  C   UNK A   1     -11.036   7.044  69.702  1.00  0.00    -0.254 A  
HETATM   19  C   UNK A   1      -9.487   5.193  69.810  1.00  0.00    -0.210 A  
HETATM   20  C   UNK A   1     -10.680   5.741  69.349  1.00  0.00    -0.397 A  
HETATM   21  C   UNK A   1      -8.638   5.955  70.610  1.00  0.00    -0.133 A  
HETATM   22  C   UNK A   1      -8.990   7.259  70.962  1.00  0.00    -0.149 A  
ENDBRANCH  16  17
ENDBRANCH  15  16
ENDBRANCH  11  15
ENDBRANCH   9  11
ENDBRANCH   8   9
BRANCH   8  23
HETATM   23  C   UNK A   1      -9.587  12.355  66.960  1.00  0.00    -0.211 C  
ATOM     24  OXT PRO A   2     -13.321  12.255  64.647  1.00  0.00    -0.717 OA 
HETATM   25  O   UNK A   1      -8.483  12.557  67.468  1.00  0.00    -0.157 OA 
ATOM     26  N   PRO A   2     -10.203  13.327  66.172  1.00  0.00    -0.290 N  
ATOM     27  CD  PRO A   2      -9.538  14.594  65.888  1.00  0.00    -0.268 C  
ATOM     28  O   PRO A   2     -11.184  12.248  63.912  1.00  0.00    -0.350 OA 
ATOM     29  C   PRO A   2     -12.153  12.575  64.799  1.00  0.00    -0.434 C  
ATOM     30  CA  PRO A   2     -11.654  13.448  65.949  1.00  0.00    -0.342 C  
ATOM     31  CB  PRO A   2     -11.899  14.924  65.623  1.00  0.00    -0.131 C  
ATOM     32  CG  PRO A   2     -10.623  15.642  66.042  1.00  0.00    -0.336 C  
ENDBRANCH   8  23
ENDBRANCH   7   8
ENDBRANCH   6   7
ENDBRANCH   5   6
ENDBRANCH   3   5
TORSDOF 10
ENDMDL
MODEL      160
REMARK 921   NORMALIZED FREE ENERGY PREDICTED BY IDOCK:   -4.30 KCAL/MOL
REMARK 922        TOTAL FREE ENERGY PREDICTED BY IDOCK:   -8.77 KCAL/MOL
REMARK 923 INTER-LIGAND FREE ENERGY PREDICTED BY IDOCK:   -7.03 KCAL/MOL
REMARK 924 INTRA-LIGAND FREE ENERGY PREDICTED BY IDOCK:   -1.75 KCAL/MOL
REMARK 927      BINDING AFFINITY PREDICTED BY RF-SCORE:    0.00 PKD
ROOT
HETATM    1  N   UNK A   1      -8.645   9.771  69.214  1.00  0.00    -0.145 NA 
HETATM    2  H2  UNK A   1      -8.598   8.788  68.945  1.00  0.00     0.000 HD 
HETATM    3  C   UNK A   1      -7.351  10.432  69.113  1.00  0.00    -0.102 C  
HETATM    4  H1  UNK A   1      -9.018   9.895  70.156  1.00  0.00     0.000 HD 
ENDROOT
BRANCH   3   5
HETATM    5  C   UNK A   1      -6.793  10.247  67.706  1.00  0.00    -0.075 C  
BRANCH   5   6
HETATM    6  C   UNK A   1      -7.287  11.332  66.742  1.00  0.00    -0.146 C  
BRANCH   6   7
HETATM    7  C   UNK A   1      -7.969  10.672  65.539  1.00  0.00    -0.116 C  
BRANCH   7   8
HETATM    8  C   UNK A   1      -9.409  10.182  65.767  1.00  0.00    -0.188 C  
BRANCH   8   9
HETATM    9  N   UNK A   1      -9.605   8.723  65.510  1.00  0.00    -0.453 NA 
HETATM   10  H   UNK A   1      -9.123   8.447  64.655  1.00  0.00     0.000 HD 
BRANCH   9  11
HETATM   11  C   UNK A   1      -9.207   7.827  66.641  1.00  0.00    -0.177 C  
HETATM   12  C   UNK A   1      -7.848   7.195  66.283  1.00  0.00    -0.107 C  
HETATM   13  O   UNK A   1      -7.028   6.796  67.096  1.00  0.00    -0.069 OA 
HETATM   14  O   UNK A   1      -7.660   7.120  64.942  1.00  0.00    -0.088 OA 
BRANCH  11  15
HETATM   15  C   UNK A   1     -10.238   6.704  66.888  1.00  0.00    -0.287 C  
BRANCH  15  16
HETATM   16  C   UNK A   1     -11.104   6.939  68.137  1.00  0.00    -0.165 C  
BRANCH  16  17
HETATM   17  C   UNK A   1     -10.530   6.294  69.378  1.00  0.00    -0.298 A  
HETATM   18  C   UNK A   1      -9.906   5.041  69.300  1.00  0.00    -0.266 A  
HETATM   19  C   UNK A   1      -9.455   5.080  71.673  1.00  0.00    -0.198 A  
HETATM   20  C   UNK A   1      -9.371   4.440  70.441  1.00  0.00    -0.219 A  
HETATM   21  C   UNK A   1     -10.059   6.332  71.763  1.00  0.00    -0.211 A  
HETATM   22  C   UNK A   1     -10.592   6.937  70.625  1.00  0.00    -0.248 A  
ENDBRANCH  16  17
ENDBRANCH  15  16
ENDBRANCH  11  15
ENDBRANCH   9  11
ENDBRANCH   8   9
BRANCH   8  23
HETATM   23  C   UNK A   1     -10.471  10.973  64.922  1.00  0.00    -0.303 C  
ATOM     24  OXT PRO A   2     -10.697  12.173  69.142  1.00  0.00    -0.173 OA 
HETATM   25  O   UNK A   1     -10.621  10.722  63.725  1.00  0.00    -0.287 OA 
ATOM     26  N   PRO A   2     -11.282  11.907  65.567  1.00  0.00    -0.317 N  
ATOM     27  CD  PRO A   2     -12.363  12.581  64.854  1.00  0.00    -0.470 C  
ATOM     28  O   PRO A   2     -12.157  10.951  67.924  1.00  0.00    -0.527 OA 
ATOM     29  C   PRO A   2     -11.208  11.907  68.066  1.00  0.00    -0.257 C  
ATOM     30  CA  PRO A   2     -10.912  12.666  66.773  1.00  0.00    -0.262 C  
ATOM     31  CB  PRO A   2     -11.745  13.950  66.725  1.00  0.00    -0.423 C  
ATOM     32  CG  PRO A   2     -12.273  14.028  65.298  1.00  0.00    -0.451 C  
ENDBRANCH   8  23
ENDBRANCH   7   8
ENDBRANCH   6   7
ENDBRANCH   5   6
ENDBRANCH   3   5
TORSDOF 10
ENDMDL
MODEL      161
REMARK 921   NORMALIZED FREE ENERGY PREDICTED BY IDOCK:   -4.29 KCAL/MOL
REMARK 922        TOTAL FREE ENERGY PREDICTED BY IDOCK:   -8.76 KCAL/MOL
REMARK 923 INTER-LIGAND FREE ENERGY PREDICTED BY IDOCK:   -8.36 KCAL/MOL
REMARK 924 INTRA-LIGAND FREE ENERGY PREDICTED BY IDOCK:   -0.40 KCAL/MOL
REMARK 927      BINDING AFFINITY PREDICTED BY RF-SCORE:    0.00 PKD
ROOT
HETATM    1  N   UNK A   1     -14.357   8.790  72.865  1.00  0.00    -1.104 NA 
HETATM    2  H2  UNK A   1     -13.740   8.615  73.659  1.00  0.00     0.000 HD 
HETATM    3  C   UNK A   1     -13.632   9.282  71.701  1.00  0.00    -0.381 C  
HETATM    4  H1  UNK A   1     -15.109   9.439  73.098  1.00  0.00     0.000 HD 
ENDROOT
BRANCH   3   5
HETATM    5  C   UNK A   1     -12.509   8.312  71.353  1.00  0.00    -0.315 C  
BRANCH   5   6
HETATM    6  C   UNK A   1     -11.143   9.007  71.295  1.00  0.00    -0.382 C  
BRANCH   6   7
HETATM    7  C   UNK A   1     -11.011   9.759  69.967  1.00  0.00    -0.319 C  
BRANCH   7   8
HETATM    8  C   UNK A   1      -9.614  10.316  69.645  1.00  0.00    -0.162 C  
BRANCH   8   9
HETATM    9  N   UNK A   1      -9.440  10.741  68.223  1.00  0.00    -0.158 NA 
HETATM   10  H   UNK A   1      -9.589   9.950  67.597  1.00  0.00     0.000 HD 
BRANCH   9  11
HETATM   11  C   UNK A   1     -10.290  11.900  67.804  1.00  0.00    -0.198 C  
HETATM   12  C   UNK A   1      -9.766  12.399  66.445  1.00  0.00    -0.240 C  
HETATM   13  O   UNK A   1     -10.438  12.990  65.613  1.00  0.00    -0.271 OA 
HETATM   14  O   UNK A   1      -8.451  12.116  66.271  1.00  0.00    -0.028 OA 
BRANCH  11  15
HETATM   15  C   UNK A   1     -10.240  13.059  68.824  1.00  0.00    -0.102 C  
BRANCH  15  16
HETATM   16  C   UNK A   1     -11.496  13.946  68.796  1.00  0.00    -0.327 C  
BRANCH  16  17
HETATM   17  C   UNK A   1     -12.127  14.114  70.160  1.00  0.00    -0.411 A  
HETATM   18  C   UNK A   1     -12.601  12.997  70.861  1.00  0.00    -0.364 A  
HETATM   19  C   UNK A   1     -13.298  14.404  72.697  1.00  0.00    -0.599 A  
HETATM   20  C   UNK A   1     -13.182  13.142  72.123  1.00  0.00    -0.561 A  
HETATM   21  C   UNK A   1     -12.817  15.521  72.018  1.00  0.00    -0.500 A  
HETATM   22  C   UNK A   1     -12.233  15.379  70.759  1.00  0.00    -0.430 A  
ENDBRANCH  16  17
ENDBRANCH  15  16
ENDBRANCH  11  15
ENDBRANCH   9  11
ENDBRANCH   8   9
BRANCH   8  23
HETATM   23  C   UNK A   1      -8.454   9.318  70.001  1.00  0.00    -0.176 C  
ATOM     24  OXT PRO A   2     -10.511   8.007  66.348  1.00  0.00    -0.137 OA 
HETATM   25  O   UNK A   1      -7.804   9.468  71.038  1.00  0.00    -0.316 OA 
ATOM     26  N   PRO A   2      -8.224   8.229  69.161  1.00  0.00    -0.120 N  
ATOM     27  CD  PRO A   2      -7.241   7.208  69.508  1.00  0.00    -0.080 C  
ATOM     28  O   PRO A   2     -10.543   7.090  68.414  1.00  0.00    -0.200 OA 
ATOM     29  C   PRO A   2      -9.956   7.788  67.413  1.00  0.00    -0.195 C  
ATOM     30  CA  PRO A   2      -8.515   8.192  67.718  1.00  0.00    -0.132 C  
ATOM     31  CB  PRO A   2      -7.552   7.156  67.130  1.00  0.00    -0.103 C  
ATOM     32  CG  PRO A   2      -6.505   6.926  68.212  1.00  0.00    -0.050 C  
ENDBRANCH   8  23
ENDBRANCH   7   8
ENDBRANCH   6   7
ENDBRANCH   5   6
ENDBRANCH   3   5
TORSDOF 10
ENDMDL
MODEL      162
REMARK 921   NORMALIZED FREE ENERGY PREDICTED BY IDOCK:   -4.28 KCAL/MOL
REMARK 922        TOTAL FREE ENERGY PREDICTED BY IDOCK:   -8.74 KCAL/MOL
REMARK 923 INTER-LIGAND FREE ENERGY PREDICTED BY IDOCK:   -7.42 KCAL/MOL
REMARK 924 INTRA-LIGAND FREE ENERGY PREDICTED BY IDOCK:   -1.33 KCAL/MOL
REMARK 927      BINDING AFFINITY PREDICTED BY RF-SCORE:    0.00 PKD
ROOT
HETATM    1  N   UNK A   1      -6.800  10.965  65.587  1.00  0.00    -0.360 NA 
HETATM    2  H2  UNK A   1      -5.914  10.883  66.087  1.00  0.00     0.000 HD 
HETATM    3  C   UNK A   1      -7.926  10.489  66.379  1.00  0.00    -0.137 C  
HETATM    4  H1  UNK A   1      -6.782  10.477  64.691  1.00  0.00     0.000 HD 
ENDROOT
BRANCH   3   5
HETATM    5  C   UNK A   1      -7.952  11.219  67.717  1.00  0.00    -0.117 C  
BRANCH   5   6
HETATM    6  C   UNK A   1      -7.503  10.317  68.874  1.00  0.00    -0.094 C  
BRANCH   6   7
HETATM    7  C   UNK A   1      -8.592  10.293  69.952  1.00  0.00     0.004 C  
BRANCH   7   8
HETATM    8  C   UNK A   1      -9.707   9.251  69.759  1.00  0.00    -0.189 C  
BRANCH   8   9
HETATM    9  N   UNK A   1     -10.974   9.811  69.198  1.00  0.00    -0.335 NA 
HETATM   10  H   UNK A   1     -11.776   9.278  69.536  1.00  0.00     0.000 HD 
BRANCH   9  11
HETATM   11  C   UNK A   1     -11.181  11.272  69.448  1.00  0.00    -0.280 C  
HETATM   12  C   UNK A   1     -12.231  11.413  70.566  1.00  0.00    -0.386 C  
HETATM   13  O   UNK A   1     -12.321  12.368  71.322  1.00  0.00    -0.248 OA 
HETATM   14  O   UNK A   1     -13.067  10.346  70.617  1.00  0.00    -0.369 OA 
BRANCH  11  15
HETATM   15  C   UNK A   1     -11.679  12.015  68.188  1.00  0.00    -0.398 C  
BRANCH  15  16
HETATM   16  C   UNK A   1     -12.113  13.463  68.471  1.00  0.00    -0.283 C  
BRANCH  16  17
HETATM   17  C   UNK A   1     -11.591  14.444  67.445  1.00  0.00    -0.398 A  
HETATM   18  C   UNK A   1     -11.143  15.711  67.842  1.00  0.00    -0.324 A  
HETATM   19  C   UNK A   1     -10.614  16.278  65.554  1.00  0.00    -0.369 A  
HETATM   20  C   UNK A   1     -10.656  16.620  66.901  1.00  0.00    -0.229 A  
HETATM   21  C   UNK A   1     -11.043  15.016  65.146  1.00  0.00    -0.408 A  
HETATM   22  C   UNK A   1     -11.527  14.103  66.085  1.00  0.00    -0.350 A  
ENDBRANCH  16  17
ENDBRANCH  15  16
ENDBRANCH  11  15
ENDBRANCH   9  11
ENDBRANCH   8   9
BRANCH   8  23
HETATM   23  C   UNK A   1     -10.059   8.474  71.078  1.00  0.00    -0.205 C  
ATOM     24  OXT PRO A   2      -9.670   5.665  67.722  1.00  0.00    -0.116 OA 
HETATM   25  O   UNK A   1     -10.288   9.091  72.119  1.00  0.00    -0.316 OA 
ATOM     26  N   PRO A   2     -10.175   7.084  71.027  1.00  0.00    -0.197 N  
ATOM     27  CD  PRO A   2     -10.617   6.326  72.193  1.00  0.00    -0.223 C  
ATOM     28  O   PRO A   2     -11.528   6.316  68.833  1.00  0.00    -0.331 OA 
ATOM     29  C   PRO A   2     -10.202   6.053  68.750  1.00  0.00    -0.188 C  
ATOM     30  CA  PRO A   2      -9.468   6.206  70.081  1.00  0.00    -0.159 C  
ATOM     31  CB  PRO A   2      -9.370   4.845  70.777  1.00  0.00    -0.211 C  
ATOM     32  CG  PRO A   2      -9.698   5.120  72.238  1.00  0.00    -0.201 C  
ENDBRANCH   8  23
ENDBRANCH   7   8
ENDBRANCH   6   7
ENDBRANCH   5   6
ENDBRANCH   3   5
TORSDOF 10
ENDMDL
MODEL      163
REMARK 921   NORMALIZED FREE ENERGY PREDICTED BY IDOCK:   -4.27 KCAL/MOL
REMARK 922        TOTAL FREE ENERGY PREDICTED BY IDOCK:   -8.72 KCAL/MOL
REMARK 923 INTER-LIGAND FREE ENERGY PREDICTED BY IDOCK:   -7.36 KCAL/MOL
REMARK 924 INTRA-LIGAND FREE ENERGY PREDICTED BY IDOCK:   -1.36 KCAL/MOL
REMARK 927      BINDING AFFINITY PREDICTED BY RF-SCORE:    0.00 PKD
ROOT
HETATM    1  N   UNK A   1     -12.594  13.000  64.610  1.00  0.00    -0.659 NA 
HETATM    2  H2  UNK A   1     -12.755  14.006  64.571  1.00  0.00     0.000 HD 
HETATM    3  C   UNK A   1     -11.460  12.656  65.458  1.00  0.00    -0.340 C  
HETATM    4  H1  UNK A   1     -12.460  12.596  63.682  1.00  0.00     0.000 HD 
ENDROOT
BRANCH   3   5
HETATM    5  C   UNK A   1     -11.659  13.260  66.844  1.00  0.00    -0.408 C  
BRANCH   5   6
HETATM    6  C   UNK A   1     -11.779  12.184  67.930  1.00  0.00    -0.403 C  
BRANCH   6   7
HETATM    7  C   UNK A   1     -11.265  10.849  67.383  1.00  0.00    -0.345 C  
BRANCH   7   8
HETATM    8  C   UNK A   1     -10.434   9.997  68.357  1.00  0.00    -0.205 C  
BRANCH   8   9
HETATM    9  N   UNK A   1     -10.585  10.391  69.792  1.00  0.00    -0.285 NA 
HETATM   10  H   UNK A   1     -10.928  11.348  69.861  1.00  0.00     0.000 HD 
BRANCH   9  11
HETATM   11  C   UNK A   1     -11.440   9.473  70.608  1.00  0.00    -0.297 C  
HETATM   12  C   UNK A   1     -12.659  10.279  71.097  1.00  0.00    -0.400 C  
HETATM   13  O   UNK A   1     -13.745   9.798  71.382  1.00  0.00    -0.299 OA 
HETATM   14  O   UNK A   1     -12.389  11.605  71.187  1.00  0.00    -0.331 OA 
BRANCH  11  15
HETATM   15  C   UNK A   1     -10.686   8.905  71.831  1.00  0.00    -0.426 C  
BRANCH  15  16
HETATM   16  C   UNK A   1     -11.418   7.729  72.502  1.00  0.00    -0.428 C  
BRANCH  16  17
HETATM   17  C   UNK A   1     -10.619   6.446  72.469  1.00  0.00    -0.240 A  
HETATM   18  C   UNK A   1     -10.731   5.571  71.380  1.00  0.00    -0.290 A  
HETATM   19  C   UNK A   1      -9.140   4.058  72.389  1.00  0.00    -0.144 A  
HETATM   20  C   UNK A   1      -9.994   4.385  71.341  1.00  0.00    -0.248 A  
HETATM   21  C   UNK A   1      -9.007   4.926  73.471  1.00  0.00    -0.111 A  
HETATM   22  C   UNK A   1      -9.740   6.113  73.512  1.00  0.00    -0.169 A  
ENDBRANCH  16  17
ENDBRANCH  15  16
ENDBRANCH  11  15
ENDBRANCH   9  11
ENDBRANCH   8   9
BRANCH   8  23
HETATM   23  C   UNK A   1      -8.902   9.984  68.014  1.00  0.00    -0.125 C  
ATOM     24  OXT PRO A   2     -10.822   6.329  66.511  1.00  0.00    -0.229 OA 
HETATM   25  O   UNK A   1      -8.168  10.887  68.419  1.00  0.00    -0.119 OA 
ATOM     26  N   PRO A   2      -8.382   8.900  67.306  1.00  0.00    -0.104 N  
ATOM     27  CD  PRO A   2      -6.948   8.780  67.065  1.00  0.00    -0.074 C  
ATOM     28  O   PRO A   2      -9.381   6.582  68.234  1.00  0.00    -0.121 OA 
ATOM     29  C   PRO A   2      -9.891   6.926  67.028  1.00  0.00    -0.174 C  
ATOM     30  CA  PRO A   2      -9.134   8.068  66.352  1.00  0.00    -0.183 C  
ATOM     31  CB  PRO A   2      -8.088   7.497  65.389  1.00  0.00    -0.133 C  
ATOM     32  CG  PRO A   2      -6.836   8.333  65.621  1.00  0.00    -0.066 C  
ENDBRANCH   8  23
ENDBRANCH   7   8
ENDBRANCH   6   7
ENDBRANCH   5   6
ENDBRANCH   3   5
TORSDOF 10
ENDMDL
MODEL      164
REMARK 921   NORMALIZED FREE ENERGY PREDICTED BY IDOCK:   -4.26 KCAL/MOL
REMARK 922        TOTAL FREE ENERGY PREDICTED BY IDOCK:   -8.71 KCAL/MOL
REMARK 923 INTER-LIGAND FREE ENERGY PREDICTED BY IDOCK:   -6.76 KCAL/MOL
REMARK 924 INTRA-LIGAND FREE ENERGY PREDICTED BY IDOCK:   -1.96 KCAL/MOL
REMARK 927      BINDING AFFINITY PREDICTED BY RF-SCORE:    0.00 PKD
ROOT
HETATM    1  N   UNK A   1      -7.249   8.942  72.425  1.00  0.00    -0.335 NA 
HETATM    2  H2  UNK A   1      -8.014   8.592  71.847  1.00  0.00     0.000 HD 
HETATM    3  C   UNK A   1      -5.955   8.423  71.999  1.00  0.00    -0.054 C  
HETATM    4  H1  UNK A   1      -7.389   8.738  73.415  1.00  0.00     0.000 HD 
ENDROOT
BRANCH   3   5
HETATM    5  C   UNK A   1      -5.746   8.728  70.520  1.00  0.00    -0.027 C  
BRANCH   5   6
HETATM    6  C   UNK A   1      -6.614   7.841  69.620  1.00  0.00    -0.035 C  
BRANCH   6   7
HETATM    7  C   UNK A   1      -7.538   8.725  68.775  1.00  0.00    -0.095 C  
BRANCH   7   8
HETATM    8  C   UNK A   1      -9.015   8.760  69.207  1.00  0.00    -0.144 C  
BRANCH   8   9
HETATM    9  N   UNK A   1      -9.398   9.988  69.967  1.00  0.00    -0.382 NA 
HETATM   10  H   UNK A   1      -8.564  10.495  70.264  1.00  0.00     0.000 HD 
BRANCH   9  11
HETATM   11  C   UNK A   1     -10.332  10.908  69.244  1.00  0.00    -0.187 C  
HETATM   12  C   UNK A   1     -11.562  11.131  70.145  1.00  0.00    -0.323 C  
HETATM   13  O   UNK A   1     -12.281  12.118  70.112  1.00  0.00    -0.292 OA 
HETATM   14  O   UNK A   1     -11.769  10.090  70.990  1.00  0.00    -0.334 OA 
BRANCH  11  15
HETATM   15  C   UNK A   1     -10.795  10.325  67.891  1.00  0.00    -0.337 C  
BRANCH  15  16
HETATM   16  C   UNK A   1     -11.292  11.398  66.906  1.00  0.00    -0.284 C  
BRANCH  16  17
HETATM   17  C   UNK A   1     -10.710  11.237  65.520  1.00  0.00    -0.283 A  
HETATM   18  C   UNK A   1     -11.065  12.126  64.497  1.00  0.00    -0.375 A  
HETATM   19  C   UNK A   1      -9.635  10.957  62.939  1.00  0.00    -0.371 A  
HETATM   20  C   UNK A   1     -10.529  11.987  63.215  1.00  0.00    -0.403 A  
HETATM   21  C   UNK A   1      -9.261  10.075  63.951  1.00  0.00    -0.317 A  
HETATM   22  C   UNK A   1      -9.792  10.214  65.233  1.00  0.00    -0.388 A  
ENDBRANCH  16  17
ENDBRANCH  15  16
ENDBRANCH  11  15
ENDBRANCH   9  11
ENDBRANCH   8   9
BRANCH   8  23
HETATM   23  C   UNK A   1      -9.440   7.509  70.056  1.00  0.00    -0.161 C  
ATOM     24  OXT PRO A   2      -9.486   6.520  65.776  1.00  0.00     0.044 OA 
HETATM   25  O   UNK A   1      -9.565   7.603  71.278  1.00  0.00    -0.157 OA 
ATOM     26  N   PRO A   2      -9.737   6.317  69.394  1.00  0.00    -0.140 N  
ATOM     27  CD  PRO A   2     -10.251   5.163  70.123  1.00  0.00    -0.278 C  
ATOM     28  O   PRO A   2     -11.221   6.787  67.200  1.00  0.00    -0.379 OA 
ATOM     29  C   PRO A   2      -9.943   6.450  66.906  1.00  0.00    -0.167 C  
ATOM     30  CA  PRO A   2      -9.169   5.898  68.102  1.00  0.00    -0.116 C  
ATOM     31  CB  PRO A   2      -9.236   4.368  68.100  1.00  0.00    -0.178 C  
ATOM     32  CG  PRO A   2      -9.497   3.979  69.549  1.00  0.00    -0.257 C  
ENDBRANCH   8  23
ENDBRANCH   7   8
ENDBRANCH   6   7
ENDBRANCH   5   6
ENDBRANCH   3   5
TORSDOF 10
ENDMDL
MODEL      165
REMARK 921   NORMALIZED FREE ENERGY PREDICTED BY IDOCK:   -4.25 KCAL/MOL
REMARK 922        TOTAL FREE ENERGY PREDICTED BY IDOCK:   -8.69 KCAL/MOL
REMARK 923 INTER-LIGAND FREE ENERGY PREDICTED BY IDOCK:   -7.52 KCAL/MOL
REMARK 924 INTRA-LIGAND FREE ENERGY PREDICTED BY IDOCK:   -1.17 KCAL/MOL
REMARK 927      BINDING AFFINITY PREDICTED BY RF-SCORE:    0.00 PKD
ROOT
HETATM    1  N   UNK A   1     -11.353  16.459  63.716  1.00  0.00    -1.362 NA 
HETATM    2  H2  UNK A   1     -10.380  16.204  63.544  1.00  0.00     0.000 HD 
HETATM    3  C   UNK A   1     -12.193  15.293  63.956  1.00  0.00     0.005 C  
HETATM    4  H1  UNK A   1     -11.747  17.012  62.955  1.00  0.00     0.000 HD 
ENDROOT
BRANCH   3   5
HETATM    5  C   UNK A   1     -11.605  14.466  65.094  1.00  0.00    -0.361 C  
BRANCH   5   6
HETATM    6  C   UNK A   1     -12.616  13.462  65.661  1.00  0.00    -0.496 C  
BRANCH   6   7
HETATM    7  C   UNK A   1     -11.866  12.268  66.260  1.00  0.00    -0.387 C  
BRANCH   7   8
HETATM    8  C   UNK A   1     -10.946  12.581  67.453  1.00  0.00    -0.259 C  
BRANCH   8   9
HETATM    9  N   UNK A   1      -9.651  11.834  67.436  1.00  0.00    -0.168 NA 
HETATM   10  H   UNK A   1      -9.129  12.051  66.587  1.00  0.00     0.000 HD 
BRANCH   9  11
HETATM   11  C   UNK A   1      -8.789  12.044  68.642  1.00  0.00    -0.021 C  
HETATM   12  C   UNK A   1      -7.411  12.529  68.154  1.00  0.00    -0.117 C  
HETATM   13  O   UNK A   1      -6.637  13.207  68.813  1.00  0.00    -0.084 OA 
HETATM   14  O   UNK A   1      -7.140  12.108  66.894  1.00  0.00    -0.100 OA 
BRANCH  11  15
HETATM   15  C   UNK A   1      -8.609  10.749  69.464  1.00  0.00     0.114 C  
BRANCH  15  16
HETATM   16  C   UNK A   1      -8.674   9.473  68.606  1.00  0.00    -0.127 C  
BRANCH  16  17
HETATM   17  C   UNK A   1      -9.249   8.292  69.355  1.00  0.00    -0.155 A  
HETATM   18  C   UNK A   1     -10.601   8.279  69.723  1.00  0.00    -0.228 A  
HETATM   19  C   UNK A   1     -10.338   6.105  70.742  1.00  0.00    -0.266 A  
HETATM   20  C   UNK A   1     -11.142   7.191  70.411  1.00  0.00    -0.309 A  
HETATM   21  C   UNK A   1      -8.996   6.097  70.369  1.00  0.00    -0.151 A  
HETATM   22  C   UNK A   1      -8.454   7.181  69.679  1.00  0.00    -0.134 A  
ENDBRANCH  16  17
ENDBRANCH  15  16
ENDBRANCH  11  15
ENDBRANCH   9  11
ENDBRANCH   8   9
BRANCH   8  23
HETATM   23  C   UNK A   1     -11.633  12.335  68.844  1.00  0.00    -0.316 C  
ATOM     24  OXT PRO A   2     -10.374  16.530  68.497  1.00  0.00    -0.257 OA 
HETATM   25  O   UNK A   1     -11.988  11.201  69.168  1.00  0.00    -0.330 OA 
ATOM     26  N   PRO A   2     -11.768  13.408  69.725  1.00  0.00    -0.298 N  
ATOM     27  CD  PRO A   2     -12.288  13.210  71.074  1.00  0.00    -0.265 C  
ATOM     28  O   PRO A   2      -9.519  14.883  69.788  1.00  0.00    -0.015 OA 
ATOM     29  C   PRO A   2     -10.530  15.498  69.130  1.00  0.00    -0.232 C  
ATOM     30  CA  PRO A   2     -11.886  14.822  69.332  1.00  0.00    -0.323 C  
ATOM     31  CB  PRO A   2     -12.640  15.507  70.476  1.00  0.00    -0.462 C  
ATOM     32  CG  PRO A   2     -13.240  14.370  71.293  1.00  0.00    -0.416 C  
ENDBRANCH   8  23
ENDBRANCH   7   8
ENDBRANCH   6   7
ENDBRANCH   5   6
ENDBRANCH   3   5
TORSDOF 10
ENDMDL
MODEL      166
REMARK 921   NORMALIZED FREE ENERGY PREDICTED BY IDOCK:   -4.24 KCAL/MOL
REMARK 922        TOTAL FREE ENERGY PREDICTED BY IDOCK:   -8.68 KCAL/MOL
REMARK 923 INTER-LIGAND FREE ENERGY PREDICTED BY IDOCK:   -6.89 KCAL/MOL
REMARK 924 INTRA-LIGAND FREE ENERGY PREDICTED BY IDOCK:   -1.78 KCAL/MOL
REMARK 927      BINDING AFFINITY PREDICTED BY RF-SCORE:    0.00 PKD
ROOT
HETATM    1  N   UNK A   1     -12.721   8.081  72.646  1.00  0.00    -0.576 NA 
HETATM    2  H2  UNK A   1     -12.945   8.092  71.650  1.00  0.00     0.000 HD 
HETATM    3  C   UNK A   1     -11.305   7.840  72.890  1.00  0.00    -0.349 C  
HETATM    4  H1  UNK A   1     -13.277   7.396  73.158  1.00  0.00     0.000 HD 
ENDROOT
BRANCH   3   5
HETATM    5  C   UNK A   1     -10.474   8.864  72.124  1.00  0.00    -0.320 C  
BRANCH   5   6
HETATM    6  C   UNK A   1     -11.299   9.593  71.056  1.00  0.00    -0.444 C  
BRANCH   6   7
HETATM    7  C   UNK A   1     -10.956   9.026  69.675  1.00  0.00    -0.147 C  
BRANCH   7   8
HETATM    8  C   UNK A   1      -9.772   8.045  69.624  1.00  0.00    -0.169 C  
BRANCH   8   9
HETATM    9  N   UNK A   1      -8.723   8.408  68.622  1.00  0.00    -0.132 NA 
HETATM   10  H   UNK A   1      -7.956   7.737  68.656  1.00  0.00     0.000 HD 
BRANCH   9  11
HETATM   11  C   UNK A   1      -9.221   8.555  67.218  1.00  0.00    -0.141 C  
HETATM   12  C   UNK A   1      -8.374   7.632  66.321  1.00  0.00    -0.133 C  
HETATM   13  O   UNK A   1      -8.749   7.153  65.262  1.00  0.00    -0.050 OA 
HETATM   14  O   UNK A   1      -7.141   7.410  66.840  1.00  0.00    -0.078 OA 
BRANCH  11  15
HETATM   15  C   UNK A   1      -9.101  10.007  66.705  1.00  0.00    -0.169 C  
BRANCH  15  16
HETATM   16  C   UNK A   1     -10.229  10.403  65.737  1.00  0.00    -0.305 C  
BRANCH  16  17
HETATM   17  C   UNK A   1     -10.946  11.667  66.156  1.00  0.00    -0.339 A  
HETATM   18  C   UNK A   1     -10.986  12.042  67.506  1.00  0.00    -0.303 A  
HETATM   19  C   UNK A   1     -12.270  14.013  66.955  1.00  0.00    -0.415 A  
HETATM   20  C   UNK A   1     -11.643  13.209  67.901  1.00  0.00    -0.375 A  
HETATM   21  C   UNK A   1     -12.225  13.660  65.607  1.00  0.00    -0.490 A  
HETATM   22  C   UNK A   1     -11.567  12.496  65.209  1.00  0.00    -0.406 A  
ENDBRANCH  16  17
ENDBRANCH  15  16
ENDBRANCH  11  15
ENDBRANCH   9  11
ENDBRANCH   8   9
BRANCH   8  23
HETATM   23  C   UNK A   1     -10.210   6.561  69.356  1.00  0.00    -0.183 C  
ATOM     24  OXT PRO A   2      -6.712   6.652  72.013  1.00  0.00    -0.061 OA 
HETATM   25  O   UNK A   1     -11.127   6.318  68.570  1.00  0.00    -0.334 OA 
ATOM     26  N   PRO A   2      -9.497   5.530  69.969  1.00  0.00    -0.153 N  
ATOM     27  CD  PRO A   2      -9.786   4.133  69.661  1.00  0.00    -0.199 C  
ATOM     28  O   PRO A   2      -6.851   5.995  69.854  1.00  0.00    -0.059 OA 
ATOM     29  C   PRO A   2      -7.360   6.172  71.096  1.00  0.00    -0.084 C  
ATOM     30  CA  PRO A   2      -8.782   5.636  71.252  1.00  0.00    -0.132 C  
ATOM     31  CB  PRO A   2      -8.740   4.213  71.818  1.00  0.00    -0.135 C  
ATOM     32  CG  PRO A   2      -9.761   3.430  71.004  1.00  0.00    -0.216 C  
ENDBRANCH   8  23
ENDBRANCH   7   8
ENDBRANCH   6   7
ENDBRANCH   5   6
ENDBRANCH   3   5
TORSDOF 10
ENDMDL
MODEL      167
REMARK 921   NORMALIZED FREE ENERGY PREDICTED BY IDOCK:   -4.24 KCAL/MOL
REMARK 922        TOTAL FREE ENERGY PREDICTED BY IDOCK:   -8.68 KCAL/MOL
REMARK 923 INTER-LIGAND FREE ENERGY PREDICTED BY IDOCK:   -6.75 KCAL/MOL
REMARK 924 INTRA-LIGAND FREE ENERGY PREDICTED BY IDOCK:   -1.93 KCAL/MOL
REMARK 927      BINDING AFFINITY PREDICTED BY RF-SCORE:    0.00 PKD
ROOT
HETATM    1  N   UNK A   1      -6.027  16.068  67.022  1.00  0.00    -0.328 NA 
HETATM    2  H2  UNK A   1      -5.961  15.711  66.069  1.00  0.00     0.000 HD 
HETATM    3  C   UNK A   1      -6.580  15.083  67.943  1.00  0.00    -0.158 C  
HETATM    4  H1  UNK A   1      -6.574  16.928  67.074  1.00  0.00     0.000 HD 
ENDROOT
BRANCH   3   5
HETATM    5  C   UNK A   1      -5.763  13.798  67.865  1.00  0.00    -0.116 C  
BRANCH   5   6
HETATM    6  C   UNK A   1      -6.630  12.584  67.507  1.00  0.00    -0.150 C  
BRANCH   6   7
HETATM    7  C   UNK A   1      -7.982  12.698  68.217  1.00  0.00    -0.153 C  
BRANCH   7   8
HETATM    8  C   UNK A   1      -9.221  12.733  67.305  1.00  0.00    -0.203 C  
BRANCH   8   9
HETATM    9  N   UNK A   1      -8.913  12.554  65.853  1.00  0.00    -0.411 NA 
HETATM   10  H   UNK A   1      -7.935  12.776  65.669  1.00  0.00     0.000 HD 
BRANCH   9  11
HETATM   11  C   UNK A   1      -9.251  11.204  65.301  1.00  0.00    -0.198 C  
HETATM   12  C   UNK A   1     -10.168  11.413  64.080  1.00  0.00    -0.324 C  
HETATM   13  O   UNK A   1     -10.273  10.633  63.146  1.00  0.00    -0.250 OA 
HETATM   14  O   UNK A   1     -10.866  12.572  64.160  1.00  0.00    -0.326 OA 
BRANCH  11  15
HETATM   15  C   UNK A   1      -9.978  10.316  66.334  1.00  0.00    -0.287 C  
BRANCH  15  16
HETATM   16  C   UNK A   1      -9.116   9.147  66.842  1.00  0.00    -0.163 C  
BRANCH  16  17
HETATM   17  C   UNK A   1      -9.423   8.770  68.274  1.00  0.00    -0.150 A  
HETATM   18  C   UNK A   1     -10.420   7.827  68.558  1.00  0.00    -0.202 A  
HETATM   19  C   UNK A   1     -10.007   8.054  70.927  1.00  0.00    -0.207 A  
HETATM   20  C   UNK A   1     -10.708   7.470  69.877  1.00  0.00    -0.254 A  
HETATM   21  C   UNK A   1      -9.003   8.982  70.659  1.00  0.00    -0.263 A  
HETATM   22  C   UNK A   1      -8.711   9.338  69.342  1.00  0.00    -0.148 A  
ENDBRANCH  16  17
ENDBRANCH  15  16
ENDBRANCH  11  15
ENDBRANCH   9  11
ENDBRANCH   8   9
BRANCH   8  23
HETATM   23  C   UNK A   1     -10.069  14.046  67.465  1.00  0.00    -0.237 C  
ATOM     24  OXT PRO A   2     -11.529  10.952  70.222  1.00  0.00    -0.300 OA 
HETATM   25  O   UNK A   1      -9.867  15.009  66.723  1.00  0.00    -0.232 OA 
ATOM     26  N   PRO A   2     -11.094  14.071  68.411  1.00  0.00    -0.243 N  
ATOM     27  CD  PRO A   2     -11.987  15.219  68.518  1.00  0.00    -0.201 C  
ATOM     28  O   PRO A   2     -12.503  11.780  68.357  1.00  0.00    -0.207 OA 
ATOM     29  C   PRO A   2     -11.705  11.879  69.447  1.00  0.00    -0.339 C  
ATOM     30  CA  PRO A   2     -11.126  13.278  69.652  1.00  0.00     0.063 C  
ATOM     31  CB  PRO A   2     -12.010  14.067  70.622  1.00  0.00    -0.376 C  
ATOM     32  CG  PRO A   2     -12.133  15.456  70.009  1.00  0.00    -0.388 C  
ENDBRANCH   8  23
ENDBRANCH   7   8
ENDBRANCH   6   7
ENDBRANCH   5   6
ENDBRANCH   3   5
TORSDOF 10
ENDMDL
MODEL      168
REMARK 921   NORMALIZED FREE ENERGY PREDICTED BY IDOCK:   -4.24 KCAL/MOL
REMARK 922        TOTAL FREE ENERGY PREDICTED BY IDOCK:   -8.68 KCAL/MOL
REMARK 923 INTER-LIGAND FREE ENERGY PREDICTED BY IDOCK:   -7.00 KCAL/MOL
REMARK 924 INTRA-LIGAND FREE ENERGY PREDICTED BY IDOCK:   -1.67 KCAL/MOL
REMARK 927      BINDING AFFINITY PREDICTED BY RF-SCORE:    0.00 PKD
ROOT
HETATM    1  N   UNK A   1     -13.296  12.142  64.217  1.00  0.00    -0.647 NA 
HETATM    2  H2  UNK A   1     -13.073  11.854  65.170  1.00  0.00     0.000 HD 
HETATM    3  C   UNK A   1     -12.102  12.446  63.439  1.00  0.00    -0.524 C  
HETATM    4  H1  UNK A   1     -13.930  12.941  64.196  1.00  0.00     0.000 HD 
ENDROOT
BRANCH   3   5
HETATM    5  C   UNK A   1     -11.155  11.252  63.472  1.00  0.00    -0.261 C  
BRANCH   5   6
HETATM    6  C   UNK A   1      -9.786  11.618  64.059  1.00  0.00    -0.225 C  
BRANCH   6   7
HETATM    7  C   UNK A   1      -9.412  10.606  65.147  1.00  0.00    -0.276 C  
BRANCH   7   8
HETATM    8  C   UNK A   1      -9.470  11.122  66.595  1.00  0.00    -0.183 C  
BRANCH   8   9
HETATM    9  N   UNK A   1      -9.245  10.066  67.628  1.00  0.00    -0.137 NA 
HETATM   10  H   UNK A   1      -8.615   9.348  67.268  1.00  0.00     0.000 HD 
BRANCH   9  11
HETATM   11  C   UNK A   1      -8.753  10.572  68.948  1.00  0.00    -0.154 C  
HETATM   12  C   UNK A   1      -7.217  10.659  68.874  1.00  0.00    -0.090 C  
HETATM   13  O   UNK A   1      -6.528  11.416  69.542  1.00  0.00    -0.096 OA 
HETATM   14  O   UNK A   1      -6.700   9.784  67.976  1.00  0.00    -0.061 OA 
BRANCH  11  15
HETATM   15  C   UNK A   1      -9.152   9.643  70.116  1.00  0.00    -0.280 C  
BRANCH  15  16
HETATM   16  C   UNK A   1      -9.657   8.267  69.650  1.00  0.00    -0.167 C  
BRANCH  16  17
HETATM   17  C   UNK A   1     -10.167   7.413  70.789  1.00  0.00    -0.200 A  
HETATM   18  C   UNK A   1     -10.594   8.009  71.983  1.00  0.00    -0.310 A  
HETATM   19  C   UNK A   1     -11.122   5.844  72.915  1.00  0.00    -0.306 A  
HETATM   20  C   UNK A   1     -11.070   7.228  73.038  1.00  0.00    -0.361 A  
HETATM   21  C   UNK A   1     -10.715   5.238  71.728  1.00  0.00    -0.240 A  
HETATM   22  C   UNK A   1     -10.242   6.016  70.670  1.00  0.00    -0.260 A  
ENDBRANCH  16  17
ENDBRANCH  15  16
ENDBRANCH  11  15
ENDBRANCH   9  11
ENDBRANCH   8   9
BRANCH   8  23
HETATM   23  C   UNK A   1     -10.816  11.857  66.934  1.00  0.00    -0.263 C  
ATOM     24  OXT PRO A   2      -7.496  14.734  66.859  1.00  0.00    -0.014 OA 
HETATM   25  O   UNK A   1     -11.855  11.211  67.080  1.00  0.00    -0.466 OA 
ATOM     26  N   PRO A   2     -10.795  13.238  67.135  1.00  0.00    -0.256 N  
ATOM     27  CD  PRO A   2     -11.991  13.950  67.569  1.00  0.00    -0.386 C  
ATOM     28  O   PRO A   2      -8.674  13.956  68.625  1.00  0.00    -0.158 OA 
ATOM     29  C   PRO A   2      -8.539  14.300  67.322  1.00  0.00    -0.215 C  
ATOM     30  CA  PRO A   2      -9.835  14.171  66.523  1.00  0.00    -0.290 C  
ATOM     31  CB  PRO A   2     -10.550  15.525  66.475  1.00  0.00    -0.307 C  
ATOM     32  CG  PRO A   2     -12.019  15.208  66.723  1.00  0.00     0.130 C  
ENDBRANCH   8  23
ENDBRANCH   7   8
ENDBRANCH   6   7
ENDBRANCH   5   6
ENDBRANCH   3   5
TORSDOF 10
ENDMDL
MODEL      169
REMARK 921   NORMALIZED FREE ENERGY PREDICTED BY IDOCK:   -4.23 KCAL/MOL
REMARK 922        TOTAL FREE ENERGY PREDICTED BY IDOCK:   -8.66 KCAL/MOL
REMARK 923 INTER-LIGAND FREE ENERGY PREDICTED BY IDOCK:   -7.73 KCAL/MOL
REMARK 924 INTRA-LIGAND FREE ENERGY PREDICTED BY IDOCK:   -0.93 KCAL/MOL
REMARK 927      BINDING AFFINITY PREDICTED BY RF-SCORE:    0.00 PKD
ROOT
HETATM    1  N   UNK A   1     -13.047  12.855  64.901  1.00  0.00    -0.808 NA 
HETATM    2  H2  UNK A   1     -12.813  12.313  65.732  1.00  0.00     0.000 HD 
HETATM    3  C   UNK A   1     -11.863  13.256  64.152  1.00  0.00    -0.443 C  
HETATM    4  H1  UNK A   1     -13.605  13.680  65.124  1.00  0.00     0.000 HD 
ENDROOT
BRANCH   3   5
HETATM    5  C   UNK A   1     -11.031  12.023  63.818  1.00  0.00    -0.492 C  
BRANCH   5   6
HETATM    6  C   UNK A   1      -9.946  11.758  64.869  1.00  0.00    -0.280 C  
BRANCH   6   7
HETATM    7  C   UNK A   1     -10.175  10.381  65.500  1.00  0.00    -0.316 C  
BRANCH   7   8
HETATM    8  C   UNK A   1     -10.091  10.322  67.035  1.00  0.00    -0.218 C  
BRANCH   8   9
HETATM    9  N   UNK A   1     -10.857   9.192  67.644  1.00  0.00    -0.475 NA 
HETATM   10  H   UNK A   1     -11.034   8.469  66.947  1.00  0.00     0.000 HD 
BRANCH   9  11
HETATM   11  C   UNK A   1     -10.230   8.592  68.864  1.00  0.00    -0.207 C  
HETATM   12  C   UNK A   1      -9.601   7.247  68.455  1.00  0.00    -0.139 C  
HETATM   13  O   UNK A   1      -8.660   6.715  69.024  1.00  0.00    -0.128 OA 
HETATM   14  O   UNK A   1     -10.222   6.701  67.380  1.00  0.00    -0.152 OA 
BRANCH  11  15
HETATM   15  C   UNK A   1     -11.258   8.349  69.991  1.00  0.00    -0.085 C  
BRANCH  15  16
HETATM   16  C   UNK A   1     -10.919   9.096  71.292  1.00  0.00    -0.400 C  
BRANCH  16  17
HETATM   17  C   UNK A   1     -10.354   8.187  72.360  1.00  0.00    -0.382 A  
HETATM   18  C   UNK A   1      -9.102   8.458  72.928  1.00  0.00    -0.282 A  
HETATM   19  C   UNK A   1      -9.288   6.512  74.348  1.00  0.00    -0.243 A  
HETATM   20  C   UNK A   1      -8.574   7.625  73.917  1.00  0.00    -0.287 A  
HETATM   21  C   UNK A   1     -10.541   6.239  73.803  1.00  0.00    -0.261 A  
HETATM   22  C   UNK A   1     -11.072   7.071  72.817  1.00  0.00    -0.320 A  
ENDBRANCH  16  17
ENDBRANCH  15  16
ENDBRANCH  11  15
ENDBRANCH   9  11
ENDBRANCH   8   9
BRANCH   8  23
HETATM   23  C   UNK A   1     -10.551  11.653  67.730  1.00  0.00    -0.194 C  
ATOM     24  OXT PRO A   2      -6.199  11.684  67.127  1.00  0.00    -0.102 OA 
HETATM   25  O   UNK A   1     -11.729  11.806  68.058  1.00  0.00    -0.402 OA 
ATOM     26  N   PRO A   2      -9.591  12.620  68.029  1.00  0.00    -0.207 N  
ATOM     27  CD  PRO A   2      -9.945  13.820  68.781  1.00  0.00    -0.112 C  
ATOM     28  O   PRO A   2      -7.375  11.487  69.048  1.00  0.00    -0.115 OA 
ATOM     29  C   PRO A   2      -7.201  11.930  67.780  1.00  0.00    -0.104 C  
ATOM     30  CA  PRO A   2      -8.335  12.829  67.290  1.00  0.00    -0.187 C  
ATOM     31  CB  PRO A   2      -7.964  14.298  67.514  1.00  0.00    -0.203 C  
ATOM     32  CG  PRO A   2      -9.227  14.948  68.065  1.00  0.00    -0.185 C  
ENDBRANCH   8  23
ENDBRANCH   7   8
ENDBRANCH   6   7
ENDBRANCH   5   6
ENDBRANCH   3   5
TORSDOF 10
ENDMDL
MODEL      170
REMARK 921   NORMALIZED FREE ENERGY PREDICTED BY IDOCK:   -4.23 KCAL/MOL
REMARK 922        TOTAL FREE ENERGY PREDICTED BY IDOCK:   -8.66 KCAL/MOL
REMARK 923 INTER-LIGAND FREE ENERGY PREDICTED BY IDOCK:   -7.01 KCAL/MOL
REMARK 924 INTRA-LIGAND FREE ENERGY PREDICTED BY IDOCK:   -1.65 KCAL/MOL
REMARK 927      BINDING AFFINITY PREDICTED BY RF-SCORE:    0.00 PKD
ROOT
HETATM    1  N   UNK A   1     -14.396   9.056  70.773  1.00  0.00    -0.348 NA 
HETATM    2  H2  UNK A   1     -13.700   8.706  70.114  1.00  0.00     0.000 HD 
HETATM    3  C   UNK A   1     -14.014   8.816  72.158  1.00  0.00    -0.460 C  
HETATM    4  H1  UNK A   1     -15.321   8.660  70.601  1.00  0.00     0.000 HD 
ENDROOT
BRANCH   3   5
HETATM    5  C   UNK A   1     -12.632   9.407  72.415  1.00  0.00    -0.307 C  
BRANCH   5   6
HETATM    6  C   UNK A   1     -11.938   9.837  71.116  1.00  0.00    -0.463 C  
BRANCH   6   7
HETATM    7  C   UNK A   1     -10.494   9.327  71.119  1.00  0.00    -0.401 C  
BRANCH   7   8
HETATM    8  C   UNK A   1     -10.270   7.936  70.501  1.00  0.00    -0.198 C  
BRANCH   8   9
HETATM    9  N   UNK A   1     -11.293   7.549  69.482  1.00  0.00    -0.455 NA 
HETATM   10  H   UNK A   1     -12.106   8.162  69.547  1.00  0.00     0.000 HD 
BRANCH   9  11
HETATM   11  C   UNK A   1     -10.791   7.503  68.073  1.00  0.00    -0.030 C  
HETATM   12  C   UNK A   1     -10.678   6.022  67.664  1.00  0.00    -0.296 C  
HETATM   13  O   UNK A   1     -10.743   5.609  66.516  1.00  0.00    -0.288 OA 
HETATM   14  O   UNK A   1     -10.484   5.212  68.734  1.00  0.00    -0.148 OA 
BRANCH  11  15
HETATM   15  C   UNK A   1      -9.410   8.178  67.922  1.00  0.00    -0.145 C  
BRANCH  15  16
HETATM   16  C   UNK A   1      -9.248   8.940  66.596  1.00  0.00    -0.215 C  
BRANCH  16  17
HETATM   17  C   UNK A   1     -10.116  10.176  66.521  1.00  0.00    -0.296 A  
HETATM   18  C   UNK A   1     -10.375  10.784  65.285  1.00  0.00    -0.327 A  
HETATM   19  C   UNK A   1     -11.730  12.471  66.360  1.00  0.00    -0.458 A  
HETATM   20  C   UNK A   1     -11.178  11.924  65.206  1.00  0.00    -0.351 A  
HETATM   21  C   UNK A   1     -11.494  11.868  67.594  1.00  0.00    -0.387 A  
HETATM   22  C   UNK A   1     -10.694  10.728  67.675  1.00  0.00    -0.305 A  
ENDBRANCH  16  17
ENDBRANCH  15  16
ENDBRANCH  11  15
ENDBRANCH   9  11
ENDBRANCH   8   9
BRANCH   8  23
HETATM   23  C   UNK A   1     -10.191   6.790  71.572  1.00  0.00    -0.193 C  
ATOM     24  OXT PRO A   2      -6.150   7.963  70.308  1.00  0.00    -0.032 OA 
HETATM   25  O   UNK A   1     -11.222   6.266  71.996  1.00  0.00    -0.252 OA 
ATOM     26  N   PRO A   2      -8.935   6.334  71.975  1.00  0.00    -0.142 N  
ATOM     27  CD  PRO A   2      -8.806   5.193  72.876  1.00  0.00    -0.117 C  
ATOM     28  O   PRO A   2      -7.291   6.062  69.865  1.00  0.00    -0.071 OA 
ATOM     29  C   PRO A   2      -6.980   7.130  70.637  1.00  0.00    -0.058 C  
ATOM     30  CA  PRO A   2      -7.701   7.137  71.984  1.00  0.00    -0.091 C  
ATOM     31  CB  PRO A   2      -6.806   6.505  73.054  1.00  0.00    -0.073 C  
ATOM     32  CG  PRO A   2      -7.728   5.600  73.861  1.00  0.00    -0.100 C  
ENDBRANCH   8  23
ENDBRANCH   7   8
ENDBRANCH   6   7
ENDBRANCH   5   6
ENDBRANCH   3   5
TORSDOF 10
ENDMDL
MODEL      171
REMARK 921   NORMALIZED FREE ENERGY PREDICTED BY IDOCK:   -4.22 KCAL/MOL
REMARK 922        TOTAL FREE ENERGY PREDICTED BY IDOCK:   -8.65 KCAL/MOL
REMARK 923 INTER-LIGAND FREE ENERGY PREDICTED BY IDOCK:   -7.41 KCAL/MOL
REMARK 924 INTRA-LIGAND FREE ENERGY PREDICTED BY IDOCK:   -1.24 KCAL/MOL
REMARK 927      BINDING AFFINITY PREDICTED BY RF-SCORE:    0.00 PKD
ROOT
HETATM    1  N   UNK A   1      -7.368  14.147  69.811  1.00  0.00    -0.361 NA 
HETATM    2  H2  UNK A   1      -6.543  14.746  69.773  1.00  0.00     0.000 HD 
HETATM    3  C   UNK A   1      -7.879  13.827  68.485  1.00  0.00    -0.132 C  
HETATM    4  H1  UNK A   1      -8.114  14.555  70.375  1.00  0.00     0.000 HD 
ENDROOT
BRANCH   3   5
HETATM    5  C   UNK A   1      -6.764  13.217  67.643  1.00  0.00    -0.171 C  
BRANCH   5   6
HETATM    6  C   UNK A   1      -7.095  11.789  67.193  1.00  0.00    -0.146 C  
BRANCH   6   7
HETATM    7  C   UNK A   1      -8.149  11.193  68.132  1.00  0.00    -0.128 C  
BRANCH   7   8
HETATM    8  C   UNK A   1      -9.251  10.354  67.461  1.00  0.00    -0.145 C  
BRANCH   8   9
HETATM    9  N   UNK A   1      -8.753   9.106  66.807  1.00  0.00    -0.126 NA 
HETATM   10  H   UNK A   1      -7.752   9.177  66.625  1.00  0.00     0.000 HD 
BRANCH   9  11
HETATM   11  C   UNK A   1      -9.055   7.842  67.551  1.00  0.00    -0.133 C  
HETATM   12  C   UNK A   1      -8.548   6.663  66.698  1.00  0.00    -0.123 C  
HETATM   13  O   UNK A   1      -8.215   5.575  67.141  1.00  0.00    -0.102 OA 
HETATM   14  O   UNK A   1      -8.520   6.966  65.376  1.00  0.00    -0.138 OA 
BRANCH  11  15
HETATM   15  C   UNK A   1     -10.568   7.666  67.811  1.00  0.00    -0.265 C  
BRANCH  15  16
HETATM   16  C   UNK A   1     -10.881   6.574  68.849  1.00  0.00    -0.354 C  
BRANCH  16  17
HETATM   17  C   UNK A   1     -10.728   7.058  70.273  1.00  0.00    -0.266 A  
HETATM   18  C   UNK A   1     -10.396   8.395  70.534  1.00  0.00    -0.220 A  
HETATM   19  C   UNK A   1     -10.442   7.977  72.913  1.00  0.00    -0.402 A  
HETATM   20  C   UNK A   1     -10.256   8.850  71.846  1.00  0.00    -0.403 A  
HETATM   21  C   UNK A   1     -10.787   6.650  72.669  1.00  0.00    -0.279 A  
HETATM   22  C   UNK A   1     -10.931   6.192  71.359  1.00  0.00    -0.334 A  
ENDBRANCH  16  17
ENDBRANCH  15  16
ENDBRANCH  11  15
ENDBRANCH   9  11
ENDBRANCH   8   9
BRANCH   8  23
HETATM   23  C   UNK A   1     -10.083  11.161  66.402  1.00  0.00    -0.226 C  
ATOM     24  OXT PRO A   2     -11.556  12.012  70.452  1.00  0.00    -0.187 OA 
HETATM   25  O   UNK A   1      -9.876  11.000  65.198  1.00  0.00    -0.233 OA 
ATOM     26  N   PRO A   2     -11.100  12.005  66.849  1.00  0.00    -0.284 N  
ATOM     27  CD  PRO A   2     -11.979  12.685  65.903  1.00  0.00    -0.438 C  
ATOM     28  O   PRO A   2     -12.535  10.827  68.795  1.00  0.00    -0.366 OA 
ATOM     29  C   PRO A   2     -11.728  11.810  69.261  1.00  0.00    -0.335 C  
ATOM     30  CA  PRO A   2     -11.131  12.681  68.156  1.00  0.00    -0.249 C  
ATOM     31  CB  PRO A   2     -11.999  13.927  67.956  1.00  0.00    -0.390 C  
ATOM     32  CG  PRO A   2     -12.111  14.095  66.446  1.00  0.00    -0.475 C  
ENDBRANCH   8  23
ENDBRANCH   7   8
ENDBRANCH   6   7
ENDBRANCH   5   6
ENDBRANCH   3   5
TORSDOF 10
ENDMDL
MODEL      172
REMARK 921   NORMALIZED FREE ENERGY PREDICTED BY IDOCK:   -4.22 KCAL/MOL
REMARK 922        TOTAL FREE ENERGY PREDICTED BY IDOCK:   -8.64 KCAL/MOL
REMARK 923 INTER-LIGAND FREE ENERGY PREDICTED BY IDOCK:   -6.85 KCAL/MOL
REMARK 924 INTRA-LIGAND FREE ENERGY PREDICTED BY IDOCK:   -1.79 KCAL/MOL
REMARK 927      BINDING AFFINITY PREDICTED BY RF-SCORE:    0.00 PKD
ROOT
HETATM    1  N   UNK A   1     -12.207  14.335  67.342  1.00  0.00    -0.604 NA 
HETATM    2  H2  UNK A   1     -11.673  14.518  68.192  1.00  0.00     0.000 HD 
HETATM    3  C   UNK A   1     -11.412  14.538  66.138  1.00  0.00    -0.357 C  
HETATM    4  H1  UNK A   1     -13.055  14.900  67.290  1.00  0.00     0.000 HD 
ENDROOT
BRANCH   3   5
HETATM    5  C   UNK A   1     -10.145  13.693  66.216  1.00  0.00    -0.301 C  
BRANCH   5   6
HETATM    6  C   UNK A   1      -9.124  14.274  67.202  1.00  0.00    -0.237 C  
BRANCH   6   7
HETATM    7  C   UNK A   1      -8.021  13.243  67.459  1.00  0.00    -0.186 C  
BRANCH   7   8
HETATM    8  C   UNK A   1      -8.491  11.793  67.672  1.00  0.00    -0.149 C  
BRANCH   8   9
HETATM    9  N   UNK A   1      -9.024  11.520  69.041  1.00  0.00    -0.385 NA 
HETATM   10  H   UNK A   1      -9.269  12.394  69.506  1.00  0.00     0.000 HD 
BRANCH   9  11
HETATM   11  C   UNK A   1     -10.178  10.568  69.088  1.00  0.00    -0.224 C  
HETATM   12  C   UNK A   1     -11.473  11.395  68.969  1.00  0.00    -0.300 C  
HETATM   13  O   UNK A   1     -12.532  10.973  68.529  1.00  0.00    -0.440 OA 
HETATM   14  O   UNK A   1     -11.310  12.663  69.421  1.00  0.00    -0.254 OA 
BRANCH  11  15
HETATM   15  C   UNK A   1     -10.214   9.757  70.402  1.00  0.00    -0.343 C  
BRANCH  15  16
HETATM   16  C   UNK A   1      -9.030   8.786  70.547  1.00  0.00    -0.203 C  
BRANCH  16  17
HETATM   17  C   UNK A   1      -9.449   7.423  71.052  1.00  0.00    -0.157 A  
HETATM   18  C   UNK A   1      -8.571   6.335  70.958  1.00  0.00    -0.132 A  
HETATM   19  C   UNK A   1     -10.206   4.884  71.987  1.00  0.00    -0.263 A  
HETATM   20  C   UNK A   1      -8.947   5.074  71.425  1.00  0.00    -0.159 A  
HETATM   21  C   UNK A   1     -11.083   5.960  72.100  1.00  0.00    -0.333 A  
HETATM   22  C   UNK A   1     -10.708   7.222  71.638  1.00  0.00    -0.239 A  
ENDBRANCH  16  17
ENDBRANCH  15  16
ENDBRANCH  11  15
ENDBRANCH   9  11
ENDBRANCH   8   9
BRANCH   8  23
HETATM   23  C   UNK A   1      -7.375  10.731  67.362  1.00  0.00    -0.094 C  
ATOM     24  OXT PRO A   2     -10.448  10.660  64.223  1.00  0.00    -0.349 OA 
HETATM   25  O   UNK A   1      -6.461  10.541  68.166  1.00  0.00    -0.061 OA 
ATOM     26  N   PRO A   2      -7.481   9.967  66.200  1.00  0.00    -0.101 N  
ATOM     27  CD  PRO A   2      -6.539   8.886  65.926  1.00  0.00    -0.057 C  
ATOM     28  O   PRO A   2     -10.011   9.131  65.830  1.00  0.00    -0.295 OA 
ATOM     29  C   PRO A   2      -9.651  10.111  64.967  1.00  0.00    -0.299 C  
ATOM     30  CA  PRO A   2      -8.149  10.393  64.959  1.00  0.00    -0.136 C  
ATOM     31  CB  PRO A   2      -7.479   9.596  63.836  1.00  0.00    -0.123 C  
ATOM     32  CG  PRO A   2      -6.207   9.030  64.453  1.00  0.00    -0.071 C  
ENDBRANCH   8  23
ENDBRANCH   7   8
ENDBRANCH   6   7
ENDBRANCH   5   6
ENDBRANCH   3   5
TORSDOF 10
ENDMDL
MODEL      173
REMARK 921   NORMALIZED FREE ENERGY PREDICTED BY IDOCK:   -4.21 KCAL/MOL
REMARK 922        TOTAL FREE ENERGY PREDICTED BY IDOCK:   -8.62 KCAL/MOL
REMARK 923 INTER-LIGAND FREE ENERGY PREDICTED BY IDOCK:   -5.94 KCAL/MOL
REMARK 924 INTRA-LIGAND FREE ENERGY PREDICTED BY IDOCK:   -2.68 KCAL/MOL
REMARK 927      BINDING AFFINITY PREDICTED BY RF-SCORE:    0.00 PKD
ROOT
HETATM    1  N   UNK A   1     -12.269  10.712  68.655  1.00  0.00    -0.814 NA 
HETATM    2  H2  UNK A   1     -12.272   9.695  68.577  1.00  0.00     0.000 HD 
HETATM    3  C   UNK A   1     -11.103  11.310  68.017  1.00  0.00    -0.266 C  
HETATM    4  H1  UNK A   1     -12.325  11.024  69.624  1.00  0.00     0.000 HD 
ENDROOT
BRANCH   3   5
HETATM    5  C   UNK A   1     -11.019  10.844  66.568  1.00  0.00    -0.187 C  
BRANCH   5   6
HETATM    6  C   UNK A   1      -9.637  10.276  66.223  1.00  0.00    -0.238 C  
BRANCH   6   7
HETATM    7  C   UNK A   1      -9.697   8.745  66.243  1.00  0.00    -0.342 C  
BRANCH   7   8
HETATM    8  C   UNK A   1      -9.323   8.074  67.576  1.00  0.00    -0.147 C  
BRANCH   8   9
HETATM    9  N   UNK A   1      -8.191   7.104  67.474  1.00  0.00    -0.116 NA 
HETATM   10  H   UNK A   1      -8.294   6.365  68.169  1.00  0.00     0.000 HD 
BRANCH   9  11
HETATM   11  C   UNK A   1      -7.993   6.511  66.114  1.00  0.00    -0.110 C  
HETATM   12  C   UNK A   1      -8.418   5.032  66.181  1.00  0.00    -0.114 C  
HETATM   13  O   UNK A   1      -8.816   4.376  65.230  1.00  0.00    -0.126 OA 
HETATM   14  O   UNK A   1      -8.293   4.522  67.432  1.00  0.00    -0.104 OA 
BRANCH  11  15
HETATM   15  C   UNK A   1      -6.522   6.594  65.649  1.00  0.00    -0.050 C  
BRANCH  15  16
HETATM   16  C   UNK A   1      -6.376   6.768  64.127  1.00  0.00    -0.035 C  
BRANCH  16  17
HETATM   17  C   UNK A   1      -7.036   8.029  63.615  1.00  0.00    -0.076 A  
HETATM   18  C   UNK A   1      -6.497   9.285  63.926  1.00  0.00    -0.091 A  
HETATM   19  C   UNK A   1      -8.244  10.383  62.670  1.00  0.00    -0.177 A  
HETATM   20  C   UNK A   1      -7.097  10.454  63.455  1.00  0.00    -0.027 A  
HETATM   21  C   UNK A   1      -8.782   9.141  62.340  1.00  0.00    -0.226 A  
HETATM   22  C   UNK A   1      -8.182   7.971  62.807  1.00  0.00    -0.112 A  
ENDBRANCH  16  17
ENDBRANCH  15  16
ENDBRANCH  11  15
ENDBRANCH   9  11
ENDBRANCH   8   9
BRANCH   8  23
HETATM   23  C   UNK A   1     -10.533   7.341  68.259  1.00  0.00    -0.199 C  
ATOM     24  OXT PRO A   2      -7.991   9.228  71.305  1.00  0.00    -0.322 OA 
HETATM   25  O   UNK A   1     -11.322   6.682  67.579  1.00  0.00    -0.271 OA 
ATOM     26  N   PRO A   2     -10.653   7.394  69.648  1.00  0.00    -0.233 N  
ATOM     27  CD  PRO A   2     -11.687   6.633  70.340  1.00  0.00    -0.386 C  
ATOM     28  O   PRO A   2      -8.264   7.035  70.830  1.00  0.00    -0.118 OA 
ATOM     29  C   PRO A   2      -8.695   8.317  70.899  1.00  0.00    -0.146 C  
ATOM     30  CA  PRO A   2     -10.161   8.487  70.503  1.00  0.00    -0.192 C  
ATOM     31  CB  PRO A   2     -11.042   8.460  71.755  1.00  0.00    -0.358 C  
ATOM     32  CG  PRO A   2     -12.234   7.588  71.384  1.00  0.00    -0.363 C  
ENDBRANCH   8  23
ENDBRANCH   7   8
ENDBRANCH   6   7
ENDBRANCH   5   6
ENDBRANCH   3   5
TORSDOF 10
ENDMDL
MODEL      174
REMARK 921   NORMALIZED FREE ENERGY PREDICTED BY IDOCK:   -4.20 KCAL/MOL
REMARK 922        TOTAL FREE ENERGY PREDICTED BY IDOCK:   -8.62 KCAL/MOL
REMARK 923 INTER-LIGAND FREE ENERGY PREDICTED BY IDOCK:   -6.88 KCAL/MOL
REMARK 924 INTRA-LIGAND FREE ENERGY PREDICTED BY IDOCK:   -1.74 KCAL/MOL
REMARK 927      BINDING AFFINITY PREDICTED BY RF-SCORE:    0.00 PKD
ROOT
HETATM    1  N   UNK A   1      -7.842  15.169  69.547  1.00  0.00    -0.285 NA 
HETATM    2  H2  UNK A   1      -7.008  15.543  70.000  1.00  0.00     0.000 HD 
HETATM    3  C   UNK A   1      -7.650  14.968  68.117  1.00  0.00    -0.111 C  
HETATM    4  H1  UNK A   1      -8.661  15.759  69.702  1.00  0.00     0.000 HD 
ENDROOT
BRANCH   3   5
HETATM    5  C   UNK A   1      -6.426  14.087  67.887  1.00  0.00    -0.170 C  
BRANCH   5   6
HETATM    6  C   UNK A   1      -6.811  12.670  67.444  1.00  0.00    -0.141 C  
BRANCH   6   7
HETATM    7  C   UNK A   1      -7.246  11.856  68.666  1.00  0.00    -0.109 C  
BRANCH   7   8
HETATM    8  C   UNK A   1      -8.588  11.115  68.539  1.00  0.00    -0.157 C  
BRANCH   8   9
HETATM    9  N   UNK A   1      -9.722  11.782  69.249  1.00  0.00    -0.307 NA 
HETATM   10  H   UNK A   1      -9.459  12.728  69.525  1.00  0.00     0.000 HD 
BRANCH   9  11
HETATM   11  C   UNK A   1     -11.012  11.804  68.490  1.00  0.00    -0.227 C  
HETATM   12  C   UNK A   1     -11.268  13.256  68.043  1.00  0.00    -0.276 C  
HETATM   13  O   UNK A   1     -11.934  13.579  67.071  1.00  0.00    -0.386 OA 
HETATM   14  O   UNK A   1     -10.671  14.154  68.865  1.00  0.00    -0.251 OA 
BRANCH  11  15
HETATM   15  C   UNK A   1     -12.203  11.321  69.348  1.00  0.00    -0.315 C  
BRANCH  15  16
HETATM   16  C   UNK A   1     -11.788  10.859  70.755  1.00  0.00    -0.424 C  
BRANCH  16  17
HETATM   17  C   UNK A   1     -12.328   9.490  71.106  1.00  0.00    -0.410 A  
HETATM   18  C   UNK A   1     -11.452   8.411  71.287  1.00  0.00    -0.325 A  
HETATM   19  C   UNK A   1     -13.310   6.941  71.762  1.00  0.00    -0.260 A  
HETATM   20  C   UNK A   1     -11.942   7.145  71.615  1.00  0.00    -0.353 A  
HETATM   21  C   UNK A   1     -14.191   8.008  71.600  1.00  0.00    -0.549 A  
HETATM   22  C   UNK A   1     -13.705   9.275  71.275  1.00  0.00    -0.250 A  
ENDBRANCH  16  17
ENDBRANCH  15  16
ENDBRANCH  11  15
ENDBRANCH   9  11
ENDBRANCH   8   9
BRANCH   8  23
HETATM   23  C   UNK A   1      -8.518   9.623  69.026  1.00  0.00    -0.131 C  
ATOM     24  OXT PRO A   2      -9.431   9.775  64.731  1.00  0.00    -0.274 OA 
HETATM   25  O   UNK A   1      -8.350   9.368  70.219  1.00  0.00    -0.158 OA 
ATOM     26  N   PRO A   2      -8.719   8.603  68.095  1.00  0.00    -0.141 N  
ATOM     27  CD  PRO A   2      -8.784   7.208  68.514  1.00  0.00    -0.126 C  
ATOM     28  O   PRO A   2     -10.769   9.193  66.457  1.00  0.00    -0.107 OA 
ATOM     29  C   PRO A   2      -9.565   9.300  65.848  1.00  0.00    -0.275 C  
ATOM     30  CA  PRO A   2      -8.419   8.694  66.656  1.00  0.00    -0.112 C  
ATOM     31  CB  PRO A   2      -8.166   7.255  66.197  1.00  0.00    -0.131 C  
ATOM     32  CG  PRO A   2      -7.969   6.457  67.479  1.00  0.00    -0.116 C  
ENDBRANCH   8  23
ENDBRANCH   7   8
ENDBRANCH   6   7
ENDBRANCH   5   6
ENDBRANCH   3   5
TORSDOF 10
ENDMDL
MODEL      175
REMARK 921   NORMALIZED FREE ENERGY PREDICTED BY IDOCK:   -4.20 KCAL/MOL
REMARK 922        TOTAL FREE ENERGY PREDICTED BY IDOCK:   -8.61 KCAL/MOL
REMARK 923 INTER-LIGAND FREE ENERGY PREDICTED BY IDOCK:   -7.05 KCAL/MOL
REMARK 924 INTRA-LIGAND FREE ENERGY PREDICTED BY IDOCK:   -1.56 KCAL/MOL
REMARK 927      BINDING AFFINITY PREDICTED BY RF-SCORE:    0.00 PKD
ROOT
HETATM    1  N   UNK A   1     -11.616  15.822  64.213  1.00  0.00    -0.771 NA 
HETATM    2  H2  UNK A   1     -11.113  15.882  65.098  1.00  0.00     0.000 HD 
HETATM    3  C   UNK A   1     -11.897  14.444  63.832  1.00  0.00    -0.054 C  
HETATM    4  H1  UNK A   1     -11.119  16.291  63.455  1.00  0.00     0.000 HD 
ENDROOT
BRANCH   3   5
HETATM    5  C   UNK A   1     -12.640  13.744  64.965  1.00  0.00    -0.427 C  
BRANCH   5   6
HETATM    6  C   UNK A   1     -12.254  12.264  65.079  1.00  0.00    -0.374 C  
BRANCH   6   7
HETATM    7  C   UNK A   1     -10.737  12.120  64.922  1.00  0.00    -0.336 C  
BRANCH   7   8
HETATM    8  C   UNK A   1      -9.999  11.456  66.097  1.00  0.00    -0.227 C  
BRANCH   8   9
HETATM    9  N   UNK A   1      -9.440  10.105  65.781  1.00  0.00    -0.192 NA 
HETATM   10  H   UNK A   1      -9.677   9.840  64.825  1.00  0.00     0.000 HD 
BRANCH   9  11
HETATM   11  C   UNK A   1      -7.967   9.966  66.008  1.00  0.00    -0.114 C  
HETATM   12  C   UNK A   1      -7.285   9.897  64.628  1.00  0.00    -0.137 C  
HETATM   13  O   UNK A   1      -6.130  10.227  64.404  1.00  0.00    -0.131 OA 
HETATM   14  O   UNK A   1      -8.116   9.413  63.673  1.00  0.00    -0.136 OA 
BRANCH  11  15
HETATM   15  C   UNK A   1      -7.618   8.692  66.810  1.00  0.00    -0.086 C  
BRANCH  15  16
HETATM   16  C   UNK A   1      -8.677   7.584  66.679  1.00  0.00    -0.146 C  
BRANCH  16  17
HETATM   17  C   UNK A   1      -9.480   7.388  67.945  1.00  0.00    -0.150 A  
HETATM   18  C   UNK A   1      -9.316   8.261  69.029  1.00  0.00    -0.147 A  
HETATM   19  C   UNK A   1     -10.966   7.042  70.304  1.00  0.00    -0.304 A  
HETATM   20  C   UNK A   1     -10.056   8.089  70.200  1.00  0.00    -0.194 A  
HETATM   21  C   UNK A   1     -11.151   6.175  69.229  1.00  0.00    -0.463 A  
HETATM   22  C   UNK A   1     -10.415   6.347  68.056  1.00  0.00    -0.271 A  
ENDBRANCH  16  17
ENDBRANCH  15  16
ENDBRANCH  11  15
ENDBRANCH   9  11
ENDBRANCH   8   9
BRANCH   8  23
HETATM   23  C   UNK A   1     -10.883  11.327  67.389  1.00  0.00    -0.262 C  
ATOM     24  OXT PRO A   2      -8.621  15.092  67.471  1.00  0.00    -0.163 OA 
HETATM   25  O   UNK A   1     -11.536  10.302  67.593  1.00  0.00    -0.345 OA 
ATOM     26  N   PRO A   2     -10.858  12.361  68.325  1.00  0.00    -0.226 N  
ATOM     27  CD  PRO A   2     -11.566  12.240  69.595  1.00  0.00    -0.278 C  
ATOM     28  O   PRO A   2      -8.345  13.231  68.724  1.00  0.00    -0.045 OA 
ATOM     29  C   PRO A   2      -9.094  14.104  68.010  1.00  0.00    -0.191 C  
ATOM     30  CA  PRO A   2     -10.586  13.776  68.022  1.00  0.00    -0.252 C  
ATOM     31  CB  PRO A   2     -11.283  14.576  69.127  1.00  0.00    -0.294 C  
ATOM     32  CG  PRO A   2     -12.230  13.588  69.796  1.00  0.00    -0.330 C  
ENDBRANCH   8  23
ENDBRANCH   7   8
ENDBRANCH   6   7
ENDBRANCH   5   6
ENDBRANCH   3   5
TORSDOF 10
ENDMDL
MODEL      176
REMARK 921   NORMALIZED FREE ENERGY PREDICTED BY IDOCK:   -4.19 KCAL/MOL
REMARK 922        TOTAL FREE ENERGY PREDICTED BY IDOCK:   -8.60 KCAL/MOL
REMARK 923 INTER-LIGAND FREE ENERGY PREDICTED BY IDOCK:   -6.83 KCAL/MOL
REMARK 924 INTRA-LIGAND FREE ENERGY PREDICTED BY IDOCK:   -1.77 KCAL/MOL
REMARK 927      BINDING AFFINITY PREDICTED BY RF-SCORE:    0.00 PKD
ROOT
HETATM    1  N   UNK A   1     -12.339   6.242  72.417  1.00  0.00    -0.550 NA 
HETATM    2  H2  UNK A   1     -12.648   6.463  71.469  1.00  0.00     0.000 HD 
HETATM    3  C   UNK A   1     -11.062   6.865  72.740  1.00  0.00    -0.269 C  
HETATM    4  H1  UNK A   1     -12.278   5.236  72.577  1.00  0.00     0.000 HD 
ENDROOT
BRANCH   3   5
HETATM    5  C   UNK A   1     -11.154   8.368  72.500  1.00  0.00    -0.397 C  
BRANCH   5   6
HETATM    6  C   UNK A   1     -12.214   8.721  71.449  1.00  0.00    -0.359 C  
BRANCH   6   7
HETATM    7  C   UNK A   1     -11.541   9.411  70.259  1.00  0.00    -0.181 C  
BRANCH   7   8
HETATM    8  C   UNK A   1     -10.222   8.785  69.776  1.00  0.00    -0.202 C  
BRANCH   8   9
HETATM    9  N   UNK A   1      -9.426   9.665  68.866  1.00  0.00    -0.153 NA 
HETATM   10  H   UNK A   1      -8.620   9.159  68.500  1.00  0.00     0.000 HD 
BRANCH   9  11
HETATM   11  C   UNK A   1     -10.206  10.277  67.744  1.00  0.00    -0.187 C  
HETATM   12  C   UNK A   1      -9.512   9.889  66.424  1.00  0.00    -0.183 C  
HETATM   13  O   UNK A   1     -10.069   9.812  65.340  1.00  0.00    -0.305 OA 
HETATM   14  O   UNK A   1      -8.189   9.647  66.597  1.00  0.00    -0.118 OA 
BRANCH  11  15
HETATM   15  C   UNK A   1     -10.271  11.817  67.849  1.00  0.00    -0.203 C  
BRANCH  15  16
HETATM   16  C   UNK A   1     -11.703  12.353  68.011  1.00  0.00    -0.414 C  
BRANCH  16  17
HETATM   17  C   UNK A   1     -11.801  13.468  69.028  1.00  0.00    -0.385 A  
HETATM   18  C   UNK A   1     -12.203  13.192  70.342  1.00  0.00    -0.389 A  
HETATM   19  C   UNK A   1     -11.985  15.524  70.934  1.00  0.00    -0.420 A  
HETATM   20  C   UNK A   1     -12.293  14.215  71.289  1.00  0.00    -0.447 A  
HETATM   21  C   UNK A   1     -11.568  15.811  69.636  1.00  0.00    -0.363 A  
HETATM   22  C   UNK A   1     -11.475  14.790  68.688  1.00  0.00    -0.325 A  
ENDBRANCH  16  17
ENDBRANCH  15  16
ENDBRANCH  11  15
ENDBRANCH   9  11
ENDBRANCH   8   9
BRANCH   8  23
HETATM   23  C   UNK A   1     -10.421   7.400  69.063  1.00  0.00    -0.210 C  
ATOM     24  OXT PRO A   2      -6.600   7.452  71.231  1.00  0.00    -0.043 OA 
HETATM   25  O   UNK A   1     -11.398   7.212  68.336  1.00  0.00     0.104 OA 
ATOM     26  N   PRO A   2      -9.439   6.420  69.214  1.00  0.00    -0.136 N  
ATOM     27  CD  PRO A   2      -9.516   5.162  68.478  1.00  0.00    -0.133 C  
ATOM     28  O   PRO A   2      -6.980   7.489  69.003  1.00  0.00    -0.068 OA 
ATOM     29  C   PRO A   2      -7.295   7.148  70.274  1.00  0.00    -0.083 C  
ATOM     30  CA  PRO A   2      -8.549   6.280  70.378  1.00  0.00    -0.142 C  
ATOM     31  CB  PRO A   2      -8.152   4.801  70.419  1.00  0.00    -0.083 C  
ATOM     32  CG  PRO A   2      -9.136   4.100  69.492  1.00  0.00    -0.185 C  
ENDBRANCH   8  23
ENDBRANCH   7   8
ENDBRANCH   6   7
ENDBRANCH   5   6
ENDBRANCH   3   5
TORSDOF 10
ENDMDL
MODEL      177
REMARK 921   NORMALIZED FREE ENERGY PREDICTED BY IDOCK:   -4.17 KCAL/MOL
REMARK 922        TOTAL FREE ENERGY PREDICTED BY IDOCK:   -8.56 KCAL/MOL
REMARK 923 INTER-LIGAND FREE ENERGY PREDICTED BY IDOCK:   -7.40 KCAL/MOL
REMARK 924 INTRA-LIGAND FREE ENERGY PREDICTED BY IDOCK:   -1.16 KCAL/MOL
REMARK 927      BINDING AFFINITY PREDICTED BY RF-SCORE:    0.00 PKD
ROOT
HETATM    1  N   UNK A   1      -5.975  12.488  70.975  1.00  0.00    -0.541 NA 
HETATM    2  H2  UNK A   1      -5.148  12.083  71.416  1.00  0.00     0.000 HD 
HETATM    3  C   UNK A   1      -6.141  12.039  69.599  1.00  0.00    -0.129 C  
HETATM    4  H1  UNK A   1      -5.965  13.508  71.002  1.00  0.00     0.000 HD 
ENDROOT
BRANCH   3   5
HETATM    5  C   UNK A   1      -6.156  10.515  69.558  1.00  0.00    -0.050 C  
BRANCH   5   6
HETATM    6  C   UNK A   1      -7.052   9.918  70.651  1.00  0.00    -0.056 C  
BRANCH   6   7
HETATM    7  C   UNK A   1      -7.675   8.614  70.142  1.00  0.00    -0.081 C  
BRANCH   7   8
HETATM    8  C   UNK A   1      -9.180   8.664  69.831  1.00  0.00    -0.155 C  
BRANCH   8   9
HETATM    9  N   UNK A   1      -9.653   9.986  69.318  1.00  0.00    -0.204 NA 
HETATM   10  H   UNK A   1      -8.857  10.577  69.076  1.00  0.00     0.000 HD 
BRANCH   9  11
HETATM   11  C   UNK A   1     -10.609   9.909  68.169  1.00  0.00    -0.227 C  
HETATM   12  C   UNK A   1      -9.782   9.920  66.869  1.00  0.00    -0.186 C  
HETATM   13  O   UNK A   1     -10.143   9.436  65.808  1.00  0.00    -0.288 OA 
HETATM   14  O   UNK A   1      -8.589  10.546  67.031  1.00  0.00    -0.127 OA 
BRANCH  11  15
HETATM   15  C   UNK A   1     -11.598  11.095  68.150  1.00  0.00    -0.350 C  
BRANCH  15  16
HETATM   16  C   UNK A   1     -10.902  12.463  68.050  1.00  0.00    -0.251 C  
BRANCH  16  17
HETATM   17  C   UNK A   1     -11.227  13.195  66.767  1.00  0.00    -0.330 A  
HETATM   18  C   UNK A   1     -10.691  14.466  66.523  1.00  0.00    -0.306 A  
HETATM   19  C   UNK A   1     -11.818  14.569  64.389  1.00  0.00    -0.419 A  
HETATM   20  C   UNK A   1     -10.984  15.147  65.340  1.00  0.00    -0.381 A  
HETATM   21  C   UNK A   1     -12.346  13.299  64.611  1.00  0.00    -0.447 A  
HETATM   22  C   UNK A   1     -12.053  12.614  65.791  1.00  0.00    -0.484 A  
ENDBRANCH  16  17
ENDBRANCH  15  16
ENDBRANCH  11  15
ENDBRANCH   9  11
ENDBRANCH   8   9
BRANCH   8  23
HETATM   23  C   UNK A   1     -10.078   8.268  71.058  1.00  0.00    -0.191 C  
ATOM     24  OXT PRO A   2      -9.439   4.783  68.461  1.00  0.00    -0.129 OA 
HETATM   25  O   UNK A   1     -10.438   9.127  71.865  1.00  0.00    -0.348 OA 
ATOM     26  N   PRO A   2     -10.512   6.947  71.173  1.00  0.00    -0.212 N  
ATOM     27  CD  PRO A   2     -11.443   6.554  72.226  1.00  0.00    -0.289 C  
ATOM     28  O   PRO A   2     -11.319   5.994  68.792  1.00  0.00    -0.284 OA 
ATOM     29  C   PRO A   2     -10.133   5.475  69.189  1.00  0.00    -0.216 C  
ATOM     30  CA  PRO A   2      -9.800   5.769  70.651  1.00  0.00    -0.187 C  
ATOM     31  CB  PRO A   2     -10.244   4.596  71.529  1.00  0.00    -0.224 C  
ATOM     32  CG  PRO A   2     -10.902   5.236  72.745  1.00  0.00    -0.313 C  
ENDBRANCH   8  23
ENDBRANCH   7   8
ENDBRANCH   6   7
ENDBRANCH   5   6
ENDBRANCH   3   5
TORSDOF 10
ENDMDL
MODEL      178
REMARK 921   NORMALIZED FREE ENERGY PREDICTED BY IDOCK:   -4.16 KCAL/MOL
REMARK 922        TOTAL FREE ENERGY PREDICTED BY IDOCK:   -8.55 KCAL/MOL
REMARK 923 INTER-LIGAND FREE ENERGY PREDICTED BY IDOCK:   -7.45 KCAL/MOL
REMARK 924 INTRA-LIGAND FREE ENERGY PREDICTED BY IDOCK:   -1.10 KCAL/MOL
REMARK 927      BINDING AFFINITY PREDICTED BY RF-SCORE:    0.00 PKD
ROOT
HETATM    1  N   UNK A   1     -10.876   2.521  73.270  1.00  0.00    -0.171 NA 
HETATM    2  H2  UNK A   1     -11.534   2.224  72.549  1.00  0.00     0.000 HD 
HETATM    3  C   UNK A   1      -9.698   3.169  72.709  1.00  0.00    -0.129 C  
HETATM    4  H1  UNK A   1     -10.587   1.747  73.870  1.00  0.00     0.000 HD 
ENDROOT
BRANCH   3   5
HETATM    5  C   UNK A   1     -10.130   4.325  71.813  1.00  0.00    -0.227 C  
BRANCH   5   6
HETATM    6  C   UNK A   1     -10.913   5.392  72.587  1.00  0.00    -0.321 C  
BRANCH   6   7
HETATM    7  C   UNK A   1     -11.689   6.269  71.600  1.00  0.00    -0.342 C  
BRANCH   7   8
HETATM    8  C   UNK A   1     -10.879   7.375  70.900  1.00  0.00    -0.240 C  
BRANCH   8   9
HETATM    9  N   UNK A   1     -11.719   8.436  70.265  1.00  0.00    -0.465 NA 
HETATM   10  H   UNK A   1     -12.701   8.160  70.269  1.00  0.00     0.000 HD 
BRANCH   9  11
HETATM   11  C   UNK A   1     -11.563   9.801  70.861  1.00  0.00    -0.361 C  
HETATM   12  C   UNK A   1     -12.959  10.285  71.295  1.00  0.00    -0.420 C  
HETATM   13  O   UNK A   1     -13.171  11.097  72.183  1.00  0.00    -0.481 OA 
HETATM   14  O   UNK A   1     -13.947   9.709  70.566  1.00  0.00     0.146 OA 
BRANCH  11  15
HETATM   15  C   UNK A   1     -10.965  10.811  69.857  1.00  0.00    -0.304 C  
BRANCH  15  16
HETATM   16  C   UNK A   1     -11.519  10.648  68.431  1.00  0.00    -0.330 C  
BRANCH  16  17
HETATM   17  C   UNK A   1     -11.681  11.968  67.711  1.00  0.00    -0.379 A  
HETATM   18  C   UNK A   1     -11.850  11.997  66.320  1.00  0.00    -0.225 A  
HETATM   19  C   UNK A   1     -11.988  14.409  66.354  1.00  0.00    -0.402 A  
HETATM   20  C   UNK A   1     -12.004  13.211  65.647  1.00  0.00    -0.462 A  
HETATM   21  C   UNK A   1     -11.837  14.394  67.739  1.00  0.00    -0.402 A  
HETATM   22  C   UNK A   1     -11.685  13.183  68.414  1.00  0.00    -0.386 A  
ENDBRANCH  16  17
ENDBRANCH  15  16
ENDBRANCH  11  15
ENDBRANCH   9  11
ENDBRANCH   8   9
BRANCH   8  23
HETATM   23  C   UNK A   1      -9.890   6.821  69.814  1.00  0.00    -0.166 C  
ATOM     24  OXT PRO A   2      -7.645   8.700  73.090  1.00  0.00    -0.360 OA 
HETATM   25  O   UNK A   1     -10.326   6.325  68.773  1.00  0.00    -0.168 OA 
ATOM     26  N   PRO A   2      -8.517   6.966  70.020  1.00  0.00    -0.138 N  
ATOM     27  CD  PRO A   2      -7.560   6.578  68.990  1.00  0.00    -0.100 C  
ATOM     28  O   PRO A   2      -7.945   9.417  70.967  1.00  0.00    -0.303 OA 
ATOM     29  C   PRO A   2      -7.827   8.451  71.909  1.00  0.00    -0.125 C  
ATOM     30  CA  PRO A   2      -7.858   7.035  71.334  1.00  0.00    -0.095 C  
ATOM     31  CB  PRO A   2      -6.427   6.539  71.104  1.00  0.00    -0.049 C  
ATOM     32  CG  PRO A   2      -6.456   5.859  69.742  1.00  0.00    -0.042 C  
ENDBRANCH   8  23
ENDBRANCH   7   8
ENDBRANCH   6   7
ENDBRANCH   5   6
ENDBRANCH   3   5
TORSDOF 10
ENDMDL
MODEL      179
REMARK 921   NORMALIZED FREE ENERGY PREDICTED BY IDOCK:   -4.12 KCAL/MOL
REMARK 922        TOTAL FREE ENERGY PREDICTED BY IDOCK:   -8.49 KCAL/MOL
REMARK 923 INTER-LIGAND FREE ENERGY PREDICTED BY IDOCK:   -7.11 KCAL/MOL
REMARK 924 INTRA-LIGAND FREE ENERGY PREDICTED BY IDOCK:   -1.37 KCAL/MOL
REMARK 927      BINDING AFFINITY PREDICTED BY RF-SCORE:    0.00 PKD
ROOT
HETATM    1  N   UNK A   1      -6.780  15.772  67.540  1.00  0.00    -0.176 NA 
HETATM    2  H2  UNK A   1      -7.451  15.981  68.280  1.00  0.00     0.000 HD 
HETATM    3  C   UNK A   1      -5.671  14.956  68.017  1.00  0.00    -0.139 C  
HETATM    4  H1  UNK A   1      -6.417  16.618  67.100  1.00  0.00     0.000 HD 
ENDROOT
BRANCH   3   5
HETATM    5  C   UNK A   1      -6.215  13.692  68.675  1.00  0.00    -0.088 C  
BRANCH   5   6
HETATM    6  C   UNK A   1      -6.144  12.479  67.739  1.00  0.00    -0.119 C  
BRANCH   6   7
HETATM    7  C   UNK A   1      -7.094  11.389  68.246  1.00  0.00    -0.078 C  
BRANCH   7   8
HETATM    8  C   UNK A   1      -8.559  11.509  67.793  1.00  0.00    -0.138 C  
BRANCH   8   9
HETATM    9  N   UNK A   1      -9.534  10.817  68.691  1.00  0.00    -0.180 NA 
HETATM   10  H   UNK A   1     -10.350  10.514  68.160  1.00  0.00     0.000 HD 
BRANCH   9  11
HETATM   11  C   UNK A   1      -8.967   9.671  69.469  1.00  0.00    -0.194 C  
HETATM   12  C   UNK A   1      -9.245   8.381  68.674  1.00  0.00    -0.143 C  
HETATM   13  O   UNK A   1      -8.578   7.361  68.745  1.00  0.00    -0.129 OA 
HETATM   14  O   UNK A   1     -10.337   8.499  67.878  1.00  0.00    -0.211 OA 
BRANCH  11  15
HETATM   15  C   UNK A   1      -9.600   9.548  70.873  1.00  0.00    -0.216 C  
BRANCH  15  16
HETATM   16  C   UNK A   1      -8.797   8.643  71.823  1.00  0.00    -0.281 C  
BRANCH  16  17
HETATM   17  C   UNK A   1      -9.608   7.482  72.353  1.00  0.00    -0.205 A  
HETATM   18  C   UNK A   1      -9.372   6.985  73.642  1.00  0.00    -0.226 A  
HETATM   19  C   UNK A   1     -11.108   5.329  73.358  1.00  0.00    -0.362 A  
HETATM   20  C   UNK A   1     -10.119   5.916  74.140  1.00  0.00    -0.272 A  
HETATM   21  C   UNK A   1     -11.364   5.823  72.080  1.00  0.00    -0.317 A  
HETATM   22  C   UNK A   1     -10.622   6.893  71.580  1.00  0.00    -0.231 A  
ENDBRANCH  16  17
ENDBRANCH  15  16
ENDBRANCH  11  15
ENDBRANCH   9  11
ENDBRANCH   8   9
BRANCH   8  23
HETATM   23  C   UNK A   1      -8.796  10.994  66.328  1.00  0.00    -0.180 C  
ATOM     24  OXT PRO A   2     -11.935  13.854  67.454  1.00  0.00    -0.385 OA 
HETATM   25  O   UNK A   1      -8.066  10.123  65.852  1.00  0.00    -0.125 OA 
ATOM     26  N   PRO A   2      -9.885  11.490  65.610  1.00  0.00    -0.228 N  
ATOM     27  CD  PRO A   2     -10.219  10.958  64.293  1.00  0.00    -0.364 C  
ATOM     28  O   PRO A   2     -12.078  11.617  67.162  1.00  0.00    -0.575 OA 
ATOM     29  C   PRO A   2     -11.549  12.836  66.901  1.00  0.00    -0.366 C  
ATOM     30  CA  PRO A   2     -10.493  12.817  65.797  1.00  0.00    -0.276 C  
ATOM     31  CB  PRO A   2     -11.143  13.166  64.454  1.00  0.00    -0.407 C  
ATOM     32  CG  PRO A   2     -10.550  12.179  63.457  1.00  0.00    -0.501 C  
ENDBRANCH   8  23
ENDBRANCH   7   8
ENDBRANCH   6   7
ENDBRANCH   5   6
ENDBRANCH   3   5
TORSDOF 10
ENDMDL
MODEL      180
REMARK 921   NORMALIZED FREE ENERGY PREDICTED BY IDOCK:   -4.11 KCAL/MOL
REMARK 922        TOTAL FREE ENERGY PREDICTED BY IDOCK:   -8.46 KCAL/MOL
REMARK 923 INTER-LIGAND FREE ENERGY PREDICTED BY IDOCK:   -6.75 KCAL/MOL
REMARK 924 INTRA-LIGAND FREE ENERGY PREDICTED BY IDOCK:   -1.72 KCAL/MOL
REMARK 927      BINDING AFFINITY PREDICTED BY RF-SCORE:    0.00 PKD
ROOT
HETATM    1  N   UNK A   1      -8.310   6.321  63.973  1.00  0.00    -0.322 NA 
HETATM    2  H2  UNK A   1      -8.938   5.558  64.225  1.00  0.00     0.000 HD 
HETATM    3  C   UNK A   1      -7.853   7.066  65.140  1.00  0.00    -0.124 C  
HETATM    4  H1  UNK A   1      -8.733   6.963  63.303  1.00  0.00     0.000 HD 
ENDROOT
BRANCH   3   5
HETATM    5  C   UNK A   1      -7.221   6.105  66.141  1.00  0.00    -0.076 C  
BRANCH   5   6
HETATM    6  C   UNK A   1      -7.574   6.467  67.589  1.00  0.00    -0.101 C  
BRANCH   6   7
HETATM    7  C   UNK A   1      -7.417   7.978  67.789  1.00  0.00    -0.094 C  
BRANCH   7   8
HETATM    8  C   UNK A   1      -8.525   8.668  68.603  1.00  0.00    -0.130 C  
BRANCH   8   9
HETATM    9  N   UNK A   1      -8.915  10.014  68.084  1.00  0.00    -0.121 NA 
HETATM   10  H   UNK A   1      -9.107  10.650  68.858  1.00  0.00     0.000 HD 
BRANCH   9  11
HETATM   11  C   UNK A   1      -7.932  10.631  67.138  1.00  0.00    -0.121 C  
HETATM   12  C   UNK A   1      -7.657  12.069  67.620  1.00  0.00    -0.136 C  
HETATM   13  O   UNK A   1      -6.632  12.694  67.398  1.00  0.00    -0.146 OA 
HETATM   14  O   UNK A   1      -8.700  12.578  68.322  1.00  0.00    -0.183 OA 
BRANCH  11  15
HETATM   15  C   UNK A   1      -8.464  10.676  65.689  1.00  0.00    -0.180 C  
BRANCH  15  16
HETATM   16  C   UNK A   1      -9.951  10.299  65.578  1.00  0.00    -0.364 C  
BRANCH  16  17
HETATM   17  C   UNK A   1     -10.838  11.488  65.283  1.00  0.00    -0.319 A  
HETATM   18  C   UNK A   1     -11.153  11.823  63.959  1.00  0.00    -0.461 A  
HETATM   19  C   UNK A   1     -12.486  13.692  64.715  1.00  0.00    -0.391 A  
HETATM   20  C   UNK A   1     -11.974  12.918  63.679  1.00  0.00    -0.613 A  
HETATM   21  C   UNK A   1     -12.193  13.361  66.037  1.00  0.00    -0.491 A  
HETATM   22  C   UNK A   1     -11.376  12.266  66.320  1.00  0.00    -0.395 A  
ENDBRANCH  16  17
ENDBRANCH  15  16
ENDBRANCH  11  15
ENDBRANCH   9  11
ENDBRANCH   8   9
BRANCH   8  23
HETATM   23  C   UNK A   1      -8.170   8.817  70.126  1.00  0.00    -0.117 C  
ATOM     24  OXT PRO A   2     -11.752   6.320  69.644  1.00  0.00    -0.382 OA 
HETATM   25  O   UNK A   1      -7.241   9.546  70.477  1.00  0.00    -0.110 OA 
ATOM     26  N   PRO A   2      -8.968   8.166  71.068  1.00  0.00    -0.145 N  
ATOM     27  CD  PRO A   2      -8.755   8.368  72.497  1.00  0.00    -0.206 C  
ATOM     28  O   PRO A   2     -11.574   8.422  70.456  1.00  0.00    -0.238 OA 
ATOM     29  C   PRO A   2     -11.101   7.174  70.224  1.00  0.00    -0.274 C  
ATOM     30  CA  PRO A   2      -9.722   6.924  70.831  1.00  0.00    -0.178 C  
ATOM     31  CB  PRO A   2      -9.873   6.266  72.206  1.00  0.00    -0.175 C  
ATOM     32  CG  PRO A   2      -8.873   6.983  73.103  1.00  0.00    -0.151 C  
ENDBRANCH   8  23
ENDBRANCH   7   8
ENDBRANCH   6   7
ENDBRANCH   5   6
ENDBRANCH   3   5
TORSDOF 10
ENDMDL
MODEL      181
REMARK 921   NORMALIZED FREE ENERGY PREDICTED BY IDOCK:   -4.10 KCAL/MOL
REMARK 922        TOTAL FREE ENERGY PREDICTED BY IDOCK:   -8.45 KCAL/MOL
REMARK 923 INTER-LIGAND FREE ENERGY PREDICTED BY IDOCK:   -7.06 KCAL/MOL
REMARK 924 INTRA-LIGAND FREE ENERGY PREDICTED BY IDOCK:   -1.39 KCAL/MOL
REMARK 927      BINDING AFFINITY PREDICTED BY RF-SCORE:    0.00 PKD
ROOT
HETATM    1  N   UNK A   1      -5.757  10.953  64.061  1.00  0.00    -0.371 NA 
HETATM    2  H2  UNK A   1      -6.018  11.808  64.553  1.00  0.00     0.000 HD 
HETATM    3  C   UNK A   1      -6.578   9.817  64.457  1.00  0.00    -0.113 C  
HETATM    4  H1  UNK A   1      -4.771  10.722  64.187  1.00  0.00     0.000 HD 
ENDROOT
BRANCH   3   5
HETATM    5  C   UNK A   1      -8.051  10.163  64.268  1.00  0.00    -0.159 C  
BRANCH   5   6
HETATM    6  C   UNK A   1      -8.972   9.197  65.024  1.00  0.00    -0.221 C  
BRANCH   6   7
HETATM    7  C   UNK A   1     -10.059   9.996  65.751  1.00  0.00    -0.320 C  
BRANCH   7   8
HETATM    8  C   UNK A   1      -9.576  10.910  66.890  1.00  0.00    -0.178 C  
BRANCH   8   9
HETATM    9  N   UNK A   1      -8.766  10.208  67.932  1.00  0.00    -0.122 NA 
HETATM   10  H   UNK A   1      -8.257  10.885  68.499  1.00  0.00     0.000 HD 
BRANCH   9  11
HETATM   11  C   UNK A   1      -9.543   9.277  68.810  1.00  0.00    -0.154 C  
HETATM   12  C   UNK A   1      -9.120   9.545  70.267  1.00  0.00    -0.253 C  
HETATM   13  O   UNK A   1      -9.818   9.329  71.247  1.00  0.00    -0.289 OA 
HETATM   14  O   UNK A   1      -7.864  10.049  70.348  1.00  0.00    -0.216 OA 
BRANCH  11  15
HETATM   15  C   UNK A   1      -9.277   7.794  68.470  1.00  0.00    -0.137 C  
BRANCH  15  16
HETATM   16  C   UNK A   1     -10.542   6.922  68.530  1.00  0.00    -0.247 C  
BRANCH  16  17
HETATM   17  C   UNK A   1     -10.850   6.430  69.926  1.00  0.00    -0.370 A  
HETATM   18  C   UNK A   1      -9.978   5.542  70.571  1.00  0.00    -0.276 A  
HETATM   19  C   UNK A   1     -11.403   5.506  72.521  1.00  0.00    -0.323 A  
HETATM   20  C   UNK A   1     -10.253   5.085  71.861  1.00  0.00    -0.267 A  
HETATM   21  C   UNK A   1     -12.271   6.400  71.898  1.00  0.00    -0.332 A  
HETATM   22  C   UNK A   1     -11.998   6.861  70.610  1.00  0.00    -0.400 A  
ENDBRANCH  16  17
ENDBRANCH  15  16
ENDBRANCH  11  15
ENDBRANCH   9  11
ENDBRANCH   8   9
BRANCH   8  23
HETATM   23  C   UNK A   1     -10.746  11.669  67.611  1.00  0.00    -0.207 C  
ATOM     24  OXT PRO A   2      -7.244  14.294  67.232  1.00  0.00    -0.157 OA 
HETATM   25  O   UNK A   1     -11.793  11.078  67.884  1.00  0.00    -0.600 OA 
ATOM     26  N   PRO A   2     -10.549  12.996  67.995  1.00  0.00    -0.229 N  
ATOM     27  CD  PRO A   2     -11.557  13.708  68.773  1.00  0.00    -0.324 C  
ATOM     28  O   PRO A   2      -8.111  13.326  69.081  1.00  0.00     0.216 OA 
ATOM     29  C   PRO A   2      -8.209  13.862  67.842  1.00  0.00    -0.164 C  
ATOM     30  CA  PRO A   2      -9.646  13.949  67.329  1.00  0.00    -0.243 C  
ATOM     31  CB  PRO A   2     -10.219  15.338  67.628  1.00  0.00    -0.242 C  
ATOM     32  CG  PRO A   2     -11.632  15.084  68.138  1.00  0.00    -0.360 C  
ENDBRANCH   8  23
ENDBRANCH   7   8
ENDBRANCH   6   7
ENDBRANCH   5   6
ENDBRANCH   3   5
TORSDOF 10
ENDMDL
MODEL      182
REMARK 921   NORMALIZED FREE ENERGY PREDICTED BY IDOCK:   -4.10 KCAL/MOL
REMARK 922        TOTAL FREE ENERGY PREDICTED BY IDOCK:   -8.45 KCAL/MOL
REMARK 923 INTER-LIGAND FREE ENERGY PREDICTED BY IDOCK:   -7.70 KCAL/MOL
REMARK 924 INTRA-LIGAND FREE ENERGY PREDICTED BY IDOCK:   -0.75 KCAL/MOL
REMARK 927      BINDING AFFINITY PREDICTED BY RF-SCORE:    0.00 PKD
ROOT
HETATM    1  N   UNK A   1     -13.777  12.657  72.614  1.00  0.00    -0.670 NA 
HETATM    2  H2  UNK A   1     -13.585  11.889  73.257  1.00  0.00     0.000 HD 
HETATM    3  C   UNK A   1     -12.890  12.644  71.458  1.00  0.00    -0.268 C  
HETATM    4  H1  UNK A   1     -13.723  13.566  73.075  1.00  0.00     0.000 HD 
ENDROOT
BRANCH   3   5
HETATM    5  C   UNK A   1     -12.971  11.285  70.771  1.00  0.00    -0.171 C  
BRANCH   5   6
HETATM    6  C   UNK A   1     -12.036  10.255  71.417  1.00  0.00    -0.457 C  
BRANCH   6   7
HETATM    7  C   UNK A   1     -11.163   9.611  70.336  1.00  0.00    -0.342 C  
BRANCH   7   8
HETATM    8  C   UNK A   1      -9.713   9.294  70.741  1.00  0.00    -0.282 C  
BRANCH   8   9
HETATM    9  N   UNK A   1      -8.898   8.674  69.652  1.00  0.00    -0.135 NA 
HETATM   10  H   UNK A   1      -9.009   7.660  69.661  1.00  0.00     0.000 HD 
BRANCH   9  11
HETATM   11  C   UNK A   1      -9.167   9.212  68.281  1.00  0.00    -0.132 C  
HETATM   12  C   UNK A   1      -9.001   8.052  67.281  1.00  0.00    -0.138 C  
HETATM   13  O   UNK A   1      -9.553   7.985  66.193  1.00  0.00    -0.179 OA 
HETATM   14  O   UNK A   1      -8.154   7.099  67.743  1.00  0.00    -0.113 OA 
BRANCH  11  15
HETATM   15  C   UNK A   1      -8.197  10.352  67.900  1.00  0.00    -0.106 C  
BRANCH  15  16
HETATM   16  C   UNK A   1      -8.766  11.753  68.184  1.00  0.00    -0.168 C  
BRANCH  16  17
HETATM   17  C   UNK A   1      -9.891  12.130  67.246  1.00  0.00    -0.202 A  
HETATM   18  C   UNK A   1     -11.038  12.766  67.739  1.00  0.00    -0.289 A  
HETATM   19  C   UNK A   1     -11.990  12.841  65.520  1.00  0.00    -0.497 A  
HETATM   20  C   UNK A   1     -12.080  13.121  66.879  1.00  0.00    -0.377 A  
HETATM   21  C   UNK A   1     -10.849  12.223  65.013  1.00  0.00    -0.337 A  
HETATM   22  C   UNK A   1      -9.805  11.870  65.869  1.00  0.00    -0.261 A  
ENDBRANCH  16  17
ENDBRANCH  15  16
ENDBRANCH  11  15
ENDBRANCH   9  11
ENDBRANCH   8   9
BRANCH   8  23
HETATM   23  C   UNK A   1      -9.614   8.374  72.009  1.00  0.00    -0.274 C  
ATOM     24  OXT PRO A   2     -11.382   6.149  68.659  1.00  0.00    -0.319 OA 
HETATM   25  O   UNK A   1      -9.215   8.835  73.080  1.00  0.00    -0.238 OA 
ATOM     26  N   PRO A   2     -10.048   7.051  71.915  1.00  0.00    -0.183 N  
ATOM     27  CD  PRO A   2     -10.089   6.190  73.092  1.00  0.00    -0.188 C  
ATOM     28  O   PRO A   2     -12.363   6.900  70.553  1.00  0.00    -0.312 OA 
ATOM     29  C   PRO A   2     -11.306   6.439  69.842  1.00  0.00    -0.434 C  
ATOM     30  CA  PRO A   2     -10.047   6.241  70.686  1.00  0.00    -0.189 C  
ATOM     31  CB  PRO A   2      -9.960   4.785  71.152  1.00  0.00    -0.273 C  
ATOM     32  CG  PRO A   2      -9.541   4.860  72.614  1.00  0.00    -0.166 C  
ENDBRANCH   8  23
ENDBRANCH   7   8
ENDBRANCH   6   7
ENDBRANCH   5   6
ENDBRANCH   3   5
TORSDOF 10
ENDMDL
MODEL      183
REMARK 921   NORMALIZED FREE ENERGY PREDICTED BY IDOCK:   -4.07 KCAL/MOL
REMARK 922        TOTAL FREE ENERGY PREDICTED BY IDOCK:   -8.41 KCAL/MOL
REMARK 923 INTER-LIGAND FREE ENERGY PREDICTED BY IDOCK:   -6.67 KCAL/MOL
REMARK 924 INTRA-LIGAND FREE ENERGY PREDICTED BY IDOCK:   -1.74 KCAL/MOL
REMARK 927      BINDING AFFINITY PREDICTED BY RF-SCORE:    0.00 PKD
ROOT
HETATM    1  N   UNK A   1      -5.781  16.179  67.189  1.00  0.00    -0.337 NA 
HETATM    2  H2  UNK A   1      -5.988  15.829  66.253  1.00  0.00     0.000 HD 
HETATM    3  C   UNK A   1      -6.701  15.655  68.190  1.00  0.00    -0.125 C  
HETATM    4  H1  UNK A   1      -5.780  17.199  67.227  1.00  0.00     0.000 HD 
ENDROOT
BRANCH   3   5
HETATM    5  C   UNK A   1      -6.702  14.131  68.132  1.00  0.00    -0.125 C  
BRANCH   5   6
HETATM    6  C   UNK A   1      -7.991  13.578  67.511  1.00  0.00    -0.186 C  
BRANCH   6   7
HETATM    7  C   UNK A   1      -9.180  13.930  68.410  1.00  0.00    -0.194 C  
BRANCH   7   8
HETATM    8  C   UNK A   1     -10.572  13.782  67.773  1.00  0.00    -0.246 C  
BRANCH   8   9
HETATM    9  N   UNK A   1     -10.644  14.237  66.351  1.00  0.00    -0.283 NA 
HETATM   10  H   UNK A   1      -9.814  14.780  66.112  1.00  0.00     0.000 HD 
BRANCH   9  11
HETATM   11  C   UNK A   1     -10.852  13.143  65.351  1.00  0.00    -0.282 C  
HETATM   12  C   UNK A   1     -12.207  13.390  64.661  1.00  0.00    -0.407 C  
HETATM   13  O   UNK A   1     -12.499  13.006  63.539  1.00  0.00    -0.694 OA 
HETATM   14  O   UNK A   1     -13.062  14.086  65.452  1.00  0.00    -0.763 OA 
BRANCH  11  15
HETATM   15  C   UNK A   1     -10.867  11.745  66.009  1.00  0.00    -0.343 C  
BRANCH  15  16
HETATM   16  C   UNK A   1     -10.111  10.683  65.192  1.00  0.00    -0.374 C  
BRANCH  16  17
HETATM   17  C   UNK A   1      -9.317   9.732  66.059  1.00  0.00    -0.249 A  
HETATM   18  C   UNK A   1      -9.282   9.904  67.449  1.00  0.00    -0.151 A  
HETATM   19  C   UNK A   1      -7.850   7.973  67.687  1.00  0.00    -0.122 A  
HETATM   20  C   UNK A   1      -8.555   9.029  68.258  1.00  0.00    -0.130 A  
HETATM   21  C   UNK A   1      -7.888   7.781  66.308  1.00  0.00    -0.091 A  
HETATM   22  C   UNK A   1      -8.617   8.652  65.498  1.00  0.00    -0.200 A  
ENDBRANCH  16  17
ENDBRANCH  15  16
ENDBRANCH  11  15
ENDBRANCH   9  11
ENDBRANCH   8   9
BRANCH   8  23
HETATM   23  C   UNK A   1     -11.701  14.520  68.578  1.00  0.00    -0.318 C  
ATOM     24  OXT PRO A   2     -11.119  10.463  70.160  1.00  0.00    -0.280 OA 
HETATM   25  O   UNK A   1     -12.070  15.646  68.238  1.00  0.00    -0.139 OA 
ATOM     26  N   PRO A   2     -12.320  13.851  69.635  1.00  0.00    -0.306 N  
ATOM     27  CD  PRO A   2     -13.453  14.444  70.337  1.00  0.00     0.354 C  
ATOM     28  O   PRO A   2     -12.850  11.299  68.971  1.00  0.00     0.001 OA 
ATOM     29  C   PRO A   2     -11.823  11.410  69.847  1.00  0.00    -0.359 C  
ATOM     30  CA  PRO A   2     -11.695  12.804  70.460  1.00  0.00     0.116 C  
ATOM     31  CB  PRO A   2     -12.428  12.847  71.804  1.00  0.00     0.017 C  
ATOM     32  CG  PRO A   2     -13.183  14.169  71.804  1.00  0.00    -0.450 C  
ENDBRANCH   8  23
ENDBRANCH   7   8
ENDBRANCH   6   7
ENDBRANCH   5   6
ENDBRANCH   3   5
TORSDOF 10
ENDMDL
MODEL      184
REMARK 921   NORMALIZED FREE ENERGY PREDICTED BY IDOCK:   -4.07 KCAL/MOL
REMARK 922        TOTAL FREE ENERGY PREDICTED BY IDOCK:   -8.41 KCAL/MOL
REMARK 923 INTER-LIGAND FREE ENERGY PREDICTED BY IDOCK:   -6.97 KCAL/MOL
REMARK 924 INTRA-LIGAND FREE ENERGY PREDICTED BY IDOCK:   -1.44 KCAL/MOL
REMARK 927      BINDING AFFINITY PREDICTED BY RF-SCORE:    0.00 PKD
ROOT
HETATM    1  N   UNK A   1     -10.598   7.285  74.035  1.00  0.00    -0.564 NA 
HETATM    2  H2  UNK A   1     -11.117   6.520  74.467  1.00  0.00     0.000 HD 
HETATM    3  C   UNK A   1     -10.035   6.909  72.744  1.00  0.00    -0.171 C  
HETATM    4  H1  UNK A   1      -9.856   7.637  74.641  1.00  0.00     0.000 HD 
ENDROOT
BRANCH   3   5
HETATM    5  C   UNK A   1     -11.144   6.384  71.839  1.00  0.00    -0.311 C  
BRANCH   5   6
HETATM    6  C   UNK A   1     -10.597   5.505  70.708  1.00  0.00    -0.320 C  
BRANCH   6   7
HETATM    7  C   UNK A   1     -11.156   5.994  69.368  1.00  0.00    -0.445 C  
BRANCH   7   8
HETATM    8  C   UNK A   1     -10.113   6.352  68.295  1.00  0.00    -0.153 C  
BRANCH   8   9
HETATM    9  N   UNK A   1     -10.244   7.741  67.758  1.00  0.00    -0.199 NA 
HETATM   10  H   UNK A   1     -11.164   8.121  67.980  1.00  0.00     0.000 HD 
BRANCH   9  11
HETATM   11  C   UNK A   1      -9.172   8.689  68.200  1.00  0.00    -0.137 C  
HETATM   12  C   UNK A   1      -9.653   9.369  69.496  1.00  0.00    -0.180 C  
HETATM   13  O   UNK A   1      -8.918   9.829  70.356  1.00  0.00    -0.223 OA 
HETATM   14  O   UNK A   1     -11.006   9.411  69.577  1.00  0.00    -0.234 OA 
BRANCH  11  15
HETATM   15  C   UNK A   1      -8.877   9.772  67.139  1.00  0.00    -0.141 C  
BRANCH  15  16
HETATM   16  C   UNK A   1      -9.688   9.590  65.845  1.00  0.00    -0.352 C  
BRANCH  16  17
HETATM   17  C   UNK A   1     -10.497  10.816  65.482  1.00  0.00    -0.264 A  
HETATM   18  C   UNK A   1     -11.022  11.639  66.488  1.00  0.00    -0.349 A  
HETATM   19  C   UNK A   1     -11.999  13.099  64.829  1.00  0.00    -0.435 A  
HETATM   20  C   UNK A   1     -11.766  12.774  66.162  1.00  0.00    -0.458 A  
HETATM   21  C   UNK A   1     -11.470  12.298  63.819  1.00  0.00    -0.545 A  
HETATM   22  C   UNK A   1     -10.723  11.164  64.141  1.00  0.00    -0.415 A  
ENDBRANCH  16  17
ENDBRANCH  15  16
ENDBRANCH  11  15
ENDBRANCH   9  11
ENDBRANCH   8   9
BRANCH   8  23
HETATM   23  C   UNK A   1     -10.113   5.358  67.079  1.00  0.00    -0.203 C  
ATOM     24  OXT PRO A   2      -6.423   4.893  69.419  1.00  0.00    -0.033 OA 
HETATM   25  O   UNK A   1     -11.027   5.387  66.254  1.00  0.00    -0.221 OA 
ATOM     26  N   PRO A   2      -9.027   4.496  66.917  1.00  0.00    -0.112 N  
ATOM     27  CD  PRO A   2      -8.919   3.639  65.741  1.00  0.00    -0.137 C  
ATOM     28  O   PRO A   2      -6.708   5.785  67.361  1.00  0.00    -0.055 OA 
ATOM     29  C   PRO A   2      -7.035   4.934  68.363  1.00  0.00    -0.057 C  
ATOM     30  CA  PRO A   2      -8.177   3.985  68.005  1.00  0.00    -0.092 C  
ATOM     31  CB  PRO A   2      -7.607   2.658  67.494  1.00  0.00    -0.061 C  
ATOM     32  CG  PRO A   2      -8.458   2.300  66.283  1.00  0.00    -0.101 C  
ENDBRANCH   8  23
ENDBRANCH   7   8
ENDBRANCH   6   7
ENDBRANCH   5   6
ENDBRANCH   3   5
TORSDOF 10
ENDMDL
MODEL      185
REMARK 921   NORMALIZED FREE ENERGY PREDICTED BY IDOCK:   -4.07 KCAL/MOL
REMARK 922        TOTAL FREE ENERGY PREDICTED BY IDOCK:   -8.41 KCAL/MOL
REMARK 923 INTER-LIGAND FREE ENERGY PREDICTED BY IDOCK:   -5.99 KCAL/MOL
REMARK 924 INTRA-LIGAND FREE ENERGY PREDICTED BY IDOCK:   -2.42 KCAL/MOL
REMARK 927      BINDING AFFINITY PREDICTED BY RF-SCORE:    0.00 PKD
ROOT
HETATM    1  N   UNK A   1      -7.849   8.548  74.068  1.00  0.00    -0.404 NA 
HETATM    2  H2  UNK A   1      -8.559   8.241  73.402  1.00  0.00     0.000 HD 
HETATM    3  C   UNK A   1      -6.511   8.117  73.684  1.00  0.00    -0.116 C  
HETATM    4  H1  UNK A   1      -8.050   8.232  75.017  1.00  0.00     0.000 HD 
ENDROOT
BRANCH   3   5
HETATM    5  C   UNK A   1      -6.212   8.589  72.265  1.00  0.00    -0.071 C  
BRANCH   5   6
HETATM    6  C   UNK A   1      -6.808   7.652  71.208  1.00  0.00    -0.049 C  
BRANCH   6   7
HETATM    7  C   UNK A   1      -7.873   8.405  70.404  1.00  0.00    -0.090 C  
BRANCH   7   8
HETATM    8  C   UNK A   1      -9.335   8.101  70.772  1.00  0.00    -0.158 C  
BRANCH   8   9
HETATM    9  N   UNK A   1      -9.953   9.103  71.693  1.00  0.00    -0.305 NA 
HETATM   10  H   UNK A   1      -9.235   9.710  72.088  1.00  0.00     0.000 HD 
BRANCH   9  11
HETATM   11  C   UNK A   1     -11.048   9.924  71.085  1.00  0.00    -0.289 C  
HETATM   12  C   UNK A   1     -12.343   9.628  71.864  1.00  0.00    -0.357 C  
HETATM   13  O   UNK A   1     -13.288  10.396  71.964  1.00  0.00    -0.433 OA 
HETATM   14  O   UNK A   1     -12.326   8.396  72.431  1.00  0.00    -0.366 OA 
BRANCH  11  15
HETATM   15  C   UNK A   1     -11.267   9.591  69.592  1.00  0.00    -0.138 C  
BRANCH  15  16
HETATM   16  C   UNK A   1     -11.175  10.824  68.677  1.00  0.00    -0.333 C  
BRANCH  16  17
HETATM   17  C   UNK A   1     -10.061  10.719  67.660  1.00  0.00    -0.205 A  
HETATM   18  C   UNK A   1      -8.779  11.196  67.965  1.00  0.00    -0.141 A  
HETATM   19  C   UNK A   1      -7.976  10.528  65.786  1.00  0.00    -0.158 A  
HETATM   20  C   UNK A   1      -7.743  11.099  67.033  1.00  0.00    -0.139 A  
HETATM   21  C   UNK A   1      -9.242  10.035  65.475  1.00  0.00    -0.247 A  
HETATM   22  C   UNK A   1     -10.278  10.128  66.406  1.00  0.00    -0.288 A  
ENDBRANCH  16  17
ENDBRANCH  15  16
ENDBRANCH  11  15
ENDBRANCH   9  11
ENDBRANCH   8   9
BRANCH   8  23
HETATM   23  C   UNK A   1      -9.529   6.675  71.402  1.00  0.00    -0.158 C  
ATOM     24  OXT PRO A   2      -9.826   6.450  67.024  1.00  0.00    -0.139 OA 
HETATM   25  O   UNK A   1      -9.558   6.537  72.626  1.00  0.00    -0.151 OA 
ATOM     26  N   PRO A   2      -9.736   5.588  70.552  1.00  0.00    -0.175 N  
ATOM     27  CD  PRO A   2     -10.040   4.265  71.087  1.00  0.00    -0.103 C  
ATOM     28  O   PRO A   2     -11.450   6.227  68.581  1.00  0.00    -0.263 OA 
ATOM     29  C   PRO A   2     -10.171   6.123  68.149  1.00  0.00    -0.175 C  
ATOM     30  CA  PRO A   2      -9.235   5.481  69.171  1.00  0.00    -0.116 C  
ATOM     31  CB  PRO A   2      -9.115   3.980  68.892  1.00  0.00    -0.191 C  
ATOM     32  CG  PRO A   2      -9.200   3.313  70.258  1.00  0.00    -0.227 C  
ENDBRANCH   8  23
ENDBRANCH   7   8
ENDBRANCH   6   7
ENDBRANCH   5   6
ENDBRANCH   3   5
TORSDOF 10
ENDMDL
MODEL      186
REMARK 921   NORMALIZED FREE ENERGY PREDICTED BY IDOCK:   -4.07 KCAL/MOL
REMARK 922        TOTAL FREE ENERGY PREDICTED BY IDOCK:   -8.40 KCAL/MOL
REMARK 923 INTER-LIGAND FREE ENERGY PREDICTED BY IDOCK:   -7.04 KCAL/MOL
REMARK 924 INTRA-LIGAND FREE ENERGY PREDICTED BY IDOCK:   -1.36 KCAL/MOL
REMARK 927      BINDING AFFINITY PREDICTED BY RF-SCORE:    0.00 PKD
ROOT
HETATM    1  N   UNK A   1      -6.289  19.830  69.510  1.00  0.00    -0.320 NA 
HETATM    2  H2  UNK A   1      -5.309  19.690  69.261  1.00  0.00     0.000 HD 
HETATM    3  C   UNK A   1      -7.171  18.894  68.824  1.00  0.00    -0.318 C  
HETATM    4  H1  UNK A   1      -6.599  20.785  69.331  1.00  0.00     0.000 HD 
ENDROOT
BRANCH   3   5
HETATM    5  C   UNK A   1      -6.706  17.467  69.092  1.00  0.00    -0.243 C  
BRANCH   5   6
HETATM    6  C   UNK A   1      -7.138  16.502  67.981  1.00  0.00    -0.152 C  
BRANCH   6   7
HETATM    7  C   UNK A   1      -8.373  15.719  68.439  1.00  0.00    -0.164 C  
BRANCH   7   8
HETATM    8  C   UNK A   1      -8.858  14.611  67.489  1.00  0.00    -0.185 C  
BRANCH   8   9
HETATM    9  N   UNK A   1      -7.802  13.618  67.121  1.00  0.00    -0.366 NA 
HETATM   10  H   UNK A   1      -6.962  14.099  66.799  1.00  0.00     0.000 HD 
BRANCH   9  11
HETATM   11  C   UNK A   1      -7.457  12.639  68.200  1.00  0.00    -0.122 C  
HETATM   12  C   UNK A   1      -5.935  12.708  68.426  1.00  0.00    -0.059 C  
HETATM   13  O   UNK A   1      -5.371  12.420  69.471  1.00  0.00    -0.069 OA 
HETATM   14  O   UNK A   1      -5.274  13.123  67.317  1.00  0.00    -0.336 OA 
BRANCH  11  15
HETATM   15  C   UNK A   1      -7.848  11.193  67.823  1.00  0.00    -0.114 C  
BRANCH  15  16
HETATM   16  C   UNK A   1      -8.446  10.401  68.999  1.00  0.00    -0.155 C  
BRANCH  16  17
HETATM   17  C   UNK A   1      -9.215   9.179  68.552  1.00  0.00    -0.136 A  
HETATM   18  C   UNK A   1      -9.209   8.794  67.204  1.00  0.00    -0.167 A  
HETATM   19  C   UNK A   1     -10.636   6.908  67.702  1.00  0.00    -0.328 A  
HETATM   20  C   UNK A   1      -9.915   7.664  66.783  1.00  0.00    -0.317 A  
HETATM   21  C   UNK A   1     -10.638   7.270  69.047  1.00  0.00    -0.214 A  
HETATM   22  C   UNK A   1      -9.932   8.397  69.471  1.00  0.00    -0.190 A  
ENDBRANCH  16  17
ENDBRANCH  15  16
ENDBRANCH  11  15
ENDBRANCH   9  11
ENDBRANCH   8   9
BRANCH   8  23
HETATM   23  C   UNK A   1      -9.488  15.167  66.162  1.00  0.00    -0.319 C  
ATOM     24  OXT PRO A   2     -11.671  11.595  67.495  1.00  0.00    -0.535 OA 
HETATM   25  O   UNK A   1      -8.970  16.122  65.583  1.00  0.00    -0.370 OA 
ATOM     26  N   PRO A   2     -10.598  14.515  65.622  1.00  0.00    -0.313 N  
ATOM     27  CD  PRO A   2     -11.147  14.917  64.331  1.00  0.00    -0.108 C  
ATOM     28  O   PRO A   2     -10.286  11.846  65.727  1.00  0.00    -0.232 OA 
ATOM     29  C   PRO A   2     -11.188  12.304  66.627  1.00  0.00    -0.316 C  
ATOM     30  CA  PRO A   2     -11.597  13.757  66.392  1.00  0.00    -0.360 C  
ATOM     31  CB  PRO A   2     -12.882  13.805  65.559  1.00  0.00    -0.464 C  
ATOM     32  CG  PRO A   2     -12.650  14.905  64.532  1.00  0.00    -0.065 C  
ENDBRANCH   8  23
ENDBRANCH   7   8
ENDBRANCH   6   7
ENDBRANCH   5   6
ENDBRANCH   3   5
TORSDOF 10
ENDMDL
MODEL      187
REMARK 921   NORMALIZED FREE ENERGY PREDICTED BY IDOCK:   -4.04 KCAL/MOL
REMARK 922        TOTAL FREE ENERGY PREDICTED BY IDOCK:   -8.37 KCAL/MOL
REMARK 923 INTER-LIGAND FREE ENERGY PREDICTED BY IDOCK:   -6.89 KCAL/MOL
REMARK 924 INTRA-LIGAND FREE ENERGY PREDICTED BY IDOCK:   -1.47 KCAL/MOL
REMARK 927      BINDING AFFINITY PREDICTED BY RF-SCORE:    0.00 PKD
ROOT
HETATM    1  N   UNK A   1     -13.039  12.190  63.432  1.00  0.00    -0.681 NA 
HETATM    2  H2  UNK A   1     -13.215  11.602  64.248  1.00  0.00     0.000 HD 
HETATM    3  C   UNK A   1     -11.760  12.882  63.518  1.00  0.00    -0.512 C  
HETATM    4  H1  UNK A   1     -13.785  12.869  63.279  1.00  0.00     0.000 HD 
ENDROOT
BRANCH   3   5
HETATM    5  C   UNK A   1     -10.645  11.867  63.746  1.00  0.00    -0.475 C  
BRANCH   5   6
HETATM    6  C   UNK A   1     -10.584  11.397  65.205  1.00  0.00    -0.352 C  
BRANCH   6   7
HETATM    7  C   UNK A   1      -9.950  10.003  65.264  1.00  0.00    -0.368 C  
BRANCH   7   8
HETATM    8  C   UNK A   1      -9.638   9.465  66.670  1.00  0.00    -0.192 C  
BRANCH   8   9
HETATM    9  N   UNK A   1      -9.919  10.436  67.771  1.00  0.00    -0.171 NA 
HETATM   10  H   UNK A   1     -10.623  11.112  67.475  1.00  0.00     0.000 HD 
BRANCH   9  11
HETATM   11  C   UNK A   1     -10.314   9.813  69.074  1.00  0.00    -0.208 C  
HETATM   12  C   UNK A   1     -11.512  10.606  69.629  1.00  0.00    -0.291 C  
HETATM   13  O   UNK A   1     -12.356  10.154  70.388  1.00  0.00    -0.257 OA 
HETATM   14  O   UNK A   1     -11.525  11.887  69.183  1.00  0.00    -0.250 OA 
BRANCH  11  15
HETATM   15  C   UNK A   1      -9.166   9.840  70.107  1.00  0.00    -0.253 C  
BRANCH  15  16
HETATM   16  C   UNK A   1      -8.602   8.445  70.424  1.00  0.00    -0.136 C  
BRANCH  16  17
HETATM   17  C   UNK A   1      -9.240   7.818  71.644  1.00  0.00    -0.168 A  
HETATM   18  C   UNK A   1      -8.682   8.017  72.914  1.00  0.00    -0.275 A  
HETATM   19  C   UNK A   1     -10.412   6.665  73.922  1.00  0.00    -0.351 A  
HETATM   20  C   UNK A   1      -9.267   7.445  74.046  1.00  0.00    -0.292 A  
HETATM   21  C   UNK A   1     -10.986   6.471  72.668  1.00  0.00    -0.287 A  
HETATM   22  C   UNK A   1     -10.406   7.044  71.535  1.00  0.00    -0.218 A  
ENDBRANCH  16  17
ENDBRANCH  15  16
ENDBRANCH  11  15
ENDBRANCH   9  11
ENDBRANCH   8   9
BRANCH   8  23
HETATM   23  C   UNK A   1      -8.156   8.968  66.826  1.00  0.00    -0.111 C  
ATOM     24  OXT PRO A   2     -10.857   5.541  66.312  1.00  0.00    -0.232 OA 
HETATM   25  O   UNK A   1      -7.253   9.773  67.059  1.00  0.00    -0.089 OA 
ATOM     26  N   PRO A   2      -7.897   7.598  66.764  1.00  0.00    -0.105 N  
ATOM     27  CD  PRO A   2      -6.559   7.075  67.021  1.00  0.00    -0.055 C  
ATOM     28  O   PRO A   2      -9.736   6.213  68.156  1.00  0.00    -0.118 OA 
ATOM     29  C   PRO A   2      -9.888   6.087  66.816  1.00  0.00    -0.163 C  
ATOM     30  CA  PRO A   2      -8.698   6.614  66.017  1.00  0.00    -0.147 C  
ATOM     31  CB  PRO A   2      -7.741   5.463  65.694  1.00  0.00    -0.091 C  
ATOM     32  CG  PRO A   2      -6.347   6.020  65.953  1.00  0.00    -0.042 C  
ENDBRANCH   8  23
ENDBRANCH   7   8
ENDBRANCH   6   7
ENDBRANCH   5   6
ENDBRANCH   3   5
TORSDOF 10
ENDMDL
MODEL      188
REMARK 921   NORMALIZED FREE ENERGY PREDICTED BY IDOCK:   -4.04 KCAL/MOL
REMARK 922        TOTAL FREE ENERGY PREDICTED BY IDOCK:   -8.36 KCAL/MOL
REMARK 923 INTER-LIGAND FREE ENERGY PREDICTED BY IDOCK:   -6.68 KCAL/MOL
REMARK 924 INTRA-LIGAND FREE ENERGY PREDICTED BY IDOCK:   -1.67 KCAL/MOL
REMARK 927      BINDING AFFINITY PREDICTED BY RF-SCORE:    0.00 PKD
ROOT
HETATM    1  N   UNK A   1     -12.513  13.985  63.121  1.00  0.00    -1.070 NA 
HETATM    2  H2  UNK A   1     -11.955  14.796  63.389  1.00  0.00     0.000 HD 
HETATM    3  C   UNK A   1     -11.900  12.731  63.540  1.00  0.00    -0.546 C  
HETATM    4  H1  UNK A   1     -12.694  13.957  62.117  1.00  0.00     0.000 HD 
ENDROOT
BRANCH   3   5
HETATM    5  C   UNK A   1     -11.630  12.773  65.040  1.00  0.00    -0.372 C  
BRANCH   5   6
HETATM    6  C   UNK A   1     -10.582  13.830  65.408  1.00  0.00    -0.330 C  
BRANCH   6   7
HETATM    7  C   UNK A   1      -9.504  13.192  66.289  1.00  0.00    -0.194 C  
BRANCH   7   8
HETATM    8  C   UNK A   1      -8.685  14.161  67.159  1.00  0.00    -0.224 C  
BRANCH   8   9
HETATM    9  N   UNK A   1      -7.679  13.490  68.037  1.00  0.00    -0.128 NA 
HETATM   10  H   UNK A   1      -7.824  13.758  69.011  1.00  0.00     0.000 HD 
BRANCH   9  11
HETATM   11  C   UNK A   1      -7.631  11.999  67.913  1.00  0.00    -0.124 C  
HETATM   12  C   UNK A   1      -7.391  11.419  69.319  1.00  0.00    -0.042 C  
HETATM   13  O   UNK A   1      -7.731  10.302  69.680  1.00  0.00    -0.142 OA 
HETATM   14  O   UNK A   1      -6.742  12.293  70.127  1.00  0.00     0.107 OA 
BRANCH  11  15
HETATM   15  C   UNK A   1      -6.501  11.527  66.971  1.00  0.00    -0.134 C  
BRANCH  15  16
HETATM   16  C   UNK A   1      -7.016  10.734  65.757  1.00  0.00    -0.048 C  
BRANCH  16  17
HETATM   17  C   UNK A   1      -7.753   9.474  66.150  1.00  0.00    -0.101 A  
HETATM   18  C   UNK A   1      -7.067   8.413  66.757  1.00  0.00    -0.074 A  
HETATM   19  C   UNK A   1      -9.107   7.126  66.890  1.00  0.00    -0.159 A  
HETATM   20  C   UNK A   1      -7.742   7.248  67.126  1.00  0.00    -0.112 A  
HETATM   21  C   UNK A   1      -9.805   8.178  66.302  1.00  0.00    -0.193 A  
HETATM   22  C   UNK A   1      -9.135   9.346  65.935  1.00  0.00    -0.242 A  
ENDBRANCH  16  17
ENDBRANCH  15  16
ENDBRANCH  11  15
ENDBRANCH   9  11
ENDBRANCH   8   9
BRANCH   8  23
HETATM   23  C   UNK A   1      -9.578  15.087  68.060  1.00  0.00    -0.208 C  
ATOM     24  OXT PRO A   2      -6.858  17.522  65.615  1.00  0.00    -0.248 OA 
HETATM   25  O   UNK A   1     -10.355  14.592  68.878  1.00  0.00    -0.235 OA 
ATOM     26  N   PRO A   2      -9.423  16.470  67.963  1.00  0.00    -0.220 N  
ATOM     27  CD  PRO A   2     -10.140  17.370  68.861  1.00  0.00    -0.330 C  
ATOM     28  O   PRO A   2      -6.819  17.135  67.842  1.00  0.00    -0.151 OA 
ATOM     29  C   PRO A   2      -7.452  17.279  66.654  1.00  0.00    -0.252 C  
ATOM     30  CA  PRO A   2      -8.974  17.193  66.762  1.00  0.00    -0.241 C  
ATOM     31  CB  PRO A   2      -9.564  18.602  66.884  1.00  0.00    -0.324 C  
ATOM     32  CG  PRO A   2     -10.628  18.494  67.968  1.00  0.00    -0.347 C  
ENDBRANCH   8  23
ENDBRANCH   7   8
ENDBRANCH   6   7
ENDBRANCH   5   6
ENDBRANCH   3   5
TORSDOF 10
ENDMDL
MODEL      189
REMARK 921   NORMALIZED FREE ENERGY PREDICTED BY IDOCK:   -4.04 KCAL/MOL
REMARK 922        TOTAL FREE ENERGY PREDICTED BY IDOCK:   -8.35 KCAL/MOL
REMARK 923 INTER-LIGAND FREE ENERGY PREDICTED BY IDOCK:   -7.71 KCAL/MOL
REMARK 924 INTRA-LIGAND FREE ENERGY PREDICTED BY IDOCK:   -0.64 KCAL/MOL
REMARK 927      BINDING AFFINITY PREDICTED BY RF-SCORE:    0.00 PKD
ROOT
HETATM    1  N   UNK A   1     -11.351  16.032  71.169  1.00  0.00    -0.391 NA 
HETATM    2  H2  UNK A   1     -10.913  16.839  70.725  1.00  0.00     0.000 HD 
HETATM    3  C   UNK A   1     -12.431  15.478  70.362  1.00  0.00    -0.402 C  
HETATM    4  H1  UNK A   1     -11.700  16.249  72.103  1.00  0.00     0.000 HD 
ENDROOT
BRANCH   3   5
HETATM    5  C   UNK A   1     -11.910  15.154  68.967  1.00  0.00    -0.331 C  
BRANCH   5   6
HETATM    6  C   UNK A   1     -11.140  16.329  68.352  1.00  0.00    -0.362 C  
BRANCH   6   7
HETATM    7  C   UNK A   1     -10.516  15.889  67.024  1.00  0.00    -0.306 C  
BRANCH   7   8
HETATM    8  C   UNK A   1      -8.983  15.758  67.010  1.00  0.00    -0.224 C  
BRANCH   8   9
HETATM    9  N   UNK A   1      -8.492  14.373  66.735  1.00  0.00    -0.416 NA 
HETATM   10  H   UNK A   1      -7.476  14.369  66.647  1.00  0.00     0.000 HD 
BRANCH   9  11
HETATM   11  C   UNK A   1      -8.930  13.342  67.728  1.00  0.00    -0.205 C  
HETATM   12  C   UNK A   1      -7.725  12.428  68.017  1.00  0.00    -0.135 C  
HETATM   13  O   UNK A   1      -7.559  11.797  69.051  1.00  0.00    -0.089 OA 
HETATM   14  O   UNK A   1      -6.854  12.390  66.979  1.00  0.00    -0.117 OA 
BRANCH  11  15
HETATM   15  C   UNK A   1     -10.102  12.484  67.201  1.00  0.00    -0.219 C  
BRANCH  15  16
HETATM   16  C   UNK A   1      -9.765  11.731  65.903  1.00  0.00    -0.259 C  
BRANCH  16  17
HETATM   17  C   UNK A   1      -9.671  10.235  66.100  1.00  0.00    -0.266 A  
HETATM   18  C   UNK A   1      -8.756   9.480  65.354  1.00  0.00    -0.190 A  
HETATM   19  C   UNK A   1      -9.477   7.454  66.455  1.00  0.00    -0.229 A  
HETATM   20  C   UNK A   1      -8.660   8.098  65.532  1.00  0.00    -0.173 A  
HETATM   21  C   UNK A   1     -10.380   8.194  67.216  1.00  0.00    -0.373 A  
HETATM   22  C   UNK A   1     -10.477   9.575  67.042  1.00  0.00    -0.302 A  
ENDBRANCH  16  17
ENDBRANCH  15  16
ENDBRANCH  11  15
ENDBRANCH   9  11
ENDBRANCH   8   9
BRANCH   8  23
HETATM   23  C   UNK A   1      -8.309  16.259  68.338  1.00  0.00    -0.190 C  
ATOM     24  OXT PRO A   2      -6.761  18.521  64.905  1.00  0.00    -0.463 OA 
HETATM   25  O   UNK A   1      -8.552  15.697  69.407  1.00  0.00    -0.250 OA 
ATOM     26  N   PRO A   2      -7.384  17.301  68.269  1.00  0.00    -0.205 N  
ATOM     27  CD  PRO A   2      -6.641  17.724  69.452  1.00  0.00    -0.202 C  
ATOM     28  O   PRO A   2      -5.723  16.970  66.180  1.00  0.00    -0.302 OA 
ATOM     29  C   PRO A   2      -6.622  17.962  65.981  1.00  0.00    -0.281 C  
ATOM     30  CA  PRO A   2      -7.374  18.363  67.250  1.00  0.00    -0.212 C  
ATOM     31  CB  PRO A   2      -6.678  19.559  67.907  1.00  0.00    -0.268 C  
ATOM     32  CG  PRO A   2      -6.659  19.239  69.396  1.00  0.00    -0.348 C  
ENDBRANCH   8  23
ENDBRANCH   7   8
ENDBRANCH   6   7
ENDBRANCH   5   6
ENDBRANCH   3   5
TORSDOF 10
ENDMDL
MODEL      190
REMARK 921   NORMALIZED FREE ENERGY PREDICTED BY IDOCK:   -4.00 KCAL/MOL
REMARK 922        TOTAL FREE ENERGY PREDICTED BY IDOCK:   -8.30 KCAL/MOL
REMARK 923 INTER-LIGAND FREE ENERGY PREDICTED BY IDOCK:   -6.88 KCAL/MOL
REMARK 924 INTRA-LIGAND FREE ENERGY PREDICTED BY IDOCK:   -1.42 KCAL/MOL
REMARK 927      BINDING AFFINITY PREDICTED BY RF-SCORE:    0.00 PKD
ROOT
HETATM    1  N   UNK A   1      -6.142  13.911  71.573  1.00  0.00    -0.547 NA 
HETATM    2  H2  UNK A   1      -5.606  13.369  72.251  1.00  0.00     0.000 HD 
HETATM    3  C   UNK A   1      -5.781  13.586  70.199  1.00  0.00    -0.140 C  
HETATM    4  H1  UNK A   1      -6.047  14.916  71.722  1.00  0.00     0.000 HD 
ENDROOT
BRANCH   3   5
HETATM    5  C   UNK A   1      -5.923  12.084  69.977  1.00  0.00    -0.159 C  
BRANCH   5   6
HETATM    6  C   UNK A   1      -7.101  11.747  69.055  1.00  0.00    -0.100 C  
BRANCH   6   7
HETATM    7  C   UNK A   1      -7.409  10.249  69.151  1.00  0.00    -0.096 C  
BRANCH   7   8
HETATM    8  C   UNK A   1      -8.865   9.842  68.866  1.00  0.00    -0.140 C  
BRANCH   8   9
HETATM    9  N   UNK A   1      -9.299   8.596  69.570  1.00  0.00    -0.153 NA 
HETATM   10  H   UNK A   1      -8.718   8.436  70.393  1.00  0.00     0.000 HD 
BRANCH   9  11
HETATM   11  C   UNK A   1     -10.748   8.558  69.942  1.00  0.00    -0.224 C  
HETATM   12  C   UNK A   1     -10.888   9.174  71.347  1.00  0.00    -0.349 C  
HETATM   13  O   UNK A   1     -11.898   9.710  71.776  1.00  0.00    -0.386 OA 
HETATM   14  O   UNK A   1      -9.750   9.048  72.074  1.00  0.00    -0.290 OA 
BRANCH  11  15
HETATM   15  C   UNK A   1     -11.308   7.118  69.963  1.00  0.00    -0.242 C  
BRANCH  15  16
HETATM   16  C   UNK A   1     -11.009   6.333  68.674  1.00  0.00    -0.423 C  
BRANCH  16  17
HETATM   17  C   UNK A   1     -10.174   5.097  68.921  1.00  0.00    -0.221 A  
HETATM   18  C   UNK A   1      -9.708   4.804  70.210  1.00  0.00    -0.296 A  
HETATM   19  C   UNK A   1      -8.624   2.802  69.399  1.00  0.00    -0.115 A  
HETATM   20  C   UNK A   1      -8.939   3.662  70.446  1.00  0.00    -0.165 A  
HETATM   21  C   UNK A   1      -9.093   3.073  68.116  1.00  0.00    -0.219 A  
HETATM   22  C   UNK A   1      -9.864   4.211  67.876  1.00  0.00    -0.098 A  
ENDBRANCH  16  17
ENDBRANCH  15  16
ENDBRANCH  11  15
ENDBRANCH   9  11
ENDBRANCH   8   9
BRANCH   8  23
HETATM   23  C   UNK A   1      -9.168   9.667  67.335  1.00  0.00    -0.130 C  
ATOM     24  OXT PRO A   2     -11.416  13.081  68.943  1.00  0.00    -0.260 OA 
HETATM   25  O   UNK A   1      -8.694   8.714  66.714  1.00  0.00    -0.120 OA 
ATOM     26  N   PRO A   2     -10.036  10.567  66.715  1.00  0.00    -0.196 N  
ATOM     27  CD  PRO A   2     -10.444  10.379  65.327  1.00  0.00    -0.108 C  
ATOM     28  O   PRO A   2     -12.174  11.060  68.270  1.00  0.00    -0.582 OA 
ATOM     29  C   PRO A   2     -11.309  12.101  68.223  1.00  0.00    -0.289 C  
ATOM     30  CA  PRO A   2     -10.251  11.963  67.129  1.00  0.00    -0.208 C  
ATOM     31  CB  PRO A   2     -10.710  12.701  65.868  1.00  0.00    -0.293 C  
ATOM     32  CG  PRO A   2     -10.375  11.765  64.715  1.00  0.00    -0.333 C  
ENDBRANCH   8  23
ENDBRANCH   7   8
ENDBRANCH   6   7
ENDBRANCH   5   6
ENDBRANCH   3   5
TORSDOF 10
ENDMDL
MODEL      191
REMARK 921   NORMALIZED FREE ENERGY PREDICTED BY IDOCK:   -4.00 KCAL/MOL
REMARK 922        TOTAL FREE ENERGY PREDICTED BY IDOCK:   -8.30 KCAL/MOL
REMARK 923 INTER-LIGAND FREE ENERGY PREDICTED BY IDOCK:   -7.19 KCAL/MOL
REMARK 924 INTRA-LIGAND FREE ENERGY PREDICTED BY IDOCK:   -1.11 KCAL/MOL
REMARK 927      BINDING AFFINITY PREDICTED BY RF-SCORE:    0.00 PKD
ROOT
HETATM    1  N   UNK A   1     -12.477  14.027  63.255  1.00  0.00    -1.112 NA 
HETATM    2  H2  UNK A   1     -12.678  13.092  62.900  1.00  0.00     0.000 HD 
HETATM    3  C   UNK A   1     -12.014  14.005  64.636  1.00  0.00    -0.430 C  
HETATM    4  H1  UNK A   1     -13.281  14.651  63.174  1.00  0.00     0.000 HD 
ENDROOT
BRANCH   3   5
HETATM    5  C   UNK A   1     -10.813  13.074  64.756  1.00  0.00    -0.357 C  
BRANCH   5   6
HETATM    6  C   UNK A   1     -11.231  11.631  65.064  1.00  0.00    -0.275 C  
BRANCH   6   7
HETATM    7  C   UNK A   1     -10.756  11.252  66.470  1.00  0.00    -0.323 C  
BRANCH   7   8
HETATM    8  C   UNK A   1      -9.364  10.602  66.558  1.00  0.00    -0.167 C  
BRANCH   8   9
HETATM    9  N   UNK A   1      -8.277  11.401  65.915  1.00  0.00    -0.369 NA 
HETATM   10  H   UNK A   1      -8.647  11.932  65.126  1.00  0.00     0.000 HD 
BRANCH   9  11
HETATM   11  C   UNK A   1      -7.529  12.307  66.843  1.00  0.00     0.017 C  
HETATM   12  C   UNK A   1      -6.184  11.632  67.173  1.00  0.00    -0.133 C  
HETATM   13  O   UNK A   1      -5.168  12.226  67.503  1.00  0.00    -0.084 OA 
HETATM   14  O   UNK A   1      -6.251  10.282  67.064  1.00  0.00    -0.057 OA 
BRANCH  11  15
HETATM   15  C   UNK A   1      -8.301  12.565  68.156  1.00  0.00    -0.175 C  
BRANCH  15  16
HETATM   16  C   UNK A   1      -8.085  13.980  68.718  1.00  0.00    -0.065 C  
BRANCH  16  17
HETATM   17  C   UNK A   1      -8.970  15.015  68.060  1.00  0.00    -0.173 A  
HETATM   18  C   UNK A   1      -8.725  15.417  66.740  1.00  0.00    -0.304 A  
HETATM   19  C   UNK A   1     -10.605  16.933  66.818  1.00  0.00    -0.201 A  
HETATM   20  C   UNK A   1      -9.539  16.369  66.123  1.00  0.00    -0.356 A  
HETATM   21  C   UNK A   1     -10.869  16.531  68.126  1.00  0.00    -0.345 A  
HETATM   22  C   UNK A   1     -10.059  15.578  68.743  1.00  0.00    -0.211 A  
ENDBRANCH  16  17
ENDBRANCH  15  16
ENDBRANCH  11  15
ENDBRANCH   9  11
ENDBRANCH   8   9
BRANCH   8  23
HETATM   23  C   UNK A   1      -9.322   9.151  65.960  1.00  0.00    -0.238 C  
ATOM     24  OXT PRO A   2     -10.361   9.002  70.227  1.00  0.00    -0.190 OA 
HETATM   25  O   UNK A   1      -8.972   8.971  64.793  1.00  0.00    -0.188 OA 
ATOM     26  N   PRO A   2      -9.620   8.072  66.794  1.00  0.00    -0.199 N  
ATOM     27  CD  PRO A   2      -9.479   6.699  66.323  1.00  0.00    -0.074 C  
ATOM     28  O   PRO A   2      -8.450   8.370  69.198  1.00  0.00    -0.120 OA 
ATOM     29  C   PRO A   2      -9.788   8.570  69.239  1.00  0.00    -0.185 C  
ATOM     30  CA  PRO A   2     -10.509   8.124  67.967  1.00  0.00    -0.183 C  
ATOM     31  CB  PRO A   2     -11.038   6.698  68.146  1.00  0.00    -0.287 C  
ATOM     32  CG  PRO A   2     -10.714   5.986  66.839  1.00  0.00    -0.407 C  
ENDBRANCH   8  23
ENDBRANCH   7   8
ENDBRANCH   6   7
ENDBRANCH   5   6
ENDBRANCH   3   5
TORSDOF 10
ENDMDL
MODEL      192
REMARK 921   NORMALIZED FREE ENERGY PREDICTED BY IDOCK:   -4.00 KCAL/MOL
REMARK 922        TOTAL FREE ENERGY PREDICTED BY IDOCK:   -8.30 KCAL/MOL
REMARK 923 INTER-LIGAND FREE ENERGY PREDICTED BY IDOCK:   -7.19 KCAL/MOL
REMARK 924 INTRA-LIGAND FREE ENERGY PREDICTED BY IDOCK:   -1.10 KCAL/MOL
REMARK 927      BINDING AFFINITY PREDICTED BY RF-SCORE:    0.00 PKD
ROOT
HETATM    1  N   UNK A   1     -11.783  13.641  66.408  1.00  0.00    -0.354 NA 
HETATM    2  H2  UNK A   1     -10.916  14.147  66.224  1.00  0.00     0.000 HD 
HETATM    3  C   UNK A   1     -12.192  12.819  65.277  1.00  0.00    -0.483 C  
HETATM    4  H1  UNK A   1     -12.545  14.267  66.669  1.00  0.00     0.000 HD 
ENDROOT
BRANCH   3   5
HETATM    5  C   UNK A   1     -11.052  11.884  64.888  1.00  0.00    -0.363 C  
BRANCH   5   6
HETATM    6  C   UNK A   1     -10.440  11.183  66.107  1.00  0.00    -0.307 C  
BRANCH   6   7
HETATM    7  C   UNK A   1      -9.885   9.819  65.683  1.00  0.00    -0.371 C  
BRANCH   7   8
HETATM    8  C   UNK A   1      -8.922   9.145  66.676  1.00  0.00    -0.137 C  
BRANCH   8   9
HETATM    9  N   UNK A   1      -7.893  10.067  67.247  1.00  0.00    -0.102 NA 
HETATM   10  H   UNK A   1      -7.753  10.866  66.629  1.00  0.00     0.000 HD 
BRANCH   9  11
HETATM   11  C   UNK A   1      -8.171  10.533  68.641  1.00  0.00    -0.130 C  
HETATM   12  C   UNK A   1      -7.067   9.968  69.554  1.00  0.00    -0.091 C  
HETATM   13  O   UNK A   1      -6.706  10.471  70.607  1.00  0.00    -0.333 OA 
HETATM   14  O   UNK A   1      -6.533   8.824  69.058  1.00  0.00    -0.046 OA 
BRANCH  11  15
HETATM   15  C   UNK A   1      -9.547  10.054  69.154  1.00  0.00    -0.217 C  
BRANCH  15  16
HETATM   16  C   UNK A   1      -9.544   9.690  70.649  1.00  0.00    -0.214 C  
BRANCH  16  17
HETATM   17  C   UNK A   1     -10.928   9.400  71.185  1.00  0.00    -0.430 A  
HETATM   18  C   UNK A   1     -11.187   8.201  71.862  1.00  0.00    -0.351 A  
HETATM   19  C   UNK A   1     -13.492   8.846  72.192  1.00  0.00    -0.497 A  
HETATM   20  C   UNK A   1     -12.461   7.928  72.364  1.00  0.00    -0.208 A  
HETATM   21  C   UNK A   1     -13.245  10.049  71.534  1.00  0.00    -0.497 A  
HETATM   22  C   UNK A   1     -11.972  10.327  71.035  1.00  0.00    -0.483 A  
ENDBRANCH  16  17
ENDBRANCH  15  16
ENDBRANCH  11  15
ENDBRANCH   9  11
ENDBRANCH   8   9
BRANCH   8  23
HETATM   23  C   UNK A   1      -8.180   7.901  66.069  1.00  0.00    -0.122 C  
ATOM     24  OXT PRO A   2     -11.248   6.589  68.927  1.00  0.00    -0.306 OA 
HETATM   25  O   UNK A   1      -7.228   8.061  65.302  1.00  0.00    -0.062 OA 
ATOM     26  N   PRO A   2      -8.574   6.624  66.468  1.00  0.00    -0.119 N  
ATOM     27  CD  PRO A   2      -7.841   5.442  66.028  1.00  0.00    -0.103 C  
ATOM     28  O   PRO A   2      -8.996   6.539  69.123  1.00  0.00    -0.130 OA 
ATOM     29  C   PRO A   2     -10.146   6.501  68.409  1.00  0.00    -0.160 C  
ATOM     30  CA  PRO A   2      -9.926   6.252  66.917  1.00  0.00    -0.169 C  
ATOM     31  CB  PRO A   2     -10.063   4.757  66.616  1.00  0.00    -0.276 C  
ATOM     32  CG  PRO A   2      -8.916   4.435  65.668  1.00  0.00    -0.132 C  
ENDBRANCH   8  23
ENDBRANCH   7   8
ENDBRANCH   6   7
ENDBRANCH   5   6
ENDBRANCH   3   5
TORSDOF 10
ENDMDL
MODEL      193
REMARK 921   NORMALIZED FREE ENERGY PREDICTED BY IDOCK:   -3.98 KCAL/MOL
REMARK 922        TOTAL FREE ENERGY PREDICTED BY IDOCK:   -8.26 KCAL/MOL
REMARK 923 INTER-LIGAND FREE ENERGY PREDICTED BY IDOCK:   -6.11 KCAL/MOL
REMARK 924 INTRA-LIGAND FREE ENERGY PREDICTED BY IDOCK:   -2.15 KCAL/MOL
REMARK 927      BINDING AFFINITY PREDICTED BY RF-SCORE:    0.00 PKD
ROOT
HETATM    1  N   UNK A   1     -12.562  11.156  71.023  1.00  0.00    -0.393 NA 
HETATM    2  H2  UNK A   1     -12.000  10.333  71.241  1.00  0.00     0.000 HD 
HETATM    3  C   UNK A   1     -12.010  11.921  69.912  1.00  0.00    -0.325 C  
HETATM    4  H1  UNK A   1     -12.681  11.767  71.831  1.00  0.00     0.000 HD 
ENDROOT
BRANCH   3   5
HETATM    5  C   UNK A   1     -11.833  11.008  68.703  1.00  0.00    -0.318 C  
BRANCH   5   6
HETATM    6  C   UNK A   1     -11.475  11.793  67.435  1.00  0.00    -0.375 C  
BRANCH   6   7
HETATM    7  C   UNK A   1     -10.153  11.266  66.868  1.00  0.00    -0.246 C  
BRANCH   7   8
HETATM    8  C   UNK A   1      -9.303  10.412  67.824  1.00  0.00    -0.145 C  
BRANCH   8   9
HETATM    9  N   UNK A   1      -7.991  11.029  68.190  1.00  0.00    -0.113 NA 
HETATM   10  H   UNK A   1      -7.336  10.311  68.499  1.00  0.00     0.000 HD 
BRANCH   9  11
HETATM   11  C   UNK A   1      -7.370  11.869  67.117  1.00  0.00    -0.142 C  
HETATM   12  C   UNK A   1      -6.004  11.249  66.769  1.00  0.00    -0.132 C  
HETATM   13  O   UNK A   1      -5.439  11.365  65.692  1.00  0.00    -0.218 OA 
HETATM   14  O   UNK A   1      -5.480  10.555  67.810  1.00  0.00    -0.043 OA 
BRANCH  11  15
HETATM   15  C   UNK A   1      -7.164  13.332  67.566  1.00  0.00    -0.157 C  
BRANCH  15  16
HETATM   16  C   UNK A   1      -8.226  13.814  68.568  1.00  0.00    -0.124 C  
BRANCH  16  17
HETATM   17  C   UNK A   1      -8.938  15.067  68.111  1.00  0.00    -0.173 A  
HETATM   18  C   UNK A   1      -9.975  14.988  67.171  1.00  0.00    -0.237 A  
HETATM   19  C   UNK A   1     -10.276  17.384  67.251  1.00  0.00    -0.324 A  
HETATM   20  C   UNK A   1     -10.640  16.140  66.746  1.00  0.00    -0.277 A  
HETATM   21  C   UNK A   1      -9.257  17.476  68.197  1.00  0.00    -0.277 A  
HETATM   22  C   UNK A   1      -8.593  16.327  68.626  1.00  0.00    -0.222 A  
ENDBRANCH  16  17
ENDBRANCH  15  16
ENDBRANCH  11  15
ENDBRANCH   9  11
ENDBRANCH   8   9
BRANCH   8  23
HETATM   23  C   UNK A   1      -9.025   8.966  67.278  1.00  0.00    -0.128 C  
ATOM     24  OXT PRO A   2     -10.723   8.757  71.324  1.00  0.00    -0.229 OA 
HETATM   25  O   UNK A   1      -8.474   8.810  66.186  1.00  0.00    -0.120 OA 
ATOM     26  N   PRO A   2      -9.349   7.872  68.081  1.00  0.00    -0.142 N  
ATOM     27  CD  PRO A   2      -9.003   6.514  67.673  1.00  0.00    -0.114 C  
ATOM     28  O   PRO A   2      -8.619   8.307  70.632  1.00  0.00    -0.126 OA 
ATOM     29  C   PRO A   2      -9.959   8.374  70.452  1.00  0.00    -0.185 C  
ATOM     30  CA  PRO A   2     -10.417   7.847  69.093  1.00  0.00    -0.209 C  
ATOM     31  CB  PRO A   2     -10.830   6.377  69.221  1.00  0.00    -0.387 C  
ATOM     32  CG  PRO A   2     -10.231   5.688  68.002  1.00  0.00    -0.234 C  
ENDBRANCH   8  23
ENDBRANCH   7   8
ENDBRANCH   6   7
ENDBRANCH   5   6
ENDBRANCH   3   5
TORSDOF 10
ENDMDL
MODEL      194
REMARK 921   NORMALIZED FREE ENERGY PREDICTED BY IDOCK:   -3.97 KCAL/MOL
REMARK 922        TOTAL FREE ENERGY PREDICTED BY IDOCK:   -8.25 KCAL/MOL
REMARK 923 INTER-LIGAND FREE ENERGY PREDICTED BY IDOCK:   -5.70 KCAL/MOL
REMARK 924 INTRA-LIGAND FREE ENERGY PREDICTED BY IDOCK:   -2.55 KCAL/MOL
REMARK 927      BINDING AFFINITY PREDICTED BY RF-SCORE:    0.00 PKD
ROOT
HETATM    1  N   UNK A   1      -9.603   7.093  74.317  1.00  0.00    -0.417 NA 
HETATM    2  H2  UNK A   1      -9.525   6.360  73.611  1.00  0.00     0.000 HD 
HETATM    3  C   UNK A   1      -8.334   7.769  74.553  1.00  0.00    -0.191 C  
HETATM    4  H1  UNK A   1      -9.971   6.739  75.201  1.00  0.00     0.000 HD 
ENDROOT
BRANCH   3   5
HETATM    5  C   UNK A   1      -7.786   8.299  73.233  1.00  0.00    -0.182 C  
BRANCH   5   6
HETATM    6  C   UNK A   1      -8.601   7.807  72.031  1.00  0.00    -0.149 C  
BRANCH   6   7
HETATM    7  C   UNK A   1      -8.439   8.792  70.869  1.00  0.00    -0.209 C  
BRANCH   7   8
HETATM    8  C   UNK A   1      -9.470   8.670  69.734  1.00  0.00    -0.166 C  
BRANCH   8   9
HETATM    9  N   UNK A   1      -8.870   8.647  68.365  1.00  0.00    -0.142 NA 
HETATM   10  H   UNK A   1      -7.988   9.159  68.357  1.00  0.00     0.000 HD 
BRANCH   9  11
HETATM   11  C   UNK A   1      -8.682   7.281  67.784  1.00  0.00    -0.126 C  
HETATM   12  C   UNK A   1      -8.983   7.367  66.276  1.00  0.00    -0.162 C  
HETATM   13  O   UNK A   1      -8.522   6.617  65.429  1.00  0.00    -0.150 OA 
HETATM   14  O   UNK A   1      -9.839   8.378  65.985  1.00  0.00    -0.182 OA 
BRANCH  11  15
HETATM   15  C   UNK A   1      -9.620   6.237  68.430  1.00  0.00    -0.121 C  
BRANCH  15  16
HETATM   16  C   UNK A   1      -8.963   4.857  68.605  1.00  0.00    -0.130 C  
BRANCH  16  17
HETATM   17  C   UNK A   1      -8.459   4.622  70.011  1.00  0.00    -0.089 A  
HETATM   18  C   UNK A   1      -9.306   4.068  70.981  1.00  0.00    -0.219 A  
HETATM   19  C   UNK A   1      -7.542   4.173  72.629  1.00  0.00    -0.075 A  
HETATM   20  C   UNK A   1      -8.848   3.844  72.281  1.00  0.00    -0.126 A  
HETATM   21  C   UNK A   1      -6.684   4.710  71.670  1.00  0.00    -0.034 A  
HETATM   22  C   UNK A   1      -7.138   4.932  70.370  1.00  0.00    -0.053 A  
ENDBRANCH  16  17
ENDBRANCH  15  16
ENDBRANCH  11  15
ENDBRANCH   9  11
ENDBRANCH   8   9
BRANCH   8  23
HETATM   23  C   UNK A   1     -10.562   9.798  69.769  1.00  0.00    -0.257 C  
ATOM     24  OXT PRO A   2     -11.878   6.342  72.141  1.00  0.00    -0.315 OA 
HETATM   25  O   UNK A   1     -10.417  10.822  69.099  1.00  0.00    -0.199 OA 
ATOM     26  N   PRO A   2     -11.723   9.586  70.514  1.00  0.00    -0.251 N  
ATOM     27  CD  PRO A   2     -12.819  10.548  70.484  1.00  0.00    -0.264 C  
ATOM     28  O   PRO A   2     -12.650   7.087  70.151  1.00  0.00     0.099 OA 
ATOM     29  C   PRO A   2     -12.086   7.265  71.369  1.00  0.00    -0.335 C  
ATOM     30  CA  PRO A   2     -11.822   8.732  71.709  1.00  0.00    -0.344 C  
ATOM     31  CB  PRO A   2     -12.993   9.294  72.521  1.00  0.00    -0.384 C  
ATOM     32  CG  PRO A   2     -13.264  10.670  71.928  1.00  0.00    -0.528 C  
ENDBRANCH   8  23
ENDBRANCH   7   8
ENDBRANCH   6   7
ENDBRANCH   5   6
ENDBRANCH   3   5
TORSDOF 10
ENDMDL
MODEL      195
REMARK 921   NORMALIZED FREE ENERGY PREDICTED BY IDOCK:   -3.97 KCAL/MOL
REMARK 922        TOTAL FREE ENERGY PREDICTED BY IDOCK:   -8.25 KCAL/MOL
REMARK 923 INTER-LIGAND FREE ENERGY PREDICTED BY IDOCK:   -6.18 KCAL/MOL
REMARK 924 INTRA-LIGAND FREE ENERGY PREDICTED BY IDOCK:   -2.07 KCAL/MOL
REMARK 927      BINDING AFFINITY PREDICTED BY RF-SCORE:    0.00 PKD
ROOT
HETATM    1  N   UNK A   1     -10.426   8.053  66.295  1.00  0.00    -0.243 NA 
HETATM    2  H2  UNK A   1     -11.139   8.006  67.024  1.00  0.00     0.000 HD 
HETATM    3  C   UNK A   1      -9.415   9.063  66.576  1.00  0.00    -0.206 C  
HETATM    4  H1  UNK A   1     -10.830   8.222  65.373  1.00  0.00     0.000 HD 
ENDROOT
BRANCH   3   5
HETATM    5  C   UNK A   1      -8.812   8.810  67.954  1.00  0.00    -0.136 C  
BRANCH   5   6
HETATM    6  C   UNK A   1      -7.279   8.790  67.918  1.00  0.00    -0.084 C  
BRANCH   6   7
HETATM    7  C   UNK A   1      -6.749   8.158  69.209  1.00  0.00    -0.040 C  
BRANCH   7   8
HETATM    8  C   UNK A   1      -7.585   7.003  69.786  1.00  0.00    -0.104 C  
BRANCH   8   9
HETATM    9  N   UNK A   1      -7.541   6.905  71.277  1.00  0.00    -0.086 NA 
HETATM   10  H   UNK A   1      -6.697   6.416  71.574  1.00  0.00     0.000 HD 
BRANCH   9  11
HETATM   11  C   UNK A   1      -7.665   8.211  71.997  1.00  0.00    -0.108 C  
HETATM   12  C   UNK A   1      -6.422   8.373  72.892  1.00  0.00    -0.093 C  
HETATM   13  O   UNK A   1      -5.959   9.443  73.256  1.00  0.00    -0.310 OA 
HETATM   14  O   UNK A   1      -5.891   7.176  73.246  1.00  0.00    -0.049 OA 
BRANCH  11  15
HETATM   15  C   UNK A   1      -8.934   8.277  72.875  1.00  0.00    -0.324 C  
BRANCH  15  16
HETATM   16  C   UNK A   1     -10.174   7.672  72.195  1.00  0.00    -0.256 C  
BRANCH  16  17
HETATM   17  C   UNK A   1     -11.167   8.720  71.747  1.00  0.00    -0.410 A  
HETATM   18  C   UNK A   1     -12.474   8.717  72.254  1.00  0.00    -0.460 A  
HETATM   19  C   UNK A   1     -13.027  10.661  70.930  1.00  0.00    -0.429 A  
HETATM   20  C   UNK A   1     -13.397   9.683  71.848  1.00  0.00    -0.526 A  
HETATM   21  C   UNK A   1     -11.727  10.686  70.431  1.00  0.00    -0.446 A  
HETATM   22  C   UNK A   1     -10.801   9.723  70.836  1.00  0.00    -0.399 A  
ENDBRANCH  16  17
ENDBRANCH  15  16
ENDBRANCH  11  15
ENDBRANCH   9  11
ENDBRANCH   8   9
BRANCH   8  23
HETATM   23  C   UNK A   1      -7.194   5.602  69.193  1.00  0.00    -0.070 C  
ATOM     24  OXT PRO A   2     -11.533   6.221  68.883  1.00  0.00    -0.331 OA 
HETATM   25  O   UNK A   1      -6.030   5.205  69.257  1.00  0.00    -0.019 OA 
ATOM     26  N   PRO A   2      -8.200   4.794  68.660  1.00  0.00    -0.083 N  
ATOM     27  CD  PRO A   2      -7.910   3.438  68.207  1.00  0.00    -0.063 C  
ATOM     28  O   PRO A   2     -10.382   4.820  70.233  1.00  0.00    -0.234 OA 
ATOM     29  C   PRO A   2     -10.553   5.521  69.088  1.00  0.00    -0.230 C  
ATOM     30  CA  PRO A   2      -9.451   5.281  68.057  1.00  0.00    -0.122 C  
ATOM     31  CB  PRO A   2      -9.889   4.189  67.077  1.00  0.00    -0.190 C  
ATOM     32  CG  PRO A   2      -8.664   3.300  66.899  1.00  0.00    -0.134 C  
ENDBRANCH   8  23
ENDBRANCH   7   8
ENDBRANCH   6   7
ENDBRANCH   5   6
ENDBRANCH   3   5
TORSDOF 10
ENDMDL
MODEL      196
REMARK 921   NORMALIZED FREE ENERGY PREDICTED BY IDOCK:   -3.95 KCAL/MOL
REMARK 922        TOTAL FREE ENERGY PREDICTED BY IDOCK:   -8.21 KCAL/MOL
REMARK 923 INTER-LIGAND FREE ENERGY PREDICTED BY IDOCK:   -6.37 KCAL/MOL
REMARK 924 INTRA-LIGAND FREE ENERGY PREDICTED BY IDOCK:   -1.84 KCAL/MOL
REMARK 927      BINDING AFFINITY PREDICTED BY RF-SCORE:    0.00 PKD
ROOT
HETATM    1  N   UNK A   1     -14.313   8.956  72.883  1.00  0.00    -1.124 NA 
HETATM    2  H2  UNK A   1     -14.295   8.245  73.615  1.00  0.00     0.000 HD 
HETATM    3  C   UNK A   1     -13.179   8.841  71.975  1.00  0.00    -0.395 C  
HETATM    4  H1  UNK A   1     -14.349   9.901  73.266  1.00  0.00     0.000 HD 
ENDROOT
BRANCH   3   5
HETATM    5  C   UNK A   1     -13.126   7.428  71.404  1.00  0.00    -0.401 C  
BRANCH   5   6
HETATM    6  C   UNK A   1     -11.867   7.195  70.560  1.00  0.00    -0.286 C  
BRANCH   6   7
HETATM    7  C   UNK A   1     -11.291   5.811  70.877  1.00  0.00    -0.106 C  
BRANCH   7   8
HETATM    8  C   UNK A   1      -9.881   5.528  70.332  1.00  0.00    -0.197 C  
BRANCH   8   9
HETATM    9  N   UNK A   1      -9.844   4.515  69.233  1.00  0.00    -0.192 NA 
HETATM   10  H   UNK A   1     -10.557   3.801  69.386  1.00  0.00     0.000 HD 
BRANCH   9  11
HETATM   11  C   UNK A   1      -9.966   5.081  67.853  1.00  0.00    -0.138 C  
HETATM   12  C   UNK A   1      -9.557   3.980  66.857  1.00  0.00    -0.207 C  
HETATM   13  O   UNK A   1      -9.942   3.909  65.699  1.00  0.00    -0.173 OA 
HETATM   14  O   UNK A   1      -8.700   3.086  67.409  1.00  0.00    -0.101 OA 
BRANCH  11  15
HETATM   15  C   UNK A   1      -9.060   6.315  67.645  1.00  0.00    -0.117 C  
BRANCH  15  16
HETATM   16  C   UNK A   1      -9.701   7.396  66.758  1.00  0.00    -0.271 C  
BRANCH  16  17
HETATM   17  C   UNK A   1      -9.606   8.780  67.359  1.00  0.00    -0.206 A  
HETATM   18  C   UNK A   1     -10.770   9.505  67.651  1.00  0.00    -0.314 A  
HETATM   19  C   UNK A   1      -9.452  11.352  68.480  1.00  0.00    -0.183 A  
HETATM   20  C   UNK A   1     -10.691  10.782  68.209  1.00  0.00    -0.253 A  
HETATM   21  C   UNK A   1      -8.287  10.637  68.210  1.00  0.00    -0.122 A  
HETATM   22  C   UNK A   1      -8.362   9.359  67.655  1.00  0.00    -0.119 A  
ENDBRANCH  16  17
ENDBRANCH  15  16
ENDBRANCH  11  15
ENDBRANCH   9  11
ENDBRANCH   8   9
BRANCH   8  23
HETATM   23  C   UNK A   1      -8.868   5.076  71.445  1.00  0.00    -0.135 C  
ATOM     24  OXT PRO A   2      -9.336   9.444  71.506  1.00  0.00    -0.271 OA 
HETATM   25  O   UNK A   1      -8.541   3.892  71.541  1.00  0.00    -0.092 OA 
ATOM     26  N   PRO A   2      -8.300   6.047  72.270  1.00  0.00    -0.114 N  
ATOM     27  CD  PRO A   2      -7.266   5.697  73.238  1.00  0.00    -0.087 C  
ATOM     28  O   PRO A   2      -7.565   8.205  70.842  1.00  0.00    -0.069 OA 
ATOM     29  C   PRO A   2      -8.665   8.428  71.599  1.00  0.00    -0.183 C  
ATOM     30  CA  PRO A   2      -8.927   7.330  72.630  1.00  0.00    -0.131 C  
ATOM     31  CB  PRO A   2      -8.311   7.726  73.975  1.00  0.00    -0.285 C  
ATOM     32  CG  PRO A   2      -7.639   6.462  74.493  1.00  0.00    -0.099 C  
ENDBRANCH   8  23
ENDBRANCH   7   8
ENDBRANCH   6   7
ENDBRANCH   5   6
ENDBRANCH   3   5
TORSDOF 10
ENDMDL
MODEL      197
REMARK 921   NORMALIZED FREE ENERGY PREDICTED BY IDOCK:   -3.95 KCAL/MOL
REMARK 922        TOTAL FREE ENERGY PREDICTED BY IDOCK:   -8.21 KCAL/MOL
REMARK 923 INTER-LIGAND FREE ENERGY PREDICTED BY IDOCK:   -6.93 KCAL/MOL
REMARK 924 INTRA-LIGAND FREE ENERGY PREDICTED BY IDOCK:   -1.28 KCAL/MOL
REMARK 927      BINDING AFFINITY PREDICTED BY RF-SCORE:    0.00 PKD
ROOT
HETATM    1  N   UNK A   1     -14.404   6.892  71.865  1.00  0.00    -0.542 NA 
HETATM    2  H2  UNK A   1     -15.090   7.137  71.151  1.00  0.00     0.000 HD 
HETATM    3  C   UNK A   1     -13.228   7.752  71.818  1.00  0.00    -0.318 C  
HETATM    4  H1  UNK A   1     -14.114   5.915  71.802  1.00  0.00     0.000 HD 
ENDROOT
BRANCH   3   5
HETATM    5  C   UNK A   1     -13.661   9.211  71.912  1.00  0.00    -0.485 C  
BRANCH   5   6
HETATM    6  C   UNK A   1     -12.526  10.174  71.545  1.00  0.00    -0.526 C  
BRANCH   6   7
HETATM    7  C   UNK A   1     -12.678  10.607  70.084  1.00  0.00    -0.224 C  
BRANCH   7   8
HETATM    8  C   UNK A   1     -11.585  11.544  69.541  1.00  0.00    -0.333 C  
BRANCH   8   9
HETATM    9  N   UNK A   1     -10.194  11.125  69.894  1.00  0.00    -0.238 NA 
HETATM   10  H   UNK A   1     -10.092  11.055  70.906  1.00  0.00     0.000 HD 
BRANCH   9  11
HETATM   11  C   UNK A   1      -9.733   9.861  69.238  1.00  0.00    -0.208 C  
HETATM   12  C   UNK A   1      -8.193   9.854  69.265  1.00  0.00    -0.138 C  
HETATM   13  O   UNK A   1      -7.500   8.848  69.246  1.00  0.00    -0.072 OA 
HETATM   14  O   UNK A   1      -7.678  11.108  69.303  1.00  0.00    -0.109 OA 
BRANCH  11  15
HETATM   15  C   UNK A   1     -10.215   9.753  67.774  1.00  0.00    -0.254 C  
BRANCH  15  16
HETATM   16  C   UNK A   1     -10.849   8.390  67.444  1.00  0.00    -0.091 C  
BRANCH  16  17
HETATM   17  C   UNK A   1      -9.893   7.455  66.738  1.00  0.00    -0.290 A  
HETATM   18  C   UNK A   1     -10.145   6.076  66.711  1.00  0.00    -0.235 A  
HETATM   19  C   UNK A   1      -8.132   5.700  65.429  1.00  0.00    -0.126 A  
HETATM   20  C   UNK A   1      -9.270   5.206  66.059  1.00  0.00    -0.159 A  
HETATM   21  C   UNK A   1      -7.878   7.070  65.434  1.00  0.00    -0.119 A  
HETATM   22  C   UNK A   1      -8.752   7.943  66.083  1.00  0.00    -0.181 A  
ENDBRANCH  16  17
ENDBRANCH  15  16
ENDBRANCH  11  15
ENDBRANCH   9  11
ENDBRANCH   8   9
BRANCH   8  23
HETATM   23  C   UNK A   1     -11.774  13.037  69.990  1.00  0.00    -0.215 C  
ATOM     24  OXT PRO A   2      -9.652  12.866  66.146  1.00  0.00    -0.260 OA 
HETATM   25  O   UNK A   1     -12.279  13.297  71.083  1.00  0.00    -0.300 OA 
ATOM     26  N   PRO A   2     -11.296  14.052  69.160  1.00  0.00    -0.267 N  
ATOM     27  CD  PRO A   2     -11.338  15.448  69.584  1.00  0.00    -0.307 C  
ATOM     28  O   PRO A   2      -8.866  13.432  68.189  1.00  0.00    -0.171 OA 
ATOM     29  C   PRO A   2      -9.842  13.340  67.255  1.00  0.00    -0.233 C  
ATOM     30  CA  PRO A   2     -11.166  13.964  67.696  1.00  0.00    -0.295 C  
ATOM     31  CB  PRO A   2     -11.255  15.405  67.186  1.00  0.00    -0.256 C  
ATOM     32  CG  PRO A   2     -11.805  16.208  68.357  1.00  0.00     0.018 C  
ENDBRANCH   8  23
ENDBRANCH   7   8
ENDBRANCH   6   7
ENDBRANCH   5   6
ENDBRANCH   3   5
TORSDOF 10
ENDMDL
MODEL      198
REMARK 921   NORMALIZED FREE ENERGY PREDICTED BY IDOCK:   -3.94 KCAL/MOL
REMARK 922        TOTAL FREE ENERGY PREDICTED BY IDOCK:   -8.20 KCAL/MOL
REMARK 923 INTER-LIGAND FREE ENERGY PREDICTED BY IDOCK:   -7.27 KCAL/MOL
REMARK 924 INTRA-LIGAND FREE ENERGY PREDICTED BY IDOCK:   -0.93 KCAL/MOL
REMARK 927      BINDING AFFINITY PREDICTED BY RF-SCORE:    0.00 PKD
ROOT
HETATM    1  N   UNK A   1     -14.059   8.971  72.971  1.00  0.00    -1.146 NA 
HETATM    2  H2  UNK A   1     -13.875   9.711  73.648  1.00  0.00     0.000 HD 
HETATM    3  C   UNK A   1     -13.951   9.442  71.596  1.00  0.00    -0.183 C  
HETATM    4  H1  UNK A   1     -14.972   8.538  73.112  1.00  0.00     0.000 HD 
ENDROOT
BRANCH   3   5
HETATM    5  C   UNK A   1     -12.586  10.088  71.385  1.00  0.00    -0.518 C  
BRANCH   5   6
HETATM    6  C   UNK A   1     -12.341  10.452  69.915  1.00  0.00    -0.176 C  
BRANCH   6   7
HETATM    7  C   UNK A   1     -11.119  11.369  69.815  1.00  0.00    -0.198 C  
BRANCH   7   8
HETATM    8  C   UNK A   1     -10.279  11.235  68.533  1.00  0.00    -0.205 C  
BRANCH   8   9
HETATM    9  N   UNK A   1     -11.071  10.857  67.323  1.00  0.00    -0.303 NA 
HETATM   10  H   UNK A   1     -11.653  10.043  67.522  1.00  0.00     0.000 HD 
BRANCH   9  11
HETATM   11  C   UNK A   1     -11.902  11.960  66.745  1.00  0.00    -0.087 C  
HETATM   12  C   UNK A   1     -11.664  11.978  65.224  1.00  0.00    -0.252 C  
HETATM   13  O   UNK A   1     -12.460  12.400  64.398  1.00  0.00    -0.457 OA 
HETATM   14  O   UNK A   1     -10.450  11.474  64.892  1.00  0.00    -0.264 OA 
BRANCH  11  15
HETATM   15  C   UNK A   1     -11.531  13.339  67.333  1.00  0.00    -0.371 C  
BRANCH  15  16
HETATM   16  C   UNK A   1     -11.010  14.328  66.276  1.00  0.00    -0.317 C  
BRANCH  16  17
HETATM   17  C   UNK A   1     -10.710  15.695  66.848  1.00  0.00    -0.307 A  
HETATM   18  C   UNK A   1     -10.795  15.917  68.229  1.00  0.00    -0.315 A  
HETATM   19  C   UNK A   1     -10.154  18.227  67.931  1.00  0.00    -0.376 A  
HETATM   20  C   UNK A   1     -10.517  17.175  68.766  1.00  0.00    -0.351 A  
HETATM   21  C   UNK A   1     -10.050  18.017  66.558  1.00  0.00    -0.379 A  
HETATM   22  C   UNK A   1     -10.325  16.760  66.018  1.00  0.00    -0.346 A  
ENDBRANCH  16  17
ENDBRANCH  15  16
ENDBRANCH  11  15
ENDBRANCH   9  11
ENDBRANCH   8   9
BRANCH   8  23
HETATM   23  C   UNK A   1      -9.091  10.218  68.677  1.00  0.00    -0.152 C  
ATOM     24  OXT PRO A   2      -7.555  14.206  67.659  1.00  0.00    -0.149 OA 
HETATM   25  O   UNK A   1      -9.319   9.025  68.883  1.00  0.00    -0.142 OA 
ATOM     26  N   PRO A   2      -7.787  10.679  68.497  1.00  0.00    -0.108 N  
ATOM     27  CD  PRO A   2      -6.658   9.755  68.500  1.00  0.00    -0.051 C  
ATOM     28  O   PRO A   2      -7.641  12.339  66.386  1.00  0.00     0.238 OA 
ATOM     29  C   PRO A   2      -7.542  12.988  67.570  1.00  0.00    -0.165 C  
ATOM     30  CA  PRO A   2      -7.327  12.053  68.759  1.00  0.00    -0.098 C  
ATOM     31  CB  PRO A   2      -5.830  11.935  69.061  1.00  0.00    -0.059 C  
ATOM     32  CG  PRO A   2      -5.591  10.454  69.321  1.00  0.00    -0.037 C  
ENDBRANCH   8  23
ENDBRANCH   7   8
ENDBRANCH   6   7
ENDBRANCH   5   6
ENDBRANCH   3   5
TORSDOF 10
ENDMDL
MODEL      199
REMARK 921   NORMALIZED FREE ENERGY PREDICTED BY IDOCK:   -3.92 KCAL/MOL
REMARK 922        TOTAL FREE ENERGY PREDICTED BY IDOCK:   -8.16 KCAL/MOL
REMARK 923 INTER-LIGAND FREE ENERGY PREDICTED BY IDOCK:   -6.76 KCAL/MOL
REMARK 924 INTRA-LIGAND FREE ENERGY PREDICTED BY IDOCK:   -1.40 KCAL/MOL
REMARK 927      BINDING AFFINITY PREDICTED BY RF-SCORE:    0.00 PKD
ROOT
HETATM    1  N   UNK A   1      -8.460  15.095  69.888  1.00  0.00    -0.359 NA 
HETATM    2  H2  UNK A   1      -7.753  15.830  69.867  1.00  0.00     0.000 HD 
HETATM    3  C   UNK A   1      -8.605  14.433  68.598  1.00  0.00    -0.161 C  
HETATM    4  H1  UNK A   1      -9.368  15.443  70.196  1.00  0.00     0.000 HD 
ENDROOT
BRANCH   3   5
HETATM    5  C   UNK A   1      -7.248  13.913  68.137  1.00  0.00    -0.120 C  
BRANCH   5   6
HETATM    6  C   UNK A   1      -7.285  12.415  67.811  1.00  0.00    -0.119 C  
BRANCH   6   7
HETATM    7  C   UNK A   1      -7.636  11.627  69.077  1.00  0.00    -0.027 C  
BRANCH   7   8
HETATM    8  C   UNK A   1      -8.784  10.612  68.942  1.00  0.00    -0.161 C  
BRANCH   8   9
HETATM    9  N   UNK A   1      -8.640   9.408  69.815  1.00  0.00    -0.158 NA 
HETATM   10  H   UNK A   1      -7.699   9.366  70.207  1.00  0.00     0.000 HD 
BRANCH   9  11
HETATM   11  C   UNK A   1      -9.660   9.296  70.905  1.00  0.00    -0.269 C  
HETATM   12  C   UNK A   1      -9.044   8.453  72.038  1.00  0.00    -0.227 C  
HETATM   13  O   UNK A   1      -9.368   8.524  73.214  1.00  0.00    -0.154 OA 
HETATM   14  O   UNK A   1      -8.093   7.602  71.581  1.00  0.00    -0.098 OA 
BRANCH  11  15
HETATM   15  C   UNK A   1     -10.961   8.618  70.420  1.00  0.00    -0.256 C  
BRANCH  15  16
HETATM   16  C   UNK A   1     -10.933   7.086  70.553  1.00  0.00    -0.297 C  
BRANCH  16  17
HETATM   17  C   UNK A   1     -10.628   6.390  69.245  1.00  0.00    -0.311 A  
HETATM   18  C   UNK A   1      -9.852   5.223  69.231  1.00  0.00    -0.256 A  
HETATM   19  C   UNK A   1     -10.055   5.078  66.827  1.00  0.00    -0.270 A  
HETATM   20  C   UNK A   1      -9.570   4.571  68.028  1.00  0.00    -0.209 A  
HETATM   21  C   UNK A   1     -10.841   6.229  66.829  1.00  0.00    -0.367 A  
HETATM   22  C   UNK A   1     -11.127   6.881  68.029  1.00  0.00    -0.179 A  
ENDBRANCH  16  17
ENDBRANCH  15  16
ENDBRANCH  11  15
ENDBRANCH   9  11
ENDBRANCH   8   9
BRANCH   8  23
HETATM   23  C   UNK A   1      -9.003  10.121  67.466  1.00  0.00    -0.131 C  
ATOM     24  OXT PRO A   2     -12.028  13.126  68.525  1.00  0.00    -0.337 OA 
HETATM   25  O   UNK A   1      -8.303   9.218  67.004  1.00  0.00    -0.118 OA 
ATOM     26  N   PRO A   2     -10.043  10.676  66.720  1.00  0.00    -0.216 N  
ATOM     27  CD  PRO A   2     -10.364  10.171  65.390  1.00  0.00    -0.106 C  
ATOM     28  O   PRO A   2     -12.273  10.901  68.208  1.00  0.00    -0.526 OA 
ATOM     29  C   PRO A   2     -11.676  12.094  67.975  1.00  0.00    -0.344 C  
ATOM     30  CA  PRO A   2     -10.590  12.031  66.902  1.00  0.00    -0.229 C  
ATOM     31  CB  PRO A   2     -11.182  12.422  65.544  1.00  0.00    -0.364 C  
ATOM     32  CG  PRO A   2     -10.609  11.414  64.556  1.00  0.00    -0.390 C  
ENDBRANCH   8  23
ENDBRANCH   7   8
ENDBRANCH   6   7
ENDBRANCH   5   6
ENDBRANCH   3   5
TORSDOF 10
ENDMDL
MODEL      200
REMARK 921   NORMALIZED FREE ENERGY PREDICTED BY IDOCK:   -3.87 KCAL/MOL
REMARK 922        TOTAL FREE ENERGY PREDICTED BY IDOCK:   -8.09 KCAL/MOL
REMARK 923 INTER-LIGAND FREE ENERGY PREDICTED BY IDOCK:   -7.84 KCAL/MOL
REMARK 924 INTRA-LIGAND FREE ENERGY PREDICTED BY IDOCK:   -0.24 KCAL/MOL
REMARK 927      BINDING AFFINITY PREDICTED BY RF-SCORE:    0.00 PKD
ROOT
HETATM    1  N   UNK A   1     -13.971   8.739  72.752  1.00  0.00    -0.916 NA 
HETATM    2  H2  UNK A   1     -13.730   7.887  72.245  1.00  0.00     0.000 HD 
HETATM    3  C   UNK A   1     -13.073   9.842  72.434  1.00  0.00    -0.207 C  
HETATM    4  H1  UNK A   1     -13.990   8.595  73.762  1.00  0.00     0.000 HD 
ENDROOT
BRANCH   3   5
HETATM    5  C   UNK A   1     -13.046  10.058  70.925  1.00  0.00    -0.381 C  
BRANCH   5   6
HETATM    6  C   UNK A   1     -12.069  11.168  70.519  1.00  0.00    -0.474 C  
BRANCH   6   7
HETATM    7  C   UNK A   1     -11.948  11.205  68.992  1.00  0.00    -0.389 C  
BRANCH   7   8
HETATM    8  C   UNK A   1     -10.521  11.333  68.433  1.00  0.00    -0.197 C  
BRANCH   8   9
HETATM    9  N   UNK A   1      -9.454  10.876  69.375  1.00  0.00    -0.423 NA 
HETATM   10  H   UNK A   1      -9.872  10.470  70.212  1.00  0.00     0.000 HD 
BRANCH   9  11
HETATM   11  C   UNK A   1      -8.457   9.929  68.783  1.00  0.00    -0.122 C  
HETATM   12  C   UNK A   1      -9.217   8.976  67.842  1.00  0.00    -0.141 C  
HETATM   13  O   UNK A   1      -8.723   8.401  66.884  1.00  0.00    -0.125 OA 
HETATM   14  O   UNK A   1     -10.516   8.832  68.204  1.00  0.00    -0.216 OA 
BRANCH  11  15
HETATM   15  C   UNK A   1      -7.726   9.100  69.863  1.00  0.00    -0.087 C  
BRANCH  15  16
HETATM   16  C   UNK A   1      -8.282   9.325  71.279  1.00  0.00     0.032 C  
BRANCH  16  17
HETATM   17  C   UNK A   1      -9.264   8.255  71.701  1.00  0.00    -0.245 A  
HETATM   18  C   UNK A   1      -9.818   7.390  70.748  1.00  0.00    -0.178 A  
HETATM   19  C   UNK A   1     -11.087   6.259  72.465  1.00  0.00    -0.307 A  
HETATM   20  C   UNK A   1     -10.722   6.397  71.130  1.00  0.00    -0.293 A  
HETATM   21  C   UNK A   1     -10.533   7.103  73.425  1.00  0.00    -0.410 A  
HETATM   22  C   UNK A   1      -9.626   8.094  73.047  1.00  0.00    -0.336 A  
ENDBRANCH  16  17
ENDBRANCH  15  16
ENDBRANCH  11  15
ENDBRANCH   9  11
ENDBRANCH   8   9
BRANCH   8  23
HETATM   23  C   UNK A   1     -10.168  12.792  67.968  1.00  0.00    -0.228 C  
ATOM     24  OXT PRO A   2     -10.658  10.167  64.480  1.00  0.00     0.147 OA 
HETATM   25  O   UNK A   1      -9.914  13.663  68.801  1.00  0.00    -0.191 OA 
ATOM     26  N   PRO A   2     -10.082  13.058  66.601  1.00  0.00    -0.246 N  
ATOM     27  CD  PRO A   2      -9.641  14.363  66.118  1.00  0.00    -0.283 C  
ATOM     28  O   PRO A   2      -8.773  11.087  65.323  1.00  0.00    -0.177 OA 
ATOM     29  C   PRO A   2     -10.105  11.076  65.078  1.00  0.00    -0.296 C  
ATOM     30  CA  PRO A   2     -10.819  12.342  65.547  1.00  0.00    -0.281 C  
ATOM     31  CB  PRO A   2     -10.937  13.331  64.383  1.00  0.00    -0.413 C  
ATOM     32  CG  PRO A   2     -10.584  14.688  64.977  1.00  0.00    -0.461 C  
ENDBRANCH   8  23
ENDBRANCH   7   8
ENDBRANCH   6   7
ENDBRANCH   5   6
ENDBRANCH   3   5
TORSDOF 10
ENDMDL
MODEL      201
REMARK 921   NORMALIZED FREE ENERGY PREDICTED BY IDOCK:   -3.85 KCAL/MOL
REMARK 922        TOTAL FREE ENERGY PREDICTED BY IDOCK:   -8.06 KCAL/MOL
REMARK 923 INTER-LIGAND FREE ENERGY PREDICTED BY IDOCK:   -6.29 KCAL/MOL
REMARK 924 INTRA-LIGAND FREE ENERGY PREDICTED BY IDOCK:   -1.77 KCAL/MOL
REMARK 927      BINDING AFFINITY PREDICTED BY RF-SCORE:    0.00 PKD
ROOT
HETATM    1  N   UNK A   1     -11.844  13.183  67.672  1.00  0.00    -0.366 NA 
HETATM    2  H2  UNK A   1     -11.119  12.509  67.921  1.00  0.00     0.000 HD 
HETATM    3  C   UNK A   1     -11.755  13.599  66.278  1.00  0.00    -0.367 C  
HETATM    4  H1  UNK A   1     -11.826  14.007  68.275  1.00  0.00     0.000 HD 
ENDROOT
BRANCH   3   5
HETATM    5  C   UNK A   1     -11.781  12.368  65.378  1.00  0.00    -0.452 C  
BRANCH   5   6
HETATM    6  C   UNK A   1     -10.382  11.993  64.873  1.00  0.00    -0.316 C  
BRANCH   6   7
HETATM    7  C   UNK A   1     -10.278  10.470  64.749  1.00  0.00    -0.373 C  
BRANCH   7   8
HETATM    8  C   UNK A   1      -9.331   9.777  65.744  1.00  0.00    -0.221 C  
BRANCH   8   9
HETATM    9  N   UNK A   1      -9.669   8.345  66.010  1.00  0.00    -0.458 NA 
HETATM   10  H   UNK A   1      -9.814   7.847  65.131  1.00  0.00     0.000 HD 
BRANCH   9  11
HETATM   11  C   UNK A   1      -8.679   7.613  66.862  1.00  0.00    -0.129 C  
HETATM   12  C   UNK A   1      -7.876   6.672  65.944  1.00  0.00    -0.102 C  
HETATM   13  O   UNK A   1      -6.742   6.278  66.170  1.00  0.00    -0.053 OA 
HETATM   14  O   UNK A   1      -8.579   6.314  64.841  1.00  0.00    -0.069 OA 
BRANCH  11  15
HETATM   15  C   UNK A   1      -9.363   6.780  67.968  1.00  0.00    -0.118 C  
BRANCH  15  16
HETATM   16  C   UNK A   1     -10.732   7.341  68.391  1.00  0.00    -0.165 C  
BRANCH  16  17
HETATM   17  C   UNK A   1     -10.885   7.444  69.892  1.00  0.00    -0.259 A  
HETATM   18  C   UNK A   1     -11.621   6.480  70.594  1.00  0.00    -0.442 A  
HETATM   19  C   UNK A   1     -11.179   7.615  72.681  1.00  0.00    -0.419 A  
HETATM   20  C   UNK A   1     -11.765   6.566  71.980  1.00  0.00    -0.367 A  
HETATM   21  C   UNK A   1     -10.431   8.572  71.997  1.00  0.00    -0.407 A  
HETATM   22  C   UNK A   1     -10.283   8.487  70.612  1.00  0.00    -0.230 A  
ENDBRANCH  16  17
ENDBRANCH  15  16
ENDBRANCH  11  15
ENDBRANCH   9  11
ENDBRANCH   8   9
BRANCH   8  23
HETATM   23  C   UNK A   1      -9.236  10.519  67.125  1.00  0.00    -0.143 C  
ATOM     24  OXT PRO A   2      -5.361  10.657  65.059  1.00  0.00    -0.135 OA 
HETATM   25  O   UNK A   1     -10.199  10.524  67.894  1.00  0.00    -0.170 OA 
ATOM     26  N   PRO A   2      -8.024  11.107  67.488  1.00  0.00    -0.115 N  
ATOM     27  CD  PRO A   2      -7.846  11.704  68.808  1.00  0.00    -0.096 C  
ATOM     28  O   PRO A   2      -5.959   9.487  66.898  1.00  0.00    -0.054 OA 
ATOM     29  C   PRO A   2      -6.046  10.550  66.064  1.00  0.00    -0.119 C  
ATOM     30  CA  PRO A   2      -7.015  11.626  66.550  1.00  0.00     0.049 C  
ATOM     31  CB  PRO A   2      -6.247  12.702  67.324  1.00  0.00    -0.094 C  
ATOM     32  CG  PRO A   2      -7.104  13.000  68.547  1.00  0.00    -0.105 C  
ENDBRANCH   8  23
ENDBRANCH   7   8
ENDBRANCH   6   7
ENDBRANCH   5   6
ENDBRANCH   3   5
TORSDOF 10
ENDMDL
MODEL      202
REMARK 921   NORMALIZED FREE ENERGY PREDICTED BY IDOCK:   -3.85 KCAL/MOL
REMARK 922        TOTAL FREE ENERGY PREDICTED BY IDOCK:   -8.06 KCAL/MOL
REMARK 923 INTER-LIGAND FREE ENERGY PREDICTED BY IDOCK:   -6.40 KCAL/MOL
REMARK 924 INTRA-LIGAND FREE ENERGY PREDICTED BY IDOCK:   -1.66 KCAL/MOL
REMARK 927      BINDING AFFINITY PREDICTED BY RF-SCORE:    0.00 PKD
ROOT
HETATM    1  N   UNK A   1      -5.432   8.946  66.798  1.00  0.00    -0.039 NA 
HETATM    2  H2  UNK A   1      -5.407   8.281  67.572  1.00  0.00     0.000 HD 
HETATM    3  C   UNK A   1      -6.442   9.979  66.992  1.00  0.00    -0.069 C  
HETATM    4  H1  UNK A   1      -5.583   8.485  65.900  1.00  0.00     0.000 HD 
ENDROOT
BRANCH   3   5
HETATM    5  C   UNK A   1      -6.216  10.667  68.333  1.00  0.00    -0.050 C  
BRANCH   5   6
HETATM    6  C   UNK A   1      -7.464  10.618  69.223  1.00  0.00    -0.130 C  
BRANCH   6   7
HETATM    7  C   UNK A   1      -7.541   9.255  69.917  1.00  0.00    -0.093 C  
BRANCH   7   8
HETATM    8  C   UNK A   1      -8.892   8.904  70.565  1.00  0.00    -0.192 C  
BRANCH   8   9
HETATM    9  N   UNK A   1      -9.879  10.027  70.561  1.00  0.00    -0.361 NA 
HETATM   10  H   UNK A   1      -9.500  10.832  71.058  1.00  0.00     0.000 HD 
BRANCH   9  11
HETATM   11  C   UNK A   1     -10.360  10.436  69.203  1.00  0.00    -0.222 C  
HETATM   12  C   UNK A   1     -11.415  11.542  69.394  1.00  0.00    -0.309 C  
HETATM   13  O   UNK A   1     -11.684  12.399  68.565  1.00  0.00    -0.292 OA 
HETATM   14  O   UNK A   1     -12.032  11.456  70.598  1.00  0.00    -0.352 OA 
BRANCH  11  15
HETATM   15  C   UNK A   1     -10.994   9.259  68.429  1.00  0.00    -0.038 C  
BRANCH  15  16
HETATM   16  C   UNK A   1     -10.255   8.925  67.122  1.00  0.00    -0.339 C  
BRANCH  16  17
HETATM   17  C   UNK A   1      -9.853   7.470  67.030  1.00  0.00    -0.280 A  
HETATM   18  C   UNK A   1     -10.827   6.478  66.854  1.00  0.00    -0.427 A  
HETATM   19  C   UNK A   1      -9.127   4.761  66.854  1.00  0.00    -0.118 A  
HETATM   20  C   UNK A   1     -10.465   5.132  66.765  1.00  0.00    -0.306 A  
HETATM   21  C   UNK A   1      -8.147   5.739  67.013  1.00  0.00    -0.102 A  
HETATM   22  C   UNK A   1      -8.505   7.084  67.100  1.00  0.00    -0.121 A  
ENDBRANCH  16  17
ENDBRANCH  15  16
ENDBRANCH  11  15
ENDBRANCH   9  11
ENDBRANCH   8   9
BRANCH   8  23
HETATM   23  C   UNK A   1      -8.752   8.383  72.040  1.00  0.00    -0.202 C  
ATOM     24  OXT PRO A   2     -12.238   6.538  70.105  1.00  0.00    -0.229 OA 
HETATM   25  O   UNK A   1      -7.880   8.842  72.779  1.00  0.00    -0.377 OA 
ATOM     26  N   PRO A   2      -9.675   7.449  72.512  1.00  0.00    -0.153 N  
ATOM     27  CD  PRO A   2      -9.663   7.023  73.907  1.00  0.00    -0.294 C  
ATOM     28  O   PRO A   2     -12.170   8.095  71.743  1.00  0.00    -0.290 OA 
ATOM     29  C   PRO A   2     -11.672   7.031  71.068  1.00  0.00    -0.333 C  
ATOM     30  CA  PRO A   2     -10.392   6.467  71.681  1.00  0.00    -0.207 C  
ATOM     31  CB  PRO A   2     -10.735   5.306  72.620  1.00  0.00    -0.290 C  
ATOM     32  CG  PRO A   2      -9.868   5.521  73.853  1.00  0.00    -0.180 C  
ENDBRANCH   8  23
ENDBRANCH   7   8
ENDBRANCH   6   7
ENDBRANCH   5   6
ENDBRANCH   3   5
TORSDOF 10
ENDMDL
MODEL      203
REMARK 921   NORMALIZED FREE ENERGY PREDICTED BY IDOCK:   -3.83 KCAL/MOL
REMARK 922        TOTAL FREE ENERGY PREDICTED BY IDOCK:   -8.03 KCAL/MOL
REMARK 923 INTER-LIGAND FREE ENERGY PREDICTED BY IDOCK:   -5.85 KCAL/MOL
REMARK 924 INTRA-LIGAND FREE ENERGY PREDICTED BY IDOCK:   -2.18 KCAL/MOL
REMARK 927      BINDING AFFINITY PREDICTED BY RF-SCORE:    0.00 PKD
ROOT
HETATM    1  N   UNK A   1      -7.028   8.793  65.602  1.00  0.00    -0.078 NA 
HETATM    2  H2  UNK A   1      -7.189   8.497  66.565  1.00  0.00     0.000 HD 
HETATM    3  C   UNK A   1      -8.212   8.627  64.769  1.00  0.00    -0.160 C  
HETATM    4  H1  UNK A   1      -6.240   8.305  65.176  1.00  0.00     0.000 HD 
ENDROOT
BRANCH   3   5
HETATM    5  C   UNK A   1      -9.389   9.357  65.406  1.00  0.00    -0.311 C  
BRANCH   5   6
HETATM    6  C   UNK A   1      -9.572  10.768  64.833  1.00  0.00    -0.307 C  
BRANCH   6   7
HETATM    7  C   UNK A   1     -10.777  11.436  65.502  1.00  0.00    -0.313 C  
BRANCH   7   8
HETATM    8  C   UNK A   1     -10.630  11.743  67.003  1.00  0.00    -0.232 C  
BRANCH   8   9
HETATM    9  N   UNK A   1     -11.891  11.569  67.787  1.00  0.00    -0.626 NA 
HETATM   10  H   UNK A   1     -12.679  11.411  67.158  1.00  0.00     0.000 HD 
BRANCH   9  11
HETATM   11  C   UNK A   1     -11.839  10.498  68.831  1.00  0.00    -0.066 C  
HETATM   12  C   UNK A   1     -12.131  11.157  70.193  1.00  0.00    -0.362 C  
HETATM   13  O   UNK A   1     -12.604  10.579  71.160  1.00  0.00    -0.344 OA 
HETATM   14  O   UNK A   1     -11.791  12.469  70.207  1.00  0.00    -0.317 OA 
BRANCH  11  15
HETATM   15  C   UNK A   1     -10.459   9.805  68.889  1.00  0.00    -0.233 C  
BRANCH  15  16
HETATM   16  C   UNK A   1     -10.527   8.365  69.424  1.00  0.00    -0.222 C  
BRANCH  16  17
HETATM   17  C   UNK A   1     -10.101   7.337  68.400  1.00  0.00    -0.188 A  
HETATM   18  C   UNK A   1     -11.032   6.817  67.491  1.00  0.00    -0.375 A  
HETATM   19  C   UNK A   1      -9.328   5.430  66.486  1.00  0.00    -0.150 A  
HETATM   20  C   UNK A   1     -10.646   5.871  66.539  1.00  0.00    -0.266 A  
HETATM   21  C   UNK A   1      -8.388   5.950  67.374  1.00  0.00    -0.105 A  
HETATM   22  C   UNK A   1      -8.769   6.898  68.324  1.00  0.00    -0.123 A  
ENDBRANCH  16  17
ENDBRANCH  15  16
ENDBRANCH  11  15
ENDBRANCH   9  11
ENDBRANCH   8   9
BRANCH   8  23
HETATM   23  C   UNK A   1     -10.074  13.184  67.287  1.00  0.00    -0.233 C  
ATOM     24  OXT PRO A   2      -6.939  10.187  67.984  1.00  0.00    -0.080 OA 
HETATM   25  O   UNK A   1     -10.823  14.160  67.224  1.00  0.00    -0.279 OA 
ATOM     26  N   PRO A   2      -8.742  13.325  67.677  1.00  0.00    -0.182 N  
ATOM     27  CD  PRO A   2      -8.209  14.626  68.068  1.00  0.00    -0.145 C  
ATOM     28  O   PRO A   2      -8.069  11.447  69.481  1.00  0.00     0.198 OA 
ATOM     29  C   PRO A   2      -7.526  11.220  68.262  1.00  0.00    -0.099 C  
ATOM     30  CA  PRO A   2      -7.648  12.410  67.312  1.00  0.00    -0.141 C  
ATOM     31  CB  PRO A   2      -6.370  13.252  67.371  1.00  0.00    -0.027 C  
ATOM     32  CG  PRO A   2      -6.847  14.698  67.405  1.00  0.00    -0.085 C  
ENDBRANCH   8  23
ENDBRANCH   7   8
ENDBRANCH   6   7
ENDBRANCH   5   6
ENDBRANCH   3   5
TORSDOF 10
ENDMDL
MODEL      204
REMARK 921   NORMALIZED FREE ENERGY PREDICTED BY IDOCK:   -3.81 KCAL/MOL
REMARK 922        TOTAL FREE ENERGY PREDICTED BY IDOCK:   -7.99 KCAL/MOL
REMARK 923 INTER-LIGAND FREE ENERGY PREDICTED BY IDOCK:   -8.46 KCAL/MOL
REMARK 924 INTRA-LIGAND FREE ENERGY PREDICTED BY IDOCK:    0.47 KCAL/MOL
REMARK 927      BINDING AFFINITY PREDICTED BY RF-SCORE:    0.00 PKD
ROOT
HETATM    1  N   UNK A   1      -7.053  20.389  64.702  1.00  0.00    -0.345 NA 
HETATM    2  H2  UNK A   1      -7.273  19.968  63.799  1.00  0.00     0.000 HD 
HETATM    3  C   UNK A   1      -7.284  19.471  65.809  1.00  0.00    -0.295 C  
HETATM    4  H1  UNK A   1      -7.574  21.252  64.860  1.00  0.00     0.000 HD 
ENDROOT
BRANCH   3   5
HETATM    5  C   UNK A   1      -6.506  18.181  65.572  1.00  0.00    -0.235 C  
BRANCH   5   6
HETATM    6  C   UNK A   1      -7.181  16.971  66.230  1.00  0.00    -0.269 C  
BRANCH   6   7
HETATM    7  C   UNK A   1      -8.672  16.966  65.877  1.00  0.00    -0.058 C  
BRANCH   7   8
HETATM    8  C   UNK A   1      -9.398  15.620  66.042  1.00  0.00    -0.349 C  
BRANCH   8   9
HETATM    9  N   UNK A   1     -10.871  15.689  65.795  1.00  0.00    -0.324 NA 
HETATM   10  H   UNK A   1     -11.082  16.417  65.113  1.00  0.00     0.000 HD 
BRANCH   9  11
HETATM   11  C   UNK A   1     -11.499  14.394  65.382  1.00  0.00    -0.344 C  
HETATM   12  C   UNK A   1     -12.139  14.605  63.996  1.00  0.00    -0.200 C  
HETATM   13  O   UNK A   1     -12.330  13.721  63.175  1.00  0.00    -0.726 OA 
HETATM   14  O   UNK A   1     -12.482  15.900  63.785  1.00  0.00    -0.735 OA 
BRANCH  11  15
HETATM   15  C   UNK A   1     -12.586  13.929  66.376  1.00  0.00    -0.314 C  
BRANCH  15  16
HETATM   16  C   UNK A   1     -12.030  13.601  67.772  1.00  0.00    -0.387 C  
BRANCH  16  17
HETATM   17  C   UNK A   1     -11.571  12.166  67.899  1.00  0.00    -0.413 A  
HETATM   18  C   UNK A   1     -10.956  11.523  66.817  1.00  0.00    -0.347 A  
HETATM   19  C   UNK A   1     -10.707   9.501  68.116  1.00  0.00    -0.247 A  
HETATM   20  C   UNK A   1     -10.526  10.199  66.926  1.00  0.00    -0.286 A  
HETATM   21  C   UNK A   1     -11.303  10.133  69.206  1.00  0.00    -0.211 A  
HETATM   22  C   UNK A   1     -11.731  11.457  69.100  1.00  0.00    -0.410 A  
ENDBRANCH  16  17
ENDBRANCH  15  16
ENDBRANCH  11  15
ENDBRANCH   9  11
ENDBRANCH   8   9
BRANCH   8  23
HETATM   23  C   UNK A   1      -9.170  14.965  67.451  1.00  0.00    -0.194 C  
ATOM     24  OXT PRO A   2     -11.127  18.872  67.899  1.00  0.00    -0.200 OA 
HETATM   25  O   UNK A   1      -8.562  13.897  67.546  1.00  0.00    -0.169 OA 
ATOM     26  N   PRO A   2      -9.606  15.647  68.587  1.00  0.00    -0.195 N  
ATOM     27  CD  PRO A   2      -9.313  15.140  69.924  1.00  0.00     0.099 C  
ATOM     28  O   PRO A   2      -9.013  18.265  68.419  1.00  0.00    -0.297 OA 
ATOM     29  C   PRO A   2     -10.333  18.015  68.252  1.00  0.00    -0.380 C  
ATOM     30  CA  PRO A   2     -10.735  16.591  68.632  1.00  0.00    -0.334 C  
ATOM     31  CB  PRO A   2     -11.238  16.563  70.079  1.00  0.00    -0.159 C  
ATOM     32  CG  PRO A   2     -10.605  15.323  70.697  1.00  0.00    -0.135 C  
ENDBRANCH   8  23
ENDBRANCH   7   8
ENDBRANCH   6   7
ENDBRANCH   5   6
ENDBRANCH   3   5
TORSDOF 10
ENDMDL
MODEL      205
REMARK 921   NORMALIZED FREE ENERGY PREDICTED BY IDOCK:   -3.81 KCAL/MOL
REMARK 922        TOTAL FREE ENERGY PREDICTED BY IDOCK:   -7.99 KCAL/MOL
REMARK 923 INTER-LIGAND FREE ENERGY PREDICTED BY IDOCK:   -8.16 KCAL/MOL
REMARK 924 INTRA-LIGAND FREE ENERGY PREDICTED BY IDOCK:    0.17 KCAL/MOL
REMARK 927      BINDING AFFINITY PREDICTED BY RF-SCORE:    0.00 PKD
ROOT
HETATM    1  N   UNK A   1     -12.650  14.378  63.391  1.00  0.00    -0.970 NA 
HETATM    2  H2  UNK A   1     -12.978  13.788  62.626  1.00  0.00     0.000 HD 
HETATM    3  C   UNK A   1     -12.006  13.606  64.446  1.00  0.00    -0.437 C  
HETATM    4  H1  UNK A   1     -13.400  14.942  63.791  1.00  0.00     0.000 HD 
ENDROOT
BRANCH   3   5
HETATM    5  C   UNK A   1     -10.885  12.763  63.848  1.00  0.00    -0.447 C  
BRANCH   5   6
HETATM    6  C   UNK A   1     -10.450  11.631  64.787  1.00  0.00    -0.346 C  
BRANCH   6   7
HETATM    7  C   UNK A   1     -11.180  11.774  66.126  1.00  0.00    -0.363 C  
BRANCH   7   8
HETATM    8  C   UNK A   1     -10.289  12.022  67.356  1.00  0.00    -0.207 C  
BRANCH   8   9
HETATM    9  N   UNK A   1     -10.533  13.334  68.030  1.00  0.00    -0.236 NA 
HETATM   10  H   UNK A   1     -10.589  14.081  67.338  1.00  0.00     0.000 HD 
BRANCH   9  11
HETATM   11  C   UNK A   1     -11.731  13.366  68.927  1.00  0.00    -0.328 C  
HETATM   12  C   UNK A   1     -11.936  14.824  69.382  1.00  0.00    -0.303 C  
HETATM   13  O   UNK A   1     -13.007  15.304  69.722  1.00  0.00    -0.003 OA 
HETATM   14  O   UNK A   1     -10.777  15.528  69.373  1.00  0.00    -0.219 OA 
BRANCH  11  15
HETATM   15  C   UNK A   1     -11.555  12.467  70.170  1.00  0.00    -0.150 C  
BRANCH  15  16
HETATM   16  C   UNK A   1     -11.257  10.999  69.819  1.00  0.00    -0.339 C  
BRANCH  16  17
HETATM   17  C   UNK A   1     -11.832  10.027  70.824  1.00  0.00    -0.435 A  
HETATM   18  C   UNK A   1     -13.198  10.061  71.138  1.00  0.00    -0.441 A  
HETATM   19  C   UNK A   1     -12.922   8.227  72.686  1.00  0.00    -0.071 A  
HETATM   20  C   UNK A   1     -13.739   9.165  72.062  1.00  0.00    -0.508 A  
HETATM   21  C   UNK A   1     -11.566   8.172  72.373  1.00  0.00    -0.463 A  
HETATM   22  C   UNK A   1     -11.023   9.064  71.447  1.00  0.00    -0.394 A  
ENDBRANCH  16  17
ENDBRANCH  15  16
ENDBRANCH  11  15
ENDBRANCH   9  11
ENDBRANCH   8   9
BRANCH   8  23
HETATM   23  C   UNK A   1      -8.755  11.915  67.038  1.00  0.00    -0.181 C  
ATOM     24  OXT PRO A   2     -10.561   7.911  67.155  1.00  0.00    -0.320 OA 
HETATM   25  O   UNK A   1      -8.050  12.925  67.038  1.00  0.00    -0.146 OA 
ATOM     26  N   PRO A   2      -8.200  10.652  66.826  1.00  0.00    -0.126 N  
ATOM     27  CD  PRO A   2      -6.761  10.486  66.646  1.00  0.00    -0.099 C  
ATOM     28  O   PRO A   2      -9.138   8.881  68.620  1.00  0.00    -0.137 OA 
ATOM     29  C   PRO A   2      -9.650   8.693  67.381  1.00  0.00    -0.159 C  
ATOM     30  CA  PRO A   2      -8.922   9.484  66.296  1.00  0.00    -0.157 C  
ATOM     31  CB  PRO A   2      -7.854   8.602  65.641  1.00  0.00    -0.101 C  
ATOM     32  CG  PRO A   2      -6.628   9.496  65.506  1.00  0.00    -0.073 C  
ENDBRANCH   8  23
ENDBRANCH   7   8
ENDBRANCH   6   7
ENDBRANCH   5   6
ENDBRANCH   3   5
TORSDOF 10
ENDMDL
MODEL      206
REMARK 921   NORMALIZED FREE ENERGY PREDICTED BY IDOCK:   -3.79 KCAL/MOL
REMARK 922        TOTAL FREE ENERGY PREDICTED BY IDOCK:   -7.95 KCAL/MOL
REMARK 923 INTER-LIGAND FREE ENERGY PREDICTED BY IDOCK:   -6.51 KCAL/MOL
REMARK 924 INTRA-LIGAND FREE ENERGY PREDICTED BY IDOCK:   -1.44 KCAL/MOL
REMARK 927      BINDING AFFINITY PREDICTED BY RF-SCORE:    0.00 PKD
ROOT
HETATM    1  N   UNK A   1     -12.977  12.676  64.581  1.00  0.00    -0.844 NA 
HETATM    2  H2  UNK A   1     -12.709  13.271  65.365  1.00  0.00     0.000 HD 
HETATM    3  C   UNK A   1     -11.985  12.690  63.514  1.00  0.00    -0.548 C  
HETATM    4  H1  UNK A   1     -13.890  12.928  64.201  1.00  0.00     0.000 HD 
ENDROOT
BRANCH   3   5
HETATM    5  C   UNK A   1     -10.621  12.315  64.082  1.00  0.00    -0.408 C  
BRANCH   5   6
HETATM    6  C   UNK A   1     -10.514  10.814  64.381  1.00  0.00    -0.344 C  
BRANCH   6   7
HETATM    7  C   UNK A   1      -9.149  10.517  65.009  1.00  0.00    -0.231 C  
BRANCH   7   8
HETATM    8  C   UNK A   1      -9.177   9.834  66.388  1.00  0.00    -0.160 C  
BRANCH   8   9
HETATM    9  N   UNK A   1      -9.294   8.345  66.328  1.00  0.00    -0.210 NA 
HETATM   10  H   UNK A   1      -9.524   8.046  65.380  1.00  0.00     0.000 HD 
BRANCH   9  11
HETATM   11  C   UNK A   1      -8.097   7.599  66.830  1.00  0.00    -0.116 C  
HETATM   12  C   UNK A   1      -7.445   6.894  65.626  1.00  0.00    -0.085 C  
HETATM   13  O   UNK A   1      -6.265   6.588  65.552  1.00  0.00    -0.032 OA 
HETATM   14  O   UNK A   1      -8.341   6.634  64.641  1.00  0.00    -0.087 OA 
BRANCH  11  15
HETATM   15  C   UNK A   1      -8.470   6.544  67.895  1.00  0.00    -0.118 C  
BRANCH  15  16
HETATM   16  C   UNK A   1      -7.963   6.898  69.303  1.00  0.00    -0.116 C  
BRANCH  16  17
HETATM   17  C   UNK A   1      -9.083   7.221  70.266  1.00  0.00    -0.152 A  
HETATM   18  C   UNK A   1      -9.740   6.192  70.956  1.00  0.00    -0.202 A  
HETATM   19  C   UNK A   1     -11.165   7.799  72.063  1.00  0.00    -0.327 A  
HETATM   20  C   UNK A   1     -10.773   6.481  71.850  1.00  0.00    -0.251 A  
HETATM   21  C   UNK A   1     -10.511   8.833  71.396  1.00  0.00    -0.354 A  
HETATM   22  C   UNK A   1      -9.476   8.547  70.504  1.00  0.00    -0.193 A  
ENDBRANCH  16  17
ENDBRANCH  15  16
ENDBRANCH  11  15
ENDBRANCH   9  11
ENDBRANCH   8   9
BRANCH   8  23
HETATM   23  C   UNK A   1     -10.317  10.375  67.322  1.00  0.00    -0.228 C  
ATOM     24  OXT PRO A   2      -6.911  13.150  67.325  1.00  0.00    -0.139 OA 
HETATM   25  O   UNK A   1     -11.330   9.701  67.519  1.00  0.00     0.027 OA 
ATOM     26  N   PRO A   2     -10.129  11.595  67.974  1.00  0.00    -0.184 N  
ATOM     27  CD  PRO A   2     -11.102  12.084  68.944  1.00  0.00    -0.247 C  
ATOM     28  O   PRO A   2      -7.635  11.774  68.966  1.00  0.00    -0.089 OA 
ATOM     29  C   PRO A   2      -7.825  12.561  67.880  1.00  0.00    -0.144 C  
ATOM     30  CA  PRO A   2      -9.293  12.702  67.481  1.00  0.00    -0.188 C  
ATOM     31  CB  PRO A   2      -9.879  13.971  68.107  1.00  0.00    -0.235 C  
ATOM     32  CG  PRO A   2     -11.250  13.560  68.629  1.00  0.00    -0.311 C  
ENDBRANCH   8  23
ENDBRANCH   7   8
ENDBRANCH   6   7
ENDBRANCH   5   6
ENDBRANCH   3   5
TORSDOF 10
ENDMDL
MODEL      207
REMARK 921   NORMALIZED FREE ENERGY PREDICTED BY IDOCK:   -3.78 KCAL/MOL
REMARK 922        TOTAL FREE ENERGY PREDICTED BY IDOCK:   -7.94 KCAL/MOL
REMARK 923 INTER-LIGAND FREE ENERGY PREDICTED BY IDOCK:   -7.77 KCAL/MOL
REMARK 924 INTRA-LIGAND FREE ENERGY PREDICTED BY IDOCK:   -0.17 KCAL/MOL
REMARK 927      BINDING AFFINITY PREDICTED BY RF-SCORE:    0.00 PKD
ROOT
HETATM    1  N   UNK A   1     -11.034  11.629  63.119  1.00  0.00    -0.726 NA 
HETATM    2  H2  UNK A   1     -10.365  11.622  63.889  1.00  0.00     0.000 HD 
HETATM    3  C   UNK A   1     -12.355  12.080  63.539  1.00  0.00    -0.551 C  
HETATM    4  H1  UNK A   1     -11.113  10.716  62.670  1.00  0.00     0.000 HD 
ENDROOT
BRANCH   3   5
HETATM    5  C   UNK A   1     -12.237  13.444  64.210  1.00  0.00    -0.450 C  
BRANCH   5   6
HETATM    6  C   UNK A   1     -13.250  13.617  65.348  1.00  0.00     0.030 C  
BRANCH   6   7
HETATM    7  C   UNK A   1     -12.523  14.102  66.607  1.00  0.00    -0.255 C  
BRANCH   7   8
HETATM    8  C   UNK A   1     -11.109  13.537  66.828  1.00  0.00    -0.299 C  
BRANCH   8   9
HETATM    9  N   UNK A   1     -11.083  12.090  67.205  1.00  0.00    -0.272 NA 
HETATM   10  H   UNK A   1     -11.557  11.532  66.495  1.00  0.00     0.000 HD 
BRANCH   9  11
HETATM   11  C   UNK A   1      -9.719  11.536  67.474  1.00  0.00    -0.179 C  
HETATM   12  C   UNK A   1      -9.271  10.762  66.220  1.00  0.00    -0.173 C  
HETATM   13  O   UNK A   1      -8.109  10.572  65.896  1.00  0.00    -0.144 OA 
HETATM   14  O   UNK A   1     -10.326  10.298  65.505  1.00  0.00    -0.258 OA 
BRANCH  11  15
HETATM   15  C   UNK A   1      -9.706  10.582  68.689  1.00  0.00    -0.175 C  
BRANCH  15  16
HETATM   16  C   UNK A   1     -10.787   9.490  68.615  1.00  0.00    -0.177 C  
BRANCH  16  17
HETATM   17  C   UNK A   1     -10.224   8.096  68.778  1.00  0.00    -0.221 A  
HETATM   18  C   UNK A   1      -9.870   7.341  67.652  1.00  0.00    -0.189 A  
HETATM   19  C   UNK A   1      -9.175   5.505  69.061  1.00  0.00    -0.143 A  
HETATM   20  C   UNK A   1      -9.347   6.054  67.795  1.00  0.00    -0.106 A  
HETATM   21  C   UNK A   1      -9.508   6.251  70.190  1.00  0.00    -0.172 A  
HETATM   22  C   UNK A   1     -10.028   7.538  70.051  1.00  0.00    -0.186 A  
ENDBRANCH  16  17
ENDBRANCH  15  16
ENDBRANCH  11  15
ENDBRANCH   9  11
ENDBRANCH   8   9
BRANCH   8  23
HETATM   23  C   UNK A   1     -10.287  14.335  67.901  1.00  0.00    -0.233 C  
ATOM     24  OXT PRO A   2     -11.152  16.900  64.441  1.00  0.00    -1.128 OA 
HETATM   25  O   UNK A   1      -9.876  13.768  68.915  1.00  0.00    -0.137 OA 
ATOM     26  N   PRO A   2      -9.973  15.671  67.650  1.00  0.00    -0.235 N  
ATOM     27  CD  PRO A   2      -9.111  16.423  68.556  1.00  0.00    -0.223 C  
ATOM     28  O   PRO A   2      -9.184  16.006  65.101  1.00  0.00    -0.000 OA 
ATOM     29  C   PRO A   2     -10.422  16.502  65.335  1.00  0.00    -0.269 C  
ATOM     30  CA  PRO A   2     -10.770  16.590  66.820  1.00  0.00    -0.155 C  
ATOM     31  CB  PRO A   2     -10.457  17.995  67.342  1.00  0.00    -0.399 C  
ATOM     32  CG  PRO A   2      -9.781  17.777  68.690  1.00  0.00    -0.346 C  
ENDBRANCH   8  23
ENDBRANCH   7   8
ENDBRANCH   6   7
ENDBRANCH   5   6
ENDBRANCH   3   5
TORSDOF 10
ENDMDL
MODEL      208
REMARK 921   NORMALIZED FREE ENERGY PREDICTED BY IDOCK:   -3.77 KCAL/MOL
REMARK 922        TOTAL FREE ENERGY PREDICTED BY IDOCK:   -7.93 KCAL/MOL
REMARK 923 INTER-LIGAND FREE ENERGY PREDICTED BY IDOCK:   -7.48 KCAL/MOL
REMARK 924 INTRA-LIGAND FREE ENERGY PREDICTED BY IDOCK:   -0.45 KCAL/MOL
REMARK 927      BINDING AFFINITY PREDICTED BY RF-SCORE:    0.00 PKD
ROOT
HETATM    1  N   UNK A   1     -14.346   8.764  70.961  1.00  0.00    -0.556 NA 
HETATM    2  H2  UNK A   1     -13.768   8.508  70.160  1.00  0.00     0.000 HD 
HETATM    3  C   UNK A   1     -13.843   8.198  72.206  1.00  0.00    -0.167 C  
HETATM    4  H1  UNK A   1     -15.322   8.495  70.833  1.00  0.00     0.000 HD 
ENDROOT
BRANCH   3   5
HETATM    5  C   UNK A   1     -12.385   8.601  72.397  1.00  0.00    -0.426 C  
BRANCH   5   6
HETATM    6  C   UNK A   1     -11.924   9.614  71.342  1.00  0.00    -0.480 C  
BRANCH   6   7
HETATM    7  C   UNK A   1     -10.407   9.506  71.162  1.00  0.00    -0.330 C  
BRANCH   7   8
HETATM    8  C   UNK A   1      -9.929   8.621  69.998  1.00  0.00    -0.185 C  
BRANCH   8   9
HETATM    9  N   UNK A   1     -10.891   8.542  68.857  1.00  0.00    -0.428 NA 
HETATM   10  H   UNK A   1     -11.834   8.770  69.173  1.00  0.00     0.000 HD 
BRANCH   9  11
HETATM   11  C   UNK A   1     -10.528   9.378  67.669  1.00  0.00    -0.268 C  
HETATM   12  C   UNK A   1      -9.552   8.560  66.802  1.00  0.00    -0.210 C  
HETATM   13  O   UNK A   1      -9.402   8.703  65.598  1.00  0.00    -0.190 OA 
HETATM   14  O   UNK A   1      -8.858   7.654  67.533  1.00  0.00    -0.124 OA 
BRANCH  11  15
HETATM   15  C   UNK A   1      -9.853  10.707  68.075  1.00  0.00    -0.177 C  
BRANCH  15  16
HETATM   16  C   UNK A   1     -10.842  11.880  68.185  1.00  0.00    -0.259 C  
BRANCH  16  17
HETATM   17  C   UNK A   1     -11.218  12.458  66.839  1.00  0.00    -0.359 A  
HETATM   18  C   UNK A   1     -12.281  13.366  66.732  1.00  0.00    -0.367 A  
HETATM   19  C   UNK A   1     -11.931  13.547  64.349  1.00  0.00    -0.466 A  
HETATM   20  C   UNK A   1     -12.632  13.908  65.494  1.00  0.00    -0.560 A  
HETATM   21  C   UNK A   1     -10.862  12.657  64.442  1.00  0.00    -0.386 A  
HETATM   22  C   UNK A   1     -10.506  12.117  65.679  1.00  0.00    -0.290 A  
ENDBRANCH  16  17
ENDBRANCH  15  16
ENDBRANCH  11  15
ENDBRANCH   9  11
ENDBRANCH   8   9
BRANCH   8  23
HETATM   23  C   UNK A   1      -9.576   7.156  70.441  1.00  0.00    -0.169 C  
ATOM     24  OXT PRO A   2      -6.307   9.889  71.510  1.00  0.00    -0.314 OA 
HETATM   25  O   UNK A   1     -10.333   6.225  70.160  1.00  0.00    -0.186 OA 
ATOM     26  N   PRO A   2      -8.364   6.925  71.092  1.00  0.00    -0.119 N  
ATOM     27  CD  PRO A   2      -7.934   5.569  71.417  1.00  0.00    -0.112 C  
ATOM     28  O   PRO A   2      -6.369   8.291  69.913  1.00  0.00    -0.032 OA 
ATOM     29  C   PRO A   2      -6.731   8.818  71.106  1.00  0.00    -0.075 C  
ATOM     30  CA  PRO A   2      -7.644   7.905  71.923  1.00  0.00    -0.085 C  
ATOM     31  CB  PRO A   2      -6.807   7.078  72.903  1.00  0.00    -0.069 C  
ATOM     32  CG  PRO A   2      -7.379   5.668  72.824  1.00  0.00    -0.092 C  
ENDBRANCH   8  23
ENDBRANCH   7   8
ENDBRANCH   6   7
ENDBRANCH   5   6
ENDBRANCH   3   5
TORSDOF 10
ENDMDL
MODEL      209
REMARK 921   NORMALIZED FREE ENERGY PREDICTED BY IDOCK:   -3.76 KCAL/MOL
REMARK 922        TOTAL FREE ENERGY PREDICTED BY IDOCK:   -7.92 KCAL/MOL
REMARK 923 INTER-LIGAND FREE ENERGY PREDICTED BY IDOCK:   -6.30 KCAL/MOL
REMARK 924 INTRA-LIGAND FREE ENERGY PREDICTED BY IDOCK:   -1.61 KCAL/MOL
REMARK 927      BINDING AFFINITY PREDICTED BY RF-SCORE:    0.00 PKD
ROOT
HETATM    1  N   UNK A   1      -8.483   4.379  70.679  1.00  0.00    -0.081 NA 
HETATM    2  H2  UNK A   1      -8.433   4.383  69.660  1.00  0.00     0.000 HD 
HETATM    3  C   UNK A   1      -9.090   5.594  71.205  1.00  0.00    -0.143 C  
HETATM    4  H1  UNK A   1      -7.568   4.240  71.109  1.00  0.00     0.000 HD 
ENDROOT
BRANCH   3   5
HETATM    5  C   UNK A   1     -10.457   5.801  70.562  1.00  0.00    -0.331 C  
BRANCH   5   6
HETATM    6  C   UNK A   1     -10.756   7.283  70.305  1.00  0.00    -0.252 C  
BRANCH   6   7
HETATM    7  C   UNK A   1     -10.412   7.626  68.852  1.00  0.00    -0.211 C  
BRANCH   7   8
HETATM    8  C   UNK A   1     -10.231   9.121  68.538  1.00  0.00    -0.198 C  
BRANCH   8   9
HETATM    9  N   UNK A   1     -11.493   9.918  68.617  1.00  0.00    -0.505 NA 
HETATM   10  H   UNK A   1     -12.285   9.307  68.816  1.00  0.00     0.000 HD 
BRANCH   9  11
HETATM   11  C   UNK A   1     -11.458  11.055  69.590  1.00  0.00    -0.303 C  
HETATM   12  C   UNK A   1     -12.332  10.666  70.797  1.00  0.00    -0.376 C  
HETATM   13  O   UNK A   1     -12.193  11.103  71.930  1.00  0.00     0.070 OA 
HETATM   14  O   UNK A   1     -13.299   9.776  70.460  1.00  0.00    -0.088 OA 
BRANCH  11  15
HETATM   15  C   UNK A   1     -11.996  12.367  68.976  1.00  0.00    -0.291 C  
BRANCH  15  16
HETATM   16  C   UNK A   1     -11.456  12.640  67.562  1.00  0.00    -0.397 C  
BRANCH  16  17
HETATM   17  C   UNK A   1     -10.972  14.062  67.384  1.00  0.00    -0.302 A  
HETATM   18  C   UNK A   1     -10.334  14.447  66.197  1.00  0.00    -0.305 A  
HETATM   19  C   UNK A   1     -10.070  16.699  67.032  1.00  0.00    -0.281 A  
HETATM   20  C   UNK A   1      -9.888  15.759  66.023  1.00  0.00    -0.366 A  
HETATM   21  C   UNK A   1     -10.716  16.334  68.211  1.00  0.00    -0.322 A  
HETATM   22  C   UNK A   1     -11.166  15.025  68.387  1.00  0.00    -0.303 A  
ENDBRANCH  16  17
ENDBRANCH  15  16
ENDBRANCH  11  15
ENDBRANCH   9  11
ENDBRANCH   8   9
BRANCH   8  23
HETATM   23  C   UNK A   1      -9.576   9.382  67.134  1.00  0.00    -0.154 C  
ATOM     24  OXT PRO A   2      -6.980  10.924  70.325  1.00  0.00    -0.213 OA 
HETATM   25  O   UNK A   1     -10.186   9.093  66.103  1.00  0.00    -0.272 OA 
ATOM     26  N   PRO A   2      -8.330  10.008  67.080  1.00  0.00    -0.121 N  
ATOM     27  CD  PRO A   2      -7.734  10.381  65.802  1.00  0.00    -0.146 C  
ATOM     28  O   PRO A   2      -8.215  12.062  68.812  1.00  0.00    -0.091 OA 
ATOM     29  C   PRO A   2      -7.488  10.994  69.217  1.00  0.00    -0.100 C  
ATOM     30  CA  PRO A   2      -7.298   9.939  68.128  1.00  0.00    -0.080 C  
ATOM     31  CB  PRO A   2      -5.966  10.171  67.410  1.00  0.00    -0.054 C  
ATOM     32  CG  PRO A   2      -6.274   9.989  65.929  1.00  0.00    -0.085 C  
ENDBRANCH   8  23
ENDBRANCH   7   8
ENDBRANCH   6   7
ENDBRANCH   5   6
ENDBRANCH   3   5
TORSDOF 10
ENDMDL
MODEL      210
REMARK 921   NORMALIZED FREE ENERGY PREDICTED BY IDOCK:   -3.72 KCAL/MOL
REMARK 922        TOTAL FREE ENERGY PREDICTED BY IDOCK:   -7.85 KCAL/MOL
REMARK 923 INTER-LIGAND FREE ENERGY PREDICTED BY IDOCK:   -6.14 KCAL/MOL
REMARK 924 INTRA-LIGAND FREE ENERGY PREDICTED BY IDOCK:   -1.71 KCAL/MOL
REMARK 927      BINDING AFFINITY PREDICTED BY RF-SCORE:    0.00 PKD
ROOT
HETATM    1  N   UNK A   1      -8.173   3.823  67.299  1.00  0.00    -0.091 NA 
HETATM    2  H2  UNK A   1      -8.093   4.542  66.579  1.00  0.00     0.000 HD 
HETATM    3  C   UNK A   1      -8.944   4.278  68.448  1.00  0.00    -0.115 C  
HETATM    4  H1  UNK A   1      -7.261   3.488  67.610  1.00  0.00     0.000 HD 
ENDROOT
BRANCH   3   5
HETATM    5  C   UNK A   1     -10.306   4.779  67.982  1.00  0.00     0.020 C  
BRANCH   5   6
HETATM    6  C   UNK A   1     -10.523   6.259  68.320  1.00  0.00    -0.277 C  
BRANCH   6   7
HETATM    7  C   UNK A   1     -10.594   7.072  67.024  1.00  0.00    -0.412 C  
BRANCH   7   8
HETATM    8  C   UNK A   1     -10.040   8.505  67.096  1.00  0.00    -0.262 C  
BRANCH   8   9
HETATM    9  N   UNK A   1     -10.916   9.460  67.843  1.00  0.00    -0.502 NA 
HETATM   10  H   UNK A   1     -11.775   8.996  68.136  1.00  0.00     0.000 HD 
BRANCH   9  11
HETATM   11  C   UNK A   1     -10.263  10.128  69.012  1.00  0.00    -0.206 C  
HETATM   12  C   UNK A   1     -10.891   9.548  70.294  1.00  0.00    -0.269 C  
HETATM   13  O   UNK A   1     -10.338   9.502  71.383  1.00  0.00    -0.302 OA 
HETATM   14  O   UNK A   1     -12.151   9.093  70.083  1.00  0.00     0.112 OA 
BRANCH  11  15
HETATM   15  C   UNK A   1     -10.464  11.660  68.998  1.00  0.00    -0.159 C  
BRANCH  15  16
HETATM   16  C   UNK A   1      -9.621  12.371  67.926  1.00  0.00    -0.205 C  
BRANCH  16  17
HETATM   17  C   UNK A   1     -10.465  13.106  66.909  1.00  0.00    -0.256 A  
HETATM   18  C   UNK A   1      -9.859  13.930  65.950  1.00  0.00    -0.287 A  
HETATM   19  C   UNK A   1     -12.015  14.477  65.008  1.00  0.00    -0.399 A  
HETATM   20  C   UNK A   1     -10.630  14.610  65.006  1.00  0.00    -0.461 A  
HETATM   21  C   UNK A   1     -12.630  13.650  65.945  1.00  0.00    -0.478 A  
HETATM   22  C   UNK A   1     -11.862  12.967  66.889  1.00  0.00    -0.444 A  
ENDBRANCH  16  17
ENDBRANCH  15  16
ENDBRANCH  11  15
ENDBRANCH   9  11
ENDBRANCH   8   9
BRANCH   8  23
HETATM   23  C   UNK A   1      -9.739   9.123  65.684  1.00  0.00    -0.177 C  
ATOM     24  OXT PRO A   2      -6.519   6.372  66.852  1.00  0.00    -0.043 OA 
HETATM   25  O   UNK A   1     -10.485   9.982  65.211  1.00  0.00    -0.139 OA 
ATOM     26  N   PRO A   2      -8.579   8.732  65.014  1.00  0.00    -0.181 N  
ATOM     27  CD  PRO A   2      -8.191   9.363  63.757  1.00  0.00    -0.165 C  
ATOM     28  O   PRO A   2      -6.488   8.627  66.703  1.00  0.00    -0.058 OA 
ATOM     29  C   PRO A   2      -6.927   7.400  66.336  1.00  0.00    -0.069 C  
ATOM     30  CA  PRO A   2      -7.908   7.431  65.164  1.00  0.00    -0.123 C  
ATOM     31  CB  PRO A   2      -7.153   7.202  63.851  1.00  0.00    -0.061 C  
ATOM     32  CG  PRO A   2      -7.736   8.216  62.876  1.00  0.00    -0.134 C  
ENDBRANCH   8  23
ENDBRANCH   7   8
ENDBRANCH   6   7
ENDBRANCH   5   6
ENDBRANCH   3   5
TORSDOF 10
ENDMDL
MODEL      211
REMARK 921   NORMALIZED FREE ENERGY PREDICTED BY IDOCK:   -3.72 KCAL/MOL
REMARK 922        TOTAL FREE ENERGY PREDICTED BY IDOCK:   -7.85 KCAL/MOL
REMARK 923 INTER-LIGAND FREE ENERGY PREDICTED BY IDOCK:   -7.24 KCAL/MOL
REMARK 924 INTRA-LIGAND FREE ENERGY PREDICTED BY IDOCK:   -0.61 KCAL/MOL
REMARK 927      BINDING AFFINITY PREDICTED BY RF-SCORE:    0.00 PKD
ROOT
HETATM    1  N   UNK A   1     -12.362  14.078  63.388  1.00  0.00    -1.154 NA 
HETATM    2  H2  UNK A   1     -13.377  14.017  63.470  1.00  0.00     0.000 HD 
HETATM    3  C   UNK A   1     -11.695  13.912  64.673  1.00  0.00    -0.397 C  
HETATM    4  H1  UNK A   1     -12.062  14.953  62.958  1.00  0.00     0.000 HD 
ENDROOT
BRANCH   3   5
HETATM    5  C   UNK A   1     -12.143  12.604  65.315  1.00  0.00    -0.519 C  
BRANCH   5   6
HETATM    6  C   UNK A   1     -11.717  12.508  66.785  1.00  0.00    -0.453 C  
BRANCH   6   7
HETATM    7  C   UNK A   1     -10.207  12.262  66.862  1.00  0.00    -0.229 C  
BRANCH   7   8
HETATM    8  C   UNK A   1      -9.724  11.406  68.046  1.00  0.00    -0.186 C  
BRANCH   8   9
HETATM    9  N   UNK A   1      -8.248  11.168  68.063  1.00  0.00    -0.120 NA 
HETATM   10  H   UNK A   1      -7.762  11.929  67.591  1.00  0.00     0.000 HD 
BRANCH   9  11
HETATM   11  C   UNK A   1      -7.664  10.943  69.423  1.00  0.00    -0.066 C  
HETATM   12  C   UNK A   1      -6.437  11.864  69.564  1.00  0.00    -0.113 C  
HETATM   13  O   UNK A   1      -5.998  12.284  70.624  1.00  0.00    -0.256 OA 
HETATM   14  O   UNK A   1      -5.880  12.157  68.363  1.00  0.00    -0.052 OA 
BRANCH  11  15
HETATM   15  C   UNK A   1      -7.225   9.478  69.636  1.00  0.00    -0.076 C  
BRANCH  15  16
HETATM   16  C   UNK A   1      -7.354   9.012  71.096  1.00  0.00    -0.115 C  
BRANCH  16  17
HETATM   17  C   UNK A   1      -8.646   8.273  71.365  1.00  0.00    -0.186 A  
HETATM   18  C   UNK A   1      -9.456   8.636  72.449  1.00  0.00    -0.295 A  
HETATM   19  C   UNK A   1     -11.052   6.915  71.877  1.00  0.00    -0.278 A  
HETATM   20  C   UNK A   1     -10.652   7.962  72.702  1.00  0.00    -0.394 A  
HETATM   21  C   UNK A   1     -10.264   6.554  70.786  1.00  0.00    -0.218 A  
HETATM   22  C   UNK A   1      -9.070   7.228  70.529  1.00  0.00    -0.158 A  
ENDBRANCH  16  17
ENDBRANCH  15  16
ENDBRANCH  11  15
ENDBRANCH   9  11
ENDBRANCH   8   9
BRANCH   8  23
HETATM   23  C   UNK A   1     -10.444  10.013  68.135  1.00  0.00    -0.211 C  
ATOM     24  OXT PRO A   2      -7.822  10.140  64.612  1.00  0.00    -0.143 OA 
HETATM   25  O   UNK A   1     -11.284   9.805  69.012  1.00  0.00    -0.155 OA 
ATOM     26  N   PRO A   2     -10.165   9.050  67.165  1.00  0.00    -0.243 N  
ATOM     27  CD  PRO A   2     -10.894   7.786  67.132  1.00  0.00    -0.156 C  
ATOM     28  O   PRO A   2     -10.080  10.156  64.715  1.00  0.00    -0.331 OA 
ATOM     29  C   PRO A   2      -8.854   9.818  65.180  1.00  0.00    -0.181 C  
ATOM     30  CA  PRO A   2      -8.899   8.932  66.424  1.00  0.00    -0.152 C  
ATOM     31  CB  PRO A   2      -8.797   7.460  66.013  1.00  0.00    -0.173 C  
ATOM     32  CG  PRO A   2      -9.832   6.737  66.865  1.00  0.00    -0.229 C  
ENDBRANCH   8  23
ENDBRANCH   7   8
ENDBRANCH   6   7
ENDBRANCH   5   6
ENDBRANCH   3   5
TORSDOF 10
ENDMDL
MODEL      212
REMARK 921   NORMALIZED FREE ENERGY PREDICTED BY IDOCK:   -3.70 KCAL/MOL
REMARK 922        TOTAL FREE ENERGY PREDICTED BY IDOCK:   -7.83 KCAL/MOL
REMARK 923 INTER-LIGAND FREE ENERGY PREDICTED BY IDOCK:   -8.03 KCAL/MOL
REMARK 924 INTRA-LIGAND FREE ENERGY PREDICTED BY IDOCK:    0.21 KCAL/MOL
REMARK 927      BINDING AFFINITY PREDICTED BY RF-SCORE:    0.00 PKD
ROOT
HETATM    1  N   UNK A   1     -11.581  16.268  64.057  1.00  0.00    -1.504 NA 
HETATM    2  H2  UNK A   1     -10.628  16.396  63.715  1.00  0.00     0.000 HD 
HETATM    3  C   UNK A   1     -11.943  14.860  64.165  1.00  0.00    -0.235 C  
HETATM    4  H1  UNK A   1     -12.267  16.753  63.477  1.00  0.00     0.000 HD 
ENDROOT
BRANCH   3   5
HETATM    5  C   UNK A   1     -10.919  14.136  65.031  1.00  0.00    -0.391 C  
BRANCH   5   6
HETATM    6  C   UNK A   1     -11.456  12.803  65.567  1.00  0.00    -0.372 C  
BRANCH   6   7
HETATM    7  C   UNK A   1     -10.370  12.117  66.402  1.00  0.00    -0.246 C  
BRANCH   7   8
HETATM    8  C   UNK A   1     -10.249  12.584  67.863  1.00  0.00    -0.219 C  
BRANCH   8   9
HETATM    9  N   UNK A   1      -8.844  12.842  68.305  1.00  0.00    -0.235 NA 
HETATM   10  H   UNK A   1      -8.454  12.009  68.745  1.00  0.00     0.000 HD 
BRANCH   9  11
HETATM   11  C   UNK A   1      -7.928  13.338  67.230  1.00  0.00    -0.125 C  
HETATM   12  C   UNK A   1      -6.483  13.197  67.745  1.00  0.00    -0.153 C  
HETATM   13  O   UNK A   1      -5.498  13.069  67.033  1.00  0.00    -0.321 OA 
HETATM   14  O   UNK A   1      -6.417  13.241  69.099  1.00  0.00    -0.097 OA 
BRANCH  11  15
HETATM   15  C   UNK A   1      -8.196  14.816  66.870  1.00  0.00    -0.144 C  
BRANCH  15  16
HETATM   16  C   UNK A   1      -8.291  15.732  68.102  1.00  0.00    -0.160 C  
BRANCH  16  17
HETATM   17  C   UNK A   1      -8.662  17.155  67.747  1.00  0.00    -0.220 A  
HETATM   18  C   UNK A   1      -8.181  18.223  68.516  1.00  0.00    -0.329 A  
HETATM   19  C   UNK A   1      -9.338  19.805  67.103  1.00  0.00    -0.458 A  
HETATM   20  C   UNK A   1      -8.517  19.540  68.193  1.00  0.00    -0.361 A  
HETATM   21  C   UNK A   1      -9.811  18.753  66.320  1.00  0.00    -0.382 A  
HETATM   22  C   UNK A   1      -9.475  17.437  66.638  1.00  0.00    -0.285 A  
ENDBRANCH  16  17
ENDBRANCH  15  16
ENDBRANCH  11  15
ENDBRANCH   9  11
ENDBRANCH   8   9
BRANCH   8  23
HETATM   23  C   UNK A   1     -10.907  11.591  68.886  1.00  0.00    -0.218 C  
ATOM     24  OXT PRO A   2      -7.998   9.466  66.371  1.00  0.00    -0.106 OA 
HETATM   25  O   UNK A   1     -11.810  11.977  69.631  1.00  0.00    -0.308 OA 
ATOM     26  N   PRO A   2     -10.500  10.256  68.883  1.00  0.00    -0.198 N  
ATOM     27  CD  PRO A   2     -11.163   9.269  69.729  1.00  0.00    -0.085 C  
ATOM     28  O   PRO A   2     -10.255   9.335  66.368  1.00  0.00    -0.273 OA 
ATOM     29  C   PRO A   2      -9.059   9.537  66.971  1.00  0.00    -0.134 C  
ATOM     30  CA  PRO A   2      -9.170   9.774  68.476  1.00  0.00    -0.134 C  
ATOM     31  CB  PRO A   2      -8.964   8.454  69.224  1.00  0.00    -0.150 C  
ATOM     32  CG  PRO A   2     -10.034   8.439  70.308  1.00  0.00    -0.193 C  
ENDBRANCH   8  23
ENDBRANCH   7   8
ENDBRANCH   6   7
ENDBRANCH   5   6
ENDBRANCH   3   5
TORSDOF 10
ENDMDL
MODEL      213
REMARK 921   NORMALIZED FREE ENERGY PREDICTED BY IDOCK:   -3.70 KCAL/MOL
REMARK 922        TOTAL FREE ENERGY PREDICTED BY IDOCK:   -7.82 KCAL/MOL
REMARK 923 INTER-LIGAND FREE ENERGY PREDICTED BY IDOCK:   -6.36 KCAL/MOL
REMARK 924 INTRA-LIGAND FREE ENERGY PREDICTED BY IDOCK:   -1.46 KCAL/MOL
REMARK 927      BINDING AFFINITY PREDICTED BY RF-SCORE:    0.00 PKD
ROOT
HETATM    1  N   UNK A   1      -8.894  10.366  62.614  1.00  0.00    -0.214 NA 
HETATM    2  H2  UNK A   1      -9.555   9.678  62.253  1.00  0.00     0.000 HD 
HETATM    3  C   UNK A   1      -8.420  10.027  63.950  1.00  0.00    -0.178 C  
HETATM    4  H1  UNK A   1      -9.284  11.309  62.620  1.00  0.00     0.000 HD 
ENDROOT
BRANCH   3   5
HETATM    5  C   UNK A   1      -7.836   8.619  63.941  1.00  0.00    -0.147 C  
BRANCH   5   6
HETATM    6  C   UNK A   1      -8.443   7.736  65.038  1.00  0.00    -0.052 C  
BRANCH   6   7
HETATM    7  C   UNK A   1      -7.880   8.158  66.399  1.00  0.00    -0.093 C  
BRANCH   7   8
HETATM    8  C   UNK A   1      -8.877   8.152  67.571  1.00  0.00    -0.135 C  
BRANCH   8   9
HETATM    9  N   UNK A   1      -9.795   6.972  67.585  1.00  0.00    -0.142 NA 
HETATM   10  H   UNK A   1      -9.645   6.399  66.755  1.00  0.00     0.000 HD 
BRANCH   9  11
HETATM   11  C   UNK A   1      -9.714   6.129  68.819  1.00  0.00    -0.129 C  
HETATM   12  C   UNK A   1      -9.327   4.702  68.387  1.00  0.00    -0.137 C  
HETATM   13  O   UNK A   1      -8.748   3.892  69.095  1.00  0.00    -0.076 OA 
HETATM   14  O   UNK A   1      -9.712   4.433  67.115  1.00  0.00    -0.185 OA 
BRANCH  11  15
HETATM   15  C   UNK A   1     -11.057   6.080  69.582  1.00  0.00    -0.474 C  
BRANCH  15  16
HETATM   16  C   UNK A   1     -10.952   6.598  71.027  1.00  0.00    -0.305 C  
BRANCH  16  17
HETATM   17  C   UNK A   1     -11.786   7.836  71.268  1.00  0.00    -0.318 A  
HETATM   18  C   UNK A   1     -13.116   7.719  71.695  1.00  0.00    -0.378 A  
HETATM   19  C   UNK A   1     -13.351  10.124  71.726  1.00  0.00    -0.485 A  
HETATM   20  C   UNK A   1     -13.892   8.857  71.924  1.00  0.00    -0.492 A  
HETATM   21  C   UNK A   1     -12.026  10.255  71.317  1.00  0.00    -0.457 A  
HETATM   22  C   UNK A   1     -11.247   9.119  71.090  1.00  0.00    -0.395 A  
ENDBRANCH  16  17
ENDBRANCH  15  16
ENDBRANCH  11  15
ENDBRANCH   9  11
ENDBRANCH   8   9
BRANCH   8  23
HETATM   23  C   UNK A   1      -9.754   9.453  67.642  1.00  0.00    -0.155 C  
ATOM     24  OXT PRO A   2      -5.901  10.115  69.645  1.00  0.00    -0.040 OA 
HETATM   25  O   UNK A   1     -10.906   9.448  67.204  1.00  0.00    -0.219 OA 
ATOM     26  N   PRO A   2      -9.229  10.584  68.269  1.00  0.00    -0.147 N  
ATOM     27  CD  PRO A   2     -10.045  11.777  68.467  1.00  0.00    -0.207 C  
ATOM     28  O   PRO A   2      -7.964   9.915  70.546  1.00  0.00    -0.246 OA 
ATOM     29  C   PRO A   2      -7.110  10.259  69.554  1.00  0.00    -0.107 C  
ATOM     30  CA  PRO A   2      -7.798  10.918  68.360  1.00  0.00    -0.123 C  
ATOM     31  CB  PRO A   2      -7.740  12.442  68.505  1.00  0.00    -0.120 C  
ATOM     32  CG  PRO A   2      -9.128  12.933  68.114  1.00  0.00    -0.207 C  
ENDBRANCH   8  23
ENDBRANCH   7   8
ENDBRANCH   6   7
ENDBRANCH   5   6
ENDBRANCH   3   5
TORSDOF 10
ENDMDL
MODEL      214
REMARK 921   NORMALIZED FREE ENERGY PREDICTED BY IDOCK:   -3.70 KCAL/MOL
REMARK 922        TOTAL FREE ENERGY PREDICTED BY IDOCK:   -7.82 KCAL/MOL
REMARK 923 INTER-LIGAND FREE ENERGY PREDICTED BY IDOCK:   -7.27 KCAL/MOL
REMARK 924 INTRA-LIGAND FREE ENERGY PREDICTED BY IDOCK:   -0.55 KCAL/MOL
REMARK 927      BINDING AFFINITY PREDICTED BY RF-SCORE:    0.00 PKD
ROOT
HETATM    1  N   UNK A   1     -11.867  15.277  63.803  1.00  0.00    -0.753 NA 
HETATM    2  H2  UNK A   1     -11.041  15.315  63.205  1.00  0.00     0.000 HD 
HETATM    3  C   UNK A   1     -12.210  13.913  64.185  1.00  0.00    -0.393 C  
HETATM    4  H1  UNK A   1     -12.676  15.723  63.370  1.00  0.00     0.000 HD 
ENDROOT
BRANCH   3   5
HETATM    5  C   UNK A   1     -11.000  13.247  64.832  1.00  0.00    -0.345 C  
BRANCH   5   6
HETATM    6  C   UNK A   1     -11.390  11.998  65.632  1.00  0.00    -0.381 C  
BRANCH   6   7
HETATM    7  C   UNK A   1     -10.174  11.499  66.419  1.00  0.00    -0.261 C  
BRANCH   7   8
HETATM    8  C   UNK A   1      -9.917  12.190  67.770  1.00  0.00    -0.198 C  
BRANCH   8   9
HETATM    9  N   UNK A   1      -8.490  12.149  68.213  1.00  0.00    -0.176 NA 
HETATM   10  H   UNK A   1      -8.229  11.200  68.481  1.00  0.00     0.000 HD 
BRANCH   9  11
HETATM   11  C   UNK A   1      -7.509  12.695  67.223  1.00  0.00    -0.109 C  
HETATM   12  C   UNK A   1      -6.233  11.836  67.304  1.00  0.00    -0.130 C  
HETATM   13  O   UNK A   1      -5.434  11.684  66.392  1.00  0.00    -0.251 OA 
HETATM   14  O   UNK A   1      -6.083  11.262  68.524  1.00  0.00    -0.043 OA 
BRANCH  11  15
HETATM   15  C   UNK A   1      -7.146  14.169  67.511  1.00  0.00    -0.184 C  
BRANCH  15  16
HETATM   16  C   UNK A   1      -8.178  15.166  66.956  1.00  0.00    -0.262 C  
BRANCH  16  17
HETATM   17  C   UNK A   1      -9.330  15.407  67.905  1.00  0.00    -0.192 A  
HETATM   18  C   UNK A   1     -10.568  15.845  67.417  1.00  0.00    -0.315 A  
HETATM   19  C   UNK A   1     -11.484  15.858  69.653  1.00  0.00    -0.346 A  
HETATM   20  C   UNK A   1     -11.638  16.067  68.286  1.00  0.00    -0.232 A  
HETATM   21  C   UNK A   1     -10.263  15.408  70.151  1.00  0.00    -0.216 A  
HETATM   22  C   UNK A   1      -9.193  15.182  69.284  1.00  0.00    -0.205 A  
ENDBRANCH  16  17
ENDBRANCH  15  16
ENDBRANCH  11  15
ENDBRANCH   9  11
ENDBRANCH   8   9
BRANCH   8  23
HETATM   23  C   UNK A   1     -10.805  11.620  68.934  1.00  0.00    -0.220 C  
ATOM     24  OXT PRO A   2      -7.749   8.681  67.783  1.00  0.00    -0.100 OA 
HETATM   25  O   UNK A   1     -11.771  12.263  69.347  1.00  0.00    -0.296 OA 
ATOM     26  N   PRO A   2     -10.519  10.350  69.436  1.00  0.00    -0.224 N  
ATOM     27  CD  PRO A   2     -11.384   9.726  70.432  1.00  0.00    -0.297 C  
ATOM     28  O   PRO A   2      -9.983   8.629  67.440  1.00  0.00    -0.177 OA 
ATOM     29  C   PRO A   2      -8.877   8.984  68.137  1.00  0.00    -0.133 C  
ATOM     30  CA  PRO A   2      -9.190   9.716  69.441  1.00  0.00    -0.189 C  
ATOM     31  CB  PRO A   2      -9.214   8.719  70.602  1.00  0.00    -0.233 C  
ATOM     32  CG  PRO A   2     -10.431   9.103  71.433  1.00  0.00    -0.414 C  
ENDBRANCH   8  23
ENDBRANCH   7   8
ENDBRANCH   6   7
ENDBRANCH   5   6
ENDBRANCH   3   5
TORSDOF 10
ENDMDL
MODEL      215
REMARK 921   NORMALIZED FREE ENERGY PREDICTED BY IDOCK:   -3.70 KCAL/MOL
REMARK 922        TOTAL FREE ENERGY PREDICTED BY IDOCK:   -7.82 KCAL/MOL
REMARK 923 INTER-LIGAND FREE ENERGY PREDICTED BY IDOCK:   -7.55 KCAL/MOL
REMARK 924 INTRA-LIGAND FREE ENERGY PREDICTED BY IDOCK:   -0.28 KCAL/MOL
REMARK 927      BINDING AFFINITY PREDICTED BY RF-SCORE:    0.00 PKD
ROOT
HETATM    1  N   UNK A   1      -8.984   9.073  71.567  1.00  0.00    -0.327 NA 
HETATM    2  H2  UNK A   1      -8.807  10.077  71.532  1.00  0.00     0.000 HD 
HETATM    3  C   UNK A   1     -10.279   8.760  72.158  1.00  0.00    -0.301 C  
HETATM    4  H1  UNK A   1      -8.250   8.570  72.068  1.00  0.00     0.000 HD 
ENDROOT
BRANCH   3   5
HETATM    5  C   UNK A   1     -11.374   9.512  71.409  1.00  0.00    -0.462 C  
BRANCH   5   6
HETATM    6  C   UNK A   1     -10.814  10.341  70.247  1.00  0.00    -0.349 C  
BRANCH   6   7
HETATM    7  C   UNK A   1     -11.971  10.847  69.380  1.00  0.00    -0.393 C  
BRANCH   7   8
HETATM    8  C   UNK A   1     -11.590  11.356  67.979  1.00  0.00    -0.286 C  
BRANCH   8   9
HETATM    9  N   UNK A   1     -11.373  10.270  66.975  1.00  0.00    -0.188 NA 
HETATM   10  H   UNK A   1     -11.434  10.646  66.029  1.00  0.00     0.000 HD 
BRANCH   9  11
HETATM   11  C   UNK A   1     -10.099   9.502  67.146  1.00  0.00    -0.229 C  
HETATM   12  C   UNK A   1      -9.211   9.789  65.920  1.00  0.00    -0.187 C  
HETATM   13  O   UNK A   1      -7.991   9.722  65.912  1.00  0.00    -0.107 OA 
HETATM   14  O   UNK A   1      -9.942  10.122  64.828  1.00  0.00    -0.331 OA 
BRANCH  11  15
HETATM   15  C   UNK A   1     -10.344   7.980  67.249  1.00  0.00    -0.371 C  
BRANCH  15  16
HETATM   16  C   UNK A   1      -9.260   7.245  68.055  1.00  0.00    -0.131 C  
BRANCH  16  17
HETATM   17  C   UNK A   1      -8.935   5.879  67.492  1.00  0.00    -0.107 A  
HETATM   18  C   UNK A   1      -9.812   4.805  67.696  1.00  0.00    -0.201 A  
HETATM   19  C   UNK A   1      -8.352   3.335  66.453  1.00  0.00    -0.099 A  
HETATM   20  C   UNK A   1      -9.521   3.541  67.178  1.00  0.00    -0.219 A  
HETATM   21  C   UNK A   1      -7.479   4.397  66.229  1.00  0.00    -0.085 A  
HETATM   22  C   UNK A   1      -7.768   5.662  66.744  1.00  0.00    -0.100 A  
ENDBRANCH  16  17
ENDBRANCH  15  16
ENDBRANCH  11  15
ENDBRANCH   9  11
ENDBRANCH   8   9
BRANCH   8  23
HETATM   23  C   UNK A   1     -10.319  12.278  67.982  1.00  0.00    -0.214 C  
ATOM     24  OXT PRO A   2     -13.396  13.945  65.325  1.00  0.00    -0.732 OA 
HETATM   25  O   UNK A   1      -9.311  11.943  68.606  1.00  0.00    -0.165 OA 
ATOM     26  N   PRO A   2     -10.332  13.442  67.211  1.00  0.00    -0.244 N  
ATOM     27  CD  PRO A   2      -9.138  14.270  67.084  1.00  0.00    -0.228 C  
ATOM     28  O   PRO A   2     -11.422  12.978  64.796  1.00  0.00    -0.309 OA 
ATOM     29  C   PRO A   2     -12.235  13.693  65.609  1.00  0.00    -0.454 C  
ATOM     30  CA  PRO A   2     -11.535  14.217  66.862  1.00  0.00    -0.357 C  
ATOM     31  CB  PRO A   2     -11.046  15.648  66.621  1.00  0.00    -0.147 C  
ATOM     32  CG  PRO A   2      -9.643  15.694  67.210  1.00  0.00    -0.220 C  
ENDBRANCH   8  23
ENDBRANCH   7   8
ENDBRANCH   6   7
ENDBRANCH   5   6
ENDBRANCH   3   5
TORSDOF 10
ENDMDL
MODEL      216
REMARK 921   NORMALIZED FREE ENERGY PREDICTED BY IDOCK:   -3.68 KCAL/MOL
REMARK 922        TOTAL FREE ENERGY PREDICTED BY IDOCK:   -7.78 KCAL/MOL
REMARK 923 INTER-LIGAND FREE ENERGY PREDICTED BY IDOCK:   -6.62 KCAL/MOL
REMARK 924 INTRA-LIGAND FREE ENERGY PREDICTED BY IDOCK:   -1.16 KCAL/MOL
REMARK 927      BINDING AFFINITY PREDICTED BY RF-SCORE:    0.00 PKD
ROOT
HETATM    1  N   UNK A   1     -11.253   7.240  70.367  1.00  0.00    -0.275 NA 
HETATM    2  H2  UNK A   1     -10.682   6.789  71.083  1.00  0.00     0.000 HD 
HETATM    3  C   UNK A   1     -11.204   8.694  70.458  1.00  0.00    -0.241 C  
HETATM    4  H1  UNK A   1     -12.224   6.929  70.398  1.00  0.00     0.000 HD 
ENDROOT
BRANCH   3   5
HETATM    5  C   UNK A   1      -9.753   9.158  70.413  1.00  0.00    -0.266 C  
BRANCH   5   6
HETATM    6  C   UNK A   1      -9.612  10.550  69.783  1.00  0.00     0.025 C  
BRANCH   6   7
HETATM    7  C   UNK A   1     -10.510  10.641  68.546  1.00  0.00    -0.212 C  
BRANCH   7   8
HETATM    8  C   UNK A   1      -9.836  10.327  67.200  1.00  0.00    -0.185 C  
BRANCH   8   9
HETATM    9  N   UNK A   1     -10.382  11.107  66.047  1.00  0.00    -0.248 NA 
HETATM   10  H   UNK A   1     -10.883  10.489  65.409  1.00  0.00     0.000 HD 
BRANCH   9  11
HETATM   11  C   UNK A   1     -11.245  12.269  66.428  1.00  0.00    -0.324 C  
HETATM   12  C   UNK A   1     -12.184  12.563  65.243  1.00  0.00    -0.433 C  
HETATM   13  O   UNK A   1     -13.277  13.101  65.337  1.00  0.00    -0.564 OA 
HETATM   14  O   UNK A   1     -11.654  12.162  64.061  1.00  0.00    -0.364 OA 
BRANCH  11  15
HETATM   15  C   UNK A   1     -10.415  13.534  66.743  1.00  0.00    -0.273 C  
BRANCH  15  16
HETATM   16  C   UNK A   1     -10.460  14.584  65.619  1.00  0.00    -0.351 C  
BRANCH  16  17
HETATM   17  C   UNK A   1      -9.838  15.902  66.023  1.00  0.00    -0.366 A  
HETATM   18  C   UNK A   1     -10.650  16.975  66.414  1.00  0.00    -0.172 A  
HETATM   19  C   UNK A   1      -8.702  18.357  66.779  1.00  0.00    -0.284 A  
HETATM   20  C   UNK A   1     -10.083  18.195  66.791  1.00  0.00    -0.367 A  
HETATM   21  C   UNK A   1      -7.882  17.294  66.407  1.00  0.00    -0.345 A  
HETATM   22  C   UNK A   1      -8.445  16.073  66.032  1.00  0.00    -0.097 A  
ENDBRANCH  16  17
ENDBRANCH  15  16
ENDBRANCH  11  15
ENDBRANCH   9  11
ENDBRANCH   8   9
BRANCH   8  23
HETATM   23  C   UNK A   1      -9.887   8.802  66.824  1.00  0.00    -0.247 C  
ATOM     24  OXT PRO A   2      -6.272  10.652  65.149  1.00  0.00    -0.109 OA 
HETATM   25  O   UNK A   1     -10.866   8.120  67.135  1.00  0.00    -0.261 OA 
ATOM     26  N   PRO A   2      -8.842   8.259  66.077  1.00  0.00    -0.161 N  
ATOM     27  CD  PRO A   2      -8.898   6.881  65.601  1.00  0.00    -0.016 C  
ATOM     28  O   PRO A   2      -8.127   9.919  64.085  1.00  0.00    -0.137 OA 
ATOM     29  C   PRO A   2      -7.219   9.885  65.090  1.00  0.00    -0.133 C  
ATOM     30  CA  PRO A   2      -7.452   8.745  66.080  1.00  0.00    -0.090 C  
ATOM     31  CB  PRO A   2      -6.593   7.538  65.692  1.00  0.00    -0.045 C  
ATOM     32  CG  PRO A   2      -7.507   6.331  65.851  1.00  0.00    -0.082 C  
ENDBRANCH   8  23
ENDBRANCH   7   8
ENDBRANCH   6   7
ENDBRANCH   5   6
ENDBRANCH   3   5
TORSDOF 10
ENDMDL
MODEL      217
REMARK 921   NORMALIZED FREE ENERGY PREDICTED BY IDOCK:   -3.66 KCAL/MOL
REMARK 922        TOTAL FREE ENERGY PREDICTED BY IDOCK:   -7.76 KCAL/MOL
REMARK 923 INTER-LIGAND FREE ENERGY PREDICTED BY IDOCK:   -5.84 KCAL/MOL
REMARK 924 INTRA-LIGAND FREE ENERGY PREDICTED BY IDOCK:   -1.92 KCAL/MOL
REMARK 927      BINDING AFFINITY PREDICTED BY RF-SCORE:    0.00 PKD
ROOT
HETATM    1  N   UNK A   1      -8.457   9.952  69.449  1.00  0.00    -0.151 NA 
HETATM    2  H2  UNK A   1      -8.208   9.057  69.027  1.00  0.00     0.000 HD 
HETATM    3  C   UNK A   1      -7.387  10.934  69.329  1.00  0.00    -0.125 C  
HETATM    4  H1  UNK A   1      -8.724   9.855  70.429  1.00  0.00     0.000 HD 
ENDROOT
BRANCH   3   5
HETATM    5  C   UNK A   1      -6.990  11.078  67.864  1.00  0.00    -0.073 C  
BRANCH   5   6
HETATM    6  C   UNK A   1      -7.880  12.081  67.121  1.00  0.00    -0.168 C  
BRANCH   6   7
HETATM    7  C   UNK A   1      -8.240  11.518  65.743  1.00  0.00     0.247 C  
BRANCH   7   8
HETATM    8  C   UNK A   1      -9.513  10.656  65.679  1.00  0.00    -0.212 C  
BRANCH   8   9
HETATM    9  N   UNK A   1      -9.313   9.320  65.039  1.00  0.00    -0.440 NA 
HETATM   10  H   UNK A   1      -9.807   9.278  64.147  1.00  0.00     0.000 HD 
BRANCH   9  11
HETATM   11  C   UNK A   1      -7.883   8.918  64.858  1.00  0.00    -0.121 C  
HETATM   12  C   UNK A   1      -7.565   8.981  63.352  1.00  0.00    -0.107 C  
HETATM   13  O   UNK A   1      -6.452   9.162  62.881  1.00  0.00    -0.094 OA 
HETATM   14  O   UNK A   1      -8.672   8.801  62.590  1.00  0.00    -0.190 OA 
BRANCH  11  15
HETATM   15  C   UNK A   1      -7.608   7.488  65.374  1.00  0.00    -0.095 C  
BRANCH  15  16
HETATM   16  C   UNK A   1      -8.888   6.728  65.764  1.00  0.00    -0.088 C  
BRANCH  16  17
HETATM   17  C   UNK A   1      -8.893   6.293  67.212  1.00  0.00    -0.107 A  
HETATM   18  C   UNK A   1      -9.923   5.479  67.702  1.00  0.00    -0.187 A  
HETATM   19  C   UNK A   1      -8.919   5.471  69.899  1.00  0.00    -0.144 A  
HETATM   20  C   UNK A   1      -9.934   5.070  69.037  1.00  0.00    -0.251 A  
HETATM   21  C   UNK A   1      -7.880   6.268  69.423  1.00  0.00    -0.104 A  
HETATM   22  C   UNK A   1      -7.865   6.676  68.088  1.00  0.00    -0.110 A  
ENDBRANCH  16  17
ENDBRANCH  15  16
ENDBRANCH  11  15
ENDBRANCH   9  11
ENDBRANCH   8   9
BRANCH   8  23
HETATM   23  C   UNK A   1     -10.707  11.371  64.952  1.00  0.00    -0.286 C  
ATOM     24  OXT PRO A   2     -10.839  12.208  69.263  1.00  0.00    -0.169 OA 
HETATM   25  O   UNK A   1     -10.893  11.197  63.747  1.00  0.00    -0.376 OA 
ATOM     26  N   PRO A   2     -11.587  12.146  65.709  1.00  0.00    -0.373 N  
ATOM     27  CD  PRO A   2     -12.778  12.733  65.105  1.00  0.00    -0.329 C  
ATOM     28  O   PRO A   2     -12.208  10.911  68.016  1.00  0.00    -0.422 OA 
ATOM     29  C   PRO A   2     -11.374  11.963  68.193  1.00  0.00    -0.288 C  
ATOM     30  CA  PRO A   2     -11.243  12.850  66.956  1.00  0.00    -0.288 C  
ATOM     31  CB  PRO A   2     -12.225  14.021  67.052  1.00  0.00    -0.387 C  
ATOM     32  CG  PRO A   2     -12.838  14.142  65.663  1.00  0.00    -0.402 C  
ENDBRANCH   8  23
ENDBRANCH   7   8
ENDBRANCH   6   7
ENDBRANCH   5   6
ENDBRANCH   3   5
TORSDOF 10
ENDMDL
MODEL      218
REMARK 921   NORMALIZED FREE ENERGY PREDICTED BY IDOCK:   -3.65 KCAL/MOL
REMARK 922        TOTAL FREE ENERGY PREDICTED BY IDOCK:   -7.74 KCAL/MOL
REMARK 923 INTER-LIGAND FREE ENERGY PREDICTED BY IDOCK:   -5.65 KCAL/MOL
REMARK 924 INTRA-LIGAND FREE ENERGY PREDICTED BY IDOCK:   -2.09 KCAL/MOL
REMARK 927      BINDING AFFINITY PREDICTED BY RF-SCORE:    0.00 PKD
ROOT
HETATM    1  N   UNK A   1      -6.806  10.706  64.552  1.00  0.00    -0.354 NA 
HETATM    2  H2  UNK A   1      -6.987  11.386  65.291  1.00  0.00     0.000 HD 
HETATM    3  C   UNK A   1      -7.264   9.369  64.909  1.00  0.00    -0.106 C  
HETATM    4  H1  UNK A   1      -5.819  10.671  64.294  1.00  0.00     0.000 HD 
ENDROOT
BRANCH   3   5
HETATM    5  C   UNK A   1      -8.738   9.422  65.294  1.00  0.00    -0.204 C  
BRANCH   5   6
HETATM    6  C   UNK A   1      -9.136   8.259  66.212  1.00  0.00    -0.235 C  
BRANCH   6   7
HETATM    7  C   UNK A   1     -10.294   8.697  67.114  1.00  0.00    -0.369 C  
BRANCH   7   8
HETATM    8  C   UNK A   1     -10.001   9.871  68.065  1.00  0.00    -0.152 C  
BRANCH   8   9
HETATM    9  N   UNK A   1      -9.972   9.491  69.511  1.00  0.00    -0.182 NA 
HETATM   10  H   UNK A   1     -10.553  10.129  70.055  1.00  0.00     0.000 HD 
BRANCH   9  11
HETATM   11  C   UNK A   1     -10.353   8.072  69.795  1.00  0.00    -0.219 C  
HETATM   12  C   UNK A   1     -11.504   8.092  70.820  1.00  0.00    -0.261 C  
HETATM   13  O   UNK A   1     -12.343   7.213  70.944  1.00  0.00    -0.344 OA 
HETATM   14  O   UNK A   1     -11.480   9.209  71.590  1.00  0.00    -0.333 OA 
BRANCH  11  15
HETATM   15  C   UNK A   1      -9.176   7.255  70.372  1.00  0.00    -0.158 C  
BRANCH  15  16
HETATM   16  C   UNK A   1      -7.887   7.381  69.543  1.00  0.00    -0.121 C  
BRANCH  16  17
HETATM   17  C   UNK A   1      -7.377   6.048  69.043  1.00  0.00    -0.085 A  
HETATM   18  C   UNK A   1      -6.000   5.817  68.925  1.00  0.00    -0.024 A  
HETATM   19  C   UNK A   1      -6.411   3.576  68.121  1.00  0.00    -0.037 A  
HETATM   20  C   UNK A   1      -5.521   4.588  68.468  1.00  0.00    -0.012 A  
HETATM   21  C   UNK A   1      -7.783   3.786  68.248  1.00  0.00    -0.065 A  
HETATM   22  C   UNK A   1      -8.264   5.013  68.708  1.00  0.00    -0.084 A  
ENDBRANCH  16  17
ENDBRANCH  15  16
ENDBRANCH  11  15
ENDBRANCH   9  11
ENDBRANCH   8   9
BRANCH   8  23
HETATM   23  C   UNK A   1     -11.002  11.068  67.895  1.00  0.00    -0.264 C  
ATOM     24  OXT PRO A   2      -6.899  12.396  67.061  1.00  0.00    -0.117 OA 
HETATM   25  O   UNK A   1     -12.196  10.920  68.161  1.00  0.00    -0.503 OA 
ATOM     26  N   PRO A   2     -10.502  12.312  67.507  1.00  0.00    -0.211 N  
ATOM     27  CD  PRO A   2     -11.370  13.484  67.451  1.00  0.00    -0.311 C  
ATOM     28  O   PRO A   2      -8.228  12.882  68.824  1.00  0.00    -0.035 OA 
ATOM     29  C   PRO A   2      -8.015  12.565  67.525  1.00  0.00    -0.175 C  
ATOM     30  CA  PRO A   2      -9.296  12.526  66.692  1.00  0.00    -0.236 C  
ATOM     31  CB  PRO A   2      -9.502  13.876  65.997  1.00  0.00    -0.145 C  
ATOM     32  CG  PRO A   2     -10.983  14.187  66.164  1.00  0.00    -0.309 C  
ENDBRANCH   8  23
ENDBRANCH   7   8
ENDBRANCH   6   7
ENDBRANCH   5   6
ENDBRANCH   3   5
TORSDOF 10
ENDMDL
MODEL      219
REMARK 921   NORMALIZED FREE ENERGY PREDICTED BY IDOCK:   -3.63 KCAL/MOL
REMARK 922        TOTAL FREE ENERGY PREDICTED BY IDOCK:   -7.72 KCAL/MOL
REMARK 923 INTER-LIGAND FREE ENERGY PREDICTED BY IDOCK:   -6.27 KCAL/MOL
REMARK 924 INTRA-LIGAND FREE ENERGY PREDICTED BY IDOCK:   -1.45 KCAL/MOL
REMARK 927      BINDING AFFINITY PREDICTED BY RF-SCORE:    0.00 PKD
ROOT
HETATM    1  N   UNK A   1     -10.963  15.730  64.636  1.00  0.00    -0.755 NA 
HETATM    2  H2  UNK A   1     -10.271  15.559  65.366  1.00  0.00     0.000 HD 
HETATM    3  C   UNK A   1     -11.856  14.594  64.446  1.00  0.00    -0.390 C  
HETATM    4  H1  UNK A   1     -10.530  15.976  63.745  1.00  0.00     0.000 HD 
ENDROOT
BRANCH   3   5
HETATM    5  C   UNK A   1     -12.503  14.227  65.777  1.00  0.00    -0.421 C  
BRANCH   5   6
HETATM    6  C   UNK A   1     -12.223  12.772  66.172  1.00  0.00    -0.340 C  
BRANCH   6   7
HETATM    7  C   UNK A   1     -10.715  12.511  66.119  1.00  0.00    -0.290 C  
BRANCH   7   8
HETATM    8  C   UNK A   1      -9.942  12.761  67.426  1.00  0.00    -0.212 C  
BRANCH   8   9
HETATM    9  N   UNK A   1      -8.833  11.790  67.674  1.00  0.00    -0.157 NA 
HETATM   10  H   UNK A   1      -9.211  10.857  67.840  1.00  0.00     0.000 HD 
BRANCH   9  11
HETATM   11  C   UNK A   1      -7.789  11.742  66.603  1.00  0.00    -0.043 C  
HETATM   12  C   UNK A   1      -7.764  10.310  66.036  1.00  0.00    -0.130 C  
HETATM   13  O   UNK A   1      -7.397  10.012  64.909  1.00  0.00    -0.131 OA 
HETATM   14  O   UNK A   1      -8.191   9.396  66.942  1.00  0.00    -0.114 OA 
BRANCH  11  15
HETATM   15  C   UNK A   1      -6.385  12.099  67.140  1.00  0.00    -0.139 C  
BRANCH  15  16
HETATM   16  C   UNK A   1      -6.337  12.228  68.672  1.00  0.00    -0.071 C  
BRANCH  16  17
HETATM   17  C   UNK A   1      -5.972  13.621  69.133  1.00  0.00    -0.088 A  
HETATM   18  C   UNK A   1      -5.848  14.663  68.203  1.00  0.00    -0.138 A  
HETATM   19  C   UNK A   1      -5.299  16.218  69.969  1.00  0.00    -0.162 A  
HETATM   20  C   UNK A   1      -5.515  15.953  68.620  1.00  0.00    -0.102 A  
HETATM   21  C   UNK A   1      -5.435  15.196  70.906  1.00  0.00    -0.105 A  
HETATM   22  C   UNK A   1      -5.770  13.906  70.492  1.00  0.00    -0.161 A  
ENDBRANCH  16  17
ENDBRANCH  15  16
ENDBRANCH  11  15
ENDBRANCH   9  11
ENDBRANCH   8   9
BRANCH   8  23
HETATM   23  C   UNK A   1     -10.867  12.780  68.696  1.00  0.00    -0.253 C  
ATOM     24  OXT PRO A   2      -9.125  16.759  68.030  1.00  0.00    -0.220 OA 
HETATM   25  O   UNK A   1     -11.389  11.739  69.098  1.00  0.00    -0.239 OA 
ATOM     26  N   PRO A   2     -11.025  13.979  69.393  1.00  0.00    -0.201 N  
ATOM     27  CD  PRO A   2     -11.775  14.025  70.644  1.00  0.00    -0.159 C  
ATOM     28  O   PRO A   2      -8.671  15.253  69.654  1.00  0.00    -0.235 OA 
ATOM     29  C   PRO A   2      -9.491  15.847  68.756  1.00  0.00    -0.221 C  
ATOM     30  CA  PRO A   2     -10.926  15.325  68.804  1.00  0.00    -0.260 C  
ATOM     31  CB  PRO A   2     -11.777  16.230  69.699  1.00  0.00    -0.081 C  
ATOM     32  CG  PRO A   2     -12.619  15.280  70.540  1.00  0.00    -0.450 C  
ENDBRANCH   8  23
ENDBRANCH   7   8
ENDBRANCH   6   7
ENDBRANCH   5   6
ENDBRANCH   3   5
TORSDOF 10
ENDMDL
MODEL      220
REMARK 921   NORMALIZED FREE ENERGY PREDICTED BY IDOCK:   -3.63 KCAL/MOL
REMARK 922        TOTAL FREE ENERGY PREDICTED BY IDOCK:   -7.71 KCAL/MOL
REMARK 923 INTER-LIGAND FREE ENERGY PREDICTED BY IDOCK:   -7.50 KCAL/MOL
REMARK 924 INTRA-LIGAND FREE ENERGY PREDICTED BY IDOCK:   -0.21 KCAL/MOL
REMARK 927      BINDING AFFINITY PREDICTED BY RF-SCORE:    0.00 PKD
ROOT
HETATM    1  N   UNK A   1     -11.634  16.146  63.795  1.00  0.00    -1.387 NA 
HETATM    2  H2  UNK A   1     -12.239  15.325  63.815  1.00  0.00     0.000 HD 
HETATM    3  C   UNK A   1     -10.914  16.330  65.049  1.00  0.00    -0.298 C  
HETATM    4  H1  UNK A   1     -12.149  16.998  63.569  1.00  0.00     0.000 HD 
ENDROOT
BRANCH   3   5
HETATM    5  C   UNK A   1     -10.146  15.057  65.386  1.00  0.00    -0.396 C  
BRANCH   5   6
HETATM    6  C   UNK A   1     -10.965  14.106  66.267  1.00  0.00    -0.303 C  
BRANCH   6   7
HETATM    7  C   UNK A   1     -10.019  13.316  67.178  1.00  0.00    -0.238 C  
BRANCH   7   8
HETATM    8  C   UNK A   1     -10.539  11.954  67.669  1.00  0.00    -0.211 C  
BRANCH   8   9
HETATM    9  N   UNK A   1     -10.397  11.742  69.141  1.00  0.00    -0.418 NA 
HETATM   10  H   UNK A   1     -10.695  12.575  69.649  1.00  0.00     0.000 HD 
BRANCH   9  11
HETATM   11  C   UNK A   1     -11.100  10.532  69.673  1.00  0.00    -0.283 C  
HETATM   12  C   UNK A   1     -12.345  11.014  70.442  1.00  0.00    -0.356 C  
HETATM   13  O   UNK A   1     -13.358  10.352  70.613  1.00  0.00    -0.288 OA 
HETATM   14  O   UNK A   1     -12.190  12.271  70.925  1.00  0.00    -0.353 OA 
BRANCH  11  15
HETATM   15  C   UNK A   1     -10.205   9.706  70.624  1.00  0.00    -0.346 C  
BRANCH  15  16
HETATM   16  C   UNK A   1     -10.825   8.355  71.018  1.00  0.00    -0.280 C  
BRANCH  16  17
HETATM   17  C   UNK A   1     -10.186   7.186  70.303  1.00  0.00    -0.207 A  
HETATM   18  C   UNK A   1      -8.797   7.009  70.339  1.00  0.00    -0.155 A  
HETATM   19  C   UNK A   1      -8.982   5.018  68.982  1.00  0.00    -0.125 A  
HETATM   20  C   UNK A   1      -8.199   5.930  69.683  1.00  0.00    -0.110 A  
HETATM   21  C   UNK A   1     -10.366   5.173  68.951  1.00  0.00    -0.186 A  
HETATM   22  C   UNK A   1     -10.966   6.248  69.607  1.00  0.00    -0.440 A  
ENDBRANCH  16  17
ENDBRANCH  15  16
ENDBRANCH  11  15
ENDBRANCH   9  11
ENDBRANCH   8   9
BRANCH   8  23
HETATM   23  C   UNK A   1      -9.870  10.737  66.934  1.00  0.00    -0.187 C  
ATOM     24  OXT PRO A   2      -6.884  12.880  69.340  1.00  0.00    -0.066 OA 
HETATM   25  O   UNK A   1     -10.525  10.054  66.145  1.00  0.00    -0.185 OA 
ATOM     26  N   PRO A   2      -8.512  10.493  67.139  1.00  0.00    -0.126 N  
ATOM     27  CD  PRO A   2      -7.816   9.452  66.391  1.00  0.00    -0.100 C  
ATOM     28  O   PRO A   2      -7.109  12.787  67.093  1.00  0.00    -0.116 OA 
ATOM     29  C   PRO A   2      -7.231  12.273  68.340  1.00  0.00    -0.102 C  
ATOM     30  CA  PRO A   2      -7.760  10.840  68.357  1.00  0.00    -0.113 C  
ATOM     31  CB  PRO A   2      -6.588   9.856  68.411  1.00  0.00    -0.055 C  
ATOM     32  CG  PRO A   2      -6.943   8.758  67.418  1.00  0.00    -0.075 C  
ENDBRANCH   8  23
ENDBRANCH   7   8
ENDBRANCH   6   7
ENDBRANCH   5   6
ENDBRANCH   3   5
TORSDOF 10
ENDMDL
MODEL      221
REMARK 921   NORMALIZED FREE ENERGY PREDICTED BY IDOCK:   -3.63 KCAL/MOL
REMARK 922        TOTAL FREE ENERGY PREDICTED BY IDOCK:   -7.70 KCAL/MOL
REMARK 923 INTER-LIGAND FREE ENERGY PREDICTED BY IDOCK:   -7.30 KCAL/MOL
REMARK 924 INTRA-LIGAND FREE ENERGY PREDICTED BY IDOCK:   -0.40 KCAL/MOL
REMARK 927      BINDING AFFINITY PREDICTED BY RF-SCORE:    0.00 PKD
ROOT
HETATM    1  N   UNK A   1     -12.312  14.384  66.890  1.00  0.00    -0.547 NA 
HETATM    2  H2  UNK A   1     -12.639  13.644  67.511  1.00  0.00     0.000 HD 
HETATM    3  C   UNK A   1     -10.904  14.231  66.544  1.00  0.00    -0.304 C  
HETATM    4  H1  UNK A   1     -12.467  15.313  67.282  1.00  0.00     0.000 HD 
ENDROOT
BRANCH   3   5
HETATM    5  C   UNK A   1     -10.672  12.843  65.958  1.00  0.00    -0.296 C  
BRANCH   5   6
HETATM    6  C   UNK A   1     -11.353  11.746  66.785  1.00  0.00    -0.385 C  
BRANCH   6   7
HETATM    7  C   UNK A   1     -10.400  10.556  66.934  1.00  0.00    -0.293 C  
BRANCH   7   8
HETATM    8  C   UNK A   1     -10.809   9.491  67.966  1.00  0.00    -0.168 C  
BRANCH   8   9
HETATM    9  N   UNK A   1     -10.466   9.847  69.377  1.00  0.00    -0.216 NA 
HETATM   10  H   UNK A   1     -10.374  10.858  69.474  1.00  0.00     0.000 HD 
BRANCH   9  11
HETATM   11  C   UNK A   1     -11.410   9.311  70.408  1.00  0.00    -0.242 C  
HETATM   12  C   UNK A   1     -12.404  10.434  70.761  1.00  0.00    -0.367 C  
HETATM   13  O   UNK A   1     -13.535  10.255  71.189  1.00  0.00    -0.316 OA 
HETATM   14  O   UNK A   1     -11.877  11.666  70.552  1.00  0.00    -0.342 OA 
BRANCH  11  15
HETATM   15  C   UNK A   1     -10.679   8.860  71.691  1.00  0.00    -0.418 C  
BRANCH  15  16
HETATM   16  C   UNK A   1     -11.449   7.789  72.483  1.00  0.00    -0.428 C  
BRANCH  16  17
HETATM   17  C   UNK A   1     -10.932   6.390  72.232  1.00  0.00    -0.289 A  
HETATM   18  C   UNK A   1     -10.271   6.084  71.035  1.00  0.00    -0.253 A  
HETATM   19  C   UNK A   1      -9.961   3.797  71.750  1.00  0.00    -0.227 A  
HETATM   20  C   UNK A   1      -9.788   4.796  70.797  1.00  0.00    -0.280 A  
HETATM   21  C   UNK A   1     -10.603   4.091  72.952  1.00  0.00    -0.237 A  
HETATM   22  C   UNK A   1     -11.084   5.378  73.193  1.00  0.00    -0.363 A  
ENDBRANCH  16  17
ENDBRANCH  15  16
ENDBRANCH  11  15
ENDBRANCH   9  11
ENDBRANCH   8   9
BRANCH   8  23
HETATM   23  C   UNK A   1     -10.208   8.072  67.662  1.00  0.00    -0.228 C  
ATOM     24  OXT PRO A   2      -7.070  10.758  69.160  1.00  0.00    -0.080 OA 
HETATM   25  O   UNK A   1     -10.912   7.196  67.158  1.00  0.00    -0.342 OA 
ATOM     26  N   PRO A   2      -8.852   7.851  67.907  1.00  0.00    -0.124 N  
ATOM     27  CD  PRO A   2      -8.218   6.592  67.531  1.00  0.00    -0.122 C  
ATOM     28  O   PRO A   2      -7.375   9.939  67.075  1.00  0.00    -0.090 OA 
ATOM     29  C   PRO A   2      -7.471   9.870  68.424  1.00  0.00    -0.082 C  
ATOM     30  CA  PRO A   2      -8.048   8.547  68.925  1.00  0.00    -0.119 C  
ATOM     31  CB  PRO A   2      -6.908   7.586  69.277  1.00  0.00    -0.056 C  
ATOM     32  CG  PRO A   2      -7.334   6.238  68.711  1.00  0.00    -0.086 C  
ENDBRANCH   8  23
ENDBRANCH   7   8
ENDBRANCH   6   7
ENDBRANCH   5   6
ENDBRANCH   3   5
TORSDOF 10
ENDMDL
MODEL      222
REMARK 921   NORMALIZED FREE ENERGY PREDICTED BY IDOCK:   -3.61 KCAL/MOL
REMARK 922        TOTAL FREE ENERGY PREDICTED BY IDOCK:   -7.67 KCAL/MOL
REMARK 923 INTER-LIGAND FREE ENERGY PREDICTED BY IDOCK:   -5.91 KCAL/MOL
REMARK 924 INTRA-LIGAND FREE ENERGY PREDICTED BY IDOCK:   -1.76 KCAL/MOL
REMARK 927      BINDING AFFINITY PREDICTED BY RF-SCORE:    0.00 PKD
ROOT
HETATM    1  N   UNK A   1      -9.715  10.745  67.531  1.00  0.00    -0.165 NA 
HETATM    2  H2  UNK A   1      -9.416   9.938  66.983  1.00  0.00     0.000 HD 
HETATM    3  C   UNK A   1      -9.114  10.763  68.858  1.00  0.00    -0.164 C  
HETATM    4  H1  UNK A   1     -10.730  10.798  67.615  1.00  0.00     0.000 HD 
ENDROOT
BRANCH   3   5
HETATM    5  C   UNK A   1      -7.597  10.684  68.732  1.00  0.00    -0.109 C  
BRANCH   5   6
HETATM    6  C   UNK A   1      -6.970   9.828  69.839  1.00  0.00    -0.093 C  
BRANCH   6   7
HETATM    7  C   UNK A   1      -8.067   9.019  70.539  1.00  0.00    -0.169 C  
BRANCH   7   8
HETATM    8  C   UNK A   1      -8.198   7.549  70.108  1.00  0.00    -0.132 C  
BRANCH   8   9
HETATM    9  N   UNK A   1      -8.286   6.585  71.247  1.00  0.00    -0.120 NA 
HETATM   10  H   UNK A   1      -7.481   6.693  71.864  1.00  0.00     0.000 HD 
BRANCH   9  11
HETATM   11  C   UNK A   1      -9.556   6.658  72.036  1.00  0.00    -0.148 C  
HETATM   12  C   UNK A   1      -9.245   6.189  73.470  1.00  0.00    -0.131 C  
HETATM   13  O   UNK A   1      -9.871   6.524  74.464  1.00  0.00    -0.288 OA 
HETATM   14  O   UNK A   1      -8.188   5.342  73.511  1.00  0.00    -0.109 OA 
BRANCH  11  15
HETATM   15  C   UNK A   1     -10.666   5.764  71.440  1.00  0.00    -0.319 C  
BRANCH  15  16
HETATM   16  C   UNK A   1     -11.520   6.483  70.382  1.00  0.00    -0.465 C  
BRANCH  16  17
HETATM   17  C   UNK A   1     -12.182   7.735  70.913  1.00  0.00    -0.166 A  
HETATM   18  C   UNK A   1     -11.652   8.996  70.613  1.00  0.00    -0.265 A  
HETATM   19  C   UNK A   1     -13.399  10.072  71.889  1.00  0.00    -0.516 A  
HETATM   20  C   UNK A   1     -12.259  10.157  71.097  1.00  0.00    -0.490 A  
HETATM   21  C   UNK A   1     -13.946   8.824  72.183  1.00  0.00    -0.522 A  
HETATM   22  C   UNK A   1     -13.344   7.663  71.699  1.00  0.00    -0.400 A  
ENDBRANCH  16  17
ENDBRANCH  15  16
ENDBRANCH  11  15
ENDBRANCH   9  11
ENDBRANCH   8   9
BRANCH   8  23
HETATM   23  C   UNK A   1      -7.038   7.077  69.159  1.00  0.00    -0.084 C  
ATOM     24  OXT PRO A   2     -10.744   7.625  66.864  1.00  0.00    -0.351 OA 
HETATM   25  O   UNK A   1      -5.934   6.792  69.625  1.00  0.00    -0.018 OA 
ATOM     26  N   PRO A   2      -7.305   6.923  67.799  1.00  0.00    -0.094 N  
ATOM     27  CD  PRO A   2      -6.299   6.375  66.895  1.00  0.00    -0.041 C  
ATOM     28  O   PRO A   2      -9.676   5.712  67.419  1.00  0.00    -0.117 OA 
ATOM     29  C   PRO A   2      -9.708   7.031  67.117  1.00  0.00    -0.161 C  
ATOM     30  CA  PRO A   2      -8.322   7.671  67.041  1.00  0.00    -0.124 C  
ATOM     31  CB  PRO A   2      -7.834   7.677  65.589  1.00  0.00    -0.109 C  
ATOM     32  CG  PRO A   2      -6.373   7.250  65.659  1.00  0.00    -0.041 C  
ENDBRANCH   8  23
ENDBRANCH   7   8
ENDBRANCH   6   7
ENDBRANCH   5   6
ENDBRANCH   3   5
TORSDOF 10
ENDMDL
MODEL      223
REMARK 921   NORMALIZED FREE ENERGY PREDICTED BY IDOCK:   -3.61 KCAL/MOL
REMARK 922        TOTAL FREE ENERGY PREDICTED BY IDOCK:   -7.67 KCAL/MOL
REMARK 923 INTER-LIGAND FREE ENERGY PREDICTED BY IDOCK:   -6.52 KCAL/MOL
REMARK 924 INTRA-LIGAND FREE ENERGY PREDICTED BY IDOCK:   -1.15 KCAL/MOL
REMARK 927      BINDING AFFINITY PREDICTED BY RF-SCORE:    0.00 PKD
ROOT
HETATM    1  N   UNK A   1     -13.331   7.303  71.874  1.00  0.00    -0.529 NA 
HETATM    2  H2  UNK A   1     -13.350   7.789  70.977  1.00  0.00     0.000 HD 
HETATM    3  C   UNK A   1     -11.979   6.927  72.268  1.00  0.00    -0.206 C  
HETATM    4  H1  UNK A   1     -13.929   6.476  71.877  1.00  0.00     0.000 HD 
ENDROOT
BRANCH   3   5
HETATM    5  C   UNK A   1     -11.086   8.163  72.264  1.00  0.00    -0.410 C  
BRANCH   5   6
HETATM    6  C   UNK A   1     -11.621   9.258  71.334  1.00  0.00    -0.437 C  
BRANCH   6   7
HETATM    7  C   UNK A   1     -10.617   9.500  70.202  1.00  0.00    -0.298 C  
BRANCH   7   8
HETATM    8  C   UNK A   1      -9.139   9.247  70.548  1.00  0.00    -0.259 C  
BRANCH   8   9
HETATM    9  N   UNK A   1      -8.200  10.268  69.992  1.00  0.00    -0.349 NA 
HETATM   10  H   UNK A   1      -7.234   9.994  70.171  1.00  0.00     0.000 HD 
BRANCH   9  11
HETATM   11  C   UNK A   1      -8.391  10.573  68.539  1.00  0.00    -0.129 C  
HETATM   12  C   UNK A   1      -7.089  10.198  67.806  1.00  0.00    -0.086 C  
HETATM   13  O   UNK A   1      -7.018   9.885  66.627  1.00  0.00    -0.083 OA 
HETATM   14  O   UNK A   1      -6.008  10.263  68.622  1.00  0.00    -0.044 OA 
BRANCH  11  15
HETATM   15  C   UNK A   1      -8.701  12.066  68.290  1.00  0.00    -0.178 C  
BRANCH  15  16
HETATM   16  C   UNK A   1      -8.828  12.418  66.799  1.00  0.00    -0.189 C  
BRANCH  16  17
HETATM   17  C   UNK A   1     -10.166  13.034  66.454  1.00  0.00    -0.283 A  
HETATM   18  C   UNK A   1     -10.951  12.489  65.428  1.00  0.00    -0.329 A  
HETATM   19  C   UNK A   1     -12.655  14.161  65.800  1.00  0.00    -0.475 A  
HETATM   20  C   UNK A   1     -12.189  13.049  65.106  1.00  0.00    -0.507 A  
HETATM   21  C   UNK A   1     -11.892  14.703  66.832  1.00  0.00    -0.345 A  
HETATM   22  C   UNK A   1     -10.656  14.144  67.159  1.00  0.00    -0.278 A  
ENDBRANCH  16  17
ENDBRANCH  15  16
ENDBRANCH  11  15
ENDBRANCH   9  11
ENDBRANCH   8   9
BRANCH   8  23
HETATM   23  C   UNK A   1      -8.635   7.828  70.104  1.00  0.00    -0.139 C  
ATOM     24  OXT PRO A   2      -6.612   9.063  73.803  1.00  0.00    -0.334 OA 
HETATM   25  O   UNK A   1      -9.025   7.336  69.044  1.00  0.00    -0.135 OA 
ATOM     26  N   PRO A   2      -7.690   7.173  70.895  1.00  0.00    -0.092 N  
ATOM     27  CD  PRO A   2      -7.101   5.909  70.466  1.00  0.00    -0.071 C  
ATOM     28  O   PRO A   2      -5.777   8.878  71.710  1.00  0.00    -0.049 OA 
ATOM     29  C   PRO A   2      -6.625   8.528  72.706  1.00  0.00    -0.064 C  
ATOM     30  CA  PRO A   2      -7.529   7.349  72.347  1.00  0.00    -0.080 C  
ATOM     31  CB  PRO A   2      -6.903   6.045  72.853  1.00  0.00    -0.075 C  
ATOM     32  CG  PRO A   2      -7.085   5.049  71.715  1.00  0.00    -0.066 C  
ENDBRANCH   8  23
ENDBRANCH   7   8
ENDBRANCH   6   7
ENDBRANCH   5   6
ENDBRANCH   3   5
TORSDOF 10
ENDMDL
MODEL      224
REMARK 921   NORMALIZED FREE ENERGY PREDICTED BY IDOCK:   -3.60 KCAL/MOL
REMARK 922        TOTAL FREE ENERGY PREDICTED BY IDOCK:   -7.66 KCAL/MOL
REMARK 923 INTER-LIGAND FREE ENERGY PREDICTED BY IDOCK:   -7.41 KCAL/MOL
REMARK 924 INTRA-LIGAND FREE ENERGY PREDICTED BY IDOCK:   -0.25 KCAL/MOL
REMARK 927      BINDING AFFINITY PREDICTED BY RF-SCORE:    0.00 PKD
ROOT
HETATM    1  N   UNK A   1      -9.278   9.465  63.985  1.00  0.00    -0.422 NA 
HETATM    2  H2  UNK A   1      -9.156   8.570  64.461  1.00  0.00     0.000 HD 
HETATM    3  C   UNK A   1     -10.014  10.425  64.797  1.00  0.00    -0.339 C  
HETATM    4  H1  UNK A   1      -9.737   9.360  63.080  1.00  0.00     0.000 HD 
ENDROOT
BRANCH   3   5
HETATM    5  C   UNK A   1      -9.328  10.581  66.149  1.00  0.00    -0.210 C  
BRANCH   5   6
HETATM    6  C   UNK A   1     -10.252  10.201  67.313  1.00  0.00    -0.273 C  
BRANCH   6   7
HETATM    7  C   UNK A   1      -9.522   9.230  68.246  1.00  0.00    -0.148 C  
BRANCH   7   8
HETATM    8  C   UNK A   1     -10.391   8.142  68.899  1.00  0.00    -0.211 C  
BRANCH   8   9
HETATM    9  N   UNK A   1      -9.924   7.721  70.255  1.00  0.00    -0.188 NA 
HETATM   10  H   UNK A   1      -8.942   7.962  70.381  1.00  0.00     0.000 HD 
BRANCH   9  11
HETATM   11  C   UNK A   1     -10.739   8.253  71.393  1.00  0.00    -0.227 C  
HETATM   12  C   UNK A   1     -10.770   7.174  72.492  1.00  0.00    -0.250 C  
HETATM   13  O   UNK A   1     -10.931   7.396  73.682  1.00  0.00    -0.306 OA 
HETATM   14  O   UNK A   1     -10.606   5.927  71.985  1.00  0.00    -0.207 OA 
BRANCH  11  15
HETATM   15  C   UNK A   1     -12.186   8.588  70.969  1.00  0.00    -0.190 C  
BRANCH  15  16
HETATM   16  C   UNK A   1     -12.859   9.629  71.880  1.00  0.00    -0.515 C  
BRANCH  16  17
HETATM   17  C   UNK A   1     -12.723  11.041  71.356  1.00  0.00    -0.534 A  
HETATM   18  C   UNK A   1     -13.407  12.094  71.979  1.00  0.00    -0.470 A  
HETATM   19  C   UNK A   1     -12.481  13.672  70.401  1.00  0.00    -0.364 A  
HETATM   20  C   UNK A   1     -13.285  13.402  71.504  1.00  0.00    -0.395 A  
HETATM   21  C   UNK A   1     -11.784  12.637  69.781  1.00  0.00    -0.354 A  
HETATM   22  C   UNK A   1     -11.902  11.330  70.255  1.00  0.00    -0.446 A  
ENDBRANCH  16  17
ENDBRANCH  15  16
ENDBRANCH  11  15
ENDBRANCH   9  11
ENDBRANCH   8   9
BRANCH   8  23
HETATM   23  C   UNK A   1     -10.537   6.854  68.012  1.00  0.00    -0.222 C  
ATOM     24  OXT PRO A   2      -6.860   6.636  70.407  1.00  0.00    -0.058 OA 
HETATM   25  O   UNK A   1     -11.465   6.757  67.207  1.00  0.00    -0.193 OA 
ATOM     26  N   PRO A   2      -9.561   5.861  68.104  1.00  0.00    -0.118 N  
ATOM     27  CD  PRO A   2      -9.584   4.702  67.218  1.00  0.00    -0.175 C  
ATOM     28  O   PRO A   2      -7.100   6.943  68.180  1.00  0.00    -0.080 OA 
ATOM     29  C   PRO A   2      -7.492   6.451  69.379  1.00  0.00    -0.094 C  
ATOM     30  CA  PRO A   2      -8.745   5.579  69.297  1.00  0.00    -0.107 C  
ATOM     31  CB  PRO A   2      -8.343   4.106  69.183  1.00  0.00    -0.086 C  
ATOM     32  CG  PRO A   2      -9.263   3.524  68.117  1.00  0.00    -0.228 C  
ENDBRANCH   8  23
ENDBRANCH   7   8
ENDBRANCH   6   7
ENDBRANCH   5   6
ENDBRANCH   3   5
TORSDOF 10
ENDMDL
MODEL      225
REMARK 921   NORMALIZED FREE ENERGY PREDICTED BY IDOCK:   -3.59 KCAL/MOL
REMARK 922        TOTAL FREE ENERGY PREDICTED BY IDOCK:   -7.65 KCAL/MOL
REMARK 923 INTER-LIGAND FREE ENERGY PREDICTED BY IDOCK:   -5.49 KCAL/MOL
REMARK 924 INTRA-LIGAND FREE ENERGY PREDICTED BY IDOCK:   -2.15 KCAL/MOL
REMARK 927      BINDING AFFINITY PREDICTED BY RF-SCORE:    0.00 PKD
ROOT
HETATM    1  N   UNK A   1     -10.611  13.558  66.502  1.00  0.00    -0.279 NA 
HETATM    2  H2  UNK A   1      -9.609  13.644  66.675  1.00  0.00     0.000 HD 
HETATM    3  C   UNK A   1     -10.900  12.695  65.364  1.00  0.00    -0.287 C  
HETATM    4  H1  UNK A   1     -11.057  14.465  66.364  1.00  0.00     0.000 HD 
ENDROOT
BRANCH   3   5
HETATM    5  C   UNK A   1     -10.233  11.339  65.570  1.00  0.00    -0.312 C  
BRANCH   5   6
HETATM    6  C   UNK A   1     -10.966  10.488  66.614  1.00  0.00    -0.102 C  
BRANCH   6   7
HETATM    7  C   UNK A   1      -9.950   9.910  67.604  1.00  0.00    -0.212 C  
BRANCH   7   8
HETATM    8  C   UNK A   1      -9.552   8.441  67.380  1.00  0.00    -0.157 C  
BRANCH   8   9
HETATM    9  N   UNK A   1      -9.321   8.084  65.947  1.00  0.00    -0.404 NA 
HETATM   10  H   UNK A   1      -9.699   8.809  65.337  1.00  0.00     0.000 HD 
BRANCH   9  11
HETATM   11  C   UNK A   1      -7.896   7.798  65.592  1.00  0.00    -0.107 C  
HETATM   12  C   UNK A   1      -7.842   6.393  64.963  1.00  0.00    -0.112 C  
HETATM   13  O   UNK A   1      -6.989   6.014  64.174  1.00  0.00    -0.047 OA 
HETATM   14  O   UNK A   1      -8.856   5.603  65.394  1.00  0.00    -0.154 OA 
BRANCH  11  15
HETATM   15  C   UNK A   1      -6.967   7.837  66.826  1.00  0.00    -0.072 C  
BRANCH  15  16
HETATM   16  C   UNK A   1      -5.856   8.894  66.715  1.00  0.00    -0.052 C  
BRANCH  16  17
HETATM   17  C   UNK A   1      -6.225  10.205  67.373  1.00  0.00    -0.058 A  
HETATM   18  C   UNK A   1      -6.120  10.351  68.763  1.00  0.00    -0.040 A  
HETATM   19  C   UNK A   1      -6.903  12.633  68.615  1.00  0.00    -0.091 A  
HETATM   20  C   UNK A   1      -6.456  11.559  69.379  1.00  0.00    -0.111 A  
HETATM   21  C   UNK A   1      -6.997  12.506  67.230  1.00  0.00    -0.114 A  
HETATM   22  C   UNK A   1      -6.659  11.301  66.612  1.00  0.00    -0.135 A  
ENDBRANCH  16  17
ENDBRANCH  15  16
ENDBRANCH  11  15
ENDBRANCH   9  11
ENDBRANCH   8   9
BRANCH   8  23
HETATM   23  C   UNK A   1     -10.589   7.423  67.976  1.00  0.00    -0.175 C  
ATOM     24  OXT PRO A   2      -8.272   9.292  71.207  1.00  0.00    -0.324 OA 
HETATM   25  O   UNK A   1     -11.283   6.735  67.226  1.00  0.00    -0.348 OA 
ATOM     26  N   PRO A   2     -10.655   7.266  69.361  1.00  0.00    -0.227 N  
ATOM     27  CD  PRO A   2     -11.514   6.249  69.959  1.00  0.00    -0.390 C  
ATOM     28  O   PRO A   2      -8.190   7.170  70.433  1.00  0.00    -0.122 OA 
ATOM     29  C   PRO A   2      -8.828   8.336  70.690  1.00  0.00    -0.143 C  
ATOM     30  CA  PRO A   2     -10.318   8.301  70.351  1.00  0.00    -0.205 C  
ATOM     31  CB  PRO A   2     -11.126   7.951  71.605  1.00  0.00    -0.285 C  
ATOM     32  CG  PRO A   2     -12.168   6.944  71.138  1.00  0.00    -0.428 C  
ENDBRANCH   8  23
ENDBRANCH   7   8
ENDBRANCH   6   7
ENDBRANCH   5   6
ENDBRANCH   3   5
TORSDOF 10
ENDMDL
MODEL      226
REMARK 921   NORMALIZED FREE ENERGY PREDICTED BY IDOCK:   -3.58 KCAL/MOL
REMARK 922        TOTAL FREE ENERGY PREDICTED BY IDOCK:   -7.63 KCAL/MOL
REMARK 923 INTER-LIGAND FREE ENERGY PREDICTED BY IDOCK:   -7.04 KCAL/MOL
REMARK 924 INTRA-LIGAND FREE ENERGY PREDICTED BY IDOCK:   -0.59 KCAL/MOL
REMARK 927      BINDING AFFINITY PREDICTED BY RF-SCORE:    0.00 PKD
ROOT
HETATM    1  N   UNK A   1     -14.326   8.870  72.659  1.00  0.00    -0.945 NA 
HETATM    2  H2  UNK A   1     -14.537   8.139  71.979  1.00  0.00     0.000 HD 
HETATM    3  C   UNK A   1     -13.043   9.510  72.399  1.00  0.00    -0.349 C  
HETATM    4  H1  UNK A   1     -14.346   8.523  73.618  1.00  0.00     0.000 HD 
ENDROOT
BRANCH   3   5
HETATM    5  C   UNK A   1     -13.013  10.029  70.965  1.00  0.00    -0.445 C  
BRANCH   5   6
HETATM    6  C   UNK A   1     -11.624  10.542  70.566  1.00  0.00    -0.441 C  
BRANCH   6   7
HETATM    7  C   UNK A   1     -11.528  10.614  69.039  1.00  0.00    -0.342 C  
BRANCH   7   8
HETATM    8  C   UNK A   1     -10.304   9.929  68.408  1.00  0.00    -0.198 C  
BRANCH   8   9
HETATM    9  N   UNK A   1      -9.979   8.596  69.002  1.00  0.00    -0.187 NA 
HETATM   10  H   UNK A   1     -10.834   8.067  69.172  1.00  0.00     0.000 HD 
BRANCH   9  11
HETATM   11  C   UNK A   1      -9.010   7.775  68.209  1.00  0.00    -0.131 C  
HETATM   12  C   UNK A   1      -9.676   7.435  66.862  1.00  0.00    -0.205 C  
HETATM   13  O   UNK A   1      -9.073   7.192  65.828  1.00  0.00    -0.080 OA 
HETATM   14  O   UNK A   1     -11.029   7.426  66.951  1.00  0.00    -0.324 OA 
BRANCH  11  15
HETATM   15  C   UNK A   1      -8.629   6.463  68.930  1.00  0.00    -0.123 C  
BRANCH  15  16
HETATM   16  C   UNK A   1      -9.740   5.933  69.852  1.00  0.00    -0.208 C  
BRANCH  16  17
HETATM   17  C   UNK A   1      -9.289   5.779  71.287  1.00  0.00    -0.166 A  
HETATM   18  C   UNK A   1      -7.967   6.072  71.647  1.00  0.00    -0.110 A  
HETATM   19  C   UNK A   1      -8.431   5.502  73.949  1.00  0.00    -0.113 A  
HETATM   20  C   UNK A   1      -7.542   5.936  72.971  1.00  0.00    -0.095 A  
HETATM   21  C   UNK A   1      -9.753   5.222  73.608  1.00  0.00    -0.150 A  
HETATM   22  C   UNK A   1     -10.181   5.360  72.287  1.00  0.00    -0.244 A  
ENDBRANCH  16  17
ENDBRANCH  15  16
ENDBRANCH  11  15
ENDBRANCH   9  11
ENDBRANCH   8   9
BRANCH   8  23
HETATM   23  C   UNK A   1      -9.007  10.814  68.458  1.00  0.00    -0.160 C  
ATOM     24  OXT PRO A   2     -11.675  12.213  65.260  1.00  0.00    -0.350 OA 
HETATM   25  O   UNK A   1      -8.095  10.534  69.238  1.00  0.00    -0.146 OA 
ATOM     26  N   PRO A   2      -8.883  11.873  67.558  1.00  0.00    -0.162 N  
ATOM     27  CD  PRO A   2      -7.650  12.650  67.481  1.00  0.00    -0.160 C  
ATOM     28  O   PRO A   2      -9.692  11.140  65.100  1.00  0.00    -0.226 OA 
ATOM     29  C   PRO A   2     -10.568  11.969  65.714  1.00  0.00    -0.263 C  
ATOM     30  CA  PRO A   2     -10.003  12.627  66.972  1.00  0.00    -0.219 C  
ATOM     31  CB  PRO A   2      -9.433  14.006  66.623  1.00  0.00    -0.300 C  
ATOM     32  CG  PRO A   2      -8.110  14.090  67.372  1.00  0.00    -0.199 C  
ENDBRANCH   8  23
ENDBRANCH   7   8
ENDBRANCH   6   7
ENDBRANCH   5   6
ENDBRANCH   3   5
TORSDOF 10
ENDMDL
MODEL      227
REMARK 921   NORMALIZED FREE ENERGY PREDICTED BY IDOCK:   -3.58 KCAL/MOL
REMARK 922        TOTAL FREE ENERGY PREDICTED BY IDOCK:   -7.62 KCAL/MOL
REMARK 923 INTER-LIGAND FREE ENERGY PREDICTED BY IDOCK:   -5.91 KCAL/MOL
REMARK 924 INTRA-LIGAND FREE ENERGY PREDICTED BY IDOCK:   -1.71 KCAL/MOL
REMARK 927      BINDING AFFINITY PREDICTED BY RF-SCORE:    0.00 PKD
ROOT
HETATM    1  N   UNK A   1      -6.827   9.041  66.595  1.00  0.00    -0.079 NA 
HETATM    2  H2  UNK A   1      -7.257   9.925  66.867  1.00  0.00     0.000 HD 
HETATM    3  C   UNK A   1      -5.796   8.618  67.535  1.00  0.00    -0.043 C  
HETATM    4  H1  UNK A   1      -6.436   9.077  65.653  1.00  0.00     0.000 HD 
ENDROOT
BRANCH   3   5
HETATM    5  C   UNK A   1      -6.381   8.565  68.942  1.00  0.00    -0.045 C  
BRANCH   5   6
HETATM    6  C   UNK A   1      -5.628   7.578  69.842  1.00  0.00    -0.023 C  
BRANCH   6   7
HETATM    7  C   UNK A   1      -6.637   6.763  70.658  1.00  0.00    -0.053 C  
BRANCH   7   8
HETATM    8  C   UNK A   1      -7.951   6.407  69.942  1.00  0.00    -0.116 C  
BRANCH   8   9
HETATM    9  N   UNK A   1      -9.143   6.360  70.843  1.00  0.00    -0.150 NA 
HETATM   10  H   UNK A   1      -9.732   5.561  70.608  1.00  0.00     0.000 HD 
BRANCH   9  11
HETATM   11  C   UNK A   1      -8.825   6.357  72.306  1.00  0.00    -0.135 C  
HETATM   12  C   UNK A   1      -9.300   5.011  72.886  1.00  0.00    -0.134 C  
HETATM   13  O   UNK A   1      -8.832   4.475  73.879  1.00  0.00    -0.104 OA 
HETATM   14  O   UNK A   1     -10.319   4.478  72.167  1.00  0.00    -0.192 OA 
BRANCH  11  15
HETATM   15  C   UNK A   1      -9.526   7.509  73.059  1.00  0.00    -0.255 C  
BRANCH  15  16
HETATM   16  C   UNK A   1     -11.059   7.472  72.930  1.00  0.00    -0.426 C  
BRANCH  16  17
HETATM   17  C   UNK A   1     -11.611   8.650  72.159  1.00  0.00    -0.440 A  
HETATM   18  C   UNK A   1     -10.855   9.244  71.139  1.00  0.00    -0.407 A  
HETATM   19  C   UNK A   1     -12.620  10.837  70.712  1.00  0.00    -0.476 A  
HETATM   20  C   UNK A   1     -11.358  10.330  70.420  1.00  0.00    -0.410 A  
HETATM   21  C   UNK A   1     -13.389  10.247  71.713  1.00  0.00    -0.476 A  
HETATM   22  C   UNK A   1     -12.890   9.160  72.432  1.00  0.00    -0.438 A  
ENDBRANCH  16  17
ENDBRANCH  15  16
ENDBRANCH  11  15
ENDBRANCH   9  11
ENDBRANCH   8   9
BRANCH   8  23
HETATM   23  C   UNK A   1      -7.878   5.047  69.159  1.00  0.00    -0.080 C  
ATOM     24  OXT PRO A   2     -10.422   7.905  66.999  1.00  0.00    -0.315 OA 
HETATM   25  O   UNK A   1      -7.275   4.086  69.640  1.00  0.00    -0.048 OA 
ATOM     26  N   PRO A   2      -8.565   4.932  67.949  1.00  0.00    -0.103 N  
ATOM     27  CD  PRO A   2      -8.629   3.657  67.243  1.00  0.00    -0.108 C  
ATOM     28  O   PRO A   2     -11.010   6.037  68.128  1.00  0.00    -0.300 OA 
ATOM     29  C   PRO A   2     -10.152   6.781  67.391  1.00  0.00    -0.175 C  
ATOM     30  CA  PRO A   2      -8.863   6.043  67.031  1.00  0.00    -0.113 C  
ATOM     31  CB  PRO A   2      -9.000   5.407  65.645  1.00  0.00    -0.160 C  
ATOM     32  CG  PRO A   2      -8.404   4.013  65.786  1.00  0.00    -0.109 C  
ENDBRANCH   8  23
ENDBRANCH   7   8
ENDBRANCH   6   7
ENDBRANCH   5   6
ENDBRANCH   3   5
TORSDOF 10
ENDMDL
MODEL      228
REMARK 921   NORMALIZED FREE ENERGY PREDICTED BY IDOCK:   -3.56 KCAL/MOL
REMARK 922        TOTAL FREE ENERGY PREDICTED BY IDOCK:   -7.60 KCAL/MOL
REMARK 923 INTER-LIGAND FREE ENERGY PREDICTED BY IDOCK:   -7.50 KCAL/MOL
REMARK 924 INTRA-LIGAND FREE ENERGY PREDICTED BY IDOCK:   -0.10 KCAL/MOL
REMARK 927      BINDING AFFINITY PREDICTED BY RF-SCORE:    0.00 PKD
ROOT
HETATM    1  N   UNK A   1      -7.768  19.657  65.754  1.00  0.00    -0.410 NA 
HETATM    2  H2  UNK A   1      -8.753  19.815  65.541  1.00  0.00     0.000 HD 
HETATM    3  C   UNK A   1      -7.578  19.066  67.073  1.00  0.00    -0.228 C  
HETATM    4  H1  UNK A   1      -7.216  20.512  65.681  1.00  0.00     0.000 HD 
ENDROOT
BRANCH   3   5
HETATM    5  C   UNK A   1      -8.404  17.788  67.182  1.00  0.00    -0.236 C  
BRANCH   5   6
HETATM    6  C   UNK A   1      -7.685  16.583  66.564  1.00  0.00    -0.323 C  
BRANCH   6   7
HETATM    7  C   UNK A   1      -8.679  15.430  66.394  1.00  0.00    -0.307 C  
BRANCH   7   8
HETATM    8  C   UNK A   1      -8.611  14.320  67.456  1.00  0.00    -0.196 C  
BRANCH   8   9
HETATM    9  N   UNK A   1      -9.482  13.140  67.162  1.00  0.00    -0.230 NA 
HETATM   10  H   UNK A   1      -9.986  13.283  66.288  1.00  0.00     0.000 HD 
BRANCH   9  11
HETATM   11  C   UNK A   1      -8.770  11.824  67.141  1.00  0.00    -0.169 C  
HETATM   12  C   UNK A   1      -9.155  11.104  65.835  1.00  0.00    -0.203 C  
HETATM   13  O   UNK A   1      -8.467  10.267  65.271  1.00  0.00    -0.150 OA 
HETATM   14  O   UNK A   1     -10.368  11.499  65.375  1.00  0.00    -0.252 OA 
BRANCH  11  15
HETATM   15  C   UNK A   1      -9.154  10.933  68.343  1.00  0.00    -0.164 C  
BRANCH  15  16
HETATM   16  C   UNK A   1     -10.673  10.752  68.503  1.00  0.00    -0.245 C  
BRANCH  16  17
HETATM   17  C   UNK A   1     -11.052  10.108  69.818  1.00  0.00    -0.328 A  
HETATM   18  C   UNK A   1     -12.379  10.145  70.266  1.00  0.00    -0.211 A  
HETATM   19  C   UNK A   1     -11.777   8.915  72.256  1.00  0.00    -0.351 A  
HETATM   20  C   UNK A   1     -12.739   9.551  71.477  1.00  0.00    -0.461 A  
HETATM   21  C   UNK A   1     -10.457   8.857  71.816  1.00  0.00    -0.431 A  
HETATM   22  C   UNK A   1     -10.095   9.447  70.604  1.00  0.00    -0.356 A  
ENDBRANCH  16  17
ENDBRANCH  15  16
ENDBRANCH  11  15
ENDBRANCH   9  11
ENDBRANCH   8   9
BRANCH   8  23
HETATM   23  C   UNK A   1      -8.951  14.828  68.903  1.00  0.00    -0.167 C  
ATOM     24  OXT PRO A   2     -12.640  13.771  66.764  1.00  0.00    -0.296 OA 
HETATM   25  O   UNK A   1      -8.056  15.248  69.638  1.00  0.00    -0.233 OA 
ATOM     26  N   PRO A   2     -10.286  14.858  69.308  1.00  0.00    -0.230 N  
ATOM     27  CD  PRO A   2     -10.666  15.432  70.594  1.00  0.00    -0.219 C  
ATOM     28  O   PRO A   2     -11.859  15.811  67.346  1.00  0.00     0.077 OA 
ATOM     29  C   PRO A   2     -11.997  14.476  67.525  1.00  0.00    -0.325 C  
ATOM     30  CA  PRO A   2     -11.346  13.966  68.810  1.00  0.00    -0.277 C  
ATOM     31  CB  PRO A   2     -12.390  13.901  69.929  1.00  0.00    -0.358 C  
ATOM     32  CG  PRO A   2     -11.690  14.467  71.158  1.00  0.00    -0.225 C  
ENDBRANCH   8  23
ENDBRANCH   7   8
ENDBRANCH   6   7
ENDBRANCH   5   6
ENDBRANCH   3   5
TORSDOF 10
ENDMDL
MODEL      229
REMARK 921   NORMALIZED FREE ENERGY PREDICTED BY IDOCK:   -3.54 KCAL/MOL
REMARK 922        TOTAL FREE ENERGY PREDICTED BY IDOCK:   -7.56 KCAL/MOL
REMARK 923 INTER-LIGAND FREE ENERGY PREDICTED BY IDOCK:   -6.31 KCAL/MOL
REMARK 924 INTRA-LIGAND FREE ENERGY PREDICTED BY IDOCK:   -1.26 KCAL/MOL
REMARK 927      BINDING AFFINITY PREDICTED BY RF-SCORE:    0.00 PKD
ROOT
HETATM    1  N   UNK A   1     -12.728   7.597  72.191  1.00  0.00    -0.490 NA 
HETATM    2  H2  UNK A   1     -12.930   7.576  71.191  1.00  0.00     0.000 HD 
HETATM    3  C   UNK A   1     -11.356   8.003  72.467  1.00  0.00    -0.406 C  
HETATM    4  H1  UNK A   1     -12.915   6.701  72.640  1.00  0.00     0.000 HD 
ENDROOT
BRANCH   3   5
HETATM    5  C   UNK A   1     -11.076   9.343  71.795  1.00  0.00    -0.325 C  
BRANCH   5   6
HETATM    6  C   UNK A   1     -12.009   9.597  70.605  1.00  0.00    -0.304 C  
BRANCH   6   7
HETATM    7  C   UNK A   1     -11.184  10.072  69.404  1.00  0.00    -0.235 C  
BRANCH   7   8
HETATM    8  C   UNK A   1      -9.816   9.393  69.217  1.00  0.00    -0.174 C  
BRANCH   8   9
HETATM    9  N   UNK A   1      -8.910  10.101  68.261  1.00  0.00    -0.122 NA 
HETATM   10  H   UNK A   1      -8.142   9.490  67.984  1.00  0.00     0.000 HD 
BRANCH   9  11
HETATM   11  C   UNK A   1      -9.589  10.661  67.050  1.00  0.00    -0.169 C  
HETATM   12  C   UNK A   1      -9.083   9.877  65.825  1.00  0.00    -0.168 C  
HETATM   13  O   UNK A   1      -9.705   9.734  64.783  1.00  0.00    -0.283 OA 
HETATM   14  O   UNK A   1      -7.846   9.360  66.026  1.00  0.00    -0.098 OA 
BRANCH  11  15
HETATM   15  C   UNK A   1      -9.285  12.162  66.852  1.00  0.00    -0.203 C  
BRANCH  15  16
HETATM   16  C   UNK A   1     -10.110  12.804  65.724  1.00  0.00    -0.296 C  
BRANCH  16  17
HETATM   17  C   UNK A   1     -10.193  14.310  65.841  1.00  0.00    -0.338 A  
HETATM   18  C   UNK A   1      -9.505  14.978  66.863  1.00  0.00    -0.252 A  
HETATM   19  C   UNK A   1     -10.332  17.106  66.073  1.00  0.00    -0.317 A  
HETATM   20  C   UNK A   1      -9.573  16.368  66.976  1.00  0.00    -0.244 A  
HETATM   21  C   UNK A   1     -11.008  16.457  65.043  1.00  0.00    -0.265 A  
HETATM   22  C   UNK A   1     -10.940  15.068  64.926  1.00  0.00    -0.427 A  
ENDBRANCH  16  17
ENDBRANCH  15  16
ENDBRANCH  11  15
ENDBRANCH   9  11
ENDBRANCH   8   9
BRANCH   8  23
HETATM   23  C   UNK A   1      -9.928   7.894  68.764  1.00  0.00    -0.187 C  
ATOM     24  OXT PRO A   2      -6.763   8.332  71.779  1.00  0.00    -0.057 OA 
HETATM   25  O   UNK A   1     -10.707   7.575  67.864  1.00  0.00    -0.202 OA 
ATOM     26  N   PRO A   2      -9.082   6.951  69.349  1.00  0.00    -0.141 N  
ATOM     27  CD  PRO A   2      -9.062   5.569  68.881  1.00  0.00    -0.118 C  
ATOM     28  O   PRO A   2      -6.580   7.912  69.566  1.00  0.00    -0.034 OA 
ATOM     29  C   PRO A   2      -7.221   7.848  70.757  1.00  0.00    -0.053 C  
ATOM     30  CA  PRO A   2      -8.517   7.041  70.706  1.00  0.00    -0.135 C  
ATOM     31  CB  PRO A   2      -8.245   5.596  71.136  1.00  0.00    -0.121 C  
ATOM     32  CG  PRO A   2      -9.017   4.734  70.146  1.00  0.00    -0.143 C  
ENDBRANCH   8  23
ENDBRANCH   7   8
ENDBRANCH   6   7
ENDBRANCH   5   6
ENDBRANCH   3   5
TORSDOF 10
ENDMDL
MODEL      230
REMARK 921   NORMALIZED FREE ENERGY PREDICTED BY IDOCK:   -3.52 KCAL/MOL
REMARK 922        TOTAL FREE ENERGY PREDICTED BY IDOCK:   -7.54 KCAL/MOL
REMARK 923 INTER-LIGAND FREE ENERGY PREDICTED BY IDOCK:   -5.71 KCAL/MOL
REMARK 924 INTRA-LIGAND FREE ENERGY PREDICTED BY IDOCK:   -1.83 KCAL/MOL
REMARK 927      BINDING AFFINITY PREDICTED BY RF-SCORE:    0.00 PKD
ROOT
HETATM    1  N   UNK A   1     -11.917  10.360  68.753  1.00  0.00    -0.715 NA 
HETATM    2  H2  UNK A   1     -11.515   9.598  69.300  1.00  0.00     0.000 HD 
HETATM    3  C   UNK A   1     -11.010  10.829  67.713  1.00  0.00    -0.297 C  
HETATM    4  H1  UNK A   1     -12.200  11.146  69.338  1.00  0.00     0.000 HD 
ENDROOT
BRANCH   3   5
HETATM    5  C   UNK A   1     -10.587   9.653  66.839  1.00  0.00    -0.241 C  
BRANCH   5   6
HETATM    6  C   UNK A   1      -9.183   9.148  67.192  1.00  0.00    -0.162 C  
BRANCH   6   7
HETATM    7  C   UNK A   1      -9.231   7.635  67.428  1.00  0.00    -0.150 C  
BRANCH   7   8
HETATM    8  C   UNK A   1      -9.326   7.185  68.896  1.00  0.00    -0.139 C  
BRANCH   8   9
HETATM    9  N   UNK A   1      -8.470   6.005  69.229  1.00  0.00    -0.114 NA 
HETATM   10  H   UNK A   1      -8.604   5.735  70.203  1.00  0.00     0.000 HD 
BRANCH   9  11
HETATM   11  C   UNK A   1      -8.657   4.821  68.332  1.00  0.00    -0.097 C  
HETATM   12  C   UNK A   1      -9.040   3.619  69.216  1.00  0.00    -0.133 C  
HETATM   13  O   UNK A   1      -9.685   2.653  68.838  1.00  0.00    -0.064 OA 
HETATM   14  O   UNK A   1      -8.568   3.747  70.481  1.00  0.00    -0.067 OA 
BRANCH  11  15
HETATM   15  C   UNK A   1      -7.375   4.480  67.540  1.00  0.00    -0.073 C  
BRANCH  15  16
HETATM   16  C   UNK A   1      -7.483   4.807  66.041  1.00  0.00    -0.078 C  
BRANCH  16  17
HETATM   17  C   UNK A   1      -8.319   3.802  65.281  1.00  0.00    -0.101 A  
HETATM   18  C   UNK A   1      -9.330   4.236  64.413  1.00  0.00    -0.157 A  
HETATM   19  C   UNK A   1      -9.881   1.951  63.856  1.00  0.00    -0.129 A  
HETATM   20  C   UNK A   1     -10.105   3.316  63.704  1.00  0.00    -0.183 A  
HETATM   21  C   UNK A   1      -8.869   1.505  64.704  1.00  0.00    -0.105 A  
HETATM   22  C   UNK A   1      -8.092   2.423  65.411  1.00  0.00    -0.084 A  
ENDBRANCH  16  17
ENDBRANCH  15  16
ENDBRANCH  11  15
ENDBRANCH   9  11
ENDBRANCH   8   9
BRANCH   8  23
HETATM   23  C   UNK A   1     -10.795   6.865  69.351  1.00  0.00    -0.249 C  
ATOM     24  OXT PRO A   2      -8.560   8.721  72.647  1.00  0.00    -0.411 OA 
HETATM   25  O   UNK A   1     -11.562   6.270  68.592  1.00  0.00    -0.125 OA 
ATOM     26  N   PRO A   2     -11.186   7.206  70.646  1.00  0.00    -0.270 N  
ATOM     27  CD  PRO A   2     -12.498   6.824  71.157  1.00  0.00    -0.298 C  
ATOM     28  O   PRO A   2      -9.263   6.584  72.421  1.00  0.00    -0.138 OA 
ATOM     29  C   PRO A   2      -9.367   7.917  72.206  1.00  0.00    -0.180 C  
ATOM     30  CA  PRO A   2     -10.628   8.313  71.440  1.00  0.00    -0.223 C  
ATOM     31  CB  PRO A   2     -11.730   8.709  72.426  1.00  0.00    -0.393 C  
ATOM     32  CG  PRO A   2     -12.997   8.053  71.893  1.00  0.00    -0.335 C  
ENDBRANCH   8  23
ENDBRANCH   7   8
ENDBRANCH   6   7
ENDBRANCH   5   6
ENDBRANCH   3   5
TORSDOF 10
ENDMDL
MODEL      231
REMARK 921   NORMALIZED FREE ENERGY PREDICTED BY IDOCK:   -3.52 KCAL/MOL
REMARK 922        TOTAL FREE ENERGY PREDICTED BY IDOCK:   -7.54 KCAL/MOL
REMARK 923 INTER-LIGAND FREE ENERGY PREDICTED BY IDOCK:   -5.75 KCAL/MOL
REMARK 924 INTRA-LIGAND FREE ENERGY PREDICTED BY IDOCK:   -1.79 KCAL/MOL
REMARK 927      BINDING AFFINITY PREDICTED BY RF-SCORE:    0.00 PKD
ROOT
HETATM    1  N   UNK A   1      -8.152   3.547  63.730  1.00  0.00    -0.088 NA 
HETATM    2  H2  UNK A   1      -8.840   4.300  63.745  1.00  0.00     0.000 HD 
HETATM    3  C   UNK A   1      -6.786   4.050  63.663  1.00  0.00    -0.043 C  
HETATM    4  H1  UNK A   1      -8.313   2.894  62.963  1.00  0.00     0.000 HD 
ENDROOT
BRANCH   3   5
HETATM    5  C   UNK A   1      -6.546   5.026  64.810  1.00  0.00    -0.040 C  
BRANCH   5   6
HETATM    6  C   UNK A   1      -7.190   6.393  64.548  1.00  0.00    -0.061 C  
BRANCH   6   7
HETATM    7  C   UNK A   1      -6.958   7.304  65.757  1.00  0.00    -0.061 C  
BRANCH   7   8
HETATM    8  C   UNK A   1      -8.221   7.773  66.500  1.00  0.00    -0.124 C  
BRANCH   8   9
HETATM    9  N   UNK A   1      -8.400   9.257  66.521  1.00  0.00    -0.124 NA 
HETATM   10  H   UNK A   1      -8.291   9.612  67.471  1.00  0.00     0.000 HD 
BRANCH   9  11
HETATM   11  C   UNK A   1      -7.512  10.010  65.582  1.00  0.00    -0.137 C  
HETATM   12  C   UNK A   1      -6.765  11.081  66.400  1.00  0.00    -0.123 C  
HETATM   13  O   UNK A   1      -5.680  11.557  66.100  1.00  0.00    -0.200 OA 
HETATM   14  O   UNK A   1      -7.458  11.453  67.504  1.00  0.00    -0.101 OA 
BRANCH  11  15
HETATM   15  C   UNK A   1      -8.308  10.700  64.451  1.00  0.00    -0.032 C  
BRANCH  15  16
HETATM   16  C   UNK A   1      -9.830  10.524  64.588  1.00  0.00    -0.404 C  
BRANCH  16  17
HETATM   17  C   UNK A   1     -10.585  11.828  64.460  1.00  0.00    -0.364 A  
HETATM   18  C   UNK A   1     -11.677  11.930  63.589  1.00  0.00    -0.572 A  
HETATM   19  C   UNK A   1     -12.002  14.242  64.211  1.00  0.00    -0.449 A  
HETATM   20  C   UNK A   1     -12.382  13.129  63.467  1.00  0.00    -0.478 A  
HETATM   21  C   UNK A   1     -10.927  14.151  65.092  1.00  0.00    -0.361 A  
HETATM   22  C   UNK A   1     -10.223  12.953  65.218  1.00  0.00    -0.294 A  
ENDBRANCH  16  17
ENDBRANCH  15  16
ENDBRANCH  11  15
ENDBRANCH   9  11
ENDBRANCH   8   9
BRANCH   8  23
HETATM   23  C   UNK A   1      -8.298   7.251  67.979  1.00  0.00    -0.123 C  
ATOM     24  OXT PRO A   2     -10.687   4.677  65.340  1.00  0.00    -0.241 OA 
HETATM   25  O   UNK A   1      -7.757   7.883  68.888  1.00  0.00    -0.101 OA 
ATOM     26  N   PRO A   2      -9.045   6.103  68.248  1.00  0.00    -0.114 N  
ATOM     27  CD  PRO A   2      -9.247   5.645  69.619  1.00  0.00    -0.137 C  
ATOM     28  O   PRO A   2     -11.379   6.146  66.913  1.00  0.00    -0.199 OA 
ATOM     29  C   PRO A   2     -10.495   5.260  66.395  1.00  0.00    -0.292 C  
ATOM     30  CA  PRO A   2      -9.290   5.006  67.298  1.00  0.00    -0.126 C  
ATOM     31  CB  PRO A   2      -9.541   3.764  68.159  1.00  0.00    -0.176 C  
ATOM     32  CG  PRO A   2      -9.058   4.142  69.553  1.00  0.00    -0.185 C  
ENDBRANCH   8  23
ENDBRANCH   7   8
ENDBRANCH   6   7
ENDBRANCH   5   6
ENDBRANCH   3   5
TORSDOF 10
ENDMDL
MODEL      232
REMARK 921   NORMALIZED FREE ENERGY PREDICTED BY IDOCK:   -3.52 KCAL/MOL
REMARK 922        TOTAL FREE ENERGY PREDICTED BY IDOCK:   -7.53 KCAL/MOL
REMARK 923 INTER-LIGAND FREE ENERGY PREDICTED BY IDOCK:   -6.85 KCAL/MOL
REMARK 924 INTRA-LIGAND FREE ENERGY PREDICTED BY IDOCK:   -0.68 KCAL/MOL
REMARK 927      BINDING AFFINITY PREDICTED BY RF-SCORE:    0.00 PKD
ROOT
HETATM    1  N   UNK A   1     -11.204  16.310  64.251  1.00  0.00    -1.202 NA 
HETATM    2  H2  UNK A   1     -10.399  16.013  64.803  1.00  0.00     0.000 HD 
HETATM    3  C   UNK A   1     -12.128  15.213  63.990  1.00  0.00    -0.049 C  
HETATM    4  H1  UNK A   1     -10.929  16.741  63.368  1.00  0.00     0.000 HD 
ENDROOT
BRANCH   3   5
HETATM    5  C   UNK A   1     -12.539  14.569  65.310  1.00  0.00    -0.240 C  
BRANCH   5   6
HETATM    6  C   UNK A   1     -12.178  13.079  65.362  1.00  0.00    -0.520 C  
BRANCH   6   7
HETATM    7  C   UNK A   1     -10.654  12.924  65.345  1.00  0.00    -0.308 C  
BRANCH   7   8
HETATM    8  C   UNK A   1      -9.981  12.749  66.717  1.00  0.00    -0.237 C  
BRANCH   8   9
HETATM    9  N   UNK A   1      -9.179  11.494  66.846  1.00  0.00    -0.172 NA 
HETATM   10  H   UNK A   1      -9.770  10.729  67.172  1.00  0.00     0.000 HD 
BRANCH   9  11
HETATM   11  C   UNK A   1      -8.443  11.088  65.608  1.00  0.00    -0.099 C  
HETATM   12  C   UNK A   1      -9.310  10.053  64.866  1.00  0.00    -0.266 C  
HETATM   13  O   UNK A   1      -9.271   9.844  63.662  1.00  0.00    -0.257 OA 
HETATM   14  O   UNK A   1     -10.130   9.377  65.709  1.00  0.00    -0.288 OA 
BRANCH  11  15
HETATM   15  C   UNK A   1      -7.067  10.463  65.924  1.00  0.00    -0.135 C  
BRANCH  15  16
HETATM   16  C   UNK A   1      -7.070   8.926  65.863  1.00  0.00    -0.084 C  
BRANCH  16  17
HETATM   17  C   UNK A   1      -7.261   8.285  67.219  1.00  0.00    -0.084 A  
HETATM   18  C   UNK A   1      -7.195   9.062  68.384  1.00  0.00    -0.077 A  
HETATM   19  C   UNK A   1      -7.616   7.114  69.748  1.00  0.00    -0.103 A  
HETATM   20  C   UNK A   1      -7.373   8.479  69.640  1.00  0.00    -0.060 A  
HETATM   21  C   UNK A   1      -7.700   6.331  68.598  1.00  0.00    -0.101 A  
HETATM   22  C   UNK A   1      -7.525   6.912  67.342  1.00  0.00    -0.097 A  
ENDBRANCH  16  17
ENDBRANCH  15  16
ENDBRANCH  11  15
ENDBRANCH   9  11
ENDBRANCH   8   9
BRANCH   8  23
HETATM   23  C   UNK A   1     -10.995  12.805  67.915  1.00  0.00    -0.234 C  
ATOM     24  OXT PRO A   2      -8.602  16.486  67.785  1.00  0.00    -0.175 OA 
HETATM   25  O   UNK A   1     -11.707  11.831  68.170  1.00  0.00    -0.365 OA 
ATOM     26  N   PRO A   2     -11.023  13.945  68.718  1.00  0.00    -0.256 N  
ATOM     27  CD  PRO A   2     -11.860  14.000  69.913  1.00  0.00    -0.329 C  
ATOM     28  O   PRO A   2      -8.529  14.786  69.273  1.00  0.00    -0.136 OA 
ATOM     29  C   PRO A   2      -9.167  15.586  68.385  1.00  0.00    -0.191 C  
ATOM     30  CA  PRO A   2     -10.665  15.304  68.279  1.00  0.00    -0.254 C  
ATOM     31  CB  PRO A   2     -11.436  16.252  69.202  1.00  0.00    -0.257 C  
ATOM     32  CG  PRO A   2     -12.485  15.381  69.880  1.00  0.00    -0.274 C  
ENDBRANCH   8  23
ENDBRANCH   7   8
ENDBRANCH   6   7
ENDBRANCH   5   6
ENDBRANCH   3   5
TORSDOF 10
ENDMDL
MODEL      233
REMARK 921   NORMALIZED FREE ENERGY PREDICTED BY IDOCK:   -3.51 KCAL/MOL
REMARK 922        TOTAL FREE ENERGY PREDICTED BY IDOCK:   -7.52 KCAL/MOL
REMARK 923 INTER-LIGAND FREE ENERGY PREDICTED BY IDOCK:   -5.95 KCAL/MOL
REMARK 924 INTRA-LIGAND FREE ENERGY PREDICTED BY IDOCK:   -1.58 KCAL/MOL
REMARK 927      BINDING AFFINITY PREDICTED BY RF-SCORE:    0.00 PKD
ROOT
HETATM    1  N   UNK A   1     -13.090  11.578  71.622  1.00  0.00    -0.439 NA 
HETATM    2  H2  UNK A   1     -13.550  11.424  72.520  1.00  0.00     0.000 HD 
HETATM    3  C   UNK A   1     -12.242  10.457  71.238  1.00  0.00    -0.389 C  
HETATM    4  H1  UNK A   1     -12.543  12.439  71.612  1.00  0.00     0.000 HD 
ENDROOT
BRANCH   3   5
HETATM    5  C   UNK A   1     -13.060   9.171  71.252  1.00  0.00    -0.297 C  
BRANCH   5   6
HETATM    6  C   UNK A   1     -12.220   7.958  71.671  1.00  0.00    -0.339 C  
BRANCH   6   7
HETATM    7  C   UNK A   1     -12.101   6.990  70.490  1.00  0.00    -0.278 C  
BRANCH   7   8
HETATM    8  C   UNK A   1     -10.672   6.707  69.993  1.00  0.00    -0.240 C  
BRANCH   8   9
HETATM    9  N   UNK A   1     -10.584   6.412  68.530  1.00  0.00    -0.223 NA 
HETATM   10  H   UNK A   1     -11.379   5.846  68.235  1.00  0.00     0.000 HD 
BRANCH   9  11
HETATM   11  C   UNK A   1     -10.451   7.618  67.652  1.00  0.00    -0.244 C  
HETATM   12  C   UNK A   1      -9.217   7.410  66.754  1.00  0.00    -0.156 C  
HETATM   13  O   UNK A   1      -9.058   7.925  65.658  1.00  0.00    -0.095 OA 
HETATM   14  O   UNK A   1      -8.304   6.587  67.326  1.00  0.00    -0.112 OA 
BRANCH  11  15
HETATM   15  C   UNK A   1     -10.272   8.917  68.468  1.00  0.00    -0.223 C  
BRANCH  15  16
HETATM   16  C   UNK A   1     -11.195  10.057  68.004  1.00  0.00    -0.190 C  
BRANCH  16  17
HETATM   17  C   UNK A   1     -10.435  11.307  67.619  1.00  0.00    -0.225 A  
HETATM   18  C   UNK A   1     -11.087  12.352  66.950  1.00  0.00    -0.335 A  
HETATM   19  C   UNK A   1      -9.043  13.638  66.899  1.00  0.00    -0.249 A  
HETATM   20  C   UNK A   1     -10.394  13.511  66.595  1.00  0.00    -0.271 A  
HETATM   21  C   UNK A   1      -8.385  12.614  67.577  1.00  0.00    -0.177 A  
HETATM   22  C   UNK A   1      -9.076  11.456  67.936  1.00  0.00    -0.164 A  
ENDBRANCH  16  17
ENDBRANCH  15  16
ENDBRANCH  11  15
ENDBRANCH   9  11
ENDBRANCH   8   9
BRANCH   8  23
HETATM   23  C   UNK A   1      -9.968   5.538  70.770  1.00  0.00    -0.201 C  
ATOM     24  OXT PRO A   2      -8.215   9.397  71.926  1.00  0.00    -0.132 OA 
HETATM   25  O   UNK A   1     -10.264   4.367  70.528  1.00  0.00    -0.178 OA 
ATOM     26  N   PRO A   2      -8.959   5.850  71.682  1.00  0.00    -0.139 N  
ATOM     27  CD  PRO A   2      -8.192   4.798  72.340  1.00  0.00    -0.115 C  
ATOM     28  O   PRO A   2      -7.318   7.734  70.686  1.00  0.00    -0.063 OA 
ATOM     29  C   PRO A   2      -8.130   8.209  71.659  1.00  0.00    -0.124 C  
ATOM     30  CA  PRO A   2      -8.855   7.110  72.436  1.00  0.00    -0.127 C  
ATOM     31  CB  PRO A   2      -8.067   6.768  73.704  1.00  0.00    -0.113 C  
ATOM     32  CG  PRO A   2      -8.085   5.247  73.784  1.00  0.00    -0.109 C  
ENDBRANCH   8  23
ENDBRANCH   7   8
ENDBRANCH   6   7
ENDBRANCH   5   6
ENDBRANCH   3   5
TORSDOF 10
ENDMDL
MODEL      234
REMARK 921   NORMALIZED FREE ENERGY PREDICTED BY IDOCK:   -3.48 KCAL/MOL
REMARK 922        TOTAL FREE ENERGY PREDICTED BY IDOCK:   -7.47 KCAL/MOL
REMARK 923 INTER-LIGAND FREE ENERGY PREDICTED BY IDOCK:   -6.00 KCAL/MOL
REMARK 924 INTRA-LIGAND FREE ENERGY PREDICTED BY IDOCK:   -1.47 KCAL/MOL
REMARK 927      BINDING AFFINITY PREDICTED BY RF-SCORE:    0.00 PKD
ROOT
HETATM    1  N   UNK A   1     -13.022  11.204  71.361  1.00  0.00    -0.424 NA 
HETATM    2  H2  UNK A   1     -13.037  11.554  72.319  1.00  0.00     0.000 HD 
HETATM    3  C   UNK A   1     -12.307   9.940  71.247  1.00  0.00    -0.381 C  
HETATM    4  H1  UNK A   1     -12.623  11.881  70.710  1.00  0.00     0.000 HD 
ENDROOT
BRANCH   3   5
HETATM    5  C   UNK A   1     -12.903   8.928  72.220  1.00  0.00    -0.475 C  
BRANCH   5   6
HETATM    6  C   UNK A   1     -11.903   7.827  72.592  1.00  0.00    -0.317 C  
BRANCH   6   7
HETATM    7  C   UNK A   1     -11.935   6.730  71.523  1.00  0.00    -0.396 C  
BRANCH   7   8
HETATM    8  C   UNK A   1     -10.619   6.494  70.762  1.00  0.00    -0.231 C  
BRANCH   8   9
HETATM    9  N   UNK A   1     -10.773   6.455  69.275  1.00  0.00    -0.259 NA 
HETATM   10  H   UNK A   1     -11.751   6.592  69.018  1.00  0.00     0.000 HD 
BRANCH   9  11
HETATM   11  C   UNK A   1      -9.901   7.416  68.528  1.00  0.00    -0.159 C  
HETATM   12  C   UNK A   1     -10.531   7.638  67.140  1.00  0.00    -0.342 C  
HETATM   13  O   UNK A   1     -10.380   8.641  66.458  1.00  0.00    -0.282 OA 
HETATM   14  O   UNK A   1     -11.277   6.578  66.744  1.00  0.00    -0.334 OA 
BRANCH  11  15
HETATM   15  C   UNK A   1      -8.462   6.884  68.353  1.00  0.00    -0.123 C  
BRANCH  15  16
HETATM   16  C   UNK A   1      -8.309   5.936  67.151  1.00  0.00    -0.105 C  
BRANCH  16  17
HETATM   17  C   UNK A   1      -8.208   4.483  67.558  1.00  0.00    -0.100 A  
HETATM   18  C   UNK A   1      -9.269   3.603  67.305  1.00  0.00    -0.215 A  
HETATM   19  C   UNK A   1      -8.039   1.780  68.304  1.00  0.00    -0.067 A  
HETATM   20  C   UNK A   1      -9.183   2.259  67.675  1.00  0.00    -0.207 A  
HETATM   21  C   UNK A   1      -6.970   2.640  68.549  1.00  0.00    -0.047 A  
HETATM   22  C   UNK A   1      -7.052   3.983  68.178  1.00  0.00    -0.059 A  
ENDBRANCH  16  17
ENDBRANCH  15  16
ENDBRANCH  11  15
ENDBRANCH   9  11
ENDBRANCH   8   9
BRANCH   8  23
HETATM   23  C   UNK A   1      -9.874   5.185  71.208  1.00  0.00    -0.177 C  
ATOM     24  OXT PRO A   2      -8.285   8.652  73.389  1.00  0.00    -0.408 OA 
HETATM   25  O   UNK A   1     -10.121   4.112  70.655  1.00  0.00    -0.167 OA 
ATOM     26  N   PRO A   2      -8.885   5.277  72.188  1.00  0.00    -0.130 N  
ATOM     27  CD  PRO A   2      -8.081   4.115  72.552  1.00  0.00    -0.095 C  
ATOM     28  O   PRO A   2      -7.313   7.418  71.763  1.00  0.00    -0.076 OA 
ATOM     29  C   PRO A   2      -8.151   7.583  72.814  1.00  0.00    -0.109 C  
ATOM     30  CA  PRO A   2      -8.836   6.290  73.254  1.00  0.00    -0.125 C  
ATOM     31  CB  PRO A   2      -8.043   5.648  74.397  1.00  0.00    -0.103 C  
ATOM     32  CG  PRO A   2      -8.001   4.162  74.066  1.00  0.00    -0.084 C  
ENDBRANCH   8  23
ENDBRANCH   7   8
ENDBRANCH   6   7
ENDBRANCH   5   6
ENDBRANCH   3   5
TORSDOF 10
ENDMDL
MODEL      235
REMARK 921   NORMALIZED FREE ENERGY PREDICTED BY IDOCK:   -3.48 KCAL/MOL
REMARK 922        TOTAL FREE ENERGY PREDICTED BY IDOCK:   -7.46 KCAL/MOL
REMARK 923 INTER-LIGAND FREE ENERGY PREDICTED BY IDOCK:   -7.20 KCAL/MOL
REMARK 924 INTRA-LIGAND FREE ENERGY PREDICTED BY IDOCK:   -0.26 KCAL/MOL
REMARK 927      BINDING AFFINITY PREDICTED BY RF-SCORE:    0.00 PKD
ROOT
HETATM    1  N   UNK A   1     -13.280  10.315  71.734  1.00  0.00    -0.430 NA 
HETATM    2  H2  UNK A   1     -12.728   9.617  72.233  1.00  0.00     0.000 HD 
HETATM    3  C   UNK A   1     -12.467  11.124  70.836  1.00  0.00    -0.409 C  
HETATM    4  H1  UNK A   1     -13.796  10.924  72.370  1.00  0.00     0.000 HD 
ENDROOT
BRANCH   3   5
HETATM    5  C   UNK A   1     -11.697  10.213  69.886  1.00  0.00    -0.248 C  
BRANCH   5   6
HETATM    6  C   UNK A   1     -10.361  10.830  69.452  1.00  0.00    -0.207 C  
BRANCH   6   7
HETATM    7  C   UNK A   1     -10.290  10.862  67.922  1.00  0.00    -0.216 C  
BRANCH   7   8
HETATM    8  C   UNK A   1      -9.534  12.052  67.308  1.00  0.00    -0.181 C  
BRANCH   8   9
HETATM    9  N   UNK A   1      -9.742  12.213  65.836  1.00  0.00    -0.243 NA 
HETATM   10  H   UNK A   1      -9.823  11.300  65.389  1.00  0.00     0.000 HD 
BRANCH   9  11
HETATM   11  C   UNK A   1     -10.903  13.080  65.457  1.00  0.00    -0.278 C  
HETATM   12  C   UNK A   1     -11.673  12.366  64.330  1.00  0.00    -0.380 C  
HETATM   13  O   UNK A   1     -12.860  12.521  64.090  1.00  0.00    -0.705 OA 
HETATM   14  O   UNK A   1     -10.873  11.538  63.613  1.00  0.00    -0.374 OA 
BRANCH  11  15
HETATM   15  C   UNK A   1     -10.454  14.473  64.962  1.00  0.00    -0.454 C  
BRANCH  15  16
HETATM   16  C   UNK A   1     -11.033  15.628  65.796  1.00  0.00    -0.250 C  
BRANCH  16  17
HETATM   17  C   UNK A   1     -10.867  15.418  67.284  1.00  0.00    -0.316 A  
HETATM   18  C   UNK A   1     -11.732  14.560  67.977  1.00  0.00    -0.373 A  
HETATM   19  C   UNK A   1     -10.573  15.012  70.049  1.00  0.00    -0.178 A  
HETATM   20  C   UNK A   1     -11.583  14.357  69.351  1.00  0.00    -0.349 A  
HETATM   21  C   UNK A   1      -9.697  15.856  69.370  1.00  0.00    -0.268 A  
HETATM   22  C   UNK A   1      -9.841  16.058  67.997  1.00  0.00    -0.222 A  
ENDBRANCH  16  17
ENDBRANCH  15  16
ENDBRANCH  11  15
ENDBRANCH   9  11
ENDBRANCH   8   9
BRANCH   8  23
HETATM   23  C   UNK A   1      -7.987  12.007  67.579  1.00  0.00    -0.159 C  
ATOM     24  OXT PRO A   2      -9.112   8.885  64.699  1.00  0.00    -0.089 OA 
HETATM   25  O   UNK A   1      -7.483  12.754  68.419  1.00  0.00    -0.112 OA 
ATOM     26  N   PRO A   2      -7.215  11.062  66.903  1.00  0.00    -0.125 N  
ATOM     27  CD  PRO A   2      -5.797  10.898  67.206  1.00  0.00    -0.049 C  
ATOM     28  O   PRO A   2      -8.452   8.674  66.851  1.00  0.00    -0.110 OA 
ATOM     29  C   PRO A   2      -8.463   9.296  65.648  1.00  0.00    -0.139 C  
ATOM     30  CA  PRO A   2      -7.525  10.500  65.578  1.00  0.00    -0.111 C  
ATOM     31  CB  PRO A   2      -6.179  10.073  64.986  1.00  0.00    -0.115 C  
ATOM     32  CG  PRO A   2      -5.128  10.755  65.852  1.00  0.00    -0.107 C  
ENDBRANCH   8  23
ENDBRANCH   7   8
ENDBRANCH   6   7
ENDBRANCH   5   6
ENDBRANCH   3   5
TORSDOF 10
ENDMDL
MODEL      236
REMARK 921   NORMALIZED FREE ENERGY PREDICTED BY IDOCK:   -3.47 KCAL/MOL
REMARK 922        TOTAL FREE ENERGY PREDICTED BY IDOCK:   -7.45 KCAL/MOL
REMARK 923 INTER-LIGAND FREE ENERGY PREDICTED BY IDOCK:   -5.92 KCAL/MOL
REMARK 924 INTRA-LIGAND FREE ENERGY PREDICTED BY IDOCK:   -1.53 KCAL/MOL
REMARK 927      BINDING AFFINITY PREDICTED BY RF-SCORE:    0.00 PKD
ROOT
HETATM    1  N   UNK A   1     -11.731  12.516  62.831  1.00  0.00    -0.616 NA 
HETATM    2  H2  UNK A   1     -11.738  11.826  62.080  1.00  0.00     0.000 HD 
HETATM    3  C   UNK A   1     -11.576  11.901  64.143  1.00  0.00    -0.351 C  
HETATM    4  H1  UNK A   1     -12.568  13.100  62.825  1.00  0.00     0.000 HD 
ENDROOT
BRANCH   3   5
HETATM    5  C   UNK A   1     -10.326  11.028  64.152  1.00  0.00    -0.434 C  
BRANCH   5   6
HETATM    6  C   UNK A   1     -10.383   9.950  65.242  1.00  0.00     0.070 C  
BRANCH   6   7
HETATM    7  C   UNK A   1      -9.389  10.299  66.354  1.00  0.00    -0.201 C  
BRANCH   7   8
HETATM    8  C   UNK A   1      -9.998  10.580  67.738  1.00  0.00    -0.171 C  
BRANCH   8   9
HETATM    9  N   UNK A   1     -10.602   9.380  68.394  1.00  0.00    -0.290 NA 
HETATM   10  H   UNK A   1     -11.404   9.050  67.857  1.00  0.00     0.000 HD 
BRANCH   9  11
HETATM   11  C   UNK A   1      -9.647   8.254  68.644  1.00  0.00    -0.149 C  
HETATM   12  C   UNK A   1     -10.160   7.468  69.866  1.00  0.00    -0.193 C  
HETATM   13  O   UNK A   1      -9.928   6.288  70.083  1.00  0.00    -0.168 OA 
HETATM   14  O   UNK A   1     -10.903   8.243  70.695  1.00  0.00    -0.227 OA 
BRANCH  11  15
HETATM   15  C   UNK A   1      -8.214   8.756  68.929  1.00  0.00    -0.118 C  
BRANCH  15  16
HETATM   16  C   UNK A   1      -7.124   7.796  68.421  1.00  0.00    -0.077 C  
BRANCH  16  17
HETATM   17  C   UNK A   1      -7.099   7.682  66.913  1.00  0.00    -0.084 A  
HETATM   18  C   UNK A   1      -7.958   6.790  66.257  1.00  0.00    -0.108 A  
HETATM   19  C   UNK A   1      -7.069   7.459  64.112  1.00  0.00    -0.070 A  
HETATM   20  C   UNK A   1      -7.943   6.682  64.865  1.00  0.00    -0.121 A  
HETATM   21  C   UNK A   1      -6.220   8.362  64.750  1.00  0.00    -0.064 A  
HETATM   22  C   UNK A   1      -6.235   8.475  66.141  1.00  0.00    -0.052 A  
ENDBRANCH  16  17
ENDBRANCH  15  16
ENDBRANCH  11  15
ENDBRANCH   9  11
ENDBRANCH   8   9
BRANCH   8  23
HETATM   23  C   UNK A   1     -11.080  11.719  67.716  1.00  0.00    -0.243 C  
ATOM     24  OXT PRO A   2      -7.084  13.410  67.025  1.00  0.00     0.017 OA 
HETATM   25  O   UNK A   1     -12.257  11.460  67.969  1.00  0.00    -0.607 OA 
ATOM     26  N   PRO A   2     -10.668  13.031  67.476  1.00  0.00    -0.236 N  
ATOM     27  CD  PRO A   2     -11.612  14.140  67.564  1.00  0.00    -0.367 C  
ATOM     28  O   PRO A   2      -8.420  13.594  68.840  1.00  0.00    -0.004 OA 
ATOM     29  C   PRO A   2      -8.203  13.447  67.511  1.00  0.00    -0.185 C  
ATOM     30  CA  PRO A   2      -9.489  13.421  66.686  1.00  0.00    -0.260 C  
ATOM     31  CB  PRO A   2      -9.793  14.826  66.157  1.00  0.00    -0.335 C  
ATOM     32  CG  PRO A   2     -11.290  15.014  66.367  1.00  0.00    -0.275 C  
ENDBRANCH   8  23
ENDBRANCH   7   8
ENDBRANCH   6   7
ENDBRANCH   5   6
ENDBRANCH   3   5
TORSDOF 10
ENDMDL
MODEL      237
REMARK 921   NORMALIZED FREE ENERGY PREDICTED BY IDOCK:   -3.45 KCAL/MOL
REMARK 922        TOTAL FREE ENERGY PREDICTED BY IDOCK:   -7.42 KCAL/MOL
REMARK 923 INTER-LIGAND FREE ENERGY PREDICTED BY IDOCK:   -6.39 KCAL/MOL
REMARK 924 INTRA-LIGAND FREE ENERGY PREDICTED BY IDOCK:   -1.03 KCAL/MOL
REMARK 927      BINDING AFFINITY PREDICTED BY RF-SCORE:    0.00 PKD
ROOT
HETATM    1  N   UNK A   1      -5.307  13.593  67.286  1.00  0.00    -0.279 NA 
HETATM    2  H2  UNK A   1      -6.024  13.235  66.655  1.00  0.00     0.000 HD 
HETATM    3  C   UNK A   1      -5.422  13.033  68.626  1.00  0.00    -0.070 C  
HETATM    4  H1  UNK A   1      -5.316  14.612  67.340  1.00  0.00     0.000 HD 
ENDROOT
BRANCH   3   5
HETATM    5  C   UNK A   1      -5.408  11.510  68.545  1.00  0.00    -0.042 C  
BRANCH   5   6
HETATM    6  C   UNK A   1      -6.788  10.939  68.196  1.00  0.00    -0.067 C  
BRANCH   6   7
HETATM    7  C   UNK A   1      -7.842  12.043  68.320  1.00  0.00    -0.145 C  
BRANCH   7   8
HETATM    8  C   UNK A   1      -9.063  11.916  67.393  1.00  0.00    -0.178 C  
BRANCH   8   9
HETATM    9  N   UNK A   1      -8.764  11.278  66.075  1.00  0.00    -0.241 NA 
HETATM   10  H   UNK A   1      -7.831  11.543  65.758  1.00  0.00     0.000 HD 
BRANCH   9  11
HETATM   11  C   UNK A   1      -8.916   9.789  66.047  1.00  0.00    -0.155 C  
HETATM   12  C   UNK A   1      -8.494   9.300  64.649  1.00  0.00    -0.178 C  
HETATM   13  O   UNK A   1      -8.064   8.184  64.401  1.00  0.00    -0.151 OA 
HETATM   14  O   UNK A   1      -8.662  10.258  63.703  1.00  0.00    -0.176 OA 
BRANCH  11  15
HETATM   15  C   UNK A   1     -10.370   9.346  66.322  1.00  0.00    -0.211 C  
BRANCH  15  16
HETATM   16  C   UNK A   1     -10.553   8.688  67.700  1.00  0.00    -0.272 C  
BRANCH  16  17
HETATM   17  C   UNK A   1     -10.295   7.199  67.679  1.00  0.00    -0.276 A  
HETATM   18  C   UNK A   1     -10.494   6.464  66.502  1.00  0.00    -0.150 A  
HETATM   19  C   UNK A   1      -9.818   4.430  67.617  1.00  0.00    -0.168 A  
HETATM   20  C   UNK A   1     -10.255   5.088  66.472  1.00  0.00    -0.307 A  
HETATM   21  C   UNK A   1      -9.602   5.151  68.790  1.00  0.00    -0.198 A  
HETATM   22  C   UNK A   1      -9.837   6.526  68.822  1.00  0.00    -0.146 A  
ENDBRANCH  16  17
ENDBRANCH  15  16
ENDBRANCH  11  15
ENDBRANCH   9  11
ENDBRANCH   8   9
BRANCH   8  23
HETATM   23  C   UNK A   1      -9.777  13.288  67.120  1.00  0.00    -0.236 C  
ATOM     24  OXT PRO A   2     -11.732  11.201  70.456  1.00  0.00    -0.333 OA 
HETATM   25  O   UNK A   1      -9.427  13.991  66.171  1.00  0.00    -0.263 OA 
ATOM     26  N   PRO A   2     -10.853  13.657  67.928  1.00  0.00    -0.246 N  
ATOM     27  CD  PRO A   2     -11.626  14.861  67.643  1.00  0.00    -0.339 C  
ATOM     28  O   PRO A   2     -12.489  11.565  68.357  1.00  0.00    -0.319 OA 
ATOM     29  C   PRO A   2     -11.758  11.891  69.450  1.00  0.00    -0.339 C  
ATOM     30  CA  PRO A   2     -11.050  13.240  69.326  1.00  0.00    -0.153 C  
ATOM     31  CB  PRO A   2     -11.907  14.335  69.967  1.00  0.00    -0.378 C  
ATOM     32  CG  PRO A   2     -11.843  15.508  68.997  1.00  0.00    -0.373 C  
ENDBRANCH   8  23
ENDBRANCH   7   8
ENDBRANCH   6   7
ENDBRANCH   5   6
ENDBRANCH   3   5
TORSDOF 10
ENDMDL
MODEL      238
REMARK 921   NORMALIZED FREE ENERGY PREDICTED BY IDOCK:   -3.44 KCAL/MOL
REMARK 922        TOTAL FREE ENERGY PREDICTED BY IDOCK:   -7.41 KCAL/MOL
REMARK 923 INTER-LIGAND FREE ENERGY PREDICTED BY IDOCK:   -5.75 KCAL/MOL
REMARK 924 INTRA-LIGAND FREE ENERGY PREDICTED BY IDOCK:   -1.65 KCAL/MOL
REMARK 927      BINDING AFFINITY PREDICTED BY RF-SCORE:    0.00 PKD
ROOT
HETATM    1  N   UNK A   1      -7.630  11.371  66.107  1.00  0.00    -0.367 NA 
HETATM    2  H2  UNK A   1      -7.925  12.194  66.632  1.00  0.00     0.000 HD 
HETATM    3  C   UNK A   1      -6.360  10.840  66.583  1.00  0.00    -0.103 C  
HETATM    4  H1  UNK A   1      -7.569  11.555  65.105  1.00  0.00     0.000 HD 
ENDROOT
BRANCH   3   5
HETATM    5  C   UNK A   1      -6.451  10.565  68.080  1.00  0.00    -0.059 C  
BRANCH   5   6
HETATM    6  C   UNK A   1      -6.020   9.136  68.431  1.00  0.00    -0.045 C  
BRANCH   6   7
HETATM    7  C   UNK A   1      -6.858   8.627  69.609  1.00  0.00    -0.046 C  
BRANCH   7   8
HETATM    8  C   UNK A   1      -8.146   7.871  69.241  1.00  0.00    -0.126 C  
BRANCH   8   9
HETATM    9  N   UNK A   1      -8.965   7.453  70.420  1.00  0.00    -0.150 NA 
HETATM   10  H   UNK A   1      -8.542   7.794  71.283  1.00  0.00     0.000 HD 
BRANCH   9  11
HETATM   11  C   UNK A   1     -10.407   7.853  70.357  1.00  0.00    -0.212 C  
HETATM   12  C   UNK A   1     -10.640   8.935  71.428  1.00  0.00    -0.303 C  
HETATM   13  O   UNK A   1     -11.515   9.787  71.380  1.00  0.00    -0.371 OA 
HETATM   14  O   UNK A   1      -9.760   8.834  72.455  1.00  0.00    -0.283 OA 
BRANCH  11  15
HETATM   15  C   UNK A   1     -11.355   6.663  70.624  1.00  0.00    -0.401 C  
BRANCH  15  16
HETATM   16  C   UNK A   1     -11.447   6.284  72.112  1.00  0.00    -0.354 C  
BRANCH  16  17
HETATM   17  C   UNK A   1     -10.875   4.915  72.406  1.00  0.00    -0.204 A  
HETATM   18  C   UNK A   1     -10.072   4.267  71.458  1.00  0.00    -0.205 A  
HETATM   19  C   UNK A   1      -9.800   2.374  72.934  1.00  0.00    -0.180 A  
HETATM   20  C   UNK A   1      -9.537   3.004  71.722  1.00  0.00    -0.224 A  
HETATM   21  C   UNK A   1     -10.584   3.013  73.892  1.00  0.00    -0.267 A  
HETATM   22  C   UNK A   1     -11.117   4.276  73.632  1.00  0.00    -0.351 A  
ENDBRANCH  16  17
ENDBRANCH  15  16
ENDBRANCH  11  15
ENDBRANCH   9  11
ENDBRANCH   8   9
BRANCH   8  23
HETATM   23  C   UNK A   1      -7.886   6.602  68.354  1.00  0.00    -0.107 C  
ATOM     24  OXT PRO A   2     -10.076   9.635  66.051  1.00  0.00    -0.283 OA 
HETATM   25  O   UNK A   1      -7.352   5.604  68.842  1.00  0.00    -0.078 OA 
ATOM     26  N   PRO A   2      -8.332   6.603  67.032  1.00  0.00    -0.113 N  
ATOM     27  CD  PRO A   2      -8.222   5.408  66.202  1.00  0.00    -0.111 C  
ATOM     28  O   PRO A   2     -10.802   7.652  66.857  1.00  0.00    -0.328 OA 
ATOM     29  C   PRO A   2      -9.847   8.479  66.372  1.00  0.00    -0.257 C  
ATOM     30  CA  PRO A   2      -8.490   7.800  66.190  1.00  0.00    -0.138 C  
ATOM     31  CB  PRO A   2      -8.347   7.310  64.745  1.00  0.00     0.011 C  
ATOM     32  CG  PRO A   2      -7.743   5.917  64.857  1.00  0.00    -0.097 C  
ENDBRANCH   8  23
ENDBRANCH   7   8
ENDBRANCH   6   7
ENDBRANCH   5   6
ENDBRANCH   3   5
TORSDOF 10
ENDMDL
MODEL      239
REMARK 921   NORMALIZED FREE ENERGY PREDICTED BY IDOCK:   -3.40 KCAL/MOL
REMARK 922        TOTAL FREE ENERGY PREDICTED BY IDOCK:   -7.35 KCAL/MOL
REMARK 923 INTER-LIGAND FREE ENERGY PREDICTED BY IDOCK:   -6.52 KCAL/MOL
REMARK 924 INTRA-LIGAND FREE ENERGY PREDICTED BY IDOCK:   -0.82 KCAL/MOL
REMARK 927      BINDING AFFINITY PREDICTED BY RF-SCORE:    0.00 PKD
ROOT
HETATM    1  N   UNK A   1     -10.962  11.022  62.830  1.00  0.00    -0.741 NA 
HETATM    2  H2  UNK A   1     -10.300  10.933  63.601  1.00  0.00     0.000 HD 
HETATM    3  C   UNK A   1     -12.224  11.614  63.254  1.00  0.00    -0.152 C  
HETATM    4  H1  UNK A   1     -11.142  10.128  62.373  1.00  0.00     0.000 HD 
ENDROOT
BRANCH   3   5
HETATM    5  C   UNK A   1     -11.955  12.950  63.938  1.00  0.00    -0.550 C  
BRANCH   5   6
HETATM    6  C   UNK A   1     -12.326  12.921  65.426  1.00  0.00    -0.538 C  
BRANCH   6   7
HETATM    7  C   UNK A   1     -11.227  13.614  66.238  1.00  0.00    -0.313 C  
BRANCH   7   8
HETATM    8  C   UNK A   1     -10.567  12.766  67.338  1.00  0.00    -0.229 C  
BRANCH   8   9
HETATM    9  N   UNK A   1     -10.299  11.351  66.939  1.00  0.00    -0.219 NA 
HETATM   10  H   UNK A   1     -10.581  11.197  65.971  1.00  0.00     0.000 HD 
BRANCH   9  11
HETATM   11  C   UNK A   1      -8.888  10.895  67.146  1.00  0.00    -0.135 C  
HETATM   12  C   UNK A   1      -8.436  10.174  65.862  1.00  0.00    -0.141 C  
HETATM   13  O   UNK A   1      -7.277  10.074  65.490  1.00  0.00    -0.119 OA 
HETATM   14  O   UNK A   1      -9.481   9.642  65.182  1.00  0.00    -0.256 OA 
BRANCH  11  15
HETATM   15  C   UNK A   1      -8.756   9.929  68.344  1.00  0.00    -0.120 C  
BRANCH  15  16
HETATM   16  C   UNK A   1      -7.489   9.059  68.283  1.00  0.00    -0.083 C  
BRANCH  16  17
HETATM   17  C   UNK A   1      -7.047   8.572  69.645  1.00  0.00    -0.052 A  
HETATM   18  C   UNK A   1      -5.941   7.719  69.765  1.00  0.00    -0.023 A  
HETATM   19  C   UNK A   1      -6.206   7.659  72.166  1.00  0.00    -0.039 A  
HETATM   20  C   UNK A   1      -5.523   7.268  71.019  1.00  0.00    -0.027 A  
HETATM   21  C   UNK A   1      -7.298   8.519  72.062  1.00  0.00    -0.110 A  
HETATM   22  C   UNK A   1      -7.716   8.974  70.811  1.00  0.00    -0.144 A  
ENDBRANCH  16  17
ENDBRANCH  15  16
ENDBRANCH  11  15
ENDBRANCH   9  11
ENDBRANCH   8   9
BRANCH   8  23
HETATM   23  C   UNK A   1     -11.386  12.748  68.679  1.00  0.00    -0.294 C  
ATOM     24  OXT PRO A   2      -9.503  16.676  68.107  1.00  0.00    -0.220 OA 
HETATM   25  O   UNK A   1     -11.926  11.709  69.060  1.00  0.00    -0.324 OA 
ATOM     26  N   PRO A   2     -11.428  13.906  69.455  1.00  0.00    -0.275 N  
ATOM     27  CD  PRO A   2     -12.072  13.908  70.764  1.00  0.00    -0.330 C  
ATOM     28  O   PRO A   2      -8.999  15.052  69.597  1.00  0.00    -0.123 OA 
ATOM     29  C   PRO A   2      -9.856  15.739  68.805  1.00  0.00    -0.214 C  
ATOM     30  CA  PRO A   2     -11.307  15.280  68.940  1.00  0.00    -0.305 C  
ATOM     31  CB  PRO A   2     -12.037  16.166  69.955  1.00  0.00     0.023 C  
ATOM     32  CG  PRO A   2     -12.857  15.205  70.805  1.00  0.00    -0.473 C  
ENDBRANCH   8  23
ENDBRANCH   7   8
ENDBRANCH   6   7
ENDBRANCH   5   6
ENDBRANCH   3   5
TORSDOF 10
ENDMDL
MODEL      240
REMARK 921   NORMALIZED FREE ENERGY PREDICTED BY IDOCK:   -3.40 KCAL/MOL
REMARK 922        TOTAL FREE ENERGY PREDICTED BY IDOCK:   -7.34 KCAL/MOL
REMARK 923 INTER-LIGAND FREE ENERGY PREDICTED BY IDOCK:   -5.88 KCAL/MOL
REMARK 924 INTRA-LIGAND FREE ENERGY PREDICTED BY IDOCK:   -1.46 KCAL/MOL
REMARK 927      BINDING AFFINITY PREDICTED BY RF-SCORE:    0.00 PKD
ROOT
HETATM    1  N   UNK A   1      -6.720  15.852  67.623  1.00  0.00    -0.154 NA 
HETATM    2  H2  UNK A   1      -7.412  15.977  68.362  1.00  0.00     0.000 HD 
HETATM    3  C   UNK A   1      -5.703  14.871  67.979  1.00  0.00    -0.139 C  
HETATM    4  H1  UNK A   1      -6.271  16.731  67.365  1.00  0.00     0.000 HD 
ENDROOT
BRANCH   3   5
HETATM    5  C   UNK A   1      -6.376  13.558  68.365  1.00  0.00    -0.093 C  
BRANCH   5   6
HETATM    6  C   UNK A   1      -6.314  12.524  67.234  1.00  0.00    -0.126 C  
BRANCH   6   7
HETATM    7  C   UNK A   1      -6.970  11.221  67.700  1.00  0.00    -0.085 C  
BRANCH   7   8
HETATM    8  C   UNK A   1      -8.508  11.215  67.732  1.00  0.00    -0.124 C  
BRANCH   8   9
HETATM    9  N   UNK A   1      -9.099  10.010  68.390  1.00  0.00    -0.119 NA 
HETATM   10  H   UNK A   1     -10.031  10.224  68.745  1.00  0.00     0.000 HD 
BRANCH   9  11
HETATM   11  C   UNK A   1      -9.140   8.783  67.534  1.00  0.00    -0.133 C  
HETATM   12  C   UNK A   1     -10.357   7.947  67.970  1.00  0.00    -0.209 C  
HETATM   13  O   UNK A   1     -10.956   7.160  67.253  1.00  0.00    -0.310 OA 
HETATM   14  O   UNK A   1     -10.694   8.174  69.264  1.00  0.00    -0.211 OA 
BRANCH  11  15
HETATM   15  C   UNK A   1      -7.860   7.929  67.677  1.00  0.00    -0.122 C  
BRANCH  15  16
HETATM   16  C   UNK A   1      -7.298   7.449  66.328  1.00  0.00    -0.082 C  
BRANCH  16  17
HETATM   17  C   UNK A   1      -7.880   6.125  65.887  1.00  0.00    -0.107 A  
HETATM   18  C   UNK A   1      -8.134   5.117  66.826  1.00  0.00    -0.108 A  
HETATM   19  C   UNK A   1      -8.965   3.660  65.087  1.00  0.00    -0.133 A  
HETATM   20  C   UNK A   1      -8.675   3.893  66.427  1.00  0.00    -0.115 A  
HETATM   21  C   UNK A   1      -8.732   4.659  64.144  1.00  0.00    -0.145 A  
HETATM   22  C   UNK A   1      -8.194   5.885  64.540  1.00  0.00    -0.110 A  
ENDBRANCH  16  17
ENDBRANCH  15  16
ENDBRANCH  11  15
ENDBRANCH   9  11
ENDBRANCH   8   9
BRANCH   8  23
HETATM   23  C   UNK A   1      -9.155  11.361  66.308  1.00  0.00    -0.202 C  
ATOM     24  OXT PRO A   2     -11.825  13.042  69.365  1.00  0.00    -0.306 OA 
HETATM   25  O   UNK A   1      -8.597  10.878  65.321  1.00  0.00    -0.172 OA 
ATOM     26  N   PRO A   2     -10.400  11.981  66.197  1.00  0.00    -0.219 N  
ATOM     27  CD  PRO A   2     -11.099  12.035  64.918  1.00  0.00    -0.316 C  
ATOM     28  O   PRO A   2     -12.059  11.154  68.146  1.00  0.00    -0.633 OA 
ATOM     29  C   PRO A   2     -11.619  12.420  68.336  1.00  0.00    -0.324 C  
ATOM     30  CA  PRO A   2     -10.922  13.011  67.111  1.00  0.00    -0.269 C  
ATOM     31  CB  PRO A   2     -11.925  13.824  66.287  1.00  0.00    -0.462 C  
ATOM     32  CG  PRO A   2     -11.646  13.447  64.838  1.00  0.00    -0.354 C  
ENDBRANCH   8  23
ENDBRANCH   7   8
ENDBRANCH   6   7
ENDBRANCH   5   6
ENDBRANCH   3   5
TORSDOF 10
ENDMDL
MODEL      241
REMARK 921   NORMALIZED FREE ENERGY PREDICTED BY IDOCK:   -3.39 KCAL/MOL
REMARK 922        TOTAL FREE ENERGY PREDICTED BY IDOCK:   -7.33 KCAL/MOL
REMARK 923 INTER-LIGAND FREE ENERGY PREDICTED BY IDOCK:   -6.44 KCAL/MOL
REMARK 924 INTRA-LIGAND FREE ENERGY PREDICTED BY IDOCK:   -0.90 KCAL/MOL
REMARK 927      BINDING AFFINITY PREDICTED BY RF-SCORE:    0.00 PKD
ROOT
HETATM    1  N   UNK A   1      -7.399  10.743  63.858  1.00  0.00    -0.323 NA 
HETATM    2  H2  UNK A   1      -7.601  11.698  64.156  1.00  0.00     0.000 HD 
HETATM    3  C   UNK A   1      -7.854   9.755  64.828  1.00  0.00    -0.134 C  
HETATM    4  H1  UNK A   1      -6.407  10.601  63.667  1.00  0.00     0.000 HD 
ENDROOT
BRANCH   3   5
HETATM    5  C   UNK A   1      -9.336   9.967  65.114  1.00  0.00    -0.302 C  
BRANCH   5   6
HETATM    6  C   UNK A   1      -9.841   9.063  66.245  1.00  0.00    -0.361 C  
BRANCH   6   7
HETATM    7  C   UNK A   1     -10.716   9.882  67.200  1.00  0.00    -0.276 C  
BRANCH   7   8
HETATM    8  C   UNK A   1      -9.965  10.722  68.247  1.00  0.00    -0.168 C  
BRANCH   8   9
HETATM    9  N   UNK A   1      -9.097   9.921  69.163  1.00  0.00    -0.161 NA 
HETATM   10  H   UNK A   1      -8.650  10.529  69.849  1.00  0.00     0.000 HD 
BRANCH   9  11
HETATM   11  C   UNK A   1      -9.789   8.785  69.851  1.00  0.00    -0.184 C  
HETATM   12  C   UNK A   1      -9.412   8.842  71.343  1.00  0.00    -0.274 C  
HETATM   13  O   UNK A   1     -10.097   8.397  72.253  1.00  0.00    -0.263 OA 
HETATM   14  O   UNK A   1      -8.213   9.442  71.543  1.00  0.00    -0.274 OA 
BRANCH  11  15
HETATM   15  C   UNK A   1      -9.374   7.413  69.275  1.00  0.00    -0.154 C  
BRANCH  15  16
HETATM   16  C   UNK A   1     -10.523   6.392  69.255  1.00  0.00    -0.277 C  
BRANCH  16  17
HETATM   17  C   UNK A   1     -10.038   4.961  69.324  1.00  0.00    -0.248 A  
HETATM   18  C   UNK A   1      -9.778   4.246  68.147  1.00  0.00    -0.165 A  
HETATM   19  C   UNK A   1      -9.132   2.304  69.431  1.00  0.00    -0.180 A  
HETATM   20  C   UNK A   1      -9.326   2.926  68.202  1.00  0.00    -0.258 A  
HETATM   21  C   UNK A   1      -9.371   3.008  70.609  1.00  0.00    -0.221 A  
HETATM   22  C   UNK A   1      -9.820   4.328  70.558  1.00  0.00    -0.269 A  
ENDBRANCH  16  17
ENDBRANCH  15  16
ENDBRANCH  11  15
ENDBRANCH   9  11
ENDBRANCH   8   9
BRANCH   8  23
HETATM   23  C   UNK A   1     -10.918  11.606  69.128  1.00  0.00    -0.219 C  
ATOM     24  OXT PRO A   2      -8.213  14.161  66.791  1.00  0.00    -0.053 OA 
HETATM   25  O   UNK A   1     -11.702  11.076  69.917  1.00  0.00    -0.283 OA 
ATOM     26  N   PRO A   2     -10.809  12.995  69.048  1.00  0.00    -0.201 N  
ATOM     27  CD  PRO A   2     -11.586  13.859  69.931  1.00  0.00    -0.241 C  
ATOM     28  O   PRO A   2      -8.229  13.753  69.015  1.00  0.00     0.024 OA 
ATOM     29  C   PRO A   2      -8.830  13.886  67.809  1.00  0.00    -0.189 C  
ATOM     30  CA  PRO A   2     -10.350  13.746  67.868  1.00  0.00    -0.244 C  
ATOM     31  CB  PRO A   2     -10.994  15.131  67.985  1.00  0.00    -0.295 C  
ATOM     32  CG  PRO A   2     -12.086  14.975  69.034  1.00  0.00    -0.243 C  
ENDBRANCH   8  23
ENDBRANCH   7   8
ENDBRANCH   6   7
ENDBRANCH   5   6
ENDBRANCH   3   5
TORSDOF 10
ENDMDL
MODEL      242
REMARK 921   NORMALIZED FREE ENERGY PREDICTED BY IDOCK:   -3.39 KCAL/MOL
REMARK 922        TOTAL FREE ENERGY PREDICTED BY IDOCK:   -7.33 KCAL/MOL
REMARK 923 INTER-LIGAND FREE ENERGY PREDICTED BY IDOCK:   -6.50 KCAL/MOL
REMARK 924 INTRA-LIGAND FREE ENERGY PREDICTED BY IDOCK:   -0.83 KCAL/MOL
REMARK 927      BINDING AFFINITY PREDICTED BY RF-SCORE:    0.00 PKD
ROOT
HETATM    1  N   UNK A   1     -11.150   5.364  66.039  1.00  0.00    -0.789 NA 
HETATM    2  H2  UNK A   1     -10.953   4.378  65.866  1.00  0.00     0.000 HD 
HETATM    3  C   UNK A   1     -10.253   5.938  67.034  1.00  0.00    -0.209 C  
HETATM    4  H1  UNK A   1     -12.118   5.520  66.322  1.00  0.00     0.000 HD 
ENDROOT
BRANCH   3   5
HETATM    5  C   UNK A   1      -8.807   5.705  66.611  1.00  0.00    -0.119 C  
BRANCH   5   6
HETATM    6  C   UNK A   1      -7.824   6.561  67.420  1.00  0.00    -0.112 C  
BRANCH   6   7
HETATM    7  C   UNK A   1      -8.283   6.618  68.880  1.00  0.00    -0.120 C  
BRANCH   7   8
HETATM    8  C   UNK A   1      -8.891   7.953  69.343  1.00  0.00    -0.145 C  
BRANCH   8   9
HETATM    9  N   UNK A   1      -8.517   9.122  68.489  1.00  0.00    -0.127 NA 
HETATM   10  H   UNK A   1      -7.540   9.053  68.206  1.00  0.00     0.000 HD 
BRANCH   9  11
HETATM   11  C   UNK A   1      -9.391   9.330  67.292  1.00  0.00    -0.131 C  
HETATM   12  C   UNK A   1      -8.601  10.179  66.277  1.00  0.00    -0.131 C  
HETATM   13  O   UNK A   1      -8.782  10.170  65.069  1.00  0.00    -0.153 OA 
HETATM   14  O   UNK A   1      -7.670  10.959  66.882  1.00  0.00    -0.122 OA 
BRANCH  11  15
HETATM   15  C   UNK A   1     -10.705  10.059  67.647  1.00  0.00    -0.340 C  
BRANCH  15  16
HETATM   16  C   UNK A   1     -10.495  11.275  68.566  1.00  0.00    -0.218 C  
BRANCH  16  17
HETATM   17  C   UNK A   1     -10.744  12.591  67.865  1.00  0.00    -0.239 A  
HETATM   18  C   UNK A   1      -9.696  13.503  67.681  1.00  0.00    -0.229 A  
HETATM   19  C   UNK A   1     -11.187  15.040  66.561  1.00  0.00    -0.312 A  
HETATM   20  C   UNK A   1      -9.917  14.719  67.031  1.00  0.00    -0.238 A  
HETATM   21  C   UNK A   1     -12.234  14.136  66.723  1.00  0.00    -0.429 A  
HETATM   22  C   UNK A   1     -12.016  12.919  67.369  1.00  0.00    -0.360 A  
ENDBRANCH  16  17
ENDBRANCH  15  16
ENDBRANCH  11  15
ENDBRANCH   9  11
ENDBRANCH   8   9
BRANCH   8  23
HETATM   23  C   UNK A   1      -8.544   8.306  70.833  1.00  0.00    -0.137 C  
ATOM     24  OXT PRO A   2     -12.494   6.398  70.612  1.00  0.00    -0.076 OA 
HETATM   25  O   UNK A   1      -7.509   8.920  71.099  1.00  0.00    -0.095 OA 
ATOM     26  N   PRO A   2      -9.458   7.974  71.833  1.00  0.00    -0.168 N  
ATOM     27  CD  PRO A   2      -9.240   8.386  73.216  1.00  0.00    -0.100 C  
ATOM     28  O   PRO A   2     -11.970   8.550  71.062  1.00  0.00    -0.284 OA 
ATOM     29  C   PRO A   2     -11.716   7.220  71.068  1.00  0.00    -0.307 C  
ATOM     30  CA  PRO A   2     -10.412   6.854  71.775  1.00  0.00    -0.203 C  
ATOM     31  CB  PRO A   2     -10.700   6.482  73.233  1.00  0.00    -0.300 C  
ATOM     32  CG  PRO A   2      -9.607   7.169  74.042  1.00  0.00    -0.311 C  
ENDBRANCH   8  23
ENDBRANCH   7   8
ENDBRANCH   6   7
ENDBRANCH   5   6
ENDBRANCH   3   5
TORSDOF 10
ENDMDL
MODEL      243
REMARK 921   NORMALIZED FREE ENERGY PREDICTED BY IDOCK:   -3.37 KCAL/MOL
REMARK 922        TOTAL FREE ENERGY PREDICTED BY IDOCK:   -7.30 KCAL/MOL
REMARK 923 INTER-LIGAND FREE ENERGY PREDICTED BY IDOCK:   -7.09 KCAL/MOL
REMARK 924 INTRA-LIGAND FREE ENERGY PREDICTED BY IDOCK:   -0.22 KCAL/MOL
REMARK 927      BINDING AFFINITY PREDICTED BY RF-SCORE:    0.00 PKD
ROOT
HETATM    1  N   UNK A   1     -13.281  11.670  72.000  1.00  0.00    -0.495 NA 
HETATM    2  H2  UNK A   1     -13.487  11.325  72.938  1.00  0.00     0.000 HD 
HETATM    3  C   UNK A   1     -12.302  10.840  71.310  1.00  0.00    -0.365 C  
HETATM    4  H1  UNK A   1     -12.962  12.639  72.008  1.00  0.00     0.000 HD 
ENDROOT
BRANCH   3   5
HETATM    5  C   UNK A   1     -12.779   9.392  71.299  1.00  0.00    -0.391 C  
BRANCH   5   6
HETATM    6  C   UNK A   1     -11.620   8.402  71.471  1.00  0.00    -0.338 C  
BRANCH   6   7
HETATM    7  C   UNK A   1     -11.116   7.964  70.092  1.00  0.00    -0.204 C  
BRANCH   7   8
HETATM    8  C   UNK A   1     -10.006   8.831  69.474  1.00  0.00    -0.195 C  
BRANCH   8   9
HETATM    9  N   UNK A   1      -9.829   8.638  68.003  1.00  0.00    -0.162 NA 
HETATM   10  H   UNK A   1     -10.134   7.704  67.730  1.00  0.00     0.000 HD 
BRANCH   9  11
HETATM   11  C   UNK A   1     -10.495   9.671  67.148  1.00  0.00    -0.249 C  
HETATM   12  C   UNK A   1      -9.723   9.748  65.818  1.00  0.00    -0.273 C  
HETATM   13  O   UNK A   1     -10.200  10.113  64.754  1.00  0.00    -0.296 OA 
HETATM   14  O   UNK A   1      -8.428   9.369  65.958  1.00  0.00    -0.119 OA 
BRANCH  11  15
HETATM   15  C   UNK A   1     -10.499  11.065  67.814  1.00  0.00    -0.232 C  
BRANCH  15  16
HETATM   16  C   UNK A   1     -11.770  11.877  67.512  1.00  0.00    -0.335 C  
BRANCH  16  17
HETATM   17  C   UNK A   1     -11.540  12.966  66.488  1.00  0.00    -0.425 A  
HETATM   18  C   UNK A   1     -12.613  13.468  65.738  1.00  0.00    -0.490 A  
HETATM   19  C   UNK A   1     -11.136  14.991  64.583  1.00  0.00    -0.335 A  
HETATM   20  C   UNK A   1     -12.411  14.476  64.793  1.00  0.00    -0.403 A  
HETATM   21  C   UNK A   1     -10.063  14.512  65.332  1.00  0.00    -0.394 A  
HETATM   22  C   UNK A   1     -10.262  13.507  66.279  1.00  0.00    -0.299 A  
ENDBRANCH  16  17
ENDBRANCH  15  16
ENDBRANCH  11  15
ENDBRANCH   9  11
ENDBRANCH   8   9
BRANCH   8  23
HETATM   23  C   UNK A   1      -8.609   8.629  70.164  1.00  0.00    -0.138 C  
ATOM     24  OXT PRO A   2      -9.219   5.584  67.057  1.00  0.00    -0.115 OA 
HETATM   25  O   UNK A   1      -8.281   9.336  71.118  1.00  0.00    -0.298 OA 
ATOM     26  N   PRO A   2      -7.785   7.594  69.721  1.00  0.00    -0.096 N  
ATOM     27  CD  PRO A   2      -6.533   7.288  70.405  1.00  0.00    -0.042 C  
ATOM     28  O   PRO A   2      -9.208   5.349  69.305  1.00  0.00    -0.112 OA 
ATOM     29  C   PRO A   2      -8.819   5.944  68.153  1.00  0.00    -0.110 C  
ATOM     30  CA  PRO A   2      -7.774   7.040  68.357  1.00  0.00    -0.120 C  
ATOM     31  CB  PRO A   2      -6.370   6.461  68.158  1.00  0.00    -0.040 C  
ATOM     32  CG  PRO A   2      -5.535   7.047  69.289  1.00  0.00    -0.015 C  
ENDBRANCH   8  23
ENDBRANCH   7   8
ENDBRANCH   6   7
ENDBRANCH   5   6
ENDBRANCH   3   5
TORSDOF 10
ENDMDL
MODEL      244
REMARK 921   NORMALIZED FREE ENERGY PREDICTED BY IDOCK:   -3.37 KCAL/MOL
REMARK 922        TOTAL FREE ENERGY PREDICTED BY IDOCK:   -7.29 KCAL/MOL
REMARK 923 INTER-LIGAND FREE ENERGY PREDICTED BY IDOCK:   -7.52 KCAL/MOL
REMARK 924 INTRA-LIGAND FREE ENERGY PREDICTED BY IDOCK:    0.22 KCAL/MOL
REMARK 927      BINDING AFFINITY PREDICTED BY RF-SCORE:    0.00 PKD
ROOT
HETATM    1  N   UNK A   1      -6.590   3.493  70.732  1.00  0.00    -0.031 NA 
HETATM    2  H2  UNK A   1      -5.629   3.576  71.066  1.00  0.00     0.000 HD 
HETATM    3  C   UNK A   1      -7.460   4.516  71.297  1.00  0.00    -0.067 C  
HETATM    4  H1  UNK A   1      -6.983   2.570  70.917  1.00  0.00     0.000 HD 
ENDROOT
BRANCH   3   5
HETATM    5  C   UNK A   1      -6.872   5.895  71.020  1.00  0.00    -0.065 C  
BRANCH   5   6
HETATM    6  C   UNK A   1      -7.598   6.612  69.875  1.00  0.00    -0.100 C  
BRANCH   6   7
HETATM    7  C   UNK A   1      -9.026   6.951  70.312  1.00  0.00    -0.152 C  
BRANCH   7   8
HETATM    8  C   UNK A   1      -9.279   8.416  70.708  1.00  0.00    -0.159 C  
BRANCH   8   9
HETATM    9  N   UNK A   1     -10.551   8.984  70.165  1.00  0.00    -0.216 NA 
HETATM   10  H   UNK A   1     -11.061   8.272  69.642  1.00  0.00     0.000 HD 
BRANCH   9  11
HETATM   11  C   UNK A   1     -11.445   9.613  71.188  1.00  0.00    -0.384 C  
HETATM   12  C   UNK A   1     -12.209   8.483  71.902  1.00  0.00    -0.352 C  
HETATM   13  O   UNK A   1     -12.656   8.552  73.037  1.00  0.00    -0.224 OA 
HETATM   14  O   UNK A   1     -12.343   7.384  71.118  1.00  0.00    -0.327 OA 
BRANCH  11  15
HETATM   15  C   UNK A   1     -12.460  10.590  70.555  1.00  0.00    -0.433 C  
BRANCH  15  16
HETATM   16  C   UNK A   1     -11.820  11.906  70.080  1.00  0.00    -0.407 C  
BRANCH  16  17
HETATM   17  C   UNK A   1     -12.483  13.128  70.674  1.00  0.00    -0.363 A  
HETATM   18  C   UNK A   1     -13.395  12.995  71.730  1.00  0.00    -0.468 A  
HETATM   19  C   UNK A   1     -13.723  15.388  71.793  1.00  0.00    -0.610 A  
HETATM   20  C   UNK A   1     -14.009  14.119  72.286  1.00  0.00    -0.646 A  
HETATM   21  C   UNK A   1     -12.807  15.537  70.754  1.00  0.00    -0.513 A  
HETATM   22  C   UNK A   1     -12.189  14.416  70.198  1.00  0.00    -0.401 A  
ENDBRANCH  16  17
ENDBRANCH  15  16
ENDBRANCH  11  15
ENDBRANCH   9  11
ENDBRANCH   8   9
BRANCH   8  23
HETATM   23  C   UNK A   1      -8.104   9.377  70.301  1.00  0.00    -0.164 C  
ATOM     24  OXT PRO A   2     -10.746   8.674  66.862  1.00  0.00    -0.252 OA 
HETATM   25  O   UNK A   1      -7.209   9.636  71.107  1.00  0.00    -0.328 OA 
ATOM     26  N   PRO A   2      -8.061   9.870  68.997  1.00  0.00    -0.103 N  
ATOM     27  CD  PRO A   2      -6.930  10.667  68.534  1.00  0.00    -0.067 C  
ATOM     28  O   PRO A   2      -8.641   7.933  67.222  1.00  0.00    -0.126 OA 
ATOM     29  C   PRO A   2      -9.644   8.832  67.363  1.00  0.00    -0.161 C  
ATOM     30  CA  PRO A   2      -9.232  10.087  68.131  1.00  0.00    -0.128 C  
ATOM     31  CB  PRO A   2      -8.817  11.184  67.145  1.00  0.00    -0.143 C  
ATOM     32  CG  PRO A   2      -7.556  11.797  67.739  1.00  0.00    -0.127 C  
ENDBRANCH   8  23
ENDBRANCH   7   8
ENDBRANCH   6   7
ENDBRANCH   5   6
ENDBRANCH   3   5
TORSDOF 10
ENDMDL
MODEL      245
REMARK 921   NORMALIZED FREE ENERGY PREDICTED BY IDOCK:   -3.37 KCAL/MOL
REMARK 922        TOTAL FREE ENERGY PREDICTED BY IDOCK:   -7.29 KCAL/MOL
REMARK 923 INTER-LIGAND FREE ENERGY PREDICTED BY IDOCK:   -6.97 KCAL/MOL
REMARK 924 INTRA-LIGAND FREE ENERGY PREDICTED BY IDOCK:   -0.32 KCAL/MOL
REMARK 927      BINDING AFFINITY PREDICTED BY RF-SCORE:    0.00 PKD
ROOT
HETATM    1  N   UNK A   1      -7.341   5.808  73.331  1.00  0.00    -0.090 NA 
HETATM    2  H2  UNK A   1      -6.664   6.299  72.746  1.00  0.00     0.000 HD 
HETATM    3  C   UNK A   1      -7.792   6.621  74.453  1.00  0.00    -0.110 C  
HETATM    4  H1  UNK A   1      -6.977   4.920  73.677  1.00  0.00     0.000 HD 
ENDROOT
BRANCH   3   5
HETATM    5  C   UNK A   1      -8.336   7.948  73.934  1.00  0.00    -0.300 C  
BRANCH   5   6
HETATM    6  C   UNK A   1      -8.203   8.069  72.411  1.00  0.00    -0.193 C  
BRANCH   6   7
HETATM    7  C   UNK A   1      -9.597   8.172  71.785  1.00  0.00    -0.249 C  
BRANCH   7   8
HETATM    8  C   UNK A   1      -9.864   9.428  70.937  1.00  0.00    -0.268 C  
BRANCH   8   9
HETATM    9  N   UNK A   1     -11.265   9.533  70.427  1.00  0.00    -0.257 NA 
HETATM   10  H   UNK A   1     -11.869   8.871  70.915  1.00  0.00     0.000 HD 
BRANCH   9  11
HETATM   11  C   UNK A   1     -11.853  10.908  70.484  1.00  0.00    -0.360 C  
HETATM   12  C   UNK A   1     -12.907  10.922  71.607  1.00  0.00    -0.449 C  
HETATM   13  O   UNK A   1     -13.250  11.916  72.229  1.00  0.00    -0.451 OA 
HETATM   14  O   UNK A   1     -13.430   9.691  71.829  1.00  0.00    -0.391 OA 
BRANCH  11  15
HETATM   15  C   UNK A   1     -12.526  11.311  69.152  1.00  0.00     0.084 C  
BRANCH  15  16
HETATM   16  C   UNK A   1     -11.526  11.482  67.996  1.00  0.00    -0.381 C  
BRANCH  16  17
HETATM   17  C   UNK A   1     -10.905  12.861  67.956  1.00  0.00    -0.261 A  
HETATM   18  C   UNK A   1     -11.451  13.904  68.717  1.00  0.00    -0.327 A  
HETATM   19  C   UNK A   1      -9.765  15.428  67.899  1.00  0.00    -0.207 A  
HETATM   20  C   UNK A   1     -10.882  15.178  68.689  1.00  0.00    -0.245 A  
HETATM   21  C   UNK A   1      -9.203  14.397  67.149  1.00  0.00    -0.230 A  
HETATM   22  C   UNK A   1      -9.767  13.121  67.177  1.00  0.00    -0.235 A  
ENDBRANCH  16  17
ENDBRANCH  15  16
ENDBRANCH  11  15
ENDBRANCH   9  11
ENDBRANCH   8   9
BRANCH   8  23
HETATM   23  C   UNK A   1      -8.888   9.566  69.714  1.00  0.00    -0.199 C  
ATOM     24  OXT PRO A   2     -11.523   6.093  69.167  1.00  0.00    -0.379 OA 
HETATM   25  O   UNK A   1      -8.015  10.435  69.713  1.00  0.00    -0.150 OA 
ATOM     26  N   PRO A   2      -8.987   8.646  68.670  1.00  0.00    -0.142 N  
ATOM     27  CD  PRO A   2      -8.030   8.656  67.569  1.00  0.00    -0.106 C  
ATOM     28  O   PRO A   2      -9.309   6.150  69.620  1.00  0.00    -0.144 OA 
ATOM     29  C   PRO A   2     -10.442   6.654  69.077  1.00  0.00    -0.214 C  
ATOM     30  CA  PRO A   2     -10.215   7.935  68.276  1.00  0.00    -0.203 C  
ATOM     31  CB  PRO A   2     -10.036   7.594  66.793  1.00  0.00    -0.325 C  
ATOM     32  CG  PRO A   2      -8.872   8.457  66.324  1.00  0.00    -0.190 C  
ENDBRANCH   8  23
ENDBRANCH   7   8
ENDBRANCH   6   7
ENDBRANCH   5   6
ENDBRANCH   3   5
TORSDOF 10
ENDMDL
MODEL      246
REMARK 921   NORMALIZED FREE ENERGY PREDICTED BY IDOCK:   -3.36 KCAL/MOL
REMARK 922        TOTAL FREE ENERGY PREDICTED BY IDOCK:   -7.27 KCAL/MOL
REMARK 923 INTER-LIGAND FREE ENERGY PREDICTED BY IDOCK:   -7.26 KCAL/MOL
REMARK 924 INTRA-LIGAND FREE ENERGY PREDICTED BY IDOCK:   -0.01 KCAL/MOL
REMARK 927      BINDING AFFINITY PREDICTED BY RF-SCORE:    0.00 PKD
ROOT
HETATM    1  N   UNK A   1      -8.312   3.907  64.509  1.00  0.00    -0.097 NA 
HETATM    2  H2  UNK A   1      -8.122   4.563  63.751  1.00  0.00     0.000 HD 
HETATM    3  C   UNK A   1      -7.660   4.299  65.752  1.00  0.00    -0.086 C  
HETATM    4  H1  UNK A   1      -8.042   2.953  64.270  1.00  0.00     0.000 HD 
ENDROOT
BRANCH   3   5
HETATM    5  C   UNK A   1      -8.062   5.726  66.111  1.00  0.00    -0.108 C  
BRANCH   5   6
HETATM    6  C   UNK A   1      -7.127   6.343  67.158  1.00  0.00    -0.073 C  
BRANCH   6   7
HETATM    7  C   UNK A   1      -7.953   6.832  68.352  1.00  0.00    -0.115 C  
BRANCH   7   8
HETATM    8  C   UNK A   1      -9.222   7.632  68.010  1.00  0.00    -0.137 C  
BRANCH   8   9
HETATM    9  N   UNK A   1      -9.144   9.081  68.370  1.00  0.00    -0.133 NA 
HETATM   10  H   UNK A   1      -8.205   9.438  68.199  1.00  0.00     0.000 HD 
BRANCH   9  11
HETATM   11  C   UNK A   1     -10.160   9.951  67.698  1.00  0.00    -0.197 C  
HETATM   12  C   UNK A   1      -9.671  10.218  66.262  1.00  0.00    -0.209 C  
HETATM   13  O   UNK A   1     -10.397  10.482  65.315  1.00  0.00    -0.287 OA 
HETATM   14  O   UNK A   1      -8.321  10.137  66.160  1.00  0.00    -0.125 OA 
BRANCH  11  15
HETATM   15  C   UNK A   1     -10.350  11.299  68.428  1.00  0.00    -0.207 C  
BRANCH  15  16
HETATM   16  C   UNK A   1     -11.805  11.556  68.857  1.00  0.00    -0.406 C  
BRANCH  16  17
HETATM   17  C   UNK A   1     -11.985  12.887  69.552  1.00  0.00    -0.346 A  
HETATM   18  C   UNK A   1     -11.662  14.079  68.890  1.00  0.00    -0.375 A  
HETATM   19  C   UNK A   1     -12.316  15.369  70.825  1.00  0.00    -0.447 A  
HETATM   20  C   UNK A   1     -11.828  15.312  69.523  1.00  0.00    -0.368 A  
HETATM   21  C   UNK A   1     -12.656  14.193  71.490  1.00  0.00    -0.434 A  
HETATM   22  C   UNK A   1     -12.493  12.959  70.859  1.00  0.00    -0.383 A  
ENDBRANCH  16  17
ENDBRANCH  15  16
ENDBRANCH  11  15
ENDBRANCH   9  11
ENDBRANCH   8   9
BRANCH   8  23
HETATM   23  C   UNK A   1     -10.521   7.036  68.661  1.00  0.00    -0.204 C  
ATOM     24  OXT PRO A   2      -8.160   9.181  71.682  1.00  0.00    -0.346 OA 
HETATM   25  O   UNK A   1     -11.280   6.330  67.995  1.00  0.00    -0.323 OA 
ATOM     26  N   PRO A   2     -10.758   7.264  70.017  1.00  0.00    -0.240 N  
ATOM     27  CD  PRO A   2     -11.885   6.635  70.697  1.00  0.00    -0.383 C  
ATOM     28  O   PRO A   2      -8.500   6.959  71.447  1.00  0.00    -0.118 OA 
ATOM     29  C   PRO A   2      -8.871   8.255  71.324  1.00  0.00    -0.156 C  
ATOM     30  CA  PRO A   2     -10.286   8.434  70.777  1.00  0.00    -0.195 C  
ATOM     31  CB  PRO A   2     -11.273   8.595  71.938  1.00  0.00    -0.413 C  
ATOM     32  CG  PRO A   2     -12.471   7.732  71.566  1.00  0.00    -0.348 C  
ENDBRANCH   8  23
ENDBRANCH   7   8
ENDBRANCH   6   7
ENDBRANCH   5   6
ENDBRANCH   3   5
TORSDOF 10
ENDMDL
MODEL      247
REMARK 921   NORMALIZED FREE ENERGY PREDICTED BY IDOCK:   -3.35 KCAL/MOL
REMARK 922        TOTAL FREE ENERGY PREDICTED BY IDOCK:   -7.27 KCAL/MOL
REMARK 923 INTER-LIGAND FREE ENERGY PREDICTED BY IDOCK:   -6.09 KCAL/MOL
REMARK 924 INTRA-LIGAND FREE ENERGY PREDICTED BY IDOCK:   -1.18 KCAL/MOL
REMARK 927      BINDING AFFINITY PREDICTED BY RF-SCORE:    0.00 PKD
ROOT
HETATM    1  N   UNK A   1      -9.008   5.608  67.235  1.00  0.00    -0.112 NA 
HETATM    2  H2  UNK A   1      -8.680   6.392  66.669  1.00  0.00     0.000 HD 
HETATM    3  C   UNK A   1      -9.649   6.049  68.467  1.00  0.00    -0.121 C  
HETATM    4  H1  UNK A   1      -8.258   4.953  67.456  1.00  0.00     0.000 HD 
ENDROOT
BRANCH   3   5
HETATM    5  C   UNK A   1     -10.770   7.029  68.136  1.00  0.00    -0.242 C  
BRANCH   5   6
HETATM    6  C   UNK A   1     -10.305   8.488  68.223  1.00  0.00    -0.246 C  
BRANCH   6   7
HETATM    7  C   UNK A   1     -10.425   9.143  66.844  1.00  0.00    -0.287 C  
BRANCH   7   8
HETATM    8  C   UNK A   1      -9.674  10.473  66.663  1.00  0.00    -0.189 C  
BRANCH   8   9
HETATM    9  N   UNK A   1     -10.515  11.686  66.901  1.00  0.00    -0.220 NA 
HETATM   10  H   UNK A   1     -11.494  11.483  66.696  1.00  0.00     0.000 HD 
BRANCH   9  11
HETATM   11  C   UNK A   1     -10.386  12.283  68.268  1.00  0.00    -0.221 C  
HETATM   12  C   UNK A   1     -11.465  11.644  69.162  1.00  0.00    -0.300 C  
HETATM   13  O   UNK A   1     -11.388  11.534  70.377  1.00  0.00    -0.121 OA 
HETATM   14  O   UNK A   1     -12.533  11.217  68.445  1.00  0.00    -0.390 OA 
BRANCH  11  15
HETATM   15  C   UNK A   1     -10.579  13.815  68.257  1.00  0.00    -0.262 C  
BRANCH  15  16
HETATM   16  C   UNK A   1      -9.947  14.497  67.031  1.00  0.00    -0.255 C  
BRANCH  16  17
HETATM   17  C   UNK A   1     -10.113  16.000  67.045  1.00  0.00    -0.271 A  
HETATM   18  C   UNK A   1     -10.280  16.704  65.845  1.00  0.00    -0.358 A  
HETATM   19  C   UNK A   1     -10.427  18.792  67.051  1.00  0.00    -0.474 A  
HETATM   20  C   UNK A   1     -10.438  18.091  65.849  1.00  0.00    -0.268 A  
HETATM   21  C   UNK A   1     -10.277  18.104  68.253  1.00  0.00    -0.402 A  
HETATM   22  C   UNK A   1     -10.122  16.717  68.252  1.00  0.00    -0.274 A  
ENDBRANCH  16  17
ENDBRANCH  15  16
ENDBRANCH  11  15
ENDBRANCH   9  11
ENDBRANCH   8   9
BRANCH   8  23
HETATM   23  C   UNK A   1      -9.001  10.616  65.251  1.00  0.00    -0.190 C  
ATOM     24  OXT PRO A   2      -6.705   7.824  67.747  1.00  0.00    -0.063 OA 
HETATM   25  O   UNK A   1      -9.451  11.415  64.428  1.00  0.00    -0.212 OA 
ATOM     26  N   PRO A   2      -7.852   9.874  64.977  1.00  0.00    -0.126 N  
ATOM     27  CD  PRO A   2      -7.121  10.058  63.728  1.00  0.00    -0.129 C  
ATOM     28  O   PRO A   2      -6.166   9.913  67.072  1.00  0.00    -0.062 OA 
ATOM     29  C   PRO A   2      -6.785   8.719  66.920  1.00  0.00    -0.069 C  
ATOM     30  CA  PRO A   2      -7.512   8.577  65.584  1.00  0.00    -0.085 C  
ATOM     31  CB  PRO A   2      -6.603   7.873  64.572  1.00  0.00    -0.056 C  
ATOM     32  CG  PRO A   2      -6.773   8.653  63.275  1.00  0.00    -0.089 C  
ENDBRANCH   8  23
ENDBRANCH   7   8
ENDBRANCH   6   7
ENDBRANCH   5   6
ENDBRANCH   3   5
TORSDOF 10
ENDMDL
MODEL      248
REMARK 921   NORMALIZED FREE ENERGY PREDICTED BY IDOCK:   -3.34 KCAL/MOL
REMARK 922        TOTAL FREE ENERGY PREDICTED BY IDOCK:   -7.25 KCAL/MOL
REMARK 923 INTER-LIGAND FREE ENERGY PREDICTED BY IDOCK:   -5.58 KCAL/MOL
REMARK 924 INTRA-LIGAND FREE ENERGY PREDICTED BY IDOCK:   -1.67 KCAL/MOL
REMARK 927      BINDING AFFINITY PREDICTED BY RF-SCORE:    0.00 PKD
ROOT
HETATM    1  N   UNK A   1      -9.806   4.860  64.810  1.00  0.00    -0.362 NA 
HETATM    2  H2  UNK A   1      -9.068   5.357  64.310  1.00  0.00     0.000 HD 
HETATM    3  C   UNK A   1      -9.692   5.012  66.254  1.00  0.00    -0.183 C  
HETATM    4  H1  UNK A   1      -9.830   3.868  64.572  1.00  0.00     0.000 HD 
ENDROOT
BRANCH   3   5
HETATM    5  C   UNK A   1      -9.655   6.495  66.609  1.00  0.00    -0.201 C  
BRANCH   5   6
HETATM    6  C   UNK A   1      -8.586   7.252  65.813  1.00  0.00    -0.143 C  
BRANCH   6   7
HETATM    7  C   UNK A   1      -7.688   8.031  66.779  1.00  0.00    -0.098 C  
BRANCH   7   8
HETATM    8  C   UNK A   1      -7.812   7.653  68.265  1.00  0.00    -0.121 C  
BRANCH   8   9
HETATM    9  N   UNK A   1      -8.063   8.815  69.171  1.00  0.00    -0.116 NA 
HETATM   10  H   UNK A   1      -7.181   9.252  69.438  1.00  0.00     0.000 HD 
BRANCH   9  11
HETATM   11  C   UNK A   1      -9.006   9.843  68.628  1.00  0.00    -0.128 C  
HETATM   12  C   UNK A   1      -8.183  11.097  68.277  1.00  0.00    -0.134 C  
HETATM   13  O   UNK A   1      -8.496  11.924  67.435  1.00  0.00    -0.151 OA 
HETATM   14  O   UNK A   1      -7.055  11.190  69.025  1.00  0.00    -0.094 OA 
BRANCH  11  15
HETATM   15  C   UNK A   1     -10.103  10.225  69.646  1.00  0.00    -0.257 C  
BRANCH  15  16
HETATM   16  C   UNK A   1     -10.233   9.220  70.803  1.00  0.00    -0.353 C  
BRANCH  16  17
HETATM   17  C   UNK A   1     -11.671   8.948  71.185  1.00  0.00    -0.356 A  
HETATM   18  C   UNK A   1     -12.534  10.009  71.489  1.00  0.00    -0.516 A  
HETATM   19  C   UNK A   1     -14.346   8.462  71.893  1.00  0.00    -0.561 A  
HETATM   20  C   UNK A   1     -13.864   9.766  71.839  1.00  0.00    -0.242 A  
HETATM   21  C   UNK A   1     -13.503   7.398  71.579  1.00  0.00    -0.445 A  
HETATM   22  C   UNK A   1     -12.174   7.638  71.225  1.00  0.00    -0.339 A  
ENDBRANCH  16  17
ENDBRANCH  15  16
ENDBRANCH  11  15
ENDBRANCH   9  11
ENDBRANCH   8   9
BRANCH   8  23
HETATM   23  C   UNK A   1      -6.563   6.872  68.810  1.00  0.00    -0.047 C  
ATOM     24  OXT PRO A   2     -10.262   5.098  70.382  1.00  0.00    -0.240 OA 
HETATM   25  O   UNK A   1      -5.424   7.263  68.547  1.00  0.00    -0.020 OA 
ATOM     26  N   PRO A   2      -6.769   5.776  69.649  1.00  0.00    -0.053 N  
ATOM     27  CD  PRO A   2      -5.645   5.090  70.277  1.00  0.00    -0.015 C  
ATOM     28  O   PRO A   2      -8.685   6.306  71.461  1.00  0.00    -0.134 OA 
ATOM     29  C   PRO A   2      -9.098   5.449  70.498  1.00  0.00    -0.142 C  
ATOM     30  CA  PRO A   2      -7.958   4.908  69.636  1.00  0.00    -0.067 C  
ATOM     31  CB  PRO A   2      -7.489   3.558  70.188  1.00  0.00    -0.041 C  
ATOM     32  CG  PRO A   2      -5.968   3.615  70.138  1.00  0.00    -0.019 C  
ENDBRANCH   8  23
ENDBRANCH   7   8
ENDBRANCH   6   7
ENDBRANCH   5   6
ENDBRANCH   3   5
TORSDOF 10
ENDMDL
MODEL      249
REMARK 921   NORMALIZED FREE ENERGY PREDICTED BY IDOCK:   -3.33 KCAL/MOL
REMARK 922        TOTAL FREE ENERGY PREDICTED BY IDOCK:   -7.23 KCAL/MOL
REMARK 923 INTER-LIGAND FREE ENERGY PREDICTED BY IDOCK:   -6.33 KCAL/MOL
REMARK 924 INTRA-LIGAND FREE ENERGY PREDICTED BY IDOCK:   -0.90 KCAL/MOL
REMARK 927      BINDING AFFINITY PREDICTED BY RF-SCORE:    0.00 PKD
ROOT
HETATM    1  N   UNK A   1     -13.008   9.330  70.675  1.00  0.00    -0.459 NA 
HETATM    2  H2  UNK A   1     -12.661   9.158  69.732  1.00  0.00     0.000 HD 
HETATM    3  C   UNK A   1     -12.313  10.433  71.326  1.00  0.00    -0.401 C  
HETATM    4  H1  UNK A   1     -12.952   8.497  71.263  1.00  0.00     0.000 HD 
ENDROOT
BRANCH   3   5
HETATM    5  C   UNK A   1     -12.396  11.676  70.448  1.00  0.00    -0.373 C  
BRANCH   5   6
HETATM    6  C   UNK A   1     -12.044  11.374  68.986  1.00  0.00    -0.316 C  
BRANCH   6   7
HETATM    7  C   UNK A   1     -10.603  11.813  68.708  1.00  0.00    -0.234 C  
BRANCH   7   8
HETATM    8  C   UNK A   1     -10.201  11.906  67.226  1.00  0.00    -0.200 C  
BRANCH   8   9
HETATM    9  N   UNK A   1      -9.133  10.941  66.822  1.00  0.00    -0.150 NA 
HETATM   10  H   UNK A   1      -8.461  11.396  66.204  1.00  0.00     0.000 HD 
BRANCH   9  11
HETATM   11  C   UNK A   1      -8.422  10.278  67.961  1.00  0.00    -0.118 C  
HETATM   12  C   UNK A   1      -7.046  10.952  68.111  1.00  0.00    -0.077 C  
HETATM   13  O   UNK A   1      -6.404  11.004  69.150  1.00  0.00    -0.048 OA 
HETATM   14  O   UNK A   1      -6.610  11.486  66.943  1.00  0.00    -0.124 OA 
BRANCH  11  15
HETATM   15  C   UNK A   1      -8.222   8.765  67.722  1.00  0.00    -0.111 C  
BRANCH  15  16
HETATM   16  C   UNK A   1      -6.768   8.306  67.927  1.00  0.00    -0.065 C  
BRANCH  16  17
HETATM   17  C   UNK A   1      -6.635   6.803  68.024  1.00  0.00    -0.059 A  
HETATM   18  C   UNK A   1      -5.907   6.095  67.058  1.00  0.00    -0.017 A  
HETATM   19  C   UNK A   1      -6.373   4.010  68.188  1.00  0.00    -0.037 A  
HETATM   20  C   UNK A   1      -5.777   4.707  67.142  1.00  0.00    -0.022 A  
HETATM   21  C   UNK A   1      -7.086   4.704  69.164  1.00  0.00    -0.052 A  
HETATM   22  C   UNK A   1      -7.216   6.091  69.085  1.00  0.00    -0.082 A  
ENDBRANCH  16  17
ENDBRANCH  15  16
ENDBRANCH  11  15
ENDBRANCH   9  11
ENDBRANCH   8   9
BRANCH   8  23
HETATM   23  C   UNK A   1      -9.743  13.347  66.801  1.00  0.00    -0.262 C  
ATOM     24  OXT PRO A   2     -13.056  11.997  64.252  1.00  0.00    -0.671 OA 
HETATM   25  O   UNK A   1      -8.770  13.874  67.345  1.00  0.00    -0.181 OA 
ATOM     26  N   PRO A   2     -10.411  13.982  65.754  1.00  0.00    -0.298 N  
ATOM     27  CD  PRO A   2      -9.950  15.268  65.241  1.00  0.00    -0.287 C  
ATOM     28  O   PRO A   2     -10.873  12.269  63.733  1.00  0.00    -0.366 OA 
ATOM     29  C   PRO A   2     -11.994  12.573  64.428  1.00  0.00    -0.404 C  
ATOM     30  CA  PRO A   2     -11.817  13.755  65.381  1.00  0.00    -0.358 C  
ATOM     31  CB  PRO A   2     -12.276  15.045  64.696  1.00  0.00    -0.286 C  
ATOM     32  CG  PRO A   2     -11.216  16.081  65.047  1.00  0.00    -0.266 C  
ENDBRANCH   8  23
ENDBRANCH   7   8
ENDBRANCH   6   7
ENDBRANCH   5   6
ENDBRANCH   3   5
TORSDOF 10
ENDMDL
MODEL      250
REMARK 921   NORMALIZED FREE ENERGY PREDICTED BY IDOCK:   -3.31 KCAL/MOL
REMARK 922        TOTAL FREE ENERGY PREDICTED BY IDOCK:   -7.21 KCAL/MOL
REMARK 923 INTER-LIGAND FREE ENERGY PREDICTED BY IDOCK:   -5.98 KCAL/MOL
REMARK 924 INTRA-LIGAND FREE ENERGY PREDICTED BY IDOCK:   -1.22 KCAL/MOL
REMARK 927      BINDING AFFINITY PREDICTED BY RF-SCORE:    0.00 PKD
ROOT
HETATM    1  N   UNK A   1      -6.286  14.272  71.191  1.00  0.00    -0.342 NA 
HETATM    2  H2  UNK A   1      -5.601  13.760  71.746  1.00  0.00     0.000 HD 
HETATM    3  C   UNK A   1      -5.861  14.437  69.806  1.00  0.00    -0.111 C  
HETATM    4  H1  UNK A   1      -6.501  15.186  71.592  1.00  0.00     0.000 HD 
ENDROOT
BRANCH   3   5
HETATM    5  C   UNK A   1      -5.539  13.072  69.207  1.00  0.00    -0.080 C  
BRANCH   5   6
HETATM    6  C   UNK A   1      -6.517  12.688  68.090  1.00  0.00    -0.080 C  
BRANCH   6   7
HETATM    7  C   UNK A   1      -6.214  11.262  67.617  1.00  0.00    -0.055 C  
BRANCH   7   8
HETATM    8  C   UNK A   1      -7.378  10.514  66.944  1.00  0.00    -0.110 C  
BRANCH   8   9
HETATM    9  N   UNK A   1      -7.677  10.975  65.554  1.00  0.00    -0.363 NA 
HETATM   10  H   UNK A   1      -6.810  11.168  65.052  1.00  0.00     0.000 HD 
BRANCH   9  11
HETATM   11  C   UNK A   1      -8.542  10.049  64.757  1.00  0.00    -0.177 C  
HETATM   12  C   UNK A   1      -7.616   9.121  63.950  1.00  0.00    -0.113 C  
HETATM   13  O   UNK A   1      -7.915   8.001  63.563  1.00  0.00    -0.145 OA 
HETATM   14  O   UNK A   1      -6.412   9.693  63.701  1.00  0.00    -0.100 OA 
BRANCH  11  15
HETATM   15  C   UNK A   1      -9.470  10.810  63.785  1.00  0.00    -0.320 C  
BRANCH  15  16
HETATM   16  C   UNK A   1     -10.841  11.148  64.395  1.00  0.00    -0.340 C  
BRANCH  16  17
HETATM   17  C   UNK A   1     -11.052  12.635  64.574  1.00  0.00    -0.365 A  
HETATM   18  C   UNK A   1     -10.087  13.412  65.230  1.00  0.00    -0.266 A  
HETATM   19  C   UNK A   1     -11.424  15.399  64.915  1.00  0.00    -0.311 A  
HETATM   20  C   UNK A   1     -10.273  14.785  65.397  1.00  0.00    -0.415 A  
HETATM   21  C   UNK A   1     -12.385  14.642  64.248  1.00  0.00    -0.375 A  
HETATM   22  C   UNK A   1     -12.201  13.269  64.076  1.00  0.00    -0.475 A  
ENDBRANCH  16  17
ENDBRANCH  15  16
ENDBRANCH  11  15
ENDBRANCH   9  11
ENDBRANCH   8   9
BRANCH   8  23
HETATM   23  C   UNK A   1      -8.711  10.573  67.774  1.00  0.00    -0.122 C  
ATOM     24  OXT PRO A   2      -7.026   6.517  67.898  1.00  0.00    -0.074 OA 
HETATM   25  O   UNK A   1      -9.380  11.607  67.798  1.00  0.00    -0.169 OA 
ATOM     26  N   PRO A   2      -9.151   9.417  68.419  1.00  0.00    -0.128 N  
ATOM     27  CD  PRO A   2     -10.441   9.384  69.101  1.00  0.00    -0.217 C  
ATOM     28  O   PRO A   2      -8.871   7.267  66.827  1.00  0.00    -0.123 OA 
ATOM     29  C   PRO A   2      -7.964   7.296  67.833  1.00  0.00    -0.119 C  
ATOM     30  CA  PRO A   2      -8.283   8.333  68.908  1.00  0.00    -0.116 C  
ATOM     31  CB  PRO A   2      -9.057   7.671  70.053  1.00  0.00    -0.151 C  
ATOM     32  CG  PRO A   2     -10.169   8.651  70.401  1.00  0.00    -0.218 C  
ENDBRANCH   8  23
ENDBRANCH   7   8
ENDBRANCH   6   7
ENDBRANCH   5   6
ENDBRANCH   3   5
TORSDOF 10
ENDMDL
MODEL      251
REMARK 921   NORMALIZED FREE ENERGY PREDICTED BY IDOCK:   -3.31 KCAL/MOL
REMARK 922        TOTAL FREE ENERGY PREDICTED BY IDOCK:   -7.20 KCAL/MOL
REMARK 923 INTER-LIGAND FREE ENERGY PREDICTED BY IDOCK:   -5.83 KCAL/MOL
REMARK 924 INTRA-LIGAND FREE ENERGY PREDICTED BY IDOCK:   -1.37 KCAL/MOL
REMARK 927      BINDING AFFINITY PREDICTED BY RF-SCORE:    0.00 PKD
ROOT
HETATM    1  N   UNK A   1      -8.971   4.569  66.962  1.00  0.00    -0.112 NA 
HETATM    2  H2  UNK A   1      -8.657   5.193  66.219  1.00  0.00     0.000 HD 
HETATM    3  C   UNK A   1      -9.339   5.292  68.172  1.00  0.00    -0.118 C  
HETATM    4  H1  UNK A   1      -8.274   3.858  67.188  1.00  0.00     0.000 HD 
ENDROOT
BRANCH   3   5
HETATM    5  C   UNK A   1     -10.380   6.353  67.834  1.00  0.00    -0.234 C  
BRANCH   5   6
HETATM    6  C   UNK A   1      -9.825   7.775  67.987  1.00  0.00    -0.192 C  
BRANCH   6   7
HETATM    7  C   UNK A   1     -10.368   8.657  66.858  1.00  0.00    -0.355 C  
BRANCH   7   8
HETATM    8  C   UNK A   1      -9.356   9.616  66.208  1.00  0.00    -0.185 C  
BRANCH   8   9
HETATM    9  N   UNK A   1      -9.694  11.063  66.376  1.00  0.00    -0.195 NA 
HETATM   10  H   UNK A   1     -10.397  11.343  65.693  1.00  0.00     0.000 HD 
BRANCH   9  11
HETATM   11  C   UNK A   1     -10.128  11.451  67.755  1.00  0.00    -0.181 C  
HETATM   12  C   UNK A   1     -11.628  11.795  67.695  1.00  0.00    -0.294 C  
HETATM   13  O   UNK A   1     -12.401  11.712  68.638  1.00  0.00    -0.394 OA 
HETATM   14  O   UNK A   1     -12.005  12.215  66.462  1.00  0.00    -0.618 OA 
BRANCH  11  15
HETATM   15  C   UNK A   1      -9.349  12.673  68.291  1.00  0.00    -0.195 C  
BRANCH  15  16
HETATM   16  C   UNK A   1      -8.024  12.919  67.550  1.00  0.00    -0.178 C  
BRANCH  16  17
HETATM   17  C   UNK A   1      -7.794  14.379  67.228  1.00  0.00    -0.188 A  
HETATM   18  C   UNK A   1      -6.631  15.025  67.670  1.00  0.00    -0.193 A  
HETATM   19  C   UNK A   1      -7.347  17.089  66.638  1.00  0.00    -0.296 A  
HETATM   20  C   UNK A   1      -6.410  16.371  67.374  1.00  0.00    -0.203 A  
HETATM   21  C   UNK A   1      -8.500  16.455  66.180  1.00  0.00    -0.329 A  
HETATM   22  C   UNK A   1      -8.723  15.109  66.471  1.00  0.00    -0.280 A  
ENDBRANCH  16  17
ENDBRANCH  15  16
ENDBRANCH  11  15
ENDBRANCH   9  11
ENDBRANCH   8   9
BRANCH   8  23
HETATM   23  C   UNK A   1      -9.140   9.341  64.677  1.00  0.00    -0.121 C  
ATOM     24  OXT PRO A   2      -6.337   6.939  67.058  1.00  0.00    -0.041 OA 
HETATM   25  O   UNK A   1      -9.778   9.977  63.837  1.00  0.00    -0.257 OA 
ATOM     26  N   PRO A   2      -8.168   8.417  64.292  1.00  0.00    -0.152 N  
ATOM     27  CD  PRO A   2      -7.845   8.212  62.884  1.00  0.00    -0.144 C  
ATOM     28  O   PRO A   2      -5.924   8.729  65.741  1.00  0.00    -0.050 OA 
ATOM     29  C   PRO A   2      -6.620   7.620  66.085  1.00  0.00    -0.049 C  
ATOM     30  CA  PRO A   2      -7.726   7.264  65.093  1.00  0.00    -0.113 C  
ATOM     31  CB  PRO A   2      -7.205   6.236  64.084  1.00  0.00    -0.061 C  
ATOM     32  CG  PRO A   2      -7.723   6.708  62.732  1.00  0.00    -0.101 C  
ENDBRANCH   8  23
ENDBRANCH   7   8
ENDBRANCH   6   7
ENDBRANCH   5   6
ENDBRANCH   3   5
TORSDOF 10
ENDMDL
MODEL      252
REMARK 921   NORMALIZED FREE ENERGY PREDICTED BY IDOCK:   -3.30 KCAL/MOL
REMARK 922        TOTAL FREE ENERGY PREDICTED BY IDOCK:   -7.18 KCAL/MOL
REMARK 923 INTER-LIGAND FREE ENERGY PREDICTED BY IDOCK:   -6.34 KCAL/MOL
REMARK 924 INTRA-LIGAND FREE ENERGY PREDICTED BY IDOCK:   -0.85 KCAL/MOL
REMARK 927      BINDING AFFINITY PREDICTED BY RF-SCORE:    0.00 PKD
ROOT
HETATM    1  N   UNK A   1      -7.012  15.327  67.463  1.00  0.00    -0.186 NA 
HETATM    2  H2  UNK A   1      -7.538  15.593  68.296  1.00  0.00     0.000 HD 
HETATM    3  C   UNK A   1      -6.087  14.231  67.722  1.00  0.00    -0.118 C  
HETATM    4  H1  UNK A   1      -6.503  16.115  67.062  1.00  0.00     0.000 HD 
ENDROOT
BRANCH   3   5
HETATM    5  C   UNK A   1      -6.848  13.053  68.321  1.00  0.00    -0.101 C  
BRANCH   5   6
HETATM    6  C   UNK A   1      -7.020  11.906  67.318  1.00  0.00    -0.145 C  
BRANCH   6   7
HETATM    7  C   UNK A   1      -7.892  10.812  67.941  1.00  0.00    -0.109 C  
BRANCH   7   8
HETATM    8  C   UNK A   1      -9.154  11.294  68.677  1.00  0.00    -0.151 C  
BRANCH   8   9
HETATM    9  N   UNK A   1      -9.524  10.461  69.862  1.00  0.00    -0.406 NA 
HETATM   10  H   UNK A   1      -9.979  11.037  70.570  1.00  0.00     0.000 HD 
BRANCH   9  11
HETATM   11  C   UNK A   1     -10.365   9.263  69.549  1.00  0.00    -0.216 C  
HETATM   12  C   UNK A   1     -11.175   8.916  70.813  1.00  0.00    -0.272 C  
HETATM   13  O   UNK A   1     -12.246   8.329  70.815  1.00  0.00    -0.165 OA 
HETATM   14  O   UNK A   1     -10.555   9.332  71.945  1.00  0.00    -0.324 OA 
BRANCH  11  15
HETATM   15  C   UNK A   1      -9.512   8.040  69.143  1.00  0.00    -0.155 C  
BRANCH  15  16
HETATM   16  C   UNK A   1     -10.294   7.002  68.322  1.00  0.00    -0.223 C  
BRANCH  16  17
HETATM   17  C   UNK A   1      -9.975   5.578  68.719  1.00  0.00    -0.231 A  
HETATM   18  C   UNK A   1      -9.992   5.201  70.069  1.00  0.00    -0.326 A  
HETATM   19  C   UNK A   1      -9.388   2.937  69.478  1.00  0.00    -0.199 A  
HETATM   20  C   UNK A   1      -9.701   3.888  70.445  1.00  0.00    -0.245 A  
HETATM   21  C   UNK A   1      -9.382   3.294  68.132  1.00  0.00    -0.244 A  
HETATM   22  C   UNK A   1      -9.675   4.605  67.753  1.00  0.00    -0.205 A  
ENDBRANCH  16  17
ENDBRANCH  15  16
ENDBRANCH  11  15
ENDBRANCH   9  11
ENDBRANCH   8   9
BRANCH   8  23
HETATM   23  C   UNK A   1     -10.412  11.398  67.742  1.00  0.00    -0.185 C  
ATOM     24  OXT PRO A   2      -9.543  15.305  69.554  1.00  0.00    -0.243 OA 
HETATM   25  O   UNK A   1     -10.866  10.389  67.200  1.00  0.00    -0.273 OA 
ATOM     26  N   PRO A   2     -11.039  12.636  67.597  1.00  0.00    -0.250 N  
ATOM     27  CD  PRO A   2     -12.279  12.763  66.838  1.00  0.00    -0.039 C  
ATOM     28  O   PRO A   2     -11.252  13.885  69.969  1.00  0.00    -0.126 OA 
ATOM     29  C   PRO A   2     -10.314  14.441  69.167  1.00  0.00    -0.154 C  
ATOM     30  CA  PRO A   2     -10.378  13.945  67.723  1.00  0.00    -0.240 C  
ATOM     31  CB  PRO A   2     -11.214  14.912  66.880  1.00  0.00    -0.343 C  
ATOM     32  CG  PRO A   2     -12.098  14.024  66.015  1.00  0.00    -0.461 C  
ENDBRANCH   8  23
ENDBRANCH   7   8
ENDBRANCH   6   7
ENDBRANCH   5   6
ENDBRANCH   3   5
TORSDOF 10
ENDMDL
MODEL      253
REMARK 921   NORMALIZED FREE ENERGY PREDICTED BY IDOCK:   -3.29 KCAL/MOL
REMARK 922        TOTAL FREE ENERGY PREDICTED BY IDOCK:   -7.17 KCAL/MOL
REMARK 923 INTER-LIGAND FREE ENERGY PREDICTED BY IDOCK:   -7.02 KCAL/MOL
REMARK 924 INTRA-LIGAND FREE ENERGY PREDICTED BY IDOCK:   -0.15 KCAL/MOL
REMARK 927      BINDING AFFINITY PREDICTED BY RF-SCORE:    0.00 PKD
ROOT
HETATM    1  N   UNK A   1     -12.305   6.808  70.601  1.00  0.00    -0.528 NA 
HETATM    2  H2  UNK A   1     -12.962   7.562  70.399  1.00  0.00     0.000 HD 
HETATM    3  C   UNK A   1     -11.072   6.930  69.835  1.00  0.00    -0.288 C  
HETATM    4  H1  UNK A   1     -12.715   5.887  70.442  1.00  0.00     0.000 HD 
ENDROOT
BRANCH   3   5
HETATM    5  C   UNK A   1     -10.459   8.306  70.073  1.00  0.00    -0.231 C  
BRANCH   5   6
HETATM    6  C   UNK A   1     -10.377   9.132  68.784  1.00  0.00    -0.235 C  
BRANCH   6   7
HETATM    7  C   UNK A   1     -11.563  10.101  68.725  1.00  0.00    -0.037 C  
BRANCH   7   8
HETATM    8  C   UNK A   1     -11.294  11.526  69.241  1.00  0.00    -0.288 C  
BRANCH   8   9
HETATM    9  N   UNK A   1      -9.846  11.894  69.288  1.00  0.00    -0.304 NA 
HETATM   10  H   UNK A   1      -9.427  11.572  70.161  1.00  0.00     0.000 HD 
BRANCH   9  11
HETATM   11  C   UNK A   1      -9.038  11.417  68.120  1.00  0.00    -0.174 C  
HETATM   12  C   UNK A   1      -7.554  11.682  68.438  1.00  0.00    -0.126 C  
HETATM   13  O   UNK A   1      -6.617  11.054  67.968  1.00  0.00    -0.061 OA 
HETATM   14  O   UNK A   1      -7.395  12.714  69.304  1.00  0.00     0.057 OA 
BRANCH  11  15
HETATM   15  C   UNK A   1      -9.415  12.148  66.813  1.00  0.00    -0.213 C  
BRANCH  15  16
HETATM   16  C   UNK A   1      -9.193  13.669  66.882  1.00  0.00    -0.257 C  
BRANCH  16  17
HETATM   17  C   UNK A   1     -10.126  14.440  65.975  1.00  0.00    -0.338 A  
HETATM   18  C   UNK A   1     -11.158  13.778  65.297  1.00  0.00    -0.315 A  
HETATM   19  C   UNK A   1     -11.871  15.855  64.288  1.00  0.00    -0.071 A  
HETATM   20  C   UNK A   1     -12.026  14.483  64.460  1.00  0.00    -0.482 A  
HETATM   21  C   UNK A   1     -10.858  16.528  64.968  1.00  0.00    -0.245 A  
HETATM   22  C   UNK A   1      -9.991  15.827  65.807  1.00  0.00    -0.389 A  
ENDBRANCH  16  17
ENDBRANCH  15  16
ENDBRANCH  11  15
ENDBRANCH   9  11
ENDBRANCH   8   9
BRANCH   8  23
HETATM   23  C   UNK A   1     -11.911  11.795  70.659  1.00  0.00    -0.222 C  
ATOM     24  OXT PRO A   2     -11.397  15.579  68.487  1.00  0.00    -0.313 OA 
HETATM   25  O   UNK A   1     -12.062  10.868  71.456  1.00  0.00    -0.225 OA 
ATOM     26  N   PRO A   2     -12.218  13.108  71.019  1.00  0.00    -0.267 N  
ATOM     27  CD  PRO A   2     -12.681  13.427  72.366  1.00  0.00    -0.022 C  
ATOM     28  O   PRO A   2     -10.256  14.789  70.271  1.00  0.00     0.107 OA 
ATOM     29  C   PRO A   2     -11.366  14.905  69.504  1.00  0.00    -0.281 C  
ATOM     30  CA  PRO A   2     -12.582  14.184  70.082  1.00  0.00    -0.268 C  
ATOM     31  CB  PRO A   2     -13.430  15.168  70.895  1.00  0.00    -0.432 C  
ATOM     32  CG  PRO A   2     -13.815  14.412  72.159  1.00  0.00    -0.572 C  
ENDBRANCH   8  23
ENDBRANCH   7   8
ENDBRANCH   6   7
ENDBRANCH   5   6
ENDBRANCH   3   5
TORSDOF 10
ENDMDL
MODEL      254
REMARK 921   NORMALIZED FREE ENERGY PREDICTED BY IDOCK:   -3.26 KCAL/MOL
REMARK 922        TOTAL FREE ENERGY PREDICTED BY IDOCK:   -7.12 KCAL/MOL
REMARK 923 INTER-LIGAND FREE ENERGY PREDICTED BY IDOCK:   -5.81 KCAL/MOL
REMARK 924 INTRA-LIGAND FREE ENERGY PREDICTED BY IDOCK:   -1.31 KCAL/MOL
REMARK 927      BINDING AFFINITY PREDICTED BY RF-SCORE:    0.00 PKD
ROOT
HETATM    1  N   UNK A   1      -5.873  13.129  71.310  1.00  0.00    -0.547 NA 
HETATM    2  H2  UNK A   1      -5.094  12.987  71.953  1.00  0.00     0.000 HD 
HETATM    3  C   UNK A   1      -5.903  12.128  70.251  1.00  0.00    -0.161 C  
HETATM    4  H1  UNK A   1      -5.867  14.062  70.897  1.00  0.00     0.000 HD 
ENDROOT
BRANCH   3   5
HETATM    5  C   UNK A   1      -5.913  10.734  70.869  1.00  0.00     0.017 C  
BRANCH   5   6
HETATM    6  C   UNK A   1      -6.237   9.647  69.836  1.00  0.00    -0.048 C  
BRANCH   6   7
HETATM    7  C   UNK A   1      -7.436   8.826  70.321  1.00  0.00    -0.067 C  
BRANCH   7   8
HETATM    8  C   UNK A   1      -8.691   8.879  69.433  1.00  0.00    -0.142 C  
BRANCH   8   9
HETATM    9  N   UNK A   1      -8.559   9.775  68.244  1.00  0.00    -0.118 NA 
HETATM   10  H   UNK A   1      -7.576   9.896  68.000  1.00  0.00     0.000 HD 
BRANCH   9  11
HETATM   11  C   UNK A   1      -9.341   9.344  67.042  1.00  0.00    -0.148 C  
HETATM   12  C   UNK A   1      -8.792   7.977  66.591  1.00  0.00    -0.145 C  
HETATM   13  O   UNK A   1      -9.430   7.139  65.972  1.00  0.00    -0.059 OA 
HETATM   14  O   UNK A   1      -7.496   7.804  66.953  1.00  0.00    -0.090 OA 
BRANCH  11  15
HETATM   15  C   UNK A   1      -9.221  10.349  65.875  1.00  0.00    -0.205 C  
BRANCH  15  16
HETATM   16  C   UNK A   1     -10.498  11.178  65.655  1.00  0.00    -0.308 C  
BRANCH  16  17
HETATM   17  C   UNK A   1     -10.443  12.530  66.330  1.00  0.00    -0.268 A  
HETATM   18  C   UNK A   1     -10.766  12.656  67.688  1.00  0.00    -0.239 A  
HETATM   19  C   UNK A   1     -10.343  15.033  67.602  1.00  0.00    -0.243 A  
HETATM   20  C   UNK A   1     -10.715  13.900  68.319  1.00  0.00    -0.261 A  
HETATM   21  C   UNK A   1     -10.005  14.920  66.255  1.00  0.00    -0.300 A  
HETATM   22  C   UNK A   1     -10.052  13.678  65.622  1.00  0.00    -0.299 A  
ENDBRANCH  16  17
ENDBRANCH  15  16
ENDBRANCH  11  15
ENDBRANCH   9  11
ENDBRANCH   8   9
BRANCH   8  23
HETATM   23  C   UNK A   1      -9.985   9.298  70.218  1.00  0.00    -0.219 C  
ATOM     24  OXT PRO A   2      -9.935   4.950  69.591  1.00  0.00    -0.200 OA 
HETATM   25  O   UNK A   1     -10.225  10.488  70.426  1.00  0.00     0.053 OA 
ATOM     26  N   PRO A   2     -10.884   8.305  70.610  1.00  0.00    -0.231 N  
ATOM     27  CD  PRO A   2     -12.156   8.650  71.234  1.00  0.00    -0.290 C  
ATOM     28  O   PRO A   2     -11.255   6.517  68.635  1.00  0.00    -0.289 OA 
ATOM     29  C   PRO A   2     -10.509   6.026  69.653  1.00  0.00    -0.261 C  
ATOM     30  CA  PRO A   2     -10.531   6.906  70.902  1.00  0.00    -0.211 C  
ATOM     31  CB  PRO A   2     -11.606   6.403  71.870  1.00  0.00    -0.367 C  
ATOM     32  CG  PRO A   2     -12.308   7.658  72.371  1.00  0.00    -0.162 C  
ENDBRANCH   8  23
ENDBRANCH   7   8
ENDBRANCH   6   7
ENDBRANCH   5   6
ENDBRANCH   3   5
TORSDOF 10
ENDMDL
MODEL      255
REMARK 921   NORMALIZED FREE ENERGY PREDICTED BY IDOCK:   -3.25 KCAL/MOL
REMARK 922        TOTAL FREE ENERGY PREDICTED BY IDOCK:   -7.10 KCAL/MOL
REMARK 923 INTER-LIGAND FREE ENERGY PREDICTED BY IDOCK:   -5.81 KCAL/MOL
REMARK 924 INTRA-LIGAND FREE ENERGY PREDICTED BY IDOCK:   -1.30 KCAL/MOL
REMARK 927      BINDING AFFINITY PREDICTED BY RF-SCORE:    0.00 PKD
ROOT
HETATM    1  N   UNK A   1     -12.774  10.086  70.217  1.00  0.00    -0.541 NA 
HETATM    2  H2  UNK A   1     -12.915   9.178  70.662  1.00  0.00     0.000 HD 
HETATM    3  C   UNK A   1     -11.383  10.305  69.841  1.00  0.00    -0.290 C  
HETATM    4  H1  UNK A   1     -13.094  10.856  70.805  1.00  0.00     0.000 HD 
ENDROOT
BRANCH   3   5
HETATM    5  C   UNK A   1     -10.905   9.154  68.963  1.00  0.00    -0.115 C  
BRANCH   5   6
HETATM    6  C   UNK A   1     -10.139   9.649  67.730  1.00  0.00    -0.232 C  
BRANCH   6   7
HETATM    7  C   UNK A   1      -8.635   9.472  67.961  1.00  0.00    -0.120 C  
BRANCH   7   8
HETATM    8  C   UNK A   1      -8.087  10.028  69.286  1.00  0.00    -0.141 C  
BRANCH   8   9
HETATM    9  N   UNK A   1      -7.896  11.511  69.292  1.00  0.00    -0.360 NA 
HETATM   10  H   UNK A   1      -7.226  11.778  70.014  1.00  0.00     0.000 HD 
BRANCH   9  11
HETATM   11  C   UNK A   1      -7.498  12.098  67.974  1.00  0.00    -0.116 C  
HETATM   12  C   UNK A   1      -6.225  12.937  68.200  1.00  0.00    -0.093 C  
HETATM   13  O   UNK A   1      -5.388  13.178  67.343  1.00  0.00    -0.315 OA 
HETATM   14  O   UNK A   1      -6.137  13.395  69.473  1.00  0.00    -0.098 OA 
BRANCH  11  15
HETATM   15  C   UNK A   1      -8.601  13.001  67.380  1.00  0.00    -0.199 C  
BRANCH  15  16
HETATM   16  C   UNK A   1      -8.675  14.385  68.046  1.00  0.00    -0.170 C  
BRANCH  16  17
HETATM   17  C   UNK A   1      -9.939  14.581  68.854  1.00  0.00    -0.206 A  
HETATM   18  C   UNK A   1     -11.012  13.691  68.713  1.00  0.00    -0.292 A  
HETATM   19  C   UNK A   1     -12.293  14.924  70.348  1.00  0.00    -0.401 A  
HETATM   20  C   UNK A   1     -12.181  13.862  69.457  1.00  0.00    -0.356 A  
HETATM   21  C   UNK A   1     -11.228  15.808  70.510  1.00  0.00    -0.392 A  
HETATM   22  C   UNK A   1     -10.058  15.638  69.770  1.00  0.00    -0.291 A  
ENDBRANCH  16  17
ENDBRANCH  15  16
ENDBRANCH  11  15
ENDBRANCH   9  11
ENDBRANCH   8   9
BRANCH   8  23
HETATM   23  C   UNK A   1      -6.735   9.360  69.724  1.00  0.00    -0.053 C  
ATOM     24  OXT PRO A   2     -10.106   7.461  71.805  1.00  0.00    -0.176 OA 
HETATM   25  O   UNK A   1      -5.662   9.804  69.311  1.00  0.00    -0.035 OA 
ATOM     26  N   PRO A   2      -6.772   8.307  70.639  1.00  0.00    -0.036 N  
ATOM     27  CD  PRO A   2      -5.540   7.731  71.169  1.00  0.00    -0.034 C  
ATOM     28  O   PRO A   2      -8.504   8.827  72.629  1.00  0.00    -0.413 OA 
ATOM     29  C   PRO A   2      -8.963   7.890  71.767  1.00  0.00    -0.132 C  
ATOM     30  CA  PRO A   2      -7.893   7.368  70.810  1.00  0.00    -0.096 C  
ATOM     31  CB  PRO A   2      -7.274   6.086  71.375  1.00  0.00    -0.079 C  
ATOM     32  CG  PRO A   2      -5.775   6.233  71.147  1.00  0.00    -0.026 C  
ENDBRANCH   8  23
ENDBRANCH   7   8
ENDBRANCH   6   7
ENDBRANCH   5   6
ENDBRANCH   3   5
TORSDOF 10
ENDMDL
MODEL      256
REMARK 921   NORMALIZED FREE ENERGY PREDICTED BY IDOCK:   -3.25 KCAL/MOL
REMARK 922        TOTAL FREE ENERGY PREDICTED BY IDOCK:   -7.10 KCAL/MOL
REMARK 923 INTER-LIGAND FREE ENERGY PREDICTED BY IDOCK:   -6.04 KCAL/MOL
REMARK 924 INTRA-LIGAND FREE ENERGY PREDICTED BY IDOCK:   -1.06 KCAL/MOL
REMARK 927      BINDING AFFINITY PREDICTED BY RF-SCORE:    0.00 PKD
ROOT
HETATM    1  N   UNK A   1     -11.621   6.881  72.987  1.00  0.00    -0.509 NA 
HETATM    2  H2  UNK A   1     -11.446   5.881  72.883  1.00  0.00     0.000 HD 
HETATM    3  C   UNK A   1     -10.424   7.611  73.385  1.00  0.00    -0.301 C  
HETATM    4  H1  UNK A   1     -12.373   7.073  73.649  1.00  0.00     0.000 HD 
ENDROOT
BRANCH   3   5
HETATM    5  C   UNK A   1      -9.300   7.324  72.397  1.00  0.00    -0.166 C  
BRANCH   5   6
HETATM    6  C   UNK A   1      -8.673   8.611  71.846  1.00  0.00    -0.256 C  
BRANCH   6   7
HETATM    7  C   UNK A   1      -8.011   8.317  70.496  1.00  0.00    -0.099 C  
BRANCH   7   8
HETATM    8  C   UNK A   1      -8.706   8.916  69.261  1.00  0.00    -0.138 C  
BRANCH   8   9
HETATM    9  N   UNK A   1      -9.106  10.347  69.421  1.00  0.00    -0.323 NA 
HETATM   10  H   UNK A   1      -8.597  10.772  70.196  1.00  0.00     0.000 HD 
BRANCH   9  11
HETATM   11  C   UNK A   1      -8.961  11.182  68.186  1.00  0.00    -0.159 C  
HETATM   12  C   UNK A   1      -7.460  11.465  67.986  1.00  0.00    -0.100 C  
HETATM   13  O   UNK A   1      -6.933  11.704  66.910  1.00  0.00    -0.140 OA 
HETATM   14  O   UNK A   1      -6.775  11.431  69.156  1.00  0.00    -0.086 OA 
BRANCH  11  15
HETATM   15  C   UNK A   1      -9.720  12.522  68.295  1.00  0.00    -0.220 C  
BRANCH  15  16
HETATM   16  C   UNK A   1      -9.510  13.438  67.077  1.00  0.00    -0.247 C  
BRANCH  16  17
HETATM   17  C   UNK A   1      -8.879  14.763  67.441  1.00  0.00    -0.203 A  
HETATM   18  C   UNK A   1      -8.703  15.754  66.465  1.00  0.00    -0.354 A  
HETATM   19  C   UNK A   1      -7.710  17.232  68.098  1.00  0.00    -0.217 A  
HETATM   20  C   UNK A   1      -8.124  16.981  66.794  1.00  0.00    -0.277 A  
HETATM   21  C   UNK A   1      -7.893  16.262  69.081  1.00  0.00    -0.231 A  
HETATM   22  C   UNK A   1      -8.474  15.036  68.757  1.00  0.00    -0.180 A  
ENDBRANCH  16  17
ENDBRANCH  15  16
ENDBRANCH  11  15
ENDBRANCH   9  11
ENDBRANCH   8   9
BRANCH   8  23
HETATM   23  C   UNK A   1      -9.973   8.103  68.811  1.00  0.00    -0.189 C  
ATOM     24  OXT PRO A   2      -6.770   7.689  65.832  1.00  0.00    -0.045 OA 
HETATM   25  O   UNK A   1     -11.010   8.154  69.474  1.00  0.00    -0.176 OA 
ATOM     26  N   PRO A   2      -9.919   7.384  67.616  1.00  0.00    -0.156 N  
ATOM     27  CD  PRO A   2     -11.104   6.711  67.093  1.00  0.00    -0.357 C  
ATOM     28  O   PRO A   2      -8.720   8.823  65.686  1.00  0.00    -0.163 OA 
ATOM     29  C   PRO A   2      -7.943   7.815  66.147  1.00  0.00    -0.105 C  
ATOM     30  CA  PRO A   2      -8.700   6.815  67.020  1.00  0.00    -0.114 C  
ATOM     31  CB  PRO A   2      -9.171   5.634  66.166  1.00  0.00    -0.169 C  
ATOM     32  CG  PRO A   2     -10.600   5.363  66.616  1.00  0.00    -0.359 C  
ENDBRANCH   8  23
ENDBRANCH   7   8
ENDBRANCH   6   7
ENDBRANCH   5   6
ENDBRANCH   3   5
TORSDOF 10
ENDMDL
MODEL      257
REMARK 921   NORMALIZED FREE ENERGY PREDICTED BY IDOCK:   -3.23 KCAL/MOL
REMARK 922        TOTAL FREE ENERGY PREDICTED BY IDOCK:   -7.08 KCAL/MOL
REMARK 923 INTER-LIGAND FREE ENERGY PREDICTED BY IDOCK:   -5.29 KCAL/MOL
REMARK 924 INTRA-LIGAND FREE ENERGY PREDICTED BY IDOCK:   -1.79 KCAL/MOL
REMARK 927      BINDING AFFINITY PREDICTED BY RF-SCORE:    0.00 PKD
ROOT
HETATM    1  N   UNK A   1     -11.588  13.317  68.407  1.00  0.00    -0.314 NA 
HETATM    2  H2  UNK A   1     -11.198  12.663  69.087  1.00  0.00     0.000 HD 
HETATM    3  C   UNK A   1     -11.097  13.067  67.058  1.00  0.00    -0.281 C  
HETATM    4  H1  UNK A   1     -11.409  14.289  68.661  1.00  0.00     0.000 HD 
ENDROOT
BRANCH   3   5
HETATM    5  C   UNK A   1     -11.365  11.615  66.679  1.00  0.00    -0.338 C  
BRANCH   5   6
HETATM    6  C   UNK A   1     -10.185  10.700  67.029  1.00  0.00    -0.267 C  
BRANCH   6   7
HETATM    7  C   UNK A   1     -10.628   9.237  66.926  1.00  0.00    -0.239 C  
BRANCH   7   8
HETATM    8  C   UNK A   1      -9.707   8.206  67.601  1.00  0.00    -0.159 C  
BRANCH   8   9
HETATM    9  N   UNK A   1      -8.716   7.576  66.676  1.00  0.00    -0.132 NA 
HETATM   10  H   UNK A   1      -8.890   7.873  65.716  1.00  0.00     0.000 HD 
BRANCH   9  11
HETATM   11  C   UNK A   1      -7.282   7.807  67.039  1.00  0.00    -0.089 C  
HETATM   12  C   UNK A   1      -6.803   9.059  66.279  1.00  0.00    -0.078 C  
HETATM   13  O   UNK A   1      -5.895   9.790  66.643  1.00  0.00    -0.053 OA 
HETATM   14  O   UNK A   1      -7.504   9.260  65.136  1.00  0.00    -0.101 OA 
BRANCH  11  15
HETATM   15  C   UNK A   1      -6.383   6.610  66.661  1.00  0.00    -0.042 C  
BRANCH  15  16
HETATM   16  C   UNK A   1      -6.271   5.560  67.780  1.00  0.00    -0.034 C  
BRANCH  16  17
HETATM   17  C   UNK A   1      -7.399   4.553  67.755  1.00  0.00    -0.069 A  
HETATM   18  C   UNK A   1      -8.116   4.266  68.925  1.00  0.00    -0.073 A  
HETATM   19  C   UNK A   1      -9.501   2.689  67.729  1.00  0.00    -0.163 A  
HETATM   20  C   UNK A   1      -9.161   3.341  68.910  1.00  0.00    -0.228 A  
HETATM   21  C   UNK A   1      -8.807   2.975  66.555  1.00  0.00    -0.152 A  
HETATM   22  C   UNK A   1      -7.764   3.902  66.566  1.00  0.00    -0.089 A  
ENDBRANCH  16  17
ENDBRANCH  15  16
ENDBRANCH  11  15
ENDBRANCH   9  11
ENDBRANCH   8   9
BRANCH   8  23
HETATM   23  C   UNK A   1     -10.494   7.058  68.328  1.00  0.00    -0.202 C  
ATOM     24  OXT PRO A   2      -8.317   9.495  71.264  1.00  0.00    -0.265 OA 
HETATM   25  O   UNK A   1     -11.108   6.215  67.671  1.00  0.00    -0.328 OA 
ATOM     26  N   PRO A   2     -10.426   6.974  69.719  1.00  0.00    -0.212 N  
ATOM     27  CD  PRO A   2     -11.040   5.859  70.434  1.00  0.00    -0.283 C  
ATOM     28  O   PRO A   2      -7.911   7.379  70.581  1.00  0.00    -0.096 OA 
ATOM     29  C   PRO A   2      -8.729   8.427  70.840  1.00  0.00    -0.154 C  
ATOM     30  CA  PRO A   2     -10.208   8.110  70.630  1.00  0.00    -0.196 C  
ATOM     31  CB  PRO A   2     -10.843   7.698  71.962  1.00  0.00    -0.282 C  
ATOM     32  CG  PRO A   2     -11.718   6.496  71.631  1.00  0.00    -0.374 C  
ENDBRANCH   8  23
ENDBRANCH   7   8
ENDBRANCH   6   7
ENDBRANCH   5   6
ENDBRANCH   3   5
TORSDOF 10
ENDMDL
MODEL      258
REMARK 921   NORMALIZED FREE ENERGY PREDICTED BY IDOCK:   -3.22 KCAL/MOL
REMARK 922        TOTAL FREE ENERGY PREDICTED BY IDOCK:   -7.07 KCAL/MOL
REMARK 923 INTER-LIGAND FREE ENERGY PREDICTED BY IDOCK:   -7.66 KCAL/MOL
REMARK 924 INTRA-LIGAND FREE ENERGY PREDICTED BY IDOCK:    0.60 KCAL/MOL
REMARK 927      BINDING AFFINITY PREDICTED BY RF-SCORE:    0.00 PKD
ROOT
HETATM    1  N   UNK A   1     -14.067   8.992  73.097  1.00  0.00    -1.223 NA 
HETATM    2  H2  UNK A   1     -14.061   9.944  73.463  1.00  0.00     0.000 HD 
HETATM    3  C   UNK A   1     -13.549   8.922  71.736  1.00  0.00    -0.412 C  
HETATM    4  H1  UNK A   1     -14.996   8.572  73.130  1.00  0.00     0.000 HD 
ENDROOT
BRANCH   3   5
HETATM    5  C   UNK A   1     -12.160   9.549  71.687  1.00  0.00    -0.474 C  
BRANCH   5   6
HETATM    6  C   UNK A   1     -11.401   9.169  70.409  1.00  0.00    -0.260 C  
BRANCH   6   7
HETATM    7  C   UNK A   1      -9.907   9.448  70.604  1.00  0.00    -0.340 C  
BRANCH   7   8
HETATM    8  C   UNK A   1      -8.991   9.054  69.433  1.00  0.00    -0.145 C  
BRANCH   8   9
HETATM    9  N   UNK A   1      -9.715   8.800  68.150  1.00  0.00    -0.153 NA 
HETATM   10  H   UNK A   1     -10.569   8.271  68.326  1.00  0.00     0.000 HD 
BRANCH   9  11
HETATM   11  C   UNK A   1     -10.022  10.027  67.349  1.00  0.00    -0.197 C  
HETATM   12  C   UNK A   1      -9.730   9.706  65.871  1.00  0.00    -0.275 C  
HETATM   13  O   UNK A   1     -10.261  10.259  64.919  1.00  0.00    -0.327 OA 
HETATM   14  O   UNK A   1      -8.797   8.731  65.736  1.00  0.00    -0.172 OA 
BRANCH  11  15
HETATM   15  C   UNK A   1      -9.167  11.237  67.783  1.00  0.00    -0.156 C  
BRANCH  15  16
HETATM   16  C   UNK A   1      -9.643  12.566  67.172  1.00  0.00    -0.208 C  
BRANCH  16  17
HETATM   17  C   UNK A   1     -10.612  13.309  68.066  1.00  0.00    -0.249 A  
HETATM   18  C   UNK A   1     -10.847  14.676  67.870  1.00  0.00    -0.261 A  
HETATM   19  C   UNK A   1     -12.410  14.704  69.712  1.00  0.00    -0.306 A  
HETATM   20  C   UNK A   1     -11.743  15.368  68.688  1.00  0.00    -0.371 A  
HETATM   21  C   UNK A   1     -12.197  13.341  69.908  1.00  0.00    -0.313 A  
HETATM   22  C   UNK A   1     -11.305  12.646  69.091  1.00  0.00    -0.339 A  
ENDBRANCH  16  17
ENDBRANCH  15  16
ENDBRANCH  11  15
ENDBRANCH   9  11
ENDBRANCH   8   9
BRANCH   8  23
HETATM   23  C   UNK A   1      -8.096   7.801  69.744  1.00  0.00    -0.117 C  
ATOM     24  OXT PRO A   2     -11.421   6.672  67.102  1.00  0.00    -0.230 OA 
HETATM   25  O   UNK A   1      -7.154   7.892  70.533  1.00  0.00    -0.045 OA 
ATOM     26  N   PRO A   2      -8.433   6.576  69.166  1.00  0.00    -0.126 N  
ATOM     27  CD  PRO A   2      -7.709   5.358  69.515  1.00  0.00    -0.077 C  
ATOM     28  O   PRO A   2     -11.088   6.162  69.279  1.00  0.00    -0.352 OA 
ATOM     29  C   PRO A   2     -10.657   6.456  68.030  1.00  0.00    -0.254 C  
ATOM     30  CA  PRO A   2      -9.137   6.405  67.884  1.00  0.00    -0.112 C  
ATOM     31  CB  PRO A   2      -8.713   5.029  67.361  1.00  0.00    -0.103 C  
ATOM     32  CG  PRO A   2      -7.497   4.645  68.194  1.00  0.00    -0.066 C  
ENDBRANCH   8  23
ENDBRANCH   7   8
ENDBRANCH   6   7
ENDBRANCH   5   6
ENDBRANCH   3   5
TORSDOF 10
ENDMDL
MODEL      259
REMARK 921   NORMALIZED FREE ENERGY PREDICTED BY IDOCK:   -3.21 KCAL/MOL
REMARK 922        TOTAL FREE ENERGY PREDICTED BY IDOCK:   -7.04 KCAL/MOL
REMARK 923 INTER-LIGAND FREE ENERGY PREDICTED BY IDOCK:   -6.90 KCAL/MOL
REMARK 924 INTRA-LIGAND FREE ENERGY PREDICTED BY IDOCK:   -0.14 KCAL/MOL
REMARK 927      BINDING AFFINITY PREDICTED BY RF-SCORE:    0.00 PKD
ROOT
HETATM    1  N   UNK A   1      -9.600   9.466  62.375  1.00  0.00    -0.516 NA 
HETATM    2  H2  UNK A   1      -8.803   9.714  61.789  1.00  0.00     0.000 HD 
HETATM    3  C   UNK A   1      -9.254   9.431  63.790  1.00  0.00     0.091 C  
HETATM    4  H1  UNK A   1     -10.015   8.574  62.104  1.00  0.00     0.000 HD 
ENDROOT
BRANCH   3   5
HETATM    5  C   UNK A   1      -8.634  10.764  64.196  1.00  0.00    -0.029 C  
BRANCH   5   6
HETATM    6  C   UNK A   1      -7.657  10.612  65.369  1.00  0.00    -0.038 C  
BRANCH   6   7
HETATM    7  C   UNK A   1      -7.976  11.665  66.435  1.00  0.00     0.005 C  
BRANCH   7   8
HETATM    8  C   UNK A   1      -9.166  11.351  67.357  1.00  0.00    -0.164 C  
BRANCH   8   9
HETATM    9  N   UNK A   1      -9.366   9.892  67.619  1.00  0.00    -0.140 NA 
HETATM   10  H   UNK A   1      -8.560   9.361  67.289  1.00  0.00     0.000 HD 
BRANCH   9  11
HETATM   11  C   UNK A   1      -9.667   9.545  69.044  1.00  0.00    -0.170 C  
HETATM   12  C   UNK A   1      -8.332   9.516  69.812  1.00  0.00    -0.164 C  
HETATM   13  O   UNK A   1      -8.213   9.715  71.011  1.00  0.00    -0.270 OA 
HETATM   14  O   UNK A   1      -7.284   9.231  69.000  1.00  0.00    -0.069 OA 
BRANCH  11  15
HETATM   15  C   UNK A   1     -10.358   8.170  69.176  1.00  0.00    -0.228 C  
BRANCH  15  16
HETATM   16  C   UNK A   1     -10.414   7.657  70.625  1.00  0.00    -0.217 C  
BRANCH  16  17
HETATM   17  C   UNK A   1     -11.784   7.809  71.248  1.00  0.00    -0.311 A  
HETATM   18  C   UNK A   1     -12.187   9.043  71.776  1.00  0.00    -0.434 A  
HETATM   19  C   UNK A   1     -14.326   8.111  72.407  1.00  0.00    -0.302 A  
HETATM   20  C   UNK A   1     -13.452   9.192  72.350  1.00  0.00    -0.535 A  
HETATM   21  C   UNK A   1     -13.944   6.883  71.873  1.00  0.00    -0.228 A  
HETATM   22  C   UNK A   1     -12.682   6.731  71.296  1.00  0.00    -0.299 A  
ENDBRANCH  16  17
ENDBRANCH  15  16
ENDBRANCH  11  15
ENDBRANCH   9  11
ENDBRANCH   8   9
BRANCH   8  23
HETATM   23  C   UNK A   1     -10.524  11.943  66.836  1.00  0.00    -0.222 C  
ATOM     24  OXT PRO A   2      -7.533  15.136  67.234  1.00  0.00    -0.195 OA 
HETATM   25  O   UNK A   1     -11.516  11.219  66.732  1.00  0.00    -0.407 OA 
ATOM     26  N   PRO A   2     -10.600  13.309  66.563  1.00  0.00    -0.283 N  
ATOM     27  CD  PRO A   2     -11.867  13.930  66.192  1.00  0.00    -0.400 C  
ATOM     28  O   PRO A   2      -9.375  14.738  68.484  1.00  0.00    -0.187 OA 
ATOM     29  C   PRO A   2      -8.672  14.704  67.327  1.00  0.00    -0.208 C  
ATOM     30  CA  PRO A   2      -9.471  14.157  66.146  1.00  0.00    -0.203 C  
ATOM     31  CB  PRO A   2     -10.094  15.315  65.361  1.00  0.00    -0.397 C  
ATOM     32  CG  PRO A   2     -11.517  14.868  65.054  1.00  0.00    -0.379 C  
ENDBRANCH   8  23
ENDBRANCH   7   8
ENDBRANCH   6   7
ENDBRANCH   5   6
ENDBRANCH   3   5
TORSDOF 10
ENDMDL
MODEL      260
REMARK 921   NORMALIZED FREE ENERGY PREDICTED BY IDOCK:   -3.17 KCAL/MOL
REMARK 922        TOTAL FREE ENERGY PREDICTED BY IDOCK:   -6.98 KCAL/MOL
REMARK 923 INTER-LIGAND FREE ENERGY PREDICTED BY IDOCK:   -6.44 KCAL/MOL
REMARK 924 INTRA-LIGAND FREE ENERGY PREDICTED BY IDOCK:   -0.55 KCAL/MOL
REMARK 927      BINDING AFFINITY PREDICTED BY RF-SCORE:    0.00 PKD
ROOT
HETATM    1  N   UNK A   1      -6.485  18.875  69.292  1.00  0.00    -0.280 NA 
HETATM    2  H2  UNK A   1      -5.501  18.708  69.502  1.00  0.00     0.000 HD 
HETATM    3  C   UNK A   1      -7.087  17.771  68.556  1.00  0.00    -0.245 C  
HETATM    4  H1  UNK A   1      -6.627  19.745  68.778  1.00  0.00     0.000 HD 
ENDROOT
BRANCH   3   5
HETATM    5  C   UNK A   1      -6.875  16.471  69.324  1.00  0.00    -0.224 C  
BRANCH   5   6
HETATM    6  C   UNK A   1      -6.935  15.243  68.407  1.00  0.00    -0.111 C  
BRANCH   6   7
HETATM    7  C   UNK A   1      -8.187  14.423  68.738  1.00  0.00    -0.126 C  
BRANCH   7   8
HETATM    8  C   UNK A   1      -8.787  13.613  67.576  1.00  0.00    -0.205 C  
BRANCH   8   9
HETATM    9  N   UNK A   1      -7.841  12.628  66.968  1.00  0.00    -0.369 NA 
HETATM   10  H   UNK A   1      -6.963  13.086  66.722  1.00  0.00     0.000 HD 
BRANCH   9  11
HETATM   11  C   UNK A   1      -7.575  11.414  67.803  1.00  0.00    -0.105 C  
HETATM   12  C   UNK A   1      -6.698  10.457  66.972  1.00  0.00    -0.080 C  
HETATM   13  O   UNK A   1      -5.935   9.626  67.442  1.00  0.00    -0.048 OA 
HETATM   14  O   UNK A   1      -6.872  10.634  65.639  1.00  0.00    -0.131 OA 
BRANCH  11  15
HETATM   15  C   UNK A   1      -8.876  10.686  68.207  1.00  0.00    -0.139 C  
BRANCH  15  16
HETATM   16  C   UNK A   1      -9.562  11.309  69.434  1.00  0.00     0.282 C  
BRANCH  16  17
HETATM   17  C   UNK A   1     -10.646  10.427  70.011  1.00  0.00    -0.282 A  
HETATM   18  C   UNK A   1     -10.431   9.050  70.161  1.00  0.00    -0.240 A  
HETATM   19  C   UNK A   1     -12.647   8.771  71.084  1.00  0.00    -0.204 A  
HETATM   20  C   UNK A   1     -11.426   8.229  70.696  1.00  0.00    -0.236 A  
HETATM   21  C   UNK A   1     -12.869  10.140  70.955  1.00  0.00    -0.442 A  
HETATM   22  C   UNK A   1     -11.876  10.964  70.423  1.00  0.00    -0.449 A  
ENDBRANCH  16  17
ENDBRANCH  15  16
ENDBRANCH  11  15
ENDBRANCH   9  11
ENDBRANCH   8   9
BRANCH   8  23
HETATM   23  C   UNK A   1      -9.359  14.515  66.425  1.00  0.00    -0.273 C  
ATOM     24  OXT PRO A   2     -11.891  10.966  66.969  1.00  0.00    -0.223 OA 
HETATM   25  O   UNK A   1      -8.746  15.521  66.064  1.00  0.00    -0.258 OA 
ATOM     26  N   PRO A   2     -10.529  14.116  65.778  1.00  0.00    -0.299 N  
ATOM     27  CD  PRO A   2     -11.036  14.852  64.625  1.00  0.00    -0.323 C  
ATOM     28  O   PRO A   2     -10.489  11.475  65.270  1.00  0.00    -0.264 OA 
ATOM     29  C   PRO A   2     -11.339  11.803  66.272  1.00  0.00    -0.287 C  
ATOM     30  CA  PRO A   2     -11.599  13.304  66.381  1.00  0.00    -0.347 C  
ATOM     31  CB  PRO A   2     -12.873  13.666  65.611  1.00  0.00    -0.425 C  
ATOM     32  CG  PRO A   2     -12.532  14.943  64.854  1.00  0.00    -0.104 C  
ENDBRANCH   8  23
ENDBRANCH   7   8
ENDBRANCH   6   7
ENDBRANCH   5   6
ENDBRANCH   3   5
TORSDOF 10
ENDMDL
MODEL      261
REMARK 921   NORMALIZED FREE ENERGY PREDICTED BY IDOCK:   -3.16 KCAL/MOL
REMARK 922        TOTAL FREE ENERGY PREDICTED BY IDOCK:   -6.97 KCAL/MOL
REMARK 923 INTER-LIGAND FREE ENERGY PREDICTED BY IDOCK:   -6.68 KCAL/MOL
REMARK 924 INTRA-LIGAND FREE ENERGY PREDICTED BY IDOCK:   -0.29 KCAL/MOL
REMARK 927      BINDING AFFINITY PREDICTED BY RF-SCORE:    0.00 PKD
ROOT
HETATM    1  N   UNK A   1      -7.677   9.765  63.174  1.00  0.00    -0.127 NA 
HETATM    2  H2  UNK A   1      -7.515   9.079  63.912  1.00  0.00     0.000 HD 
HETATM    3  C   UNK A   1      -9.057  10.232  63.150  1.00  0.00    -0.271 C  
HETATM    4  H1  UNK A   1      -7.423   9.406  62.253  1.00  0.00     0.000 HD 
ENDROOT
BRANCH   3   5
HETATM    5  C   UNK A   1      -9.437  10.768  64.527  1.00  0.00    -0.297 C  
BRANCH   5   6
HETATM    6  C   UNK A   1     -10.245   9.748  65.339  1.00  0.00    -0.049 C  
BRANCH   6   7
HETATM    7  C   UNK A   1      -9.373   9.195  66.471  1.00  0.00    -0.244 C  
BRANCH   7   8
HETATM    8  C   UNK A   1     -10.126   8.537  67.640  1.00  0.00    -0.213 C  
BRANCH   8   9
HETATM    9  N   UNK A   1      -9.483   8.745  68.974  1.00  0.00    -0.159 NA 
HETATM   10  H   UNK A   1      -8.547   9.133  68.858  1.00  0.00     0.000 HD 
BRANCH   9  11
HETATM   11  C   UNK A   1     -10.276   9.583  69.929  1.00  0.00    -0.231 C  
HETATM   12  C   UNK A   1     -10.816   8.652  71.031  1.00  0.00    -0.247 C  
HETATM   13  O   UNK A   1     -11.099   9.006  72.166  1.00  0.00    -0.350 OA 
HETATM   14  O   UNK A   1     -10.956   7.375  70.596  1.00  0.00    -0.245 OA 
BRANCH  11  15
HETATM   15  C   UNK A   1     -11.462  10.292  69.238  1.00  0.00    -0.223 C  
BRANCH  15  16
HETATM   16  C   UNK A   1     -11.880  11.596  69.940  1.00  0.00    -0.434 C  
BRANCH  16  17
HETATM   17  C   UNK A   1     -11.765  12.808  69.044  1.00  0.00    -0.371 A  
HETATM   18  C   UNK A   1     -11.657  12.652  67.655  1.00  0.00    -0.414 A  
HETATM   19  C   UNK A   1     -11.554  15.048  67.361  1.00  0.00    -0.304 A  
HETATM   20  C   UNK A   1     -11.554  13.766  66.820  1.00  0.00    -0.394 A  
HETATM   21  C   UNK A   1     -11.676  15.218  68.738  1.00  0.00    -0.374 A  
HETATM   22  C   UNK A   1     -11.783  14.107  69.575  1.00  0.00    -0.364 A  
ENDBRANCH  16  17
ENDBRANCH  15  16
ENDBRANCH  11  15
ENDBRANCH   9  11
ENDBRANCH   8   9
BRANCH   8  23
HETATM   23  C   UNK A   1     -10.347   6.994  67.442  1.00  0.00    -0.244 C  
ATOM     24  OXT PRO A   2      -6.249   7.773  68.822  1.00  0.00    -0.037 OA 
HETATM   25  O   UNK A   1     -11.410   6.574  66.983  1.00  0.00    -0.342 OA 
ATOM     26  N   PRO A   2      -9.295   6.123  67.728  1.00  0.00    -0.111 N  
ATOM     27  CD  PRO A   2      -9.406   4.696  67.448  1.00  0.00    -0.143 C  
ATOM     28  O   PRO A   2      -6.968   7.091  66.790  1.00  0.00    -0.068 OA 
ATOM     29  C   PRO A   2      -7.063   7.172  68.138  1.00  0.00    -0.085 C  
ATOM     30  CA  PRO A   2      -8.230   6.372  68.714  1.00  0.00    -0.121 C  
ATOM     31  CB  PRO A   2      -7.742   4.987  69.151  1.00  0.00    -0.076 C  
ATOM     32  CG  PRO A   2      -8.811   4.017  68.667  1.00  0.00    -0.146 C  
ENDBRANCH   8  23
ENDBRANCH   7   8
ENDBRANCH   6   7
ENDBRANCH   5   6
ENDBRANCH   3   5
TORSDOF 10
ENDMDL
MODEL      262
REMARK 921   NORMALIZED FREE ENERGY PREDICTED BY IDOCK:   -3.16 KCAL/MOL
REMARK 922        TOTAL FREE ENERGY PREDICTED BY IDOCK:   -6.97 KCAL/MOL
REMARK 923 INTER-LIGAND FREE ENERGY PREDICTED BY IDOCK:   -5.48 KCAL/MOL
REMARK 924 INTRA-LIGAND FREE ENERGY PREDICTED BY IDOCK:   -1.49 KCAL/MOL
REMARK 927      BINDING AFFINITY PREDICTED BY RF-SCORE:    0.00 PKD
ROOT
HETATM    1  N   UNK A   1      -5.503  10.522  65.816  1.00  0.00    -0.086 NA 
HETATM    2  H2  UNK A   1      -4.642  10.382  66.344  1.00  0.00     0.000 HD 
HETATM    3  C   UNK A   1      -6.688  10.185  66.594  1.00  0.00    -0.079 C  
HETATM    4  H1  UNK A   1      -5.509   9.996  64.941  1.00  0.00     0.000 HD 
ENDROOT
BRANCH   3   5
HETATM    5  C   UNK A   1      -6.680  10.971  67.900  1.00  0.00    -0.063 C  
BRANCH   5   6
HETATM    6  C   UNK A   1      -6.630  10.051  69.126  1.00  0.00    -0.053 C  
BRANCH   6   7
HETATM    7  C   UNK A   1      -7.972  10.111  69.862  1.00  0.00    -0.149 C  
BRANCH   7   8
HETATM    8  C   UNK A   1      -9.138   9.357  69.200  1.00  0.00    -0.148 C  
BRANCH   8   9
HETATM    9  N   UNK A   1     -10.044  10.226  68.390  1.00  0.00    -0.154 NA 
HETATM   10  H   UNK A   1     -10.949   9.773  68.264  1.00  0.00     0.000 HD 
BRANCH   9  11
HETATM   11  C   UNK A   1     -10.229  11.612  68.925  1.00  0.00    -0.125 C  
HETATM   12  C   UNK A   1     -11.640  11.693  69.539  1.00  0.00    -0.331 C  
HETATM   13  O   UNK A   1     -11.970  12.462  70.429  1.00  0.00    -0.344 OA 
HETATM   14  O   UNK A   1     -12.495  10.807  68.970  1.00  0.00    -0.379 OA 
BRANCH  11  15
HETATM   15  C   UNK A   1     -10.094  12.687  67.823  1.00  0.00    -0.220 C  
BRANCH  15  16
HETATM   16  C   UNK A   1     -10.085  14.122  68.375  1.00  0.00    -0.238 C  
BRANCH  16  17
HETATM   17  C   UNK A   1      -8.723  14.774  68.292  1.00  0.00    -0.170 A  
HETATM   18  C   UNK A   1      -8.426  15.894  69.081  1.00  0.00    -0.254 A  
HETATM   19  C   UNK A   1      -6.197  15.996  68.155  1.00  0.00    -0.127 A  
HETATM   20  C   UNK A   1      -7.169  16.499  69.013  1.00  0.00    -0.219 A  
HETATM   21  C   UNK A   1      -6.473  14.874  67.376  1.00  0.00     0.010 A  
HETATM   22  C   UNK A   1      -7.726  14.265  67.444  1.00  0.00    -0.194 A  
ENDBRANCH  16  17
ENDBRANCH  15  16
ENDBRANCH  11  15
ENDBRANCH   9  11
ENDBRANCH   8   9
BRANCH   8  23
HETATM   23  C   UNK A   1     -10.018   8.556  70.226  1.00  0.00    -0.183 C  
ATOM     24  OXT PRO A   2      -8.933   5.986  66.832  1.00  0.00    -0.114 OA 
HETATM   25  O   UNK A   1     -10.491   9.124  71.211  1.00  0.00    -0.274 OA 
ATOM     26  N   PRO A   2     -10.307   7.217  69.961  1.00  0.00    -0.208 N  
ATOM     27  CD  PRO A   2     -11.216   6.464  70.817  1.00  0.00    -0.327 C  
ATOM     28  O   PRO A   2     -10.942   6.870  67.370  1.00  0.00    -0.307 OA 
ATOM     29  C   PRO A   2      -9.717   6.383  67.679  1.00  0.00    -0.118 C  
ATOM     30  CA  PRO A   2      -9.457   6.302  69.182  1.00  0.00    -0.133 C  
ATOM     31  CB  PRO A   2      -9.792   4.896  69.691  1.00  0.00    -0.288 C  
ATOM     32  CG  PRO A   2     -10.548   5.114  70.995  1.00  0.00    -0.201 C  
ENDBRANCH   8  23
ENDBRANCH   7   8
ENDBRANCH   6   7
ENDBRANCH   5   6
ENDBRANCH   3   5
TORSDOF 10
ENDMDL
MODEL      263
REMARK 921   NORMALIZED FREE ENERGY PREDICTED BY IDOCK:   -3.16 KCAL/MOL
REMARK 922        TOTAL FREE ENERGY PREDICTED BY IDOCK:   -6.97 KCAL/MOL
REMARK 923 INTER-LIGAND FREE ENERGY PREDICTED BY IDOCK:   -5.41 KCAL/MOL
REMARK 924 INTRA-LIGAND FREE ENERGY PREDICTED BY IDOCK:   -1.55 KCAL/MOL
REMARK 927      BINDING AFFINITY PREDICTED BY RF-SCORE:    0.00 PKD
ROOT
HETATM    1  N   UNK A   1      -5.382   8.206  68.193  1.00  0.00    -0.033 NA 
HETATM    2  H2  UNK A   1      -5.747   7.817  69.062  1.00  0.00     0.000 HD 
HETATM    3  C   UNK A   1      -6.014   9.473  67.847  1.00  0.00    -0.051 C  
HETATM    4  H1  UNK A   1      -5.472   7.555  67.412  1.00  0.00     0.000 HD 
ENDROOT
BRANCH   3   5
HETATM    5  C   UNK A   1      -5.879  10.444  69.014  1.00  0.00    -0.040 C  
BRANCH   5   6
HETATM    6  C   UNK A   1      -7.241  10.819  69.613  1.00  0.00    -0.127 C  
BRANCH   6   7
HETATM    7  C   UNK A   1      -7.941   9.553  70.116  1.00  0.00    -0.171 C  
BRANCH   7   8
HETATM    8  C   UNK A   1      -9.381   9.337  69.619  1.00  0.00    -0.179 C  
BRANCH   8   9
HETATM    9  N   UNK A   1      -9.890  10.428  68.733  1.00  0.00    -0.176 NA 
HETATM   10  H   UNK A   1      -9.540  11.333  69.049  1.00  0.00     0.000 HD 
BRANCH   9  11
HETATM   11  C   UNK A   1      -9.599  10.242  67.276  1.00  0.00    -0.159 C  
HETATM   12  C   UNK A   1     -10.501  11.211  66.490  1.00  0.00    -0.255 C  
HETATM   13  O   UNK A   1     -10.246  11.659  65.382  1.00  0.00    -0.241 OA 
HETATM   14  O   UNK A   1     -11.637  11.513  67.168  1.00  0.00    -0.516 OA 
BRANCH  11  15
HETATM   15  C   UNK A   1      -9.876   8.797  66.805  1.00  0.00    -0.316 C  
BRANCH  15  16
HETATM   16  C   UNK A   1      -8.699   8.174  66.034  1.00  0.00    -0.182 C  
BRANCH  16  17
HETATM   17  C   UNK A   1      -8.757   6.664  65.996  1.00  0.00    -0.155 A  
HETATM   18  C   UNK A   1      -7.579   5.915  65.868  1.00  0.00    -0.086 A  
HETATM   19  C   UNK A   1      -8.842   3.856  65.927  1.00  0.00    -0.125 A  
HETATM   20  C   UNK A   1      -7.622   4.520  65.835  1.00  0.00    -0.086 A  
HETATM   21  C   UNK A   1     -10.019   4.587  66.070  1.00  0.00    -0.265 A  
HETATM   22  C   UNK A   1      -9.979   5.981  66.106  1.00  0.00    -0.003 A  
ENDBRANCH  16  17
ENDBRANCH  15  16
ENDBRANCH  11  15
ENDBRANCH   9  11
ENDBRANCH   8   9
BRANCH   8  23
HETATM   23  C   UNK A   1     -10.413   9.135  70.785  1.00  0.00    -0.257 C  
ATOM     24  OXT PRO A   2      -8.488   5.314  69.789  1.00  0.00    -0.096 OA 
HETATM   25  O   UNK A   1     -11.116  10.075  71.160  1.00  0.00    -0.333 OA 
ATOM     26  N   PRO A   2     -10.564   7.862  71.335  1.00  0.00    -0.210 N  
ATOM     27  CD  PRO A   2     -11.591   7.595  72.336  1.00  0.00    -0.336 C  
ATOM     28  O   PRO A   2     -10.612   5.986  69.408  1.00  0.00    -0.232 OA 
ATOM     29  C   PRO A   2      -9.456   5.984  70.112  1.00  0.00    -0.158 C  
ATOM     30  CA  PRO A   2      -9.517   6.827  71.385  1.00  0.00    -0.160 C  
ATOM     31  CB  PRO A   2      -9.874   5.937  72.579  1.00  0.00    -0.179 C  
ATOM     32  CG  PRO A   2     -10.901   6.732  73.375  1.00  0.00    -0.282 C  
ENDBRANCH   8  23
ENDBRANCH   7   8
ENDBRANCH   6   7
ENDBRANCH   5   6
ENDBRANCH   3   5
TORSDOF 10
ENDMDL
MODEL      264
REMARK 921   NORMALIZED FREE ENERGY PREDICTED BY IDOCK:   -3.16 KCAL/MOL
REMARK 922        TOTAL FREE ENERGY PREDICTED BY IDOCK:   -6.96 KCAL/MOL
REMARK 923 INTER-LIGAND FREE ENERGY PREDICTED BY IDOCK:   -5.31 KCAL/MOL
REMARK 924 INTRA-LIGAND FREE ENERGY PREDICTED BY IDOCK:   -1.65 KCAL/MOL
REMARK 927      BINDING AFFINITY PREDICTED BY RF-SCORE:    0.00 PKD
ROOT
HETATM    1  N   UNK A   1     -12.936  10.962  69.408  1.00  0.00    -0.310 NA 
HETATM    2  H2  UNK A   1     -12.652  10.567  70.304  1.00  0.00     0.000 HD 
HETATM    3  C   UNK A   1     -11.800  11.217  68.532  1.00  0.00    -0.260 C  
HETATM    4  H1  UNK A   1     -13.479  11.819  69.520  1.00  0.00     0.000 HD 
ENDROOT
BRANCH   3   5
HETATM    5  C   UNK A   1     -10.990   9.936  68.364  1.00  0.00    -0.235 C  
BRANCH   5   6
HETATM    6  C   UNK A   1     -10.502   9.747  66.922  1.00  0.00    -0.281 C  
BRANCH   6   7
HETATM    7  C   UNK A   1      -9.001  10.046  66.851  1.00  0.00    -0.150 C  
BRANCH   7   8
HETATM    8  C   UNK A   1      -8.229   9.940  68.177  1.00  0.00    -0.109 C  
BRANCH   8   9
HETATM    9  N   UNK A   1      -7.849  11.260  68.768  1.00  0.00    -0.141 NA 
HETATM   10  H   UNK A   1      -7.050  11.150  69.393  1.00  0.00     0.000 HD 
BRANCH   9  11
HETATM   11  C   UNK A   1      -7.580  12.341  67.768  1.00  0.00    -0.131 C  
HETATM   12  C   UNK A   1      -6.115  12.785  67.940  1.00  0.00    -0.116 C  
HETATM   13  O   UNK A   1      -5.430  13.285  67.061  1.00  0.00    -0.257 OA 
HETATM   14  O   UNK A   1      -5.661  12.565  69.199  1.00  0.00    -0.067 OA 
BRANCH  11  15
HETATM   15  C   UNK A   1      -8.506  13.562  67.966  1.00  0.00    -0.176 C  
BRANCH  15  16
HETATM   16  C   UNK A   1      -8.686  14.399  66.688  1.00  0.00    -0.131 C  
BRANCH  16  17
HETATM   17  C   UNK A   1      -9.347  15.734  66.949  1.00  0.00    -0.246 A  
HETATM   18  C   UNK A   1      -9.556  16.637  65.898  1.00  0.00    -0.248 A  
HETATM   19  C   UNK A   1     -10.578  18.217  67.414  1.00  0.00    -0.406 A  
HETATM   20  C   UNK A   1     -10.169  17.870  66.130  1.00  0.00    -0.343 A  
HETATM   21  C   UNK A   1     -10.391  17.323  68.466  1.00  0.00    -0.371 A  
HETATM   22  C   UNK A   1      -9.781  16.089  68.237  1.00  0.00    -0.214 A  
ENDBRANCH  16  17
ENDBRANCH  15  16
ENDBRANCH  11  15
ENDBRANCH   9  11
ENDBRANCH   8   9
BRANCH   8  23
HETATM   23  C   UNK A   1      -6.931   9.063  68.068  1.00  0.00    -0.077 C  
ATOM     24  OXT PRO A   2      -8.547   8.875  72.149  1.00  0.00    -0.381 OA 
HETATM   25  O   UNK A   1      -6.281   9.045  67.021  1.00  0.00    -0.057 OA 
ATOM     26  N   PRO A   2      -6.496   8.365  69.195  1.00  0.00    -0.042 N  
ATOM     27  CD  PRO A   2      -5.234   7.633  69.183  1.00  0.00    -0.018 C  
ATOM     28  O   PRO A   2      -6.676   9.898  71.398  1.00  0.00    -0.323 OA 
ATOM     29  C   PRO A   2      -7.621   8.929  71.355  1.00  0.00    -0.084 C  
ATOM     30  CA  PRO A   2      -7.363   7.875  70.280  1.00  0.00    -0.065 C  
ATOM     31  CB  PRO A   2      -6.623   6.682  70.891  1.00  0.00    -0.053 C  
ATOM     32  CG  PRO A   2      -5.542   6.323  69.880  1.00  0.00    -0.014 C  
ENDBRANCH   8  23
ENDBRANCH   7   8
ENDBRANCH   6   7
ENDBRANCH   5   6
ENDBRANCH   3   5
TORSDOF 10
ENDMDL
MODEL      265
REMARK 921   NORMALIZED FREE ENERGY PREDICTED BY IDOCK:   -3.15 KCAL/MOL
REMARK 922        TOTAL FREE ENERGY PREDICTED BY IDOCK:   -6.95 KCAL/MOL
REMARK 923 INTER-LIGAND FREE ENERGY PREDICTED BY IDOCK:   -5.40 KCAL/MOL
REMARK 924 INTRA-LIGAND FREE ENERGY PREDICTED BY IDOCK:   -1.55 KCAL/MOL
REMARK 927      BINDING AFFINITY PREDICTED BY RF-SCORE:    0.00 PKD
ROOT
HETATM    1  N   UNK A   1     -14.346   9.098  70.779  1.00  0.00    -0.325 NA 
HETATM    2  H2  UNK A   1     -13.719   8.716  70.070  1.00  0.00     0.000 HD 
HETATM    3  C   UNK A   1     -13.856   8.865  72.131  1.00  0.00    -0.473 C  
HETATM    4  H1  UNK A   1     -15.294   8.732  70.692  1.00  0.00     0.000 HD 
ENDROOT
BRANCH   3   5
HETATM    5  C   UNK A   1     -12.439   9.412  72.261  1.00  0.00    -0.338 C  
BRANCH   5   6
HETATM    6  C   UNK A   1     -11.827   9.759  70.898  1.00  0.00    -0.420 C  
BRANCH   6   7
HETATM    7  C   UNK A   1     -10.390   9.234  70.837  1.00  0.00    -0.367 C  
BRANCH   7   8
HETATM    8  C   UNK A   1     -10.220   7.796  70.315  1.00  0.00    -0.199 C  
BRANCH   8   9
HETATM    9  N   UNK A   1     -11.287   7.364  69.361  1.00  0.00    -0.456 NA 
HETATM   10  H   UNK A   1     -12.117   7.948  69.471  1.00  0.00     0.000 HD 
BRANCH   9  11
HETATM   11  C   UNK A   1     -10.868   7.326  67.925  1.00  0.00    -0.114 C  
HETATM   12  C   UNK A   1     -10.737   5.847  67.514  1.00  0.00    -0.276 C  
HETATM   13  O   UNK A   1     -10.859   5.426  66.374  1.00  0.00    -0.284 OA 
HETATM   14  O   UNK A   1     -10.459   5.047  68.574  1.00  0.00    -0.084 OA 
BRANCH  11  15
HETATM   15  C   UNK A   1      -9.517   8.037  67.692  1.00  0.00    -0.171 C  
BRANCH  15  16
HETATM   16  C   UNK A   1      -9.414   8.705  66.310  1.00  0.00    -0.307 C  
BRANCH  16  17
HETATM   17  C   UNK A   1      -7.996   9.080  65.943  1.00  0.00    -0.103 A  
HETATM   18  C   UNK A   1      -7.745   9.895  64.831  1.00  0.00    -0.134 A  
HETATM   19  C   UNK A   1      -5.368   9.790  65.247  1.00  0.00    -0.051 A  
HETATM   20  C   UNK A   1      -6.439  10.249  64.487  1.00  0.00    -0.092 A  
HETATM   21  C   UNK A   1      -5.603   8.991  66.364  1.00  0.00    -0.049 A  
HETATM   22  C   UNK A   1      -6.907   8.638  66.712  1.00  0.00    -0.069 A  
ENDBRANCH  16  17
ENDBRANCH  15  16
ENDBRANCH  11  15
ENDBRANCH   9  11
ENDBRANCH   8   9
BRANCH   8  23
HETATM   23  C   UNK A   1     -10.132   6.729  71.464  1.00  0.00    -0.181 C  
ATOM     24  OXT PRO A   2      -6.104   7.778  70.058  1.00  0.00    -0.026 OA 
HETATM   25  O   UNK A   1     -11.160   6.245  71.941  1.00  0.00    -0.244 OA 
ATOM     26  N   PRO A   2      -8.873   6.293  71.880  1.00  0.00    -0.139 N  
ATOM     27  CD  PRO A   2      -8.738   5.219  72.858  1.00  0.00    -0.118 C  
ATOM     28  O   PRO A   2      -7.264   5.859  69.769  1.00  0.00    -0.066 OA 
ATOM     29  C   PRO A   2      -6.934   6.977  70.459  1.00  0.00    -0.062 C  
ATOM     30  CA  PRO A   2      -7.634   7.085  71.812  1.00  0.00    -0.088 C  
ATOM     31  CB  PRO A   2      -6.726   6.524  72.911  1.00  0.00    -0.068 C  
ATOM     32  CG  PRO A   2      -7.641   5.687  73.794  1.00  0.00    -0.097 C  
ENDBRANCH   8  23
ENDBRANCH   7   8
ENDBRANCH   6   7
ENDBRANCH   5   6
ENDBRANCH   3   5
TORSDOF 10
ENDMDL
MODEL      266
REMARK 921   NORMALIZED FREE ENERGY PREDICTED BY IDOCK:   -3.15 KCAL/MOL
REMARK 922        TOTAL FREE ENERGY PREDICTED BY IDOCK:   -6.94 KCAL/MOL
REMARK 923 INTER-LIGAND FREE ENERGY PREDICTED BY IDOCK:   -5.49 KCAL/MOL
REMARK 924 INTRA-LIGAND FREE ENERGY PREDICTED BY IDOCK:   -1.45 KCAL/MOL
REMARK 927      BINDING AFFINITY PREDICTED BY RF-SCORE:    0.00 PKD
ROOT
HETATM    1  N   UNK A   1     -11.790  13.534  68.462  1.00  0.00    -0.348 NA 
HETATM    2  H2  UNK A   1     -11.283  12.818  68.983  1.00  0.00     0.000 HD 
HETATM    3  C   UNK A   1     -11.402  13.574  67.058  1.00  0.00    -0.324 C  
HETATM    4  H1  UNK A   1     -11.678  14.461  68.874  1.00  0.00     0.000 HD 
ENDROOT
BRANCH   3   5
HETATM    5  C   UNK A   1     -11.570  12.189  66.444  1.00  0.00    -0.429 C  
BRANCH   5   6
HETATM    6  C   UNK A   1     -10.330  11.311  66.653  1.00  0.00    -0.279 C  
BRANCH   6   7
HETATM    7  C   UNK A   1     -10.652   9.870  66.242  1.00  0.00    -0.089 C  
BRANCH   7   8
HETATM    8  C   UNK A   1      -9.726   8.784  66.816  1.00  0.00    -0.221 C  
BRANCH   8   9
HETATM    9  N   UNK A   1      -8.698   8.287  65.851  1.00  0.00    -0.152 NA 
HETATM   10  H   UNK A   1      -8.601   8.938  65.072  1.00  0.00     0.000 HD 
BRANCH   9  11
HETATM   11  C   UNK A   1      -7.359   7.998  66.454  1.00  0.00    -0.083 C  
HETATM   12  C   UNK A   1      -6.541   9.303  66.427  1.00  0.00    -0.067 C  
HETATM   13  O   UNK A   1      -5.632   9.573  67.197  1.00  0.00    -0.040 OA 
HETATM   14  O   UNK A   1      -6.939  10.133  65.431  1.00  0.00    -0.126 OA 
BRANCH  11  15
HETATM   15  C   UNK A   1      -6.593   6.904  65.678  1.00  0.00    -0.051 C  
BRANCH  15  16
HETATM   16  C   UNK A   1      -7.131   5.487  65.939  1.00  0.00    -0.068 C  
BRANCH  16  17
HETATM   17  C   UNK A   1      -8.010   4.977  64.818  1.00  0.00    -0.100 A  
HETATM   18  C   UNK A   1      -9.188   4.277  65.108  1.00  0.00    -0.151 A  
HETATM   19  C   UNK A   1      -9.657   4.026  62.751  1.00  0.00    -0.135 A  
HETATM   20  C   UNK A   1     -10.007   3.806  64.079  1.00  0.00    -0.190 A  
HETATM   21  C   UNK A   1      -8.496   4.734  62.449  1.00  0.00    -0.101 A  
HETATM   22  C   UNK A   1      -7.677   5.209  63.474  1.00  0.00    -0.077 A  
ENDBRANCH  16  17
ENDBRANCH  15  16
ENDBRANCH  11  15
ENDBRANCH   9  11
ENDBRANCH   8   9
BRANCH   8  23
HETATM   23  C   UNK A   1     -10.507   7.542  67.379  1.00  0.00    -0.297 C  
ATOM     24  OXT PRO A   2      -8.427   9.628  70.638  1.00  0.00    -0.212 OA 
HETATM   25  O   UNK A   1     -11.093   6.778  66.610  1.00  0.00    -0.243 OA 
ATOM     26  N   PRO A   2     -10.463   7.287  68.750  1.00  0.00    -0.201 N  
ATOM     27  CD  PRO A   2     -11.070   6.083  69.307  1.00  0.00    -0.354 C  
ATOM     28  O   PRO A   2      -7.972   7.620  69.706  1.00  0.00    -0.111 OA 
ATOM     29  C   PRO A   2      -8.812   8.615  70.076  1.00  0.00    -0.142 C  
ATOM     30  CA  PRO A   2     -10.282   8.304  69.799  1.00  0.00    -0.204 C  
ATOM     31  CB  PRO A   2     -10.933   7.720  71.056  1.00  0.00    -0.260 C  
ATOM     32  CG  PRO A   2     -11.781   6.555  70.560  1.00  0.00    -0.438 C  
ENDBRANCH   8  23
ENDBRANCH   7   8
ENDBRANCH   6   7
ENDBRANCH   5   6
ENDBRANCH   3   5
TORSDOF 10
ENDMDL
MODEL      267
REMARK 921   NORMALIZED FREE ENERGY PREDICTED BY IDOCK:   -3.14 KCAL/MOL
REMARK 922        TOTAL FREE ENERGY PREDICTED BY IDOCK:   -6.93 KCAL/MOL
REMARK 923 INTER-LIGAND FREE ENERGY PREDICTED BY IDOCK:   -5.34 KCAL/MOL
REMARK 924 INTRA-LIGAND FREE ENERGY PREDICTED BY IDOCK:   -1.59 KCAL/MOL
REMARK 927      BINDING AFFINITY PREDICTED BY RF-SCORE:    0.00 PKD
ROOT
HETATM    1  N   UNK A   1      -9.038   9.436  63.476  1.00  0.00    -0.420 NA 
HETATM    2  H2  UNK A   1      -8.495   8.679  63.058  1.00  0.00     0.000 HD 
HETATM    3  C   UNK A   1      -8.936   9.450  64.929  1.00  0.00    -0.209 C  
HETATM    4  H1  UNK A   1     -10.021   9.400  63.203  1.00  0.00     0.000 HD 
ENDROOT
BRANCH   3   5
HETATM    5  C   UNK A   1      -7.467   9.504  65.336  1.00  0.00    -0.099 C  
BRANCH   5   6
HETATM    6  C   UNK A   1      -7.243   8.968  66.756  1.00  0.00    -0.086 C  
BRANCH   6   7
HETATM    7  C   UNK A   1      -8.319   9.533  67.688  1.00  0.00    -0.125 C  
BRANCH   7   8
HETATM    8  C   UNK A   1      -9.154   8.495  68.458  1.00  0.00    -0.135 C  
BRANCH   8   9
HETATM    9  N   UNK A   1     -10.625   8.762  68.440  1.00  0.00    -0.378 NA 
HETATM   10  H   UNK A   1     -11.118   8.060  68.991  1.00  0.00     0.000 HD 
BRANCH   9  11
HETATM   11  C   UNK A   1     -11.020  10.137  68.879  1.00  0.00    -0.223 C  
HETATM   12  C   UNK A   1     -11.798  10.001  70.202  1.00  0.00    -0.173 C  
HETATM   13  O   UNK A   1     -11.879  10.871  71.056  1.00  0.00    -0.310 OA 
HETATM   14  O   UNK A   1     -12.404   8.793  70.314  1.00  0.00     0.278 OA 
BRANCH  11  15
HETATM   15  C   UNK A   1     -11.910  10.851  67.838  1.00  0.00     0.015 C  
BRANCH  15  16
HETATM   16  C   UNK A   1     -11.117  11.754  66.879  1.00  0.00    -0.361 C  
BRANCH  16  17
HETATM   17  C   UNK A   1     -10.798  13.106  67.477  1.00  0.00    -0.269 A  
HETATM   18  C   UNK A   1      -9.941  13.991  66.807  1.00  0.00    -0.268 A  
HETATM   19  C   UNK A   1     -10.195  15.624  68.568  1.00  0.00    -0.211 A  
HETATM   20  C   UNK A   1      -9.644  15.242  67.349  1.00  0.00    -0.207 A  
HETATM   21  C   UNK A   1     -11.060  14.762  69.238  1.00  0.00    -0.283 A  
HETATM   22  C   UNK A   1     -11.361  13.511  68.697  1.00  0.00    -0.323 A  
ENDBRANCH  16  17
ENDBRANCH  15  16
ENDBRANCH  11  15
ENDBRANCH   9  11
ENDBRANCH   8   9
BRANCH   8  23
HETATM   23  C   UNK A   1      -8.707   8.330  69.955  1.00  0.00    -0.134 C  
ATOM     24  OXT PRO A   2     -10.252   4.520  68.407  1.00  0.00    -0.020 OA 
HETATM   25  O   UNK A   1      -8.317   9.307  70.596  1.00  0.00    -0.183 OA 
ATOM     26  N   PRO A   2      -8.828   7.078  70.557  1.00  0.00    -0.153 N  
ATOM     27  CD  PRO A   2      -8.541   6.898  71.976  1.00  0.00    -0.121 C  
ATOM     28  O   PRO A   2     -11.173   5.929  69.915  1.00  0.00    -0.378 OA 
ATOM     29  C   PRO A   2     -10.120   5.354  69.289  1.00  0.00    -0.231 C  
ATOM     30  CA  PRO A   2      -8.767   5.786  69.853  1.00  0.00    -0.128 C  
ATOM     31  CB  PRO A   2      -8.293   4.770  70.897  1.00  0.00    -0.101 C  
ATOM     32  CG  PRO A   2      -7.750   5.606  72.048  1.00  0.00    -0.102 C  
ENDBRANCH   8  23
ENDBRANCH   7   8
ENDBRANCH   6   7
ENDBRANCH   5   6
ENDBRANCH   3   5
TORSDOF 10
ENDMDL
MODEL      268
REMARK 921   NORMALIZED FREE ENERGY PREDICTED BY IDOCK:   -3.13 KCAL/MOL
REMARK 922        TOTAL FREE ENERGY PREDICTED BY IDOCK:   -6.91 KCAL/MOL
REMARK 923 INTER-LIGAND FREE ENERGY PREDICTED BY IDOCK:   -6.24 KCAL/MOL
REMARK 924 INTRA-LIGAND FREE ENERGY PREDICTED BY IDOCK:   -0.67 KCAL/MOL
REMARK 927      BINDING AFFINITY PREDICTED BY RF-SCORE:    0.00 PKD
ROOT
HETATM    1  N   UNK A   1      -9.946   9.901  63.817  1.00  0.00    -0.421 NA 
HETATM    2  H2  UNK A   1     -10.438   9.096  63.429  1.00  0.00     0.000 HD 
HETATM    3  C   UNK A   1      -9.667   9.744  65.238  1.00  0.00    -0.300 C  
HETATM    4  H1  UNK A   1     -10.452  10.773  63.663  1.00  0.00     0.000 HD 
ENDROOT
BRANCH   3   5
HETATM    5  C   UNK A   1      -8.910   8.441  65.468  1.00  0.00    -0.172 C  
BRANCH   5   6
HETATM    6  C   UNK A   1      -9.682   7.478  66.379  1.00  0.00    -0.180 C  
BRANCH   6   7
HETATM    7  C   UNK A   1      -9.511   7.912  67.839  1.00  0.00    -0.160 C  
BRANCH   7   8
HETATM    8  C   UNK A   1      -9.788   6.832  68.899  1.00  0.00    -0.145 C  
BRANCH   8   9
HETATM    9  N   UNK A   1      -9.940   5.454  68.340  1.00  0.00    -0.151 NA 
HETATM   10  H   UNK A   1      -9.923   5.482  67.320  1.00  0.00     0.000 HD 
BRANCH   9  11
HETATM   11  C   UNK A   1      -8.944   4.457  68.847  1.00  0.00    -0.109 C  
HETATM   12  C   UNK A   1      -8.521   3.572  67.659  1.00  0.00    -0.096 C  
HETATM   13  O   UNK A   1      -7.453   2.986  67.573  1.00  0.00    -0.060 OA 
HETATM   14  O   UNK A   1      -9.483   3.505  66.706  1.00  0.00    -0.196 OA 
BRANCH  11  15
HETATM   15  C   UNK A   1      -9.530   3.563  69.962  1.00  0.00    -0.253 C  
BRANCH  15  16
HETATM   16  C   UNK A   1      -8.692   3.576  71.252  1.00  0.00    -0.121 C  
BRANCH  16  17
HETATM   17  C   UNK A   1      -9.204   4.566  72.274  1.00  0.00    -0.157 A  
HETATM   18  C   UNK A   1      -8.307   5.365  72.995  1.00  0.00    -0.112 A  
HETATM   19  C   UNK A   1     -10.136   6.415  74.174  1.00  0.00    -0.353 A  
HETATM   20  C   UNK A   1      -8.772   6.284  73.938  1.00  0.00    -0.128 A  
HETATM   21  C   UNK A   1     -11.041   5.638  73.453  1.00  0.00    -0.238 A  
HETATM   22  C   UNK A   1     -10.580   4.721  72.508  1.00  0.00    -0.262 A  
ENDBRANCH  16  17
ENDBRANCH  15  16
ENDBRANCH  11  15
ENDBRANCH   9  11
ENDBRANCH   8   9
BRANCH   8  23
HETATM   23  C   UNK A   1     -11.050   7.142  69.780  1.00  0.00    -0.210 C  
ATOM     24  OXT PRO A   2      -8.291  10.561  69.830  1.00  0.00    -0.087 OA 
HETATM   25  O   UNK A   1     -11.909   6.277  69.960  1.00  0.00    -0.351 OA 
ATOM     26  N   PRO A   2     -11.142   8.385  70.408  1.00  0.00    -0.244 N  
ATOM     27  CD  PRO A   2     -12.232   8.679  71.332  1.00  0.00    -0.304 C  
ATOM     28  O   PRO A   2      -8.778   9.093  71.479  1.00  0.00    -0.334 OA 
ATOM     29  C   PRO A   2      -9.085   9.805  70.368  1.00  0.00    -0.097 C  
ATOM     30  CA  PRO A   2     -10.534   9.633  69.917  1.00  0.00    -0.253 C  
ATOM     31  CB  PRO A   2     -11.393  10.763  70.491  1.00  0.00    -0.289 C  
ATOM     32  CG  PRO A   2     -12.668  10.087  70.976  1.00  0.00    -0.455 C  
ENDBRANCH   8  23
ENDBRANCH   7   8
ENDBRANCH   6   7
ENDBRANCH   5   6
ENDBRANCH   3   5
TORSDOF 10
ENDMDL
MODEL      269
REMARK 921   NORMALIZED FREE ENERGY PREDICTED BY IDOCK:   -3.09 KCAL/MOL
REMARK 922        TOTAL FREE ENERGY PREDICTED BY IDOCK:   -6.85 KCAL/MOL
REMARK 923 INTER-LIGAND FREE ENERGY PREDICTED BY IDOCK:   -5.84 KCAL/MOL
REMARK 924 INTRA-LIGAND FREE ENERGY PREDICTED BY IDOCK:   -1.01 KCAL/MOL
REMARK 927      BINDING AFFINITY PREDICTED BY RF-SCORE:    0.00 PKD
ROOT
HETATM    1  N   UNK A   1      -8.363   9.973  69.396  1.00  0.00    -0.151 NA 
HETATM    2  H2  UNK A   1      -8.020   9.069  69.070  1.00  0.00     0.000 HD 
HETATM    3  C   UNK A   1      -7.380  11.033  69.215  1.00  0.00    -0.113 C  
HETATM    4  H1  UNK A   1      -8.658   9.944  70.372  1.00  0.00     0.000 HD 
ENDROOT
BRANCH   3   5
HETATM    5  C   UNK A   1      -6.940  11.076  67.756  1.00  0.00    -0.080 C  
BRANCH   5   6
HETATM    6  C   UNK A   1      -7.834  11.991  66.910  1.00  0.00    -0.095 C  
BRANCH   6   7
HETATM    7  C   UNK A   1      -8.175  11.290  65.591  1.00  0.00     0.133 C  
BRANCH   7   8
HETATM    8  C   UNK A   1      -9.498  10.504  65.569  1.00  0.00    -0.216 C  
BRANCH   8   9
HETATM    9  N   UNK A   1      -9.381   9.132  64.988  1.00  0.00    -0.452 NA 
HETATM   10  H   UNK A   1      -9.780   9.111  64.049  1.00  0.00     0.000 HD 
BRANCH   9  11
HETATM   11  C   UNK A   1      -7.993   8.571  64.973  1.00  0.00    -0.131 C  
HETATM   12  C   UNK A   1      -7.472   8.647  63.525  1.00  0.00    -0.110 C  
HETATM   13  O   UNK A   1      -6.294   8.713  63.211  1.00  0.00    -0.085 OA 
HETATM   14  O   UNK A   1      -8.481   8.623  62.619  1.00  0.00    -0.201 OA 
BRANCH  11  15
HETATM   15  C   UNK A   1      -7.951   7.103  65.450  1.00  0.00    -0.125 C  
BRANCH  15  16
HETATM   16  C   UNK A   1      -7.124   6.190  64.530  1.00  0.00    -0.057 C  
BRANCH  16  17
HETATM   17  C   UNK A   1      -7.833   4.897  64.195  1.00  0.00    -0.092 A  
HETATM   18  C   UNK A   1      -7.182   3.908  63.444  1.00  0.00    -0.050 A  
HETATM   19  C   UNK A   1      -9.132   2.486  63.565  1.00  0.00    -0.093 A  
HETATM   20  C   UNK A   1      -7.829   2.710  63.133  1.00  0.00    -0.068 A  
HETATM   21  C   UNK A   1      -9.786   3.454  64.325  1.00  0.00    -0.166 A  
HETATM   22  C   UNK A   1      -9.141   4.651  64.640  1.00  0.00    -0.141 A  
ENDBRANCH  16  17
ENDBRANCH  15  16
ENDBRANCH  11  15
ENDBRANCH   9  11
ENDBRANCH   8   9
BRANCH   8  23
HETATM   23  C   UNK A   1     -10.651  11.257  64.814  1.00  0.00    -0.312 C  
ATOM     24  OXT PRO A   2     -10.738  12.254  69.092  1.00  0.00    -0.163 OA 
HETATM   25  O   UNK A   1     -10.845  11.050  63.615  1.00  0.00    -0.319 OA 
ATOM     26  N   PRO A   2     -11.487  12.106  65.541  1.00  0.00    -0.350 N  
ATOM     27  CD  PRO A   2     -12.644  12.735  64.913  1.00  0.00    -0.470 C  
ATOM     28  O   PRO A   2     -12.175  10.990  67.889  1.00  0.00    -0.438 OA 
ATOM     29  C   PRO A   2     -11.285  12.001  68.030  1.00  0.00    -0.258 C  
ATOM     30  CA  PRO A   2     -11.105  12.834  66.762  1.00  0.00    -0.277 C  
ATOM     31  CB  PRO A   2     -12.022  14.060  66.814  1.00  0.00    -0.473 C  
ATOM     32  CG  PRO A   2     -12.626  14.164  65.420  1.00  0.00    -0.485 C  
ENDBRANCH   8  23
ENDBRANCH   7   8
ENDBRANCH   6   7
ENDBRANCH   5   6
ENDBRANCH   3   5
TORSDOF 10
ENDMDL
MODEL      270
REMARK 921   NORMALIZED FREE ENERGY PREDICTED BY IDOCK:   -3.07 KCAL/MOL
REMARK 922        TOTAL FREE ENERGY PREDICTED BY IDOCK:   -6.83 KCAL/MOL
REMARK 923 INTER-LIGAND FREE ENERGY PREDICTED BY IDOCK:   -4.89 KCAL/MOL
REMARK 924 INTRA-LIGAND FREE ENERGY PREDICTED BY IDOCK:   -1.93 KCAL/MOL
REMARK 927      BINDING AFFINITY PREDICTED BY RF-SCORE:    0.00 PKD
ROOT
HETATM    1  N   UNK A   1     -10.631  12.538  68.464  1.00  0.00    -0.240 NA 
HETATM    2  H2  UNK A   1     -10.019  11.894  68.966  1.00  0.00     0.000 HD 
HETATM    3  C   UNK A   1     -10.821  12.147  67.073  1.00  0.00    -0.247 C  
HETATM    4  H1  UNK A   1     -10.295  13.500  68.505  1.00  0.00     0.000 HD 
ENDROOT
BRANCH   3   5
HETATM    5  C   UNK A   1     -11.324  10.709  67.012  1.00  0.00     0.023 C  
BRANCH   5   6
HETATM    6  C   UNK A   1     -10.175   9.701  66.884  1.00  0.00    -0.304 C  
BRANCH   6   7
HETATM    7  C   UNK A   1     -10.617   8.350  67.455  1.00  0.00    -0.313 C  
BRANCH   7   8
HETATM    8  C   UNK A   1     -10.214   8.070  68.913  1.00  0.00    -0.209 C  
BRANCH   8   9
HETATM    9  N   UNK A   1      -8.817   7.564  69.072  1.00  0.00    -0.133 NA 
HETATM   10  H   UNK A   1      -8.298   7.678  68.202  1.00  0.00     0.000 HD 
BRANCH   9  11
HETATM   11  C   UNK A   1      -8.056   8.166  70.212  1.00  0.00    -0.109 C  
HETATM   12  C   UNK A   1      -7.309   9.402  69.675  1.00  0.00    -0.077 C  
HETATM   13  O   UNK A   1      -6.975  10.363  70.351  1.00  0.00    -0.253 OA 
HETATM   14  O   UNK A   1      -7.048   9.302  68.348  1.00  0.00    -0.071 OA 
BRANCH  11  15
HETATM   15  C   UNK A   1      -7.034   7.180  70.819  1.00  0.00    -0.061 C  
BRANCH  15  16
HETATM   16  C   UNK A   1      -7.494   6.577  72.157  1.00  0.00    -0.092 C  
BRANCH  16  17
HETATM   17  C   UNK A   1      -8.261   5.285  71.986  1.00  0.00    -0.118 A  
HETATM   18  C   UNK A   1      -9.562   5.164  72.493  1.00  0.00    -0.173 A  
HETATM   19  C   UNK A   1      -9.705   2.895  71.675  1.00  0.00    -0.226 A  
HETATM   20  C   UNK A   1     -10.279   3.976  72.336  1.00  0.00    -0.232 A  
HETATM   21  C   UNK A   1      -8.418   3.007  71.152  1.00  0.00    -0.095 A  
HETATM   22  C   UNK A   1      -7.700   4.194  71.305  1.00  0.00    -0.070 A  
ENDBRANCH  16  17
ENDBRANCH  15  16
ENDBRANCH  11  15
ENDBRANCH   9  11
ENDBRANCH   8   9
BRANCH   8  23
HETATM   23  C   UNK A   1     -11.182   7.069  69.640  1.00  0.00    -0.182 C  
ATOM     24  OXT PRO A   2     -11.751  11.133  71.208  1.00  0.00     0.031 OA 
HETATM   25  O   UNK A   1     -11.121   5.863  69.397  1.00  0.00    -0.363 OA 
ATOM     26  N   PRO A   2     -12.055   7.563  70.609  1.00  0.00    -0.155 N  
ATOM     27  CD  PRO A   2     -12.888   6.662  71.397  1.00  0.00    -0.101 C  
ATOM     28  O   PRO A   2     -10.810   9.336  72.204  1.00  0.00    -0.215 OA 
ATOM     29  C   PRO A   2     -11.678   9.922  71.346  1.00  0.00    -0.371 C  
ATOM     30  CA  PRO A   2     -12.602   8.930  70.643  1.00  0.00     0.257 C  
ATOM     31  CB  PRO A   2     -13.926   8.825  71.407  1.00  0.00    -0.321 C  
ATOM     32  CG  PRO A   2     -14.246   7.336  71.446  1.00  0.00    -0.476 C  
ENDBRANCH   8  23
ENDBRANCH   7   8
ENDBRANCH   6   7
ENDBRANCH   5   6
ENDBRANCH   3   5
TORSDOF 10
ENDMDL
MODEL      271
REMARK 921   NORMALIZED FREE ENERGY PREDICTED BY IDOCK:   -3.04 KCAL/MOL
REMARK 922        TOTAL FREE ENERGY PREDICTED BY IDOCK:   -6.78 KCAL/MOL
REMARK 923 INTER-LIGAND FREE ENERGY PREDICTED BY IDOCK:   -6.32 KCAL/MOL
REMARK 924 INTRA-LIGAND FREE ENERGY PREDICTED BY IDOCK:   -0.46 KCAL/MOL
REMARK 927      BINDING AFFINITY PREDICTED BY RF-SCORE:    0.00 PKD
ROOT
HETATM    1  N   UNK A   1      -8.076   8.835  72.666  1.00  0.00    -0.390 NA 
HETATM    2  H2  UNK A   1      -8.445   9.636  72.155  1.00  0.00     0.000 HD 
HETATM    3  C   UNK A   1      -9.103   8.162  73.452  1.00  0.00    -0.239 C  
HETATM    4  H1  UNK A   1      -7.296   9.091  73.273  1.00  0.00     0.000 HD 
ENDROOT
BRANCH   3   5
HETATM    5  C   UNK A   1     -10.268   7.779  72.545  1.00  0.00    -0.320 C  
BRANCH   5   6
HETATM    6  C   UNK A   1      -9.900   7.878  71.060  1.00  0.00    -0.189 C  
BRANCH   6   7
HETATM    7  C   UNK A   1     -10.938   8.740  70.335  1.00  0.00    -0.262 C  
BRANCH   7   8
HETATM    8  C   UNK A   1     -10.497   9.334  68.986  1.00  0.00    -0.216 C  
BRANCH   8   9
HETATM    9  N   UNK A   1     -10.244   8.313  67.924  1.00  0.00    -0.209 NA 
HETATM   10  H   UNK A   1      -9.668   8.710  67.182  1.00  0.00     0.000 HD 
BRANCH   9  11
HETATM   11  C   UNK A   1      -9.646   7.031  68.414  1.00  0.00    -0.135 C  
HETATM   12  C   UNK A   1      -8.260   6.880  67.760  1.00  0.00    -0.117 C  
HETATM   13  O   UNK A   1      -7.331   6.243  68.234  1.00  0.00    -0.082 OA 
HETATM   14  O   UNK A   1      -8.182   7.535  66.575  1.00  0.00    -0.115 OA 
BRANCH  11  15
HETATM   15  C   UNK A   1     -10.514   5.805  68.051  1.00  0.00    -0.286 C  
BRANCH  15  16
HETATM   16  C   UNK A   1     -10.757   5.662  66.538  1.00  0.00    -0.296 C  
BRANCH  16  17
HETATM   17  C   UNK A   1     -10.174   4.387  65.969  1.00  0.00    -0.246 A  
HETATM   18  C   UNK A   1     -10.406   4.040  64.632  1.00  0.00    -0.220 A  
HETATM   19  C   UNK A   1      -9.098   2.026  64.892  1.00  0.00    -0.130 A  
HETATM   20  C   UNK A   1      -9.870   2.867  64.097  1.00  0.00    -0.148 A  
HETATM   21  C   UNK A   1      -8.847   2.366  66.220  1.00  0.00    -0.131 A  
HETATM   22  C   UNK A   1      -9.379   3.539  66.756  1.00  0.00    -0.203 A  
ENDBRANCH  16  17
ENDBRANCH  15  16
ENDBRANCH  11  15
ENDBRANCH   9  11
ENDBRANCH   8   9
BRANCH   8  23
HETATM   23  C   UNK A   1      -9.222  10.244  69.101  1.00  0.00    -0.194 C  
ATOM     24  OXT PRO A   2     -12.085  11.995  66.265  1.00  0.00    -0.596 OA 
HETATM   25  O   UNK A   1      -8.265   9.886  69.789  1.00  0.00    -0.151 OA 
ATOM     26  N   PRO A   2      -9.171  11.423  68.356  1.00  0.00    -0.179 N  
ATOM     27  CD  PRO A   2      -7.964  12.243  68.333  1.00  0.00    -0.152 C  
ATOM     28  O   PRO A   2     -10.086  11.020  65.860  1.00  0.00    -0.232 OA 
ATOM     29  C   PRO A   2     -10.951  11.726  66.627  1.00  0.00    -0.294 C  
ATOM     30  CA  PRO A   2     -10.338  12.217  67.938  1.00  0.00    -0.206 C  
ATOM     31  CB  PRO A   2      -9.823  13.649  67.764  1.00  0.00    -0.232 C  
ATOM     32  CG  PRO A   2      -8.465  13.669  68.454  1.00  0.00    -0.147 C  
ENDBRANCH   8  23
ENDBRANCH   7   8
ENDBRANCH   6   7
ENDBRANCH   5   6
ENDBRANCH   3   5
TORSDOF 10
ENDMDL
MODEL      272
REMARK 921   NORMALIZED FREE ENERGY PREDICTED BY IDOCK:   -3.04 KCAL/MOL
REMARK 922        TOTAL FREE ENERGY PREDICTED BY IDOCK:   -6.77 KCAL/MOL
REMARK 923 INTER-LIGAND FREE ENERGY PREDICTED BY IDOCK:   -8.17 KCAL/MOL
REMARK 924 INTRA-LIGAND FREE ENERGY PREDICTED BY IDOCK:    1.40 KCAL/MOL
REMARK 927      BINDING AFFINITY PREDICTED BY RF-SCORE:    0.00 PKD
ROOT
HETATM    1  N   UNK A   1     -14.084   6.973  71.856  1.00  0.00    -0.549 NA 
HETATM    2  H2  UNK A   1     -14.528   7.098  70.946  1.00  0.00     0.000 HD 
HETATM    3  C   UNK A   1     -13.092   8.005  72.131  1.00  0.00    -0.202 C  
HETATM    4  H1  UNK A   1     -13.653   6.053  71.951  1.00  0.00     0.000 HD 
ENDROOT
BRANCH   3   5
HETATM    5  C   UNK A   1     -13.735   9.380  71.988  1.00  0.00    -0.466 C  
BRANCH   5   6
HETATM    6  C   UNK A   1     -12.721  10.449  71.561  1.00  0.00    -0.564 C  
BRANCH   6   7
HETATM    7  C   UNK A   1     -12.815  10.662  70.047  1.00  0.00    -0.067 C  
BRANCH   7   8
HETATM    8  C   UNK A   1     -11.801  11.648  69.442  1.00  0.00    -0.342 C  
BRANCH   8   9
HETATM    9  N   UNK A   1     -10.381  11.191  69.528  1.00  0.00    -0.441 NA 
HETATM   10  H   UNK A   1     -10.105  11.075  70.503  1.00  0.00     0.000 HD 
BRANCH   9  11
HETATM   11  C   UNK A   1     -10.072   9.950  68.750  1.00  0.00    -0.174 C  
HETATM   12  C   UNK A   1     -10.610  10.146  67.320  1.00  0.00    -0.261 C  
HETATM   13  O   UNK A   1     -10.172   9.585  66.327  1.00  0.00    -0.271 OA 
HETATM   14  O   UNK A   1     -11.647  11.018  67.282  1.00  0.00    -0.496 OA 
BRANCH  11  15
HETATM   15  C   UNK A   1     -10.726   8.695  69.370  1.00  0.00    -0.169 C  
BRANCH  15  16
HETATM   16  C   UNK A   1      -9.716   7.579  69.687  1.00  0.00    -0.167 C  
BRANCH  16  17
HETATM   17  C   UNK A   1      -9.621   7.276  71.165  1.00  0.00    -0.160 A  
HETATM   18  C   UNK A   1      -9.781   5.963  71.629  1.00  0.00    -0.185 A  
HETATM   19  C   UNK A   1      -9.444   6.692  73.908  1.00  0.00    -0.212 A  
HETATM   20  C   UNK A   1      -9.691   5.674  72.993  1.00  0.00    -0.166 A  
HETATM   21  C   UNK A   1      -9.267   8.000  73.459  1.00  0.00    -0.312 A  
HETATM   22  C   UNK A   1      -9.353   8.291  72.097  1.00  0.00    -0.303 A  
ENDBRANCH  16  17
ENDBRANCH  15  16
ENDBRANCH  11  15
ENDBRANCH   9  11
ENDBRANCH   8   9
BRANCH   8  23
HETATM   23  C   UNK A   1     -11.890  13.086  70.067  1.00  0.00    -0.285 C  
ATOM     24  OXT PRO A   2      -9.521  13.187  66.369  1.00  0.00    -0.257 OA 
HETATM   25  O   UNK A   1     -12.447  13.256  71.153  1.00  0.00    -0.363 OA 
ATOM     26  N   PRO A   2     -11.267  14.145  69.406  1.00  0.00    -0.262 N  
ATOM     27  CD  PRO A   2     -11.216  15.475  70.004  1.00  0.00    -0.315 C  
ATOM     28  O   PRO A   2      -8.837  13.419  68.511  1.00  0.00    -0.157 OA 
ATOM     29  C   PRO A   2      -9.748  13.537  67.516  1.00  0.00    -0.228 C  
ATOM     30  CA  PRO A   2     -11.040  14.225  67.954  1.00  0.00    -0.278 C  
ATOM     31  CB  PRO A   2     -10.965  15.721  67.630  1.00  0.00    -0.302 C  
ATOM     32  CG  PRO A   2     -11.526  16.422  68.860  1.00  0.00    -0.216 C  
ENDBRANCH   8  23
ENDBRANCH   7   8
ENDBRANCH   6   7
ENDBRANCH   5   6
ENDBRANCH   3   5
TORSDOF 10
ENDMDL
MODEL      273
REMARK 921   NORMALIZED FREE ENERGY PREDICTED BY IDOCK:   -3.04 KCAL/MOL
REMARK 922        TOTAL FREE ENERGY PREDICTED BY IDOCK:   -6.77 KCAL/MOL
REMARK 923 INTER-LIGAND FREE ENERGY PREDICTED BY IDOCK:   -5.29 KCAL/MOL
REMARK 924 INTRA-LIGAND FREE ENERGY PREDICTED BY IDOCK:   -1.48 KCAL/MOL
REMARK 927      BINDING AFFINITY PREDICTED BY RF-SCORE:    0.00 PKD
ROOT
HETATM    1  N   UNK A   1     -11.357   7.808  72.549  1.00  0.00    -0.348 NA 
HETATM    2  H2  UNK A   1     -12.126   7.305  72.991  1.00  0.00     0.000 HD 
HETATM    3  C   UNK A   1     -10.667   6.998  71.554  1.00  0.00    -0.221 C  
HETATM    4  H1  UNK A   1     -10.683   8.157  73.231  1.00  0.00     0.000 HD 
ENDROOT
BRANCH   3   5
HETATM    5  C   UNK A   1     -11.674   6.477  70.535  1.00  0.00    -0.438 C  
BRANCH   5   6
HETATM    6  C   UNK A   1     -11.004   6.072  69.216  1.00  0.00    -0.436 C  
BRANCH   6   7
HETATM    7  C   UNK A   1     -11.020   7.261  68.251  1.00  0.00    -0.041 C  
BRANCH   7   8
HETATM    8  C   UNK A   1      -9.671   7.967  68.029  1.00  0.00    -0.159 C  
BRANCH   8   9
HETATM    9  N   UNK A   1      -9.667   9.411  68.417  1.00  0.00    -0.146 NA 
HETATM   10  H   UNK A   1     -10.361   9.583  69.144  1.00  0.00     0.000 HD 
BRANCH   9  11
HETATM   11  C   UNK A   1      -8.333   9.945  68.836  1.00  0.00    -0.124 C  
HETATM   12  C   UNK A   1      -8.247   9.838  70.371  1.00  0.00    -0.082 C  
HETATM   13  O   UNK A   1      -7.207   9.746  71.006  1.00  0.00    -0.332 OA 
HETATM   14  O   UNK A   1      -9.471   9.868  70.953  1.00  0.00     0.001 OA 
BRANCH  11  15
HETATM   15  C   UNK A   1      -8.137  11.419  68.419  1.00  0.00    -0.145 C  
BRANCH  15  16
HETATM   16  C   UNK A   1      -8.123  11.621  66.894  1.00  0.00    -0.164 C  
BRANCH  16  17
HETATM   17  C   UNK A   1      -9.322  12.395  66.394  1.00  0.00    -0.219 A  
HETATM   18  C   UNK A   1      -9.203  13.755  66.077  1.00  0.00     0.059 A  
HETATM   19  C   UNK A   1     -11.537  13.851  65.461  1.00  0.00    -0.332 A  
HETATM   20  C   UNK A   1     -10.304  14.477  65.611  1.00  0.00    -0.367 A  
HETATM   21  C   UNK A   1     -11.667  12.496  65.758  1.00  0.00    -0.478 A  
HETATM   22  C   UNK A   1     -10.568  11.771  66.221  1.00  0.00    -0.292 A  
ENDBRANCH  16  17
ENDBRANCH  15  16
ENDBRANCH  11  15
ENDBRANCH   9  11
ENDBRANCH   8   9
BRANCH   8  23
HETATM   23  C   UNK A   1      -9.153   7.858  66.551  1.00  0.00    -0.170 C  
ATOM     24  OXT PRO A   2      -7.289   4.755  69.041  1.00  0.00    -0.052 OA 
HETATM   25  O   UNK A   1      -9.498   8.690  65.710  1.00  0.00    -0.206 OA 
ATOM     26  N   PRO A   2      -8.246   6.847  66.230  1.00  0.00    -0.112 N  
ATOM     27  CD  PRO A   2      -7.643   6.774  64.904  1.00  0.00    -0.102 C  
ATOM     28  O   PRO A   2      -6.364   6.609  68.137  1.00  0.00    -0.031 OA 
ATOM     29  C   PRO A   2      -7.256   5.590  68.152  1.00  0.00    -0.072 C  
ATOM     30  CA  PRO A   2      -8.147   5.545  66.911  1.00  0.00    -0.101 C  
ATOM     31  CB  PRO A   2      -7.549   4.585  65.879  1.00  0.00    -0.086 C  
ATOM     32  CG  PRO A   2      -7.684   5.302  64.542  1.00  0.00    -0.093 C  
ENDBRANCH   8  23
ENDBRANCH   7   8
ENDBRANCH   6   7
ENDBRANCH   5   6
ENDBRANCH   3   5
TORSDOF 10
ENDMDL
MODEL      274
REMARK 921   NORMALIZED FREE ENERGY PREDICTED BY IDOCK:   -3.03 KCAL/MOL
REMARK 922        TOTAL FREE ENERGY PREDICTED BY IDOCK:   -6.76 KCAL/MOL
REMARK 923 INTER-LIGAND FREE ENERGY PREDICTED BY IDOCK:   -5.92 KCAL/MOL
REMARK 924 INTRA-LIGAND FREE ENERGY PREDICTED BY IDOCK:   -0.84 KCAL/MOL
REMARK 927      BINDING AFFINITY PREDICTED BY RF-SCORE:    0.00 PKD
ROOT
HETATM    1  N   UNK A   1     -10.900  12.868  69.272  1.00  0.00    -0.440 NA 
HETATM    2  H2  UNK A   1     -10.084  12.267  69.158  1.00  0.00     0.000 HD 
HETATM    3  C   UNK A   1     -11.437  13.317  67.994  1.00  0.00    -0.309 C  
HETATM    4  H1  UNK A   1     -10.704  13.677  69.862  1.00  0.00     0.000 HD 
ENDROOT
BRANCH   3   5
HETATM    5  C   UNK A   1     -11.731  12.108  67.113  1.00  0.00    -0.372 C  
BRANCH   5   6
HETATM    6  C   UNK A   1     -10.448  11.428  66.619  1.00  0.00    -0.285 C  
BRANCH   6   7
HETATM    7  C   UNK A   1     -10.422   9.976  67.105  1.00  0.00    -0.305 C  
BRANCH   7   8
HETATM    8  C   UNK A   1      -9.624   9.711  68.394  1.00  0.00    -0.144 C  
BRANCH   8   9
HETATM    9  N   UNK A   1      -8.444   8.812  68.206  1.00  0.00    -0.129 NA 
HETATM   10  H   UNK A   1      -8.308   8.611  67.216  1.00  0.00     0.000 HD 
BRANCH   9  11
HETATM   11  C   UNK A   1      -7.171   9.313  68.813  1.00  0.00    -0.074 C  
HETATM   12  C   UNK A   1      -6.266   9.802  67.667  1.00  0.00    -0.056 C  
HETATM   13  O   UNK A   1      -5.393  10.650  67.781  1.00  0.00    -0.040 OA 
HETATM   14  O   UNK A   1      -6.539   9.172  66.498  1.00  0.00    -0.066 OA 
BRANCH  11  15
HETATM   15  C   UNK A   1      -6.432   8.214  69.609  1.00  0.00    -0.037 C  
BRANCH  15  16
HETATM   16  C   UNK A   1      -5.790   8.733  70.906  1.00  0.00    -0.036 C  
BRANCH  16  17
HETATM   17  C   UNK A   1      -6.655   8.498  72.124  1.00  0.00    -0.085 A  
HETATM   18  C   UNK A   1      -6.074   8.408  73.397  1.00  0.00    -0.108 A  
HETATM   19  C   UNK A   1      -8.245   8.065  74.400  1.00  0.00    -0.284 A  
HETATM   20  C   UNK A   1      -6.866   8.195  74.527  1.00  0.00    -0.170 A  
HETATM   21  C   UNK A   1      -8.838   8.168  73.143  1.00  0.00    -0.325 A  
HETATM   22  C   UNK A   1      -8.049   8.385  72.012  1.00  0.00    -0.194 A  
ENDBRANCH  16  17
ENDBRANCH  15  16
ENDBRANCH  11  15
ENDBRANCH   9  11
ENDBRANCH   8   9
BRANCH   8  23
HETATM   23  C   UNK A   1     -10.504   9.124  69.555  1.00  0.00    -0.219 C  
ATOM     24  OXT PRO A   2      -9.275   5.916  66.817  1.00  0.00    -0.126 OA 
HETATM   25  O   UNK A   1     -11.014   9.877  70.387  1.00  0.00    -0.271 OA 
ATOM     26  N   PRO A   2     -10.750   7.751  69.583  1.00  0.00    -0.242 N  
ATOM     27  CD  PRO A   2     -11.657   7.172  70.568  1.00  0.00    -0.290 C  
ATOM     28  O   PRO A   2     -11.320   6.831  67.120  1.00  0.00    -0.330 OA 
ATOM     29  C   PRO A   2     -10.089   6.462  67.546  1.00  0.00    -0.155 C  
ATOM     30  CA  PRO A   2      -9.858   6.716  69.035  1.00  0.00    -0.144 C  
ATOM     31  CB  PRO A   2     -10.166   5.444  69.831  1.00  0.00    -0.351 C  
ATOM     32  CG  PRO A   2     -10.955   5.915  71.045  1.00  0.00    -0.335 C  
ENDBRANCH   8  23
ENDBRANCH   7   8
ENDBRANCH   6   7
ENDBRANCH   5   6
ENDBRANCH   3   5
TORSDOF 10
ENDMDL
MODEL      275
REMARK 921   NORMALIZED FREE ENERGY PREDICTED BY IDOCK:   -3.00 KCAL/MOL
REMARK 922        TOTAL FREE ENERGY PREDICTED BY IDOCK:   -6.71 KCAL/MOL
REMARK 923 INTER-LIGAND FREE ENERGY PREDICTED BY IDOCK:   -5.86 KCAL/MOL
REMARK 924 INTRA-LIGAND FREE ENERGY PREDICTED BY IDOCK:   -0.85 KCAL/MOL
REMARK 927      BINDING AFFINITY PREDICTED BY RF-SCORE:    0.00 PKD
ROOT
HETATM    1  N   UNK A   1     -14.233   9.204  73.016  1.00  0.00    -1.124 NA 
HETATM    2  H2  UNK A   1     -14.748   8.582  72.393  1.00  0.00     0.000 HD 
HETATM    3  C   UNK A   1     -12.797   9.165  72.772  1.00  0.00    -0.047 C  
HETATM    4  H1  UNK A   1     -14.418   9.003  73.999  1.00  0.00     0.000 HD 
ENDROOT
BRANCH   3   5
HETATM    5  C   UNK A   1     -12.522   9.466  71.303  1.00  0.00    -0.416 C  
BRANCH   5   6
HETATM    6  C   UNK A   1     -11.050   9.818  71.052  1.00  0.00    -0.431 C  
BRANCH   6   7
HETATM    7  C   UNK A   1     -10.707   9.551  69.583  1.00  0.00    -0.257 C  
BRANCH   7   8
HETATM    8  C   UNK A   1      -9.618   8.496  69.327  1.00  0.00    -0.170 C  
BRANCH   8   9
HETATM    9  N   UNK A   1      -9.495   7.471  70.409  1.00  0.00    -0.162 NA 
HETATM   10  H   UNK A   1      -9.418   7.926  71.319  1.00  0.00     0.000 HD 
BRANCH   9  11
HETATM   11  C   UNK A   1     -10.588   6.448  70.432  1.00  0.00    -0.241 C  
HETATM   12  C   UNK A   1     -10.868   6.095  71.905  1.00  0.00    -0.249 C  
HETATM   13  O   UNK A   1     -11.933   5.674  72.331  1.00  0.00    -0.235 OA 
HETATM   14  O   UNK A   1      -9.782   6.295  72.692  1.00  0.00    -0.159 OA 
BRANCH  11  15
HETATM   15  C   UNK A   1     -10.201   5.163  69.667  1.00  0.00    -0.337 C  
BRANCH  15  16
HETATM   16  C   UNK A   1      -8.812   5.244  69.011  1.00  0.00    -0.111 C  
BRANCH  16  17
HETATM   17  C   UNK A   1      -8.845   4.941  67.530  1.00  0.00    -0.105 A  
HETATM   18  C   UNK A   1     -10.019   4.463  66.932  1.00  0.00    -0.210 A  
HETATM   19  C   UNK A   1      -8.927   4.377  64.778  1.00  0.00    -0.149 A  
HETATM   20  C   UNK A   1     -10.059   4.184  65.564  1.00  0.00    -0.198 A  
HETATM   21  C   UNK A   1      -7.758   4.866  65.356  1.00  0.00    -0.086 A  
HETATM   22  C   UNK A   1      -7.716   5.148  66.722  1.00  0.00    -0.092 A  
ENDBRANCH  16  17
ENDBRANCH  15  16
ENDBRANCH  11  15
ENDBRANCH   9  11
ENDBRANCH   8   9
BRANCH   8  23
HETATM   23  C   UNK A   1      -8.197   9.121  69.085  1.00  0.00    -0.117 C  
ATOM     24  OXT PRO A   2     -10.943  10.307  65.867  1.00  0.00     0.116 OA 
HETATM   25  O   UNK A   1      -7.261   8.843  69.837  1.00  0.00    -0.049 OA 
ATOM     26  N   PRO A   2      -8.003   9.934  67.968  1.00  0.00    -0.100 N  
ATOM     27  CD  PRO A   2      -6.677  10.442  67.632  1.00  0.00    -0.074 C  
ATOM     28  O   PRO A   2      -9.191   8.880  65.798  1.00  0.00    -0.209 OA 
ATOM     29  C   PRO A   2      -9.846   9.962  66.280  1.00  0.00    -0.245 C  
ATOM     30  CA  PRO A   2      -9.044  10.746  67.317  1.00  0.00    -0.144 C  
ATOM     31  CB  PRO A   2      -8.301  11.899  66.634  1.00  0.00    -0.117 C  
ATOM     32  CG  PRO A   2      -6.906  11.890  67.245  1.00  0.00    -0.142 C  
ENDBRANCH   8  23
ENDBRANCH   7   8
ENDBRANCH   6   7
ENDBRANCH   5   6
ENDBRANCH   3   5
TORSDOF 10
ENDMDL
MODEL      276
REMARK 921   NORMALIZED FREE ENERGY PREDICTED BY IDOCK:   -2.96 KCAL/MOL
REMARK 922        TOTAL FREE ENERGY PREDICTED BY IDOCK:   -6.64 KCAL/MOL
REMARK 923 INTER-LIGAND FREE ENERGY PREDICTED BY IDOCK:   -6.39 KCAL/MOL
REMARK 924 INTRA-LIGAND FREE ENERGY PREDICTED BY IDOCK:   -0.26 KCAL/MOL
REMARK 927      BINDING AFFINITY PREDICTED BY RF-SCORE:    0.00 PKD
ROOT
HETATM    1  N   UNK A   1     -13.326   6.887  71.384  1.00  0.00    -0.260 NA 
HETATM    2  H2  UNK A   1     -13.976   7.670  71.456  1.00  0.00     0.000 HD 
HETATM    3  C   UNK A   1     -12.262   7.140  70.421  1.00  0.00    -0.036 C  
HETATM    4  H1  UNK A   1     -13.798   6.014  71.149  1.00  0.00     0.000 HD 
ENDROOT
BRANCH   3   5
HETATM    5  C   UNK A   1     -11.555   8.445  70.774  1.00  0.00    -0.252 C  
BRANCH   5   6
HETATM    6  C   UNK A   1     -11.085   9.201  69.526  1.00  0.00    -0.068 C  
BRANCH   6   7
HETATM    7  C   UNK A   1     -12.157  10.214  69.111  1.00  0.00     0.302 C  
BRANCH   7   8
HETATM    8  C   UNK A   1     -11.862  11.685  69.454  1.00  0.00    -0.342 C  
BRANCH   8   9
HETATM    9  N   UNK A   1     -10.431  12.077  69.275  1.00  0.00    -0.430 NA 
HETATM   10  H   UNK A   1      -9.951  12.084  70.175  1.00  0.00     0.000 HD 
BRANCH   9  11
HETATM   11  C   UNK A   1      -9.670  11.247  68.289  1.00  0.00    -0.198 C  
HETATM   12  C   UNK A   1      -8.168  11.437  68.576  1.00  0.00    -0.153 C  
HETATM   13  O   UNK A   1      -7.299  10.622  68.306  1.00  0.00    -0.084 OA 
HETATM   14  O   UNK A   1      -7.909  12.631  69.163  1.00  0.00     0.165 OA 
BRANCH  11  15
HETATM   15  C   UNK A   1      -9.962  11.660  66.829  1.00  0.00    -0.229 C  
BRANCH  15  16
HETATM   16  C   UNK A   1     -10.297  10.467  65.917  1.00  0.00    -0.275 C  
BRANCH  16  17
HETATM   17  C   UNK A   1      -9.401  10.390  64.701  1.00  0.00    -0.304 A  
HETATM   18  C   UNK A   1      -9.709  11.126  63.549  1.00  0.00    -0.367 A  
HETATM   19  C   UNK A   1      -7.748  10.261  62.433  1.00  0.00    -0.163 A  
HETATM   20  C   UNK A   1      -8.885  11.062  62.423  1.00  0.00    -0.358 A  
HETATM   21  C   UNK A   1      -7.421   9.536  63.577  1.00  0.00    -0.114 A  
HETATM   22  C   UNK A   1      -8.241   9.600  64.704  1.00  0.00    -0.149 A  
ENDBRANCH  16  17
ENDBRANCH  15  16
ENDBRANCH  11  15
ENDBRANCH   9  11
ENDBRANCH   8   9
BRANCH   8  23
HETATM   23  C   UNK A   1     -12.297  12.078  70.911  1.00  0.00    -0.285 C  
ATOM     24  OXT PRO A   2     -11.764  15.687  68.463  1.00  0.00    -0.371 OA 
HETATM   25  O   UNK A   1     -12.422  11.209  71.776  1.00  0.00    -0.237 OA 
ATOM     26  N   PRO A   2     -12.469  13.428  71.219  1.00  0.00    -0.324 N  
ATOM     27  CD  PRO A   2     -12.755  13.854  72.584  1.00  0.00    -0.161 C  
ATOM     28  O   PRO A   2     -10.490  14.910  70.161  1.00  0.00    -0.127 OA 
ATOM     29  C   PRO A   2     -11.667  15.069  69.511  1.00  0.00    -0.322 C  
ATOM     30  CA  PRO A   2     -12.859  14.476  70.261  1.00  0.00    -0.199 C  
ATOM     31  CB  PRO A   2     -13.539  15.565  71.096  1.00  0.00    -0.459 C  
ATOM     32  CG  PRO A   2     -13.834  14.910  72.439  1.00  0.00    -0.587 C  
ENDBRANCH   8  23
ENDBRANCH   7   8
ENDBRANCH   6   7
ENDBRANCH   5   6
ENDBRANCH   3   5
TORSDOF 10
ENDMDL
MODEL      277
REMARK 921   NORMALIZED FREE ENERGY PREDICTED BY IDOCK:   -2.92 KCAL/MOL
REMARK 922        TOTAL FREE ENERGY PREDICTED BY IDOCK:   -6.59 KCAL/MOL
REMARK 923 INTER-LIGAND FREE ENERGY PREDICTED BY IDOCK:   -5.35 KCAL/MOL
REMARK 924 INTRA-LIGAND FREE ENERGY PREDICTED BY IDOCK:   -1.24 KCAL/MOL
REMARK 927      BINDING AFFINITY PREDICTED BY RF-SCORE:    0.00 PKD
ROOT
HETATM    1  N   UNK A   1      -6.214  13.570  70.815  1.00  0.00    -0.441 NA 
HETATM    2  H2  UNK A   1      -5.210  13.393  70.845  1.00  0.00     0.000 HD 
HETATM    3  C   UNK A   1      -6.798  13.213  69.529  1.00  0.00     0.092 C  
HETATM    4  H1  UNK A   1      -6.441  14.540  71.036  1.00  0.00     0.000 HD 
ENDROOT
BRANCH   3   5
HETATM    5  C   UNK A   1      -6.459  11.763  69.200  1.00  0.00    -0.097 C  
BRANCH   5   6
HETATM    6  C   UNK A   1      -7.551  10.795  69.670  1.00  0.00    -0.052 C  
BRANCH   6   7
HETATM    7  C   UNK A   1      -6.907   9.635  70.436  1.00  0.00    -0.120 C  
BRANCH   7   8
HETATM    8  C   UNK A   1      -7.708   8.322  70.468  1.00  0.00    -0.081 C  
BRANCH   8   9
HETATM    9  N   UNK A   1      -8.142   7.840  69.121  1.00  0.00    -0.123 NA 
HETATM   10  H   UNK A   1      -7.916   6.852  69.010  1.00  0.00     0.000 HD 
BRANCH   9  11
HETATM   11  C   UNK A   1      -9.585   8.080  68.803  1.00  0.00    -0.149 C  
HETATM   12  C   UNK A   1     -10.199   6.736  68.366  1.00  0.00    -0.178 C  
HETATM   13  O   UNK A   1     -11.381   6.444  68.466  1.00  0.00    -0.303 OA 
HETATM   14  O   UNK A   1      -9.270   5.899  67.841  1.00  0.00    -0.111 OA 
BRANCH  11  15
HETATM   15  C   UNK A   1      -9.769   9.113  67.669  1.00  0.00    -0.198 C  
BRANCH  15  16
HETATM   16  C   UNK A   1     -10.971  10.047  67.890  1.00  0.00    -0.311 C  
BRANCH  16  17
HETATM   17  C   UNK A   1     -10.599  11.511  67.815  1.00  0.00    -0.227 A  
HETATM   18  C   UNK A   1     -11.246  12.448  68.632  1.00  0.00    -0.314 A  
HETATM   19  C   UNK A   1      -9.918  14.234  67.694  1.00  0.00    -0.225 A  
HETATM   20  C   UNK A   1     -10.906  13.800  68.572  1.00  0.00    -0.280 A  
HETATM   21  C   UNK A   1      -9.255  13.312  66.887  1.00  0.00    -0.242 A  
HETATM   22  C   UNK A   1      -9.591  11.959  66.947  1.00  0.00    -0.208 A  
ENDBRANCH  16  17
ENDBRANCH  15  16
ENDBRANCH  11  15
ENDBRANCH   9  11
ENDBRANCH   8   9
BRANCH   8  23
HETATM   23  C   UNK A   1      -8.976   8.395  71.392  1.00  0.00    -0.186 C  
ATOM     24  OXT PRO A   2      -7.057   4.460  71.761  1.00  0.00    -0.050 OA 
HETATM   25  O   UNK A   1      -9.701   9.391  71.373  1.00  0.00    -0.236 OA 
ATOM     26  N   PRO A   2      -9.300   7.286  72.175  1.00  0.00    -0.136 N  
ATOM     27  CD  PRO A   2     -10.531   7.256  72.959  1.00  0.00    -0.310 C  
ATOM     28  O   PRO A   2      -9.016   5.008  70.775  1.00  0.00    -0.127 OA 
ATOM     29  C   PRO A   2      -8.040   5.180  71.698  1.00  0.00    -0.115 C  
ATOM     30  CA  PRO A   2      -8.337   6.301  72.694  1.00  0.00    -0.120 C  
ATOM     31  CB  PRO A   2      -8.984   5.716  73.953  1.00  0.00    -0.126 C  
ATOM     32  CG  PRO A   2     -10.122   6.668  74.295  1.00  0.00    -0.378 C  
ENDBRANCH   8  23
ENDBRANCH   7   8
ENDBRANCH   6   7
ENDBRANCH   5   6
ENDBRANCH   3   5
TORSDOF 10
ENDMDL
MODEL      278
REMARK 921   NORMALIZED FREE ENERGY PREDICTED BY IDOCK:   -2.89 KCAL/MOL
REMARK 922        TOTAL FREE ENERGY PREDICTED BY IDOCK:   -6.53 KCAL/MOL
REMARK 923 INTER-LIGAND FREE ENERGY PREDICTED BY IDOCK:   -6.60 KCAL/MOL
REMARK 924 INTRA-LIGAND FREE ENERGY PREDICTED BY IDOCK:    0.07 KCAL/MOL
REMARK 927      BINDING AFFINITY PREDICTED BY RF-SCORE:    0.00 PKD
ROOT
HETATM    1  N   UNK A   1     -13.421  10.668  72.121  1.00  0.00    -0.525 NA 
HETATM    2  H2  UNK A   1     -12.916   9.922  72.601  1.00  0.00     0.000 HD 
HETATM    3  C   UNK A   1     -12.581  11.372  71.160  1.00  0.00    -0.386 C  
HETATM    4  H1  UNK A   1     -13.828  11.339  72.773  1.00  0.00     0.000 HD 
ENDROOT
BRANCH   3   5
HETATM    5  C   UNK A   1     -11.973  10.369  70.186  1.00  0.00    -0.357 C  
BRANCH   5   6
HETATM    6  C   UNK A   1     -10.447  10.496  70.105  1.00  0.00    -0.084 C  
BRANCH   6   7
HETATM    7  C   UNK A   1     -10.049  10.971  68.704  1.00  0.00    -0.207 C  
BRANCH   7   8
HETATM    8  C   UNK A   1      -8.635  11.561  68.569  1.00  0.00    -0.140 C  
BRANCH   8   9
HETATM    9  N   UNK A   1      -8.390  12.267  67.274  1.00  0.00    -0.175 NA 
HETATM   10  H   UNK A   1      -8.944  11.844  66.530  1.00  0.00     0.000 HD 
BRANCH   9  11
HETATM   11  C   UNK A   1      -8.619  13.746  67.313  1.00  0.00    -0.212 C  
HETATM   12  C   UNK A   1      -7.242  14.431  67.398  1.00  0.00    -0.122 C  
HETATM   13  O   UNK A   1      -7.000  15.563  67.006  1.00  0.00    -0.222 OA 
HETATM   14  O   UNK A   1      -6.310  13.632  67.974  1.00  0.00    -0.107 OA 
BRANCH  11  15
HETATM   15  C   UNK A   1      -9.474  14.174  68.526  1.00  0.00    -0.202 C  
BRANCH  15  16
HETATM   16  C   UNK A   1     -10.799  14.845  68.127  1.00  0.00    -0.256 C  
BRANCH  16  17
HETATM   17  C   UNK A   1     -11.289  14.412  66.764  1.00  0.00    -0.360 A  
HETATM   18  C   UNK A   1     -11.147  15.261  65.659  1.00  0.00    -0.308 A  
HETATM   19  C   UNK A   1     -12.190  13.623  64.222  1.00  0.00    -0.445 A  
HETATM   20  C   UNK A   1     -11.593  14.867  64.396  1.00  0.00    -0.296 A  
HETATM   21  C   UNK A   1     -12.325  12.761  65.309  1.00  0.00    -0.546 A  
HETATM   22  C   UNK A   1     -11.876  13.151  66.572  1.00  0.00    -0.456 A  
ENDBRANCH  16  17
ENDBRANCH  15  16
ENDBRANCH  11  15
ENDBRANCH   9  11
ENDBRANCH   8   9
BRANCH   8  23
HETATM   23  C   UNK A   1      -7.499  10.494  68.764  1.00  0.00    -0.097 C  
ATOM     24  OXT PRO A   2      -9.693   9.707  65.040  1.00  0.00    -0.289 OA 
HETATM   25  O   UNK A   1      -6.819  10.494  69.791  1.00  0.00    -0.105 OA 
ATOM     26  N   PRO A   2      -7.327   9.511  67.789  1.00  0.00    -0.083 N  
ATOM     27  CD  PRO A   2      -6.368   8.427  67.979  1.00  0.00    -0.056 C  
ATOM     28  O   PRO A   2      -9.700   8.542  66.977  1.00  0.00    -0.170 OA 
ATOM     29  C   PRO A   2      -9.117   9.341  66.053  1.00  0.00    -0.188 C  
ATOM     30  CA  PRO A   2      -7.656   9.662  66.362  1.00  0.00    -0.101 C  
ATOM     31  CB  PRO A   2      -6.743   8.680  65.622  1.00  0.00    -0.064 C  
ATOM     32  CG  PRO A   2      -5.677   8.287  66.636  1.00  0.00    -0.040 C  
ENDBRANCH   8  23
ENDBRANCH   7   8
ENDBRANCH   6   7
ENDBRANCH   5   6
ENDBRANCH   3   5
TORSDOF 10
ENDMDL
MODEL      279
REMARK 921   NORMALIZED FREE ENERGY PREDICTED BY IDOCK:   -2.89 KCAL/MOL
REMARK 922        TOTAL FREE ENERGY PREDICTED BY IDOCK:   -6.53 KCAL/MOL
REMARK 923 INTER-LIGAND FREE ENERGY PREDICTED BY IDOCK:   -5.14 KCAL/MOL
REMARK 924 INTRA-LIGAND FREE ENERGY PREDICTED BY IDOCK:   -1.39 KCAL/MOL
REMARK 927      BINDING AFFINITY PREDICTED BY RF-SCORE:    0.00 PKD
ROOT
HETATM    1  N   UNK A   1     -14.219   8.373  72.340  1.00  0.00    -0.625 NA 
HETATM    2  H2  UNK A   1     -14.332   7.925  73.250  1.00  0.00     0.000 HD 
HETATM    3  C   UNK A   1     -12.818   8.542  71.980  1.00  0.00    -0.374 C  
HETATM    4  H1  UNK A   1     -14.694   9.275  72.294  1.00  0.00     0.000 HD 
ENDROOT
BRANCH   3   5
HETATM    5  C   UNK A   1     -12.108   7.194  72.049  1.00  0.00    -0.329 C  
BRANCH   5   6
HETATM    6  C   UNK A   1     -10.608   7.316  71.755  1.00  0.00    -0.229 C  
BRANCH   6   7
HETATM    7  C   UNK A   1     -10.370   7.162  70.250  1.00  0.00    -0.214 C  
BRANCH   7   8
HETATM    8  C   UNK A   1      -8.916   6.898  69.822  1.00  0.00    -0.141 C  
BRANCH   8   9
HETATM    9  N   UNK A   1      -8.787   6.116  68.554  1.00  0.00    -0.114 NA 
HETATM   10  H   UNK A   1      -9.457   5.347  68.543  1.00  0.00     0.000 HD 
BRANCH   9  11
HETATM   11  C   UNK A   1      -8.907   6.926  67.301  1.00  0.00    -0.118 C  
HETATM   12  C   UNK A   1      -8.150   6.180  66.186  1.00  0.00    -0.115 C  
HETATM   13  O   UNK A   1      -8.393   6.278  64.992  1.00  0.00    -0.142 OA 
HETATM   14  O   UNK A   1      -7.160   5.395  66.679  1.00  0.00    -0.066 OA 
BRANCH  11  15
HETATM   15  C   UNK A   1      -8.309   8.341  67.460  1.00  0.00    -0.130 C  
BRANCH  15  16
HETATM   16  C   UNK A   1      -8.572   9.251  66.248  1.00  0.00    -0.139 C  
BRANCH  16  17
HETATM   17  C   UNK A   1      -9.319  10.514  66.613  1.00  0.00    -0.186 A  
HETATM   18  C   UNK A   1      -9.107  11.126  67.856  1.00  0.00    -0.150 A  
HETATM   19  C   UNK A   1     -10.695  12.863  67.308  1.00  0.00    -0.260 A  
HETATM   20  C   UNK A   1      -9.791  12.294  68.199  1.00  0.00    -0.212 A  
HETATM   21  C   UNK A   1     -10.904  12.273  66.063  1.00  0.00    -0.310 A  
HETATM   22  C   UNK A   1     -10.221  11.108  65.716  1.00  0.00    -0.310 A  
ENDBRANCH  16  17
ENDBRANCH  15  16
ENDBRANCH  11  15
ENDBRANCH   9  11
ENDBRANCH   8   9
BRANCH   8  23
HETATM   23  C   UNK A   1      -8.068   6.176  70.929  1.00  0.00    -0.121 C  
ATOM     24  OXT PRO A   2      -6.755  10.346  70.493  1.00  0.00    -0.265 OA 
HETATM   25  O   UNK A   1      -8.229   4.974  71.148  1.00  0.00    -0.109 OA 
ATOM     26  N   PRO A   2      -7.086   6.903  71.603  1.00  0.00    -0.073 N  
ATOM     27  CD  PRO A   2      -6.191   6.252  72.554  1.00  0.00    -0.053 C  
ATOM     28  O   PRO A   2      -5.692   8.442  69.895  1.00  0.00    -0.025 OA 
ATOM     29  C   PRO A   2      -6.537   9.158  70.673  1.00  0.00    -0.071 C  
ATOM     30  CA  PRO A   2      -7.116   8.356  71.838  1.00  0.00    -0.092 C  
ATOM     31  CB  PRO A   2      -6.272   8.587  73.095  1.00  0.00    -0.107 C  
ATOM     32  CG  PRO A   2      -6.111   7.210  73.726  1.00  0.00    -0.061 C  
ENDBRANCH   8  23
ENDBRANCH   7   8
ENDBRANCH   6   7
ENDBRANCH   5   6
ENDBRANCH   3   5
TORSDOF 10
ENDMDL
MODEL      280
REMARK 921   NORMALIZED FREE ENERGY PREDICTED BY IDOCK:   -2.88 KCAL/MOL
REMARK 922        TOTAL FREE ENERGY PREDICTED BY IDOCK:   -6.52 KCAL/MOL
REMARK 923 INTER-LIGAND FREE ENERGY PREDICTED BY IDOCK:   -5.00 KCAL/MOL
REMARK 924 INTRA-LIGAND FREE ENERGY PREDICTED BY IDOCK:   -1.53 KCAL/MOL
REMARK 927      BINDING AFFINITY PREDICTED BY RF-SCORE:    0.00 PKD
ROOT
HETATM    1  N   UNK A   1      -9.009   3.336  64.298  1.00  0.00    -0.105 NA 
HETATM    2  H2  UNK A   1      -8.728   3.860  63.469  1.00  0.00     0.000 HD 
HETATM    3  C   UNK A   1      -8.051   3.473  65.387  1.00  0.00    -0.097 C  
HETATM    4  H1  UNK A   1      -9.157   2.346  64.096  1.00  0.00     0.000 HD 
ENDROOT
BRANCH   3   5
HETATM    5  C   UNK A   1      -7.830   4.951  65.688  1.00  0.00    -0.095 C  
BRANCH   5   6
HETATM    6  C   UNK A   1      -6.750   5.567  64.790  1.00  0.00    -0.044 C  
BRANCH   6   7
HETATM    7  C   UNK A   1      -6.023   6.676  65.557  1.00  0.00    -0.034 C  
BRANCH   7   8
HETATM    8  C   UNK A   1      -6.840   7.385  66.651  1.00  0.00    -0.062 C  
BRANCH   8   9
HETATM    9  N   UNK A   1      -6.797   8.878  66.572  1.00  0.00    -0.078 NA 
HETATM   10  H   UNK A   1      -5.831   9.202  66.529  1.00  0.00     0.000 HD 
BRANCH   9  11
HETATM   11  C   UNK A   1      -7.592   9.470  65.450  1.00  0.00    -0.106 C  
HETATM   12  C   UNK A   1      -6.599  10.085  64.446  1.00  0.00    -0.130 C  
HETATM   13  O   UNK A   1      -6.819  10.241  63.254  1.00  0.00    -0.137 OA 
HETATM   14  O   UNK A   1      -5.436  10.450  65.039  1.00  0.00    -0.105 OA 
BRANCH  11  15
HETATM   15  C   UNK A   1      -8.564  10.567  65.939  1.00  0.00    -0.170 C  
BRANCH  15  16
HETATM   16  C   UNK A   1     -10.007  10.361  65.448  1.00  0.00    -0.362 C  
BRANCH  16  17
HETATM   17  C   UNK A   1     -10.854  11.607  65.576  1.00  0.00    -0.334 A  
HETATM   18  C   UNK A   1     -10.809  12.375  66.747  1.00  0.00    -0.283 A  
HETATM   19  C   UNK A   1     -12.417  13.928  65.830  1.00  0.00    -0.530 A  
HETATM   20  C   UNK A   1     -11.585  13.530  66.871  1.00  0.00    -0.398 A  
HETATM   21  C   UNK A   1     -12.460  13.183  64.654  1.00  0.00    -0.433 A  
HETATM   22  C   UNK A   1     -11.683  12.030  64.525  1.00  0.00    -0.380 A  
ENDBRANCH  16  17
ENDBRANCH  15  16
ENDBRANCH  11  15
ENDBRANCH   9  11
ENDBRANCH   8   9
BRANCH   8  23
HETATM   23  C   UNK A   1      -6.423   6.962  68.105  1.00  0.00    -0.050 C  
ATOM     24  OXT PRO A   2     -10.738   7.770  67.940  1.00  0.00    -0.187 OA 
HETATM   25  O   UNK A   1      -5.237   6.768  68.378  1.00  0.00    -0.010 OA 
ATOM     26  N   PRO A   2      -7.409   6.881  69.089  1.00  0.00    -0.090 N  
ATOM     27  CD  PRO A   2      -7.060   6.610  70.479  1.00  0.00    -0.068 C  
ATOM     28  O   PRO A   2      -9.096   8.969  68.928  1.00  0.00    -0.138 OA 
ATOM     29  C   PRO A   2      -9.652   7.813  68.495  1.00  0.00    -0.149 C  
ATOM     30  CA  PRO A   2      -8.829   6.574  68.847  1.00  0.00    -0.126 C  
ATOM     31  CB  PRO A   2      -9.346   5.962  70.152  1.00  0.00    -0.180 C  
ATOM     32  CG  PRO A   2      -8.097   5.608  70.948  1.00  0.00    -0.118 C  
ENDBRANCH   8  23
ENDBRANCH   7   8
ENDBRANCH   6   7
ENDBRANCH   5   6
ENDBRANCH   3   5
TORSDOF 10
ENDMDL
MODEL      281
REMARK 921   NORMALIZED FREE ENERGY PREDICTED BY IDOCK:   -2.88 KCAL/MOL
REMARK 922        TOTAL FREE ENERGY PREDICTED BY IDOCK:   -6.52 KCAL/MOL
REMARK 923 INTER-LIGAND FREE ENERGY PREDICTED BY IDOCK:   -5.36 KCAL/MOL
REMARK 924 INTRA-LIGAND FREE ENERGY PREDICTED BY IDOCK:   -1.16 KCAL/MOL
REMARK 927      BINDING AFFINITY PREDICTED BY RF-SCORE:    0.00 PKD
ROOT
HETATM    1  N   UNK A   1     -10.032  10.109  62.595  1.00  0.00    -0.630 NA 
HETATM    2  H2  UNK A   1     -10.529   9.227  62.466  1.00  0.00     0.000 HD 
HETATM    3  C   UNK A   1      -9.227  10.117  63.809  1.00  0.00    -0.281 C  
HETATM    4  H1  UNK A   1     -10.665  10.910  62.601  1.00  0.00     0.000 HD 
ENDROOT
BRANCH   3   5
HETATM    5  C   UNK A   1      -8.281   8.920  63.800  1.00  0.00    -0.172 C  
BRANCH   5   6
HETATM    6  C   UNK A   1      -8.564   7.953  64.956  1.00  0.00    -0.010 C  
BRANCH   6   7
HETATM    7  C   UNK A   1      -8.320   8.668  66.289  1.00  0.00    -0.124 C  
BRANCH   7   8
HETATM    8  C   UNK A   1      -8.854   7.955  67.543  1.00  0.00    -0.128 C  
BRANCH   8   9
HETATM    9  N   UNK A   1      -9.025   6.479  67.379  1.00  0.00    -0.111 NA 
HETATM   10  H   UNK A   1      -8.928   6.219  66.398  1.00  0.00     0.000 HD 
BRANCH   9  11
HETATM   11  C   UNK A   1      -8.119   5.644  68.229  1.00  0.00    -0.103 C  
HETATM   12  C   UNK A   1      -7.428   4.619  67.309  1.00  0.00    -0.085 C  
HETATM   13  O   UNK A   1      -6.344   4.102  67.532  1.00  0.00    -0.035 OA 
HETATM   14  O   UNK A   1      -8.171   4.339  66.210  1.00  0.00    -0.102 OA 
BRANCH  11  15
HETATM   15  C   UNK A   1      -8.888   4.892  69.338  1.00  0.00    -0.120 C  
BRANCH  15  16
HETATM   16  C   UNK A   1      -8.681   5.499  70.736  1.00  0.00    -0.135 C  
BRANCH  16  17
HETATM   17  C   UNK A   1      -9.816   6.407  71.155  1.00  0.00    -0.198 A  
HETATM   18  C   UNK A   1      -9.547   7.688  71.656  1.00  0.00    -0.182 A  
HETATM   19  C   UNK A   1     -11.910   8.110  71.935  1.00  0.00    -0.366 A  
HETATM   20  C   UNK A   1     -10.589   8.534  72.042  1.00  0.00    -0.408 A  
HETATM   21  C   UNK A   1     -12.192   6.845  71.424  1.00  0.00    -0.418 A  
HETATM   22  C   UNK A   1     -11.153   5.999  71.035  1.00  0.00    -0.348 A  
ENDBRANCH  16  17
ENDBRANCH  15  16
ENDBRANCH  11  15
ENDBRANCH   9  11
ENDBRANCH   8   9
BRANCH   8  23
HETATM   23  C   UNK A   1     -10.214   8.549  68.058  1.00  0.00    -0.213 C  
ATOM     24  OXT PRO A   2      -7.132  11.679  67.966  1.00  0.00    -0.073 OA 
HETATM   25  O   UNK A   1     -11.186   7.812  68.231  1.00  0.00     0.235 OA 
ATOM     26  N   PRO A   2     -10.275   9.906  68.379  1.00  0.00    -0.170 N  
ATOM     27  CD  PRO A   2     -11.476  10.482  68.974  1.00  0.00    -0.237 C  
ATOM     28  O   PRO A   2      -8.087  10.665  69.747  1.00  0.00    -0.061 OA 
ATOM     29  C   PRO A   2      -8.095  11.126  68.473  1.00  0.00    -0.146 C  
ATOM     30  CA  PRO A   2      -9.444  10.961  67.776  1.00  0.00    -0.157 C  
ATOM     31  CB  PRO A   2     -10.257  12.252  67.910  1.00  0.00    -0.202 C  
ATOM     32  CG  PRO A   2     -11.671  11.799  68.249  1.00  0.00    -0.377 C  
ENDBRANCH   8  23
ENDBRANCH   7   8
ENDBRANCH   6   7
ENDBRANCH   5   6
ENDBRANCH   3   5
TORSDOF 10
ENDMDL
MODEL      282
REMARK 921   NORMALIZED FREE ENERGY PREDICTED BY IDOCK:   -2.88 KCAL/MOL
REMARK 922        TOTAL FREE ENERGY PREDICTED BY IDOCK:   -6.52 KCAL/MOL
REMARK 923 INTER-LIGAND FREE ENERGY PREDICTED BY IDOCK:   -5.53 KCAL/MOL
REMARK 924 INTRA-LIGAND FREE ENERGY PREDICTED BY IDOCK:   -0.99 KCAL/MOL
REMARK 927      BINDING AFFINITY PREDICTED BY RF-SCORE:    0.00 PKD
ROOT
HETATM    1  N   UNK A   1     -13.621  11.233  72.230  1.00  0.00    -0.444 NA 
HETATM    2  H2  UNK A   1     -13.186  10.899  73.091  1.00  0.00     0.000 HD 
HETATM    3  C   UNK A   1     -12.711  11.172  71.093  1.00  0.00    -0.408 C  
HETATM    4  H1  UNK A   1     -13.985  12.181  72.325  1.00  0.00     0.000 HD 
ENDROOT
BRANCH   3   5
HETATM    5  C   UNK A   1     -12.167   9.755  70.952  1.00  0.00    -0.390 C  
BRANCH   5   6
HETATM    6  C   UNK A   1     -10.837   9.721  70.187  1.00  0.00    -0.340 C  
BRANCH   6   7
HETATM    7  C   UNK A   1     -10.416   8.266  69.964  1.00  0.00    -0.231 C  
BRANCH   7   8
HETATM    8  C   UNK A   1      -8.904   7.987  70.016  1.00  0.00    -0.143 C  
BRANCH   8   9
HETATM    9  N   UNK A   1      -8.527   6.592  69.632  1.00  0.00    -0.131 NA 
HETATM   10  H   UNK A   1      -8.966   5.921  70.263  1.00  0.00     0.000 HD 
BRANCH   9  11
HETATM   11  C   UNK A   1      -8.820   6.232  68.209  1.00  0.00    -0.114 C  
HETATM   12  C   UNK A   1      -9.147   4.727  68.164  1.00  0.00    -0.117 C  
HETATM   13  O   UNK A   1      -9.844   4.190  67.316  1.00  0.00    -0.196 OA 
HETATM   14  O   UNK A   1      -8.561   4.048  69.181  1.00  0.00    -0.075 OA 
BRANCH  11  15
HETATM   15  C   UNK A   1      -7.622   6.518  67.276  1.00  0.00    -0.096 C  
BRANCH  15  16
HETATM   16  C   UNK A   1      -7.999   7.360  66.046  1.00  0.00    -0.115 C  
BRANCH  16  17
HETATM   17  C   UNK A   1      -8.610   8.694  66.413  1.00  0.00    -0.130 A  
HETATM   18  C   UNK A   1      -9.985   8.910  66.251  1.00  0.00    -0.337 A  
HETATM   19  C   UNK A   1      -9.764  11.164  67.092  1.00  0.00    -0.199 A  
HETATM   20  C   UNK A   1     -10.558  10.137  66.590  1.00  0.00    -0.214 A  
HETATM   21  C   UNK A   1      -8.398  10.958  67.273  1.00  0.00    -0.123 A  
HETATM   22  C   UNK A   1      -7.823   9.732  66.937  1.00  0.00    -0.102 A  
ENDBRANCH  16  17
ENDBRANCH  15  16
ENDBRANCH  11  15
ENDBRANCH   9  11
ENDBRANCH   8   9
BRANCH   8  23
HETATM   23  C   UNK A   1      -8.268   8.295  71.419  1.00  0.00    -0.131 C  
ATOM     24  OXT PRO A   2     -10.987   4.857  71.711  1.00  0.00    -0.039 OA 
HETATM   25  O   UNK A   1      -7.534   9.274  71.565  1.00  0.00    -0.336 OA 
ATOM     26  N   PRO A   2      -8.605   7.482  72.502  1.00  0.00    -0.112 N  
ATOM     27  CD  PRO A   2      -8.137   7.796  73.848  1.00  0.00    -0.199 C  
ATOM     28  O   PRO A   2     -11.242   6.953  72.517  1.00  0.00    -0.253 OA 
ATOM     29  C   PRO A   2     -10.495   5.885  72.148  1.00  0.00    -0.207 C  
ATOM     30  CA  PRO A   2      -9.002   6.068  72.412  1.00  0.00    -0.137 C  
ATOM     31  CB  PRO A   2      -8.637   5.451  73.766  1.00  0.00    -0.113 C  
ATOM     32  CG  PRO A   2      -7.708   6.461  74.426  1.00  0.00    -0.098 C  
ENDBRANCH   8  23
ENDBRANCH   7   8
ENDBRANCH   6   7
ENDBRANCH   5   6
ENDBRANCH   3   5
TORSDOF 10
ENDMDL
MODEL      283
REMARK 921   NORMALIZED FREE ENERGY PREDICTED BY IDOCK:   -2.84 KCAL/MOL
REMARK 922        TOTAL FREE ENERGY PREDICTED BY IDOCK:   -6.46 KCAL/MOL
REMARK 923 INTER-LIGAND FREE ENERGY PREDICTED BY IDOCK:   -5.41 KCAL/MOL
REMARK 924 INTRA-LIGAND FREE ENERGY PREDICTED BY IDOCK:   -1.05 KCAL/MOL
REMARK 927      BINDING AFFINITY PREDICTED BY RF-SCORE:    0.00 PKD
ROOT
HETATM    1  N   UNK A   1      -9.712   8.102  70.773  1.00  0.00    -0.169 NA 
HETATM    2  H2  UNK A   1     -10.032   7.203  71.135  1.00  0.00     0.000 HD 
HETATM    3  C   UNK A   1      -9.309   8.021  69.375  1.00  0.00    -0.155 C  
HETATM    4  H1  UNK A   1      -8.948   8.491  71.327  1.00  0.00     0.000 HD 
ENDROOT
BRANCH   3   5
HETATM    5  C   UNK A   1     -10.451   7.441  68.548  1.00  0.00    -0.215 C  
BRANCH   5   6
HETATM    6  C   UNK A   1     -10.475   8.005  67.122  1.00  0.00    -0.408 C  
BRANCH   6   7
HETATM    7  C   UNK A   1     -10.753   9.510  67.176  1.00  0.00    -0.252 C  
BRANCH   7   8
HETATM    8  C   UNK A   1      -9.600  10.424  66.725  1.00  0.00    -0.171 C  
BRANCH   8   9
HETATM    9  N   UNK A   1      -8.329   9.697  66.424  1.00  0.00    -0.119 NA 
HETATM   10  H   UNK A   1      -8.515   8.706  66.274  1.00  0.00     0.000 HD 
BRANCH   9  11
HETATM   11  C   UNK A   1      -7.543  10.255  65.278  1.00  0.00    -0.143 C  
HETATM   12  C   UNK A   1      -8.417  10.146  64.014  1.00  0.00    -0.184 C  
HETATM   13  O   UNK A   1      -8.318  10.868  63.033  1.00  0.00    -0.121 OA 
HETATM   14  O   UNK A   1      -9.319   9.137  64.103  1.00  0.00     0.082 OA 
BRANCH  11  15
HETATM   15  C   UNK A   1      -6.222   9.489  65.048  1.00  0.00    -0.078 C  
BRANCH  15  16
HETATM   16  C   UNK A   1      -6.050   8.281  65.985  1.00  0.00    -0.045 C  
BRANCH  16  17
HETATM   17  C   UNK A   1      -6.754   7.042  65.479  1.00  0.00    -0.052 A  
HETATM   18  C   UNK A   1      -7.038   6.898  64.115  1.00  0.00    -0.059 A  
HETATM   19  C   UNK A   1      -8.056   4.745  64.520  1.00  0.00    -0.109 A  
HETATM   20  C   UNK A   1      -7.684   5.755  63.639  1.00  0.00    -0.094 A  
HETATM   21  C   UNK A   1      -7.766   4.867  65.877  1.00  0.00    -0.091 A  
HETATM   22  C   UNK A   1      -7.118   6.006  66.355  1.00  0.00    -0.068 A  
ENDBRANCH  16  17
ENDBRANCH  15  16
ENDBRANCH  11  15
ENDBRANCH   9  11
ENDBRANCH   8   9
BRANCH   8  23
HETATM   23  C   UNK A   1      -9.278  11.564  67.755  1.00  0.00    -0.165 C  
ATOM     24  OXT PRO A   2     -12.575  12.789  65.123  1.00  0.00    -0.530 OA 
HETATM   25  O   UNK A   1      -8.329  11.447  68.533  1.00  0.00    -0.146 OA 
ATOM     26  N   PRO A   2     -10.039  12.733  67.723  1.00  0.00    -0.219 N  
ATOM     27  CD  PRO A   2      -9.704  13.869  68.575  1.00  0.00    -0.202 C  
ATOM     28  O   PRO A   2     -10.444  13.541  65.190  1.00  0.00    -0.327 OA 
ATOM     29  C   PRO A   2     -11.557  13.018  65.757  1.00  0.00    -0.356 C  
ATOM     30  CA  PRO A   2     -11.436  12.826  67.268  1.00  0.00    -0.337 C  
ATOM     31  CB  PRO A   2     -12.025  14.040  67.992  1.00  0.00    -0.386 C  
ATOM     32  CG  PRO A   2     -11.038  14.356  69.108  1.00  0.00    -0.290 C  
ENDBRANCH   8  23
ENDBRANCH   7   8
ENDBRANCH   6   7
ENDBRANCH   5   6
ENDBRANCH   3   5
TORSDOF 10
ENDMDL
MODEL      284
REMARK 921   NORMALIZED FREE ENERGY PREDICTED BY IDOCK:   -2.84 KCAL/MOL
REMARK 922        TOTAL FREE ENERGY PREDICTED BY IDOCK:   -6.45 KCAL/MOL
REMARK 923 INTER-LIGAND FREE ENERGY PREDICTED BY IDOCK:   -5.15 KCAL/MOL
REMARK 924 INTRA-LIGAND FREE ENERGY PREDICTED BY IDOCK:   -1.31 KCAL/MOL
REMARK 927      BINDING AFFINITY PREDICTED BY RF-SCORE:    0.00 PKD
ROOT
HETATM    1  N   UNK A   1      -6.322  11.357  65.721  1.00  0.00    -0.384 NA 
HETATM    2  H2  UNK A   1      -5.939  12.301  65.667  1.00  0.00     0.000 HD 
HETATM    3  C   UNK A   1      -5.687  10.565  66.767  1.00  0.00    -0.056 C  
HETATM    4  H1  UNK A   1      -6.255  10.863  64.831  1.00  0.00     0.000 HD 
ENDROOT
BRANCH   3   5
HETATM    5  C   UNK A   1      -5.787  11.304  68.097  1.00  0.00    -0.045 C  
BRANCH   5   6
HETATM    6  C   UNK A   1      -6.124  10.360  69.258  1.00  0.00    -0.038 C  
BRANCH   6   7
HETATM    7  C   UNK A   1      -7.581  10.573  69.680  1.00  0.00    -0.134 C  
BRANCH   7   8
HETATM    8  C   UNK A   1      -8.339   9.316  70.142  1.00  0.00    -0.178 C  
BRANCH   8   9
HETATM    9  N   UNK A   1      -9.676   9.599  70.747  1.00  0.00    -0.320 NA 
HETATM   10  H   UNK A   1      -9.716  10.562  71.081  1.00  0.00     0.000 HD 
BRANCH   9  11
HETATM   11  C   UNK A   1     -10.843   9.311  69.855  1.00  0.00    -0.234 C  
HETATM   12  C   UNK A   1     -11.935  10.354  70.161  1.00  0.00    -0.276 C  
HETATM   13  O   UNK A   1     -12.795  10.715  69.372  1.00  0.00    -0.144 OA 
HETATM   14  O   UNK A   1     -11.843  10.831  71.427  1.00  0.00    -0.206 OA 
BRANCH  11  15
HETATM   15  C   UNK A   1     -11.417   7.895  70.083  1.00  0.00    -0.025 C  
BRANCH  15  16
HETATM   16  C   UNK A   1     -12.171   7.754  71.416  1.00  0.00    -0.343 C  
BRANCH  16  17
HETATM   17  C   UNK A   1     -11.426   6.910  72.426  1.00  0.00    -0.297 A  
HETATM   18  C   UNK A   1     -10.599   7.518  73.380  1.00  0.00    -0.409 A  
HETATM   19  C   UNK A   1     -10.035   5.361  74.312  1.00  0.00    -0.240 A  
HETATM   20  C   UNK A   1      -9.910   6.746  74.319  1.00  0.00    -0.348 A  
HETATM   21  C   UNK A   1     -10.866   4.745  73.379  1.00  0.00    -0.361 A  
HETATM   22  C   UNK A   1     -11.558   5.513  72.442  1.00  0.00    -0.230 A  
ENDBRANCH  16  17
ENDBRANCH  15  16
ENDBRANCH  11  15
ENDBRANCH   9  11
ENDBRANCH   8   9
BRANCH   8  23
HETATM   23  C   UNK A   1      -7.520   8.440  71.155  1.00  0.00    -0.084 C  
ATOM     24  OXT PRO A   2      -7.819   6.392  67.280  1.00  0.00    -0.102 OA 
HETATM   25  O   UNK A   1      -7.389   8.804  72.325  1.00  0.00    -0.299 OA 
ATOM     26  N   PRO A   2      -7.007   7.216  70.723  1.00  0.00    -0.060 N  
ATOM     27  CD  PRO A   2      -6.344   6.310  71.655  1.00  0.00    -0.046 C  
ATOM     28  O   PRO A   2      -8.819   5.888  69.244  1.00  0.00    -0.117 OA 
ATOM     29  C   PRO A   2      -7.808   6.397  68.501  1.00  0.00    -0.105 C  
ATOM     30  CA  PRO A   2      -6.630   6.894  69.337  1.00  0.00    -0.048 C  
ATOM     31  CB  PRO A   2      -5.571   5.792  69.444  1.00  0.00    -0.008 C  
ATOM     32  CG  PRO A   2      -5.129   5.805  70.901  1.00  0.00    -0.009 C  
ENDBRANCH   8  23
ENDBRANCH   7   8
ENDBRANCH   6   7
ENDBRANCH   5   6
ENDBRANCH   3   5
TORSDOF 10
ENDMDL
MODEL      285
REMARK 921   NORMALIZED FREE ENERGY PREDICTED BY IDOCK:   -2.83 KCAL/MOL
REMARK 922        TOTAL FREE ENERGY PREDICTED BY IDOCK:   -6.44 KCAL/MOL
REMARK 923 INTER-LIGAND FREE ENERGY PREDICTED BY IDOCK:   -6.33 KCAL/MOL
REMARK 924 INTRA-LIGAND FREE ENERGY PREDICTED BY IDOCK:   -0.11 KCAL/MOL
REMARK 927      BINDING AFFINITY PREDICTED BY RF-SCORE:    0.00 PKD
ROOT
HETATM    1  N   UNK A   1     -10.961   5.121  65.644  1.00  0.00    -0.745 NA 
HETATM    2  H2  UNK A   1     -10.079   4.981  65.151  1.00  0.00     0.000 HD 
HETATM    3  C   UNK A   1     -10.782   5.827  66.906  1.00  0.00    -0.305 C  
HETATM    4  H1  UNK A   1     -11.452   4.242  65.812  1.00  0.00     0.000 HD 
ENDROOT
BRANCH   3   5
HETATM    5  C   UNK A   1     -10.048   7.140  66.654  1.00  0.00    -0.229 C  
BRANCH   5   6
HETATM    6  C   UNK A   1     -10.574   8.274  67.543  1.00  0.00    -0.291 C  
BRANCH   6   7
HETATM    7  C   UNK A   1      -9.434   9.251  67.848  1.00  0.00    -0.154 C  
BRANCH   7   8
HETATM    8  C   UNK A   1      -9.684  10.239  69.001  1.00  0.00    -0.205 C  
BRANCH   8   9
HETATM    9  N   UNK A   1      -8.540  11.162  69.271  1.00  0.00    -0.381 NA 
HETATM   10  H   UNK A   1      -7.726  10.634  69.585  1.00  0.00     0.000 HD 
BRANCH   9  11
HETATM   11  C   UNK A   1      -8.170  12.055  68.127  1.00  0.00    -0.163 C  
HETATM   12  C   UNK A   1      -6.632  12.129  68.070  1.00  0.00    -0.069 C  
HETATM   13  O   UNK A   1      -5.983  12.366  67.063  1.00  0.00    -0.254 OA 
HETATM   14  O   UNK A   1      -6.066  11.908  69.282  1.00  0.00    -0.070 OA 
BRANCH  11  15
HETATM   15  C   UNK A   1      -8.740  13.481  68.291  1.00  0.00    -0.172 C  
BRANCH  15  16
HETATM   16  C   UNK A   1      -9.047  14.168  66.949  1.00  0.00    -0.260 C  
BRANCH  16  17
HETATM   17  C   UNK A   1      -8.314  15.480  66.781  1.00  0.00    -0.301 A  
HETATM   18  C   UNK A   1      -7.011  15.629  67.275  1.00  0.00    -0.224 A  
HETATM   19  C   UNK A   1      -6.933  17.908  66.475  1.00  0.00    -0.263 A  
HETATM   20  C   UNK A   1      -6.325  16.836  67.121  1.00  0.00    -0.223 A  
HETATM   21  C   UNK A   1      -8.222  17.769  65.966  1.00  0.00    -0.109 A  
HETATM   22  C   UNK A   1      -8.909  16.563  66.115  1.00  0.00    -0.342 A  
ENDBRANCH  16  17
ENDBRANCH  15  16
ENDBRANCH  11  15
ENDBRANCH   9  11
ENDBRANCH   8   9
BRANCH   8  23
HETATM   23  C   UNK A   1     -10.067   9.530  70.349  1.00  0.00    -0.271 C  
ATOM     24  OXT PRO A   2      -5.879   8.682  69.328  1.00  0.00    -0.037 OA 
HETATM   25  O   UNK A   1     -11.224   9.580  70.770  1.00  0.00    -0.265 OA 
ATOM     26  N   PRO A   2      -9.092   8.789  71.018  1.00  0.00    -0.197 N  
ATOM     27  CD  PRO A   2      -9.425   8.014  72.209  1.00  0.00    -0.209 C  
ATOM     28  O   PRO A   2      -7.667   7.300  69.290  1.00  0.00    -0.103 OA 
ATOM     29  C   PRO A   2      -6.970   8.357  69.768  1.00  0.00    -0.047 C  
ATOM     30  CA  PRO A   2      -7.642   9.040  70.958  1.00  0.00    -0.115 C  
ATOM     31  CB  PRO A   2      -7.073   8.481  72.266  1.00  0.00    -0.091 C  
ATOM     32  CG  PRO A   2      -8.281   8.273  73.169  1.00  0.00    -0.233 C  
ENDBRANCH   8  23
ENDBRANCH   7   8
ENDBRANCH   6   7
ENDBRANCH   5   6
ENDBRANCH   3   5
TORSDOF 10
ENDMDL
MODEL      286
REMARK 921   NORMALIZED FREE ENERGY PREDICTED BY IDOCK:   -2.82 KCAL/MOL
REMARK 922        TOTAL FREE ENERGY PREDICTED BY IDOCK:   -6.42 KCAL/MOL
REMARK 923 INTER-LIGAND FREE ENERGY PREDICTED BY IDOCK:   -5.14 KCAL/MOL
REMARK 924 INTRA-LIGAND FREE ENERGY PREDICTED BY IDOCK:   -1.29 KCAL/MOL
REMARK 927      BINDING AFFINITY PREDICTED BY RF-SCORE:    0.00 PKD
ROOT
HETATM    1  N   UNK A   1      -6.234  16.305  68.778  1.00  0.00    -0.119 NA 
HETATM    2  H2  UNK A   1      -6.806  16.630  69.558  1.00  0.00     0.000 HD 
HETATM    3  C   UNK A   1      -5.576  15.037  69.069  1.00  0.00    -0.097 C  
HETATM    4  H1  UNK A   1      -5.536  16.995  68.499  1.00  0.00     0.000 HD 
ENDROOT
BRANCH   3   5
HETATM    5  C   UNK A   1      -6.618  14.006  69.487  1.00  0.00    -0.115 C  
BRANCH   5   6
HETATM    6  C   UNK A   1      -6.681  12.822  68.514  1.00  0.00    -0.090 C  
BRANCH   6   7
HETATM    7  C   UNK A   1      -6.911  11.529  69.301  1.00  0.00    -0.098 C  
BRANCH   7   8
HETATM    8  C   UNK A   1      -7.845  10.498  68.644  1.00  0.00    -0.116 C  
BRANCH   8   9
HETATM    9  N   UNK A   1      -7.161   9.237  68.222  1.00  0.00    -0.077 NA 
HETATM   10  H   UNK A   1      -6.161   9.400  68.104  1.00  0.00     0.000 HD 
BRANCH   9  11
HETATM   11  C   UNK A   1      -7.392   8.065  69.124  1.00  0.00    -0.086 C  
HETATM   12  C   UNK A   1      -8.050   6.952  68.286  1.00  0.00    -0.119 C  
HETATM   13  O   UNK A   1      -7.975   5.757  68.531  1.00  0.00    -0.099 OA 
HETATM   14  O   UNK A   1      -8.744   7.450  67.233  1.00  0.00    -0.120 OA 
BRANCH  11  15
HETATM   15  C   UNK A   1      -8.313   8.416  70.313  1.00  0.00    -0.124 C  
BRANCH  15  16
HETATM   16  C   UNK A   1      -7.985   7.621  71.589  1.00  0.00    -0.095 C  
BRANCH  16  17
HETATM   17  C   UNK A   1      -9.147   6.783  72.073  1.00  0.00    -0.139 A  
HETATM   18  C   UNK A   1     -10.325   6.704  71.317  1.00  0.00    -0.230 A  
HETATM   19  C   UNK A   1     -11.316   5.228  72.953  1.00  0.00    -0.368 A  
HETATM   20  C   UNK A   1     -11.401   5.930  71.755  1.00  0.00    -0.289 A  
HETATM   21  C   UNK A   1     -10.146   5.285  73.707  1.00  0.00    -0.220 A  
HETATM   22  C   UNK A   1      -9.067   6.056  73.271  1.00  0.00    -0.129 A  
ENDBRANCH  16  17
ENDBRANCH  15  16
ENDBRANCH  11  15
ENDBRANCH   9  11
ENDBRANCH   8   9
BRANCH   8  23
HETATM   23  C   UNK A   1      -8.621  11.070  67.404  1.00  0.00    -0.132 C  
ATOM     24  OXT PRO A   2     -11.369  10.519  70.787  1.00  0.00    -0.327 OA 
HETATM   25  O   UNK A   1      -8.042  11.222  66.327  1.00  0.00    -0.165 OA 
ATOM     26  N   PRO A   2      -9.985  11.334  67.529  1.00  0.00    -0.180 N  
ATOM     27  CD  PRO A   2     -10.777  11.752  66.376  1.00  0.00    -0.266 C  
ATOM     28  O   PRO A   2     -11.226   9.351  68.857  1.00  0.00    -0.035 OA 
ATOM     29  C   PRO A   2     -11.099  10.478  69.597  1.00  0.00    -0.283 C  
ATOM     30  CA  PRO A   2     -10.670  11.696  68.780  1.00  0.00    -0.219 C  
ATOM     31  CB  PRO A   2     -11.906  12.496  68.357  1.00  0.00    -0.353 C  
ATOM     32  CG  PRO A   2     -11.661  12.866  66.901  1.00  0.00    -0.445 C  
ENDBRANCH   8  23
ENDBRANCH   7   8
ENDBRANCH   6   7
ENDBRANCH   5   6
ENDBRANCH   3   5
TORSDOF 10
ENDMDL
MODEL      287
REMARK 921   NORMALIZED FREE ENERGY PREDICTED BY IDOCK:   -2.81 KCAL/MOL
REMARK 922        TOTAL FREE ENERGY PREDICTED BY IDOCK:   -6.42 KCAL/MOL
REMARK 923 INTER-LIGAND FREE ENERGY PREDICTED BY IDOCK:   -5.26 KCAL/MOL
REMARK 924 INTRA-LIGAND FREE ENERGY PREDICTED BY IDOCK:   -1.15 KCAL/MOL
REMARK 927      BINDING AFFINITY PREDICTED BY RF-SCORE:    0.00 PKD
ROOT
HETATM    1  N   UNK A   1      -8.429   9.936  63.682  1.00  0.00    -0.164 NA 
HETATM    2  H2  UNK A   1      -9.293   9.491  63.371  1.00  0.00     0.000 HD 
HETATM    3  C   UNK A   1      -8.311   9.957  65.134  1.00  0.00    -0.148 C  
HETATM    4  H1  UNK A   1      -8.331  10.884  63.318  1.00  0.00     0.000 HD 
ENDROOT
BRANCH   3   5
HETATM    5  C   UNK A   1      -8.456   8.540  65.678  1.00  0.00    -0.170 C  
BRANCH   5   6
HETATM    6  C   UNK A   1      -9.556   8.441  66.742  1.00  0.00    -0.283 C  
BRANCH   6   7
HETATM    7  C   UNK A   1      -8.916   8.420  68.134  1.00  0.00    -0.139 C  
BRANCH   7   8
HETATM    8  C   UNK A   1      -9.148   7.144  68.962  1.00  0.00    -0.132 C  
BRANCH   8   9
HETATM    9  N   UNK A   1      -8.621   5.899  68.324  1.00  0.00    -0.114 NA 
HETATM   10  H   UNK A   1      -8.123   6.127  67.463  1.00  0.00     0.000 HD 
BRANCH   9  11
HETATM   11  C   UNK A   1      -7.760   5.054  69.211  1.00  0.00    -0.075 C  
HETATM   12  C   UNK A   1      -6.494   4.681  68.417  1.00  0.00    -0.037 C  
HETATM   13  O   UNK A   1      -5.413   4.408  68.917  1.00  0.00    -0.011 OA 
HETATM   14  O   UNK A   1      -6.714   4.678  67.079  1.00  0.00    -0.049 OA 
BRANCH  11  15
HETATM   15  C   UNK A   1      -8.477   3.762  69.660  1.00  0.00    -0.092 C  
BRANCH  15  16
HETATM   16  C   UNK A   1      -7.829   3.106  70.892  1.00  0.00    -0.046 C  
BRANCH  16  17
HETATM   17  C   UNK A   1      -8.757   3.053  72.084  1.00  0.00    -0.104 A  
HETATM   18  C   UNK A   1      -8.366   2.391  73.256  1.00  0.00    -0.066 A  
HETATM   19  C   UNK A   1     -10.466   2.946  74.312  1.00  0.00    -0.231 A  
HETATM   20  C   UNK A   1      -9.215   2.340  74.363  1.00  0.00    -0.091 A  
HETATM   21  C   UNK A   1     -10.863   3.621  73.159  1.00  0.00    -0.252 A  
HETATM   22  C   UNK A   1     -10.015   3.677  72.053  1.00  0.00    -0.232 A  
ENDBRANCH  16  17
ENDBRANCH  15  16
ENDBRANCH  11  15
ENDBRANCH   9  11
ENDBRANCH   8   9
BRANCH   8  23
HETATM   23  C   UNK A   1     -10.658   6.906  69.320  1.00  0.00    -0.226 C  
ATOM     24  OXT PRO A   2      -8.587   8.824  72.687  1.00  0.00    -0.411 OA 
HETATM   25  O   UNK A   1     -11.394   6.307  68.535  1.00  0.00    -0.324 OA 
ATOM     26  N   PRO A   2     -11.126   7.323  70.567  1.00  0.00    -0.261 N  
ATOM     27  CD  PRO A   2     -12.487   7.020  70.996  1.00  0.00    -0.326 C  
ATOM     28  O   PRO A   2      -9.365   6.710  72.505  1.00  0.00    -0.139 OA 
ATOM     29  C   PRO A   2      -9.394   8.034  72.224  1.00  0.00    -0.197 C  
ATOM     30  CA  PRO A   2     -10.578   8.444  71.349  1.00  0.00    -0.234 C  
ATOM     31  CB  PRO A   2     -11.730   8.931  72.233  1.00  0.00    -0.351 C  
ATOM     32  CG  PRO A   2     -12.983   8.302  71.638  1.00  0.00    -0.357 C  
ENDBRANCH   8  23
ENDBRANCH   7   8
ENDBRANCH   6   7
ENDBRANCH   5   6
ENDBRANCH   3   5
TORSDOF 10
ENDMDL
MODEL      288
REMARK 921   NORMALIZED FREE ENERGY PREDICTED BY IDOCK:   -2.81 KCAL/MOL
REMARK 922        TOTAL FREE ENERGY PREDICTED BY IDOCK:   -6.41 KCAL/MOL
REMARK 923 INTER-LIGAND FREE ENERGY PREDICTED BY IDOCK:   -5.40 KCAL/MOL
REMARK 924 INTRA-LIGAND FREE ENERGY PREDICTED BY IDOCK:   -1.00 KCAL/MOL
REMARK 927      BINDING AFFINITY PREDICTED BY RF-SCORE:    0.00 PKD
ROOT
HETATM    1  N   UNK A   1     -13.923   6.562  72.518  1.00  0.00    -0.295 NA 
HETATM    2  H2  UNK A   1     -14.583   7.294  72.255  1.00  0.00     0.000 HD 
HETATM    3  C   UNK A   1     -12.616   6.753  71.902  1.00  0.00    -0.285 C  
HETATM    4  H1  UNK A   1     -14.272   5.630  72.295  1.00  0.00     0.000 HD 
ENDROOT
BRANCH   3   5
HETATM    5  C   UNK A   1     -12.094   8.146  72.236  1.00  0.00    -0.419 C  
BRANCH   5   6
HETATM    6  C   UNK A   1     -10.990   8.595  71.270  1.00  0.00    -0.333 C  
BRANCH   6   7
HETATM    7  C   UNK A   1     -11.627   9.111  69.975  1.00  0.00     0.036 C  
BRANCH   7   8
HETATM    8  C   UNK A   1     -11.112  10.469  69.467  1.00  0.00    -0.268 C  
BRANCH   8   9
HETATM    9  N   UNK A   1      -9.622  10.599  69.480  1.00  0.00    -0.421 NA 
HETATM   10  H   UNK A   1      -9.283  10.681  70.438  1.00  0.00     0.000 HD 
BRANCH   9  11
HETATM   11  C   UNK A   1      -8.890   9.509  68.761  1.00  0.00    -0.132 C  
HETATM   12  C   UNK A   1      -7.531   9.317  69.461  1.00  0.00    -0.079 C  
HETATM   13  O   UNK A   1      -6.887   8.279  69.461  1.00  0.00    -0.041 OA 
HETATM   14  O   UNK A   1      -7.114  10.448  70.083  1.00  0.00    -0.154 OA 
BRANCH  11  15
HETATM   15  C   UNK A   1      -8.650   9.849  67.274  1.00  0.00    -0.125 C  
BRANCH  15  16
HETATM   16  C   UNK A   1      -8.966   8.679  66.326  1.00  0.00    -0.211 C  
BRANCH  16  17
HETATM   17  C   UNK A   1      -8.008   8.593  65.160  1.00  0.00    -0.127 A  
HETATM   18  C   UNK A   1      -7.587   9.757  64.503  1.00  0.00    -0.134 A  
HETATM   19  C   UNK A   1      -6.224   8.454  62.993  1.00  0.00    -0.086 A  
HETATM   20  C   UNK A   1      -6.700   9.687  63.428  1.00  0.00    -0.109 A  
HETATM   21  C   UNK A   1      -6.622   7.289  63.646  1.00  0.00    -0.052 A  
HETATM   22  C   UNK A   1      -7.506   7.357  64.723  1.00  0.00    -0.088 A  
ENDBRANCH  16  17
ENDBRANCH  15  16
ENDBRANCH  11  15
ENDBRANCH   9  11
ENDBRANCH   8   9
BRANCH   8  23
HETATM   23  C   UNK A   1     -11.714  11.690  70.250  1.00  0.00    -0.266 C  
ATOM     24  OXT PRO A   2      -9.779  13.066  66.554  1.00  0.00    -0.255 OA 
HETATM   25  O   UNK A   1     -12.233  11.523  71.355  1.00  0.00    -0.191 OA 
ATOM     26  N   PRO A   2     -11.588  12.967  69.702  1.00  0.00    -0.278 N  
ATOM     27  CD  PRO A   2     -12.023  14.147  70.442  1.00  0.00    -0.330 C  
ATOM     28  O   PRO A   2      -9.120  13.338  68.699  1.00  0.00    -0.109 OA 
ATOM     29  C   PRO A   2     -10.059  13.187  67.736  1.00  0.00    -0.226 C  
ATOM     30  CA  PRO A   2     -11.491  13.270  68.265  1.00  0.00    -0.316 C  
ATOM     31  CB  PRO A   2     -12.018  14.699  68.108  1.00  0.00    -0.281 C  
ATOM     32  CG  PRO A   2     -12.738  15.003  69.415  1.00  0.00     0.172 C  
ENDBRANCH   8  23
ENDBRANCH   7   8
ENDBRANCH   6   7
ENDBRANCH   5   6
ENDBRANCH   3   5
TORSDOF 10
ENDMDL
MODEL      289
REMARK 921   NORMALIZED FREE ENERGY PREDICTED BY IDOCK:   -2.79 KCAL/MOL
REMARK 922        TOTAL FREE ENERGY PREDICTED BY IDOCK:   -6.38 KCAL/MOL
REMARK 923 INTER-LIGAND FREE ENERGY PREDICTED BY IDOCK:   -4.81 KCAL/MOL
REMARK 924 INTRA-LIGAND FREE ENERGY PREDICTED BY IDOCK:   -1.57 KCAL/MOL
REMARK 927      BINDING AFFINITY PREDICTED BY RF-SCORE:    0.00 PKD
ROOT
HETATM    1  N   UNK A   1     -11.539   7.675  73.182  1.00  0.00    -0.636 NA 
HETATM    2  H2  UNK A   1     -11.335   6.857  73.757  1.00  0.00     0.000 HD 
HETATM    3  C   UNK A   1     -10.913   7.596  71.869  1.00  0.00    -0.241 C  
HETATM    4  H1  UNK A   1     -11.265   8.545  73.639  1.00  0.00     0.000 HD 
ENDROOT
BRANCH   3   5
HETATM    5  C   UNK A   1     -11.323   6.295  71.186  1.00  0.00    -0.364 C  
BRANCH   5   6
HETATM    6  C   UNK A   1     -11.314   6.419  69.657  1.00  0.00    -0.479 C  
BRANCH   6   7
HETATM    7  C   UNK A   1     -10.373   5.362  69.068  1.00  0.00    -0.282 C  
BRANCH   7   8
HETATM    8  C   UNK A   1      -9.260   5.891  68.147  1.00  0.00    -0.116 C  
BRANCH   8   9
HETATM    9  N   UNK A   1      -8.615   4.838  67.305  1.00  0.00    -0.105 NA 
HETATM   10  H   UNK A   1      -9.117   3.955  67.397  1.00  0.00     0.000 HD 
BRANCH   9  11
HETATM   11  C   UNK A   1      -8.458   5.197  65.861  1.00  0.00    -0.121 C  
HETATM   12  C   UNK A   1      -9.209   4.139  65.030  1.00  0.00    -0.154 C  
HETATM   13  O   UNK A   1      -9.675   4.328  63.917  1.00  0.00    -0.146 OA 
HETATM   14  O   UNK A   1      -9.292   2.950  65.676  1.00  0.00    -0.144 OA 
BRANCH  11  15
HETATM   15  C   UNK A   1      -6.976   5.226  65.423  1.00  0.00    -0.065 C  
BRANCH  15  16
HETATM   16  C   UNK A   1      -6.795   5.440  63.911  1.00  0.00    -0.046 C  
BRANCH  16  17
HETATM   17  C   UNK A   1      -6.866   6.897  63.512  1.00  0.00    -0.054 A  
HETATM   18  C   UNK A   1      -8.001   7.396  62.859  1.00  0.00    -0.114 A  
HETATM   19  C   UNK A   1      -7.019   9.602  62.767  1.00  0.00    -0.104 A  
HETATM   20  C   UNK A   1      -8.076   8.741  62.490  1.00  0.00    -0.162 A  
HETATM   21  C   UNK A   1      -5.891   9.123  63.430  1.00  0.00    -0.087 A  
HETATM   22  C   UNK A   1      -5.814   7.780  63.802  1.00  0.00    -0.057 A  
ENDBRANCH  16  17
ENDBRANCH  15  16
ENDBRANCH  11  15
ENDBRANCH   9  11
ENDBRANCH   8   9
BRANCH   8  23
HETATM   23  C   UNK A   1      -8.129   6.657  68.922  1.00  0.00    -0.116 C  
ATOM     24  OXT PRO A   2     -10.404   9.453  66.410  1.00  0.00    -0.242 OA 
HETATM   25  O   UNK A   1      -7.328   6.036  69.623  1.00  0.00    -0.075 OA 
ATOM     26  N   PRO A   2      -8.010   8.036  68.746  1.00  0.00    -0.117 N  
ATOM     27  CD  PRO A   2      -6.905   8.775  69.347  1.00  0.00    -0.049 C  
ATOM     28  O   PRO A   2      -8.289   8.696  66.153  1.00  0.00    -0.115 OA 
ATOM     29  C   PRO A   2      -9.364   9.042  66.901  1.00  0.00    -0.158 C  
ATOM     30  CA  PRO A   2      -9.114   8.948  68.405  1.00  0.00    -0.137 C  
ATOM     31  CB  PRO A   2      -8.697  10.319  68.947  1.00  0.00    -0.152 C  
ATOM     32  CG  PRO A   2      -7.541  10.037  69.897  1.00  0.00    -0.177 C  
ENDBRANCH   8  23
ENDBRANCH   7   8
ENDBRANCH   6   7
ENDBRANCH   5   6
ENDBRANCH   3   5
TORSDOF 10
ENDMDL
MODEL      290
REMARK 921   NORMALIZED FREE ENERGY PREDICTED BY IDOCK:   -2.79 KCAL/MOL
REMARK 922        TOTAL FREE ENERGY PREDICTED BY IDOCK:   -6.37 KCAL/MOL
REMARK 923 INTER-LIGAND FREE ENERGY PREDICTED BY IDOCK:   -4.71 KCAL/MOL
REMARK 924 INTRA-LIGAND FREE ENERGY PREDICTED BY IDOCK:   -1.66 KCAL/MOL
REMARK 927      BINDING AFFINITY PREDICTED BY RF-SCORE:    0.00 PKD
ROOT
HETATM    1  N   UNK A   1      -8.332   9.807  63.326  1.00  0.00    -0.154 NA 
HETATM    2  H2  UNK A   1      -9.321   9.754  63.081  1.00  0.00     0.000 HD 
HETATM    3  C   UNK A   1      -8.117   9.744  64.765  1.00  0.00    -0.146 C  
HETATM    4  H1  UNK A   1      -7.886  10.644  62.950  1.00  0.00     0.000 HD 
ENDROOT
BRANCH   3   5
HETATM    5  C   UNK A   1      -8.783   8.493  65.326  1.00  0.00    -0.175 C  
BRANCH   5   6
HETATM    6  C   UNK A   1      -9.873   8.829  66.351  1.00  0.00    -0.352 C  
BRANCH   6   7
HETATM    7  C   UNK A   1      -9.262   8.853  67.755  1.00  0.00    -0.153 C  
BRANCH   7   8
HETATM    8  C   UNK A   1      -9.147   7.492  68.462  1.00  0.00    -0.134 C  
BRANCH   8   9
HETATM    9  N   UNK A   1      -8.581   6.405  67.605  1.00  0.00    -0.116 NA 
HETATM   10  H   UNK A   1      -8.882   6.525  66.638  1.00  0.00     0.000 HD 
BRANCH   9  11
HETATM   11  C   UNK A   1      -7.092   6.264  67.671  1.00  0.00    -0.081 C  
HETATM   12  C   UNK A   1      -6.779   4.885  68.281  1.00  0.00    -0.054 C  
HETATM   13  O   UNK A   1      -5.753   4.252  68.083  1.00  0.00    -0.019 OA 
HETATM   14  O   UNK A   1      -7.778   4.444  69.084  1.00  0.00    -0.055 OA 
BRANCH  11  15
HETATM   15  C   UNK A   1      -6.439   7.362  68.540  1.00  0.00    -0.041 C  
BRANCH  15  16
HETATM   16  C   UNK A   1      -5.574   8.342  67.729  1.00  0.00    -0.038 C  
BRANCH  16  17
HETATM   17  C   UNK A   1      -5.828   9.788  68.092  1.00  0.00    -0.039 A  
HETATM   18  C   UNK A   1      -6.226  10.131  69.391  1.00  0.00    -0.046 A  
HETATM   19  C   UNK A   1      -6.301  12.469  68.786  1.00  0.00    -0.079 A  
HETATM   20  C   UNK A   1      -6.460  11.464  69.735  1.00  0.00    -0.133 A  
HETATM   21  C   UNK A   1      -5.890  12.144  67.495  1.00  0.00    -0.122 A  
HETATM   22  C   UNK A   1      -5.653  10.813  67.149  1.00  0.00    -0.045 A  
ENDBRANCH  16  17
ENDBRANCH  15  16
ENDBRANCH  11  15
ENDBRANCH   9  11
ENDBRANCH   8   9
BRANCH   8  23
HETATM   23  C   UNK A   1     -10.512   6.986  69.053  1.00  0.00    -0.207 C  
ATOM     24  OXT PRO A   2      -8.155   8.981  72.179  1.00  0.00    -0.359 OA 
HETATM   25  O   UNK A   1     -11.284   6.329  68.353  1.00  0.00    -0.335 OA 
ATOM     26  N   PRO A   2     -10.795   7.234  70.396  1.00  0.00    -0.240 N  
ATOM     27  CD  PRO A   2     -11.991   6.684  71.024  1.00  0.00    -0.359 C  
ATOM     28  O   PRO A   2      -8.631   6.785  71.930  1.00  0.00    -0.120 OA 
ATOM     29  C   PRO A   2      -8.909   8.103  71.788  1.00  0.00    -0.155 C  
ATOM     30  CA  PRO A   2     -10.283   8.373  71.177  1.00  0.00    -0.202 C  
ATOM     31  CB  PRO A   2     -11.308   8.603  72.291  1.00  0.00    -0.411 C  
ATOM     32  CG  PRO A   2     -12.543   7.820  71.864  1.00  0.00    -0.339 C  
ENDBRANCH   8  23
ENDBRANCH   7   8
ENDBRANCH   6   7
ENDBRANCH   5   6
ENDBRANCH   3   5
TORSDOF 10
ENDMDL
MODEL      291
REMARK 921   NORMALIZED FREE ENERGY PREDICTED BY IDOCK:   -2.73 KCAL/MOL
REMARK 922        TOTAL FREE ENERGY PREDICTED BY IDOCK:   -6.28 KCAL/MOL
REMARK 923 INTER-LIGAND FREE ENERGY PREDICTED BY IDOCK:   -8.47 KCAL/MOL
REMARK 924 INTRA-LIGAND FREE ENERGY PREDICTED BY IDOCK:    2.19 KCAL/MOL
REMARK 927      BINDING AFFINITY PREDICTED BY RF-SCORE:    0.00 PKD
ROOT
HETATM    1  N   UNK A   1     -12.768  12.041  71.379  1.00  0.00    -0.335 NA 
HETATM    2  H2  UNK A   1     -12.164  11.807  72.168  1.00  0.00     0.000 HD 
HETATM    3  C   UNK A   1     -12.019  12.194  70.138  1.00  0.00    -0.314 C  
HETATM    4  H1  UNK A   1     -13.318  12.883  71.552  1.00  0.00     0.000 HD 
ENDROOT
BRANCH   3   5
HETATM    5  C   UNK A   1     -11.197  10.936  69.881  1.00  0.00    -0.355 C  
BRANCH   5   6
HETATM    6  C   UNK A   1      -9.943  11.227  69.047  1.00  0.00    -0.124 C  
BRANCH   6   7
HETATM    7  C   UNK A   1     -10.120  12.559  68.311  1.00  0.00    -0.228 C  
BRANCH   7   8
HETATM    8  C   UNK A   1      -9.047  12.895  67.261  1.00  0.00    -0.208 C  
BRANCH   8   9
HETATM    9  N   UNK A   1      -9.301  14.165  66.515  1.00  0.00    -0.363 NA 
HETATM   10  H   UNK A   1     -10.268  14.198  66.192  1.00  0.00     0.000 HD 
BRANCH   9  11
HETATM   11  C   UNK A   1      -8.963  15.414  67.268  1.00  0.00    -0.198 C  
HETATM   12  C   UNK A   1      -7.566  15.224  67.889  1.00  0.00    -0.139 C  
HETATM   13  O   UNK A   1      -6.798  16.132  68.168  1.00  0.00    -0.118 OA 
HETATM   14  O   UNK A   1      -7.278  13.916  68.104  1.00  0.00    -0.093 OA 
BRANCH  11  15
HETATM   15  C   UNK A   1      -9.980  15.712  68.391  1.00  0.00    -0.210 C  
BRANCH  15  16
HETATM   16  C   UNK A   1      -9.662  16.998  69.173  1.00  0.00    -0.165 C  
BRANCH  16  17
HETATM   17  C   UNK A   1      -9.583  18.220  68.284  1.00  0.00    -0.332 A  
HETATM   18  C   UNK A   1      -8.500  19.103  68.392  1.00  0.00    -0.384 A  
HETATM   19  C   UNK A   1      -9.417  20.493  66.641  1.00  0.00    -0.374 A  
HETATM   20  C   UNK A   1      -8.418  20.231  67.573  1.00  0.00    -0.376 A  
HETATM   21  C   UNK A   1     -10.492  19.615  66.513  1.00  0.00    -0.612 A  
HETATM   22  C   UNK A   1     -10.575  18.485  67.327  1.00  0.00    -0.453 A  
ENDBRANCH  16  17
ENDBRANCH  15  16
ENDBRANCH  11  15
ENDBRANCH   9  11
ENDBRANCH   8   9
BRANCH   8  23
HETATM   23  C   UNK A   1      -8.830  11.748  66.210  1.00  0.00    -0.142 C  
ATOM     24  OXT PRO A   2     -12.571  13.891  65.364  1.00  0.00    -0.476 OA 
HETATM   25  O   UNK A   1      -7.874  10.978  66.321  1.00  0.00    -0.158 OA 
ATOM     26  N   PRO A   2      -9.775  11.578  65.198  1.00  0.00    -0.239 N  
ATOM     27  CD  PRO A   2      -9.685  10.456  64.269  1.00  0.00    -0.326 C  
ATOM     28  O   PRO A   2     -12.272  11.801  66.171  1.00  0.00    -0.336 OA 
ATOM     29  C   PRO A   2     -11.901  12.872  65.432  1.00  0.00    -0.403 C  
ATOM     30  CA  PRO A   2     -10.618  12.645  64.633  1.00  0.00    -0.333 C  
ATOM     31  CB  PRO A   2     -10.966  12.187  63.214  1.00  0.00    -0.398 C  
ATOM     32  CG  PRO A   2      -9.995  11.054  62.911  1.00  0.00    -0.272 C  
ENDBRANCH   8  23
ENDBRANCH   7   8
ENDBRANCH   6   7
ENDBRANCH   5   6
ENDBRANCH   3   5
TORSDOF 10
ENDMDL
MODEL      292
REMARK 921   NORMALIZED FREE ENERGY PREDICTED BY IDOCK:   -2.72 KCAL/MOL
REMARK 922        TOTAL FREE ENERGY PREDICTED BY IDOCK:   -6.27 KCAL/MOL
REMARK 923 INTER-LIGAND FREE ENERGY PREDICTED BY IDOCK:   -4.82 KCAL/MOL
REMARK 924 INTRA-LIGAND FREE ENERGY PREDICTED BY IDOCK:   -1.45 KCAL/MOL
REMARK 927      BINDING AFFINITY PREDICTED BY RF-SCORE:    0.00 PKD
ROOT
HETATM    1  N   UNK A   1      -8.935  10.282  62.574  1.00  0.00    -0.235 NA 
HETATM    2  H2  UNK A   1      -9.768   9.760  62.300  1.00  0.00     0.000 HD 
HETATM    3  C   UNK A   1      -8.496   9.949  63.923  1.00  0.00    -0.181 C  
HETATM    4  H1  UNK A   1      -9.071  11.290  62.499  1.00  0.00     0.000 HD 
ENDROOT
BRANCH   3   5
HETATM    5  C   UNK A   1      -8.294   8.442  64.035  1.00  0.00    -0.068 C  
BRANCH   5   6
HETATM    6  C   UNK A   1      -8.877   7.877  65.337  1.00  0.00    -0.020 C  
BRANCH   6   7
HETATM    7  C   UNK A   1      -7.962   8.251  66.507  1.00  0.00    -0.100 C  
BRANCH   7   8
HETATM    8  C   UNK A   1      -8.666   8.775  67.771  1.00  0.00    -0.136 C  
BRANCH   8   9
HETATM    9  N   UNK A   1      -9.930   8.053  68.108  1.00  0.00    -0.178 NA 
HETATM   10  H   UNK A   1     -10.182   7.411  67.357  1.00  0.00     0.000 HD 
BRANCH   9  11
HETATM   11  C   UNK A   1      -9.911   7.332  69.420  1.00  0.00    -0.163 C  
HETATM   12  C   UNK A   1      -9.788   5.825  69.125  1.00  0.00    -0.162 C  
HETATM   13  O   UNK A   1      -9.306   5.002  69.888  1.00  0.00    -0.123 OA 
HETATM   14  O   UNK A   1     -10.291   5.502  67.908  1.00  0.00    -0.186 OA 
BRANCH  11  15
HETATM   15  C   UNK A   1     -11.193   7.584  70.244  1.00  0.00    -0.253 C  
BRANCH  15  16
HETATM   16  C   UNK A   1     -10.950   8.445  71.496  1.00  0.00    -0.326 C  
BRANCH  16  17
HETATM   17  C   UNK A   1     -10.126   7.733  72.545  1.00  0.00    -0.301 A  
HETATM   18  C   UNK A   1     -10.701   6.728  73.334  1.00  0.00    -0.332 A  
HETATM   19  C   UNK A   1      -8.610   6.398  74.498  1.00  0.00    -0.153 A  
HETATM   20  C   UNK A   1      -9.947   6.064  74.303  1.00  0.00    -0.275 A  
HETATM   21  C   UNK A   1      -8.021   7.385  73.711  1.00  0.00    -0.148 A  
HETATM   22  C   UNK A   1      -8.771   8.048  72.739  1.00  0.00    -0.262 A  
ENDBRANCH  16  17
ENDBRANCH  15  16
ENDBRANCH  11  15
ENDBRANCH   9  11
ENDBRANCH   8   9
BRANCH   8  23
HETATM   23  C   UNK A   1      -8.984  10.312  67.707  1.00  0.00    -0.134 C  
ATOM     24  OXT PRO A   2      -5.236   9.632  69.896  1.00  0.00    -0.033 OA 
HETATM   25  O   UNK A   1     -10.036  10.706  67.202  1.00  0.00    -0.191 OA 
ATOM     26  N   PRO A   2      -8.090  11.208  68.294  1.00  0.00    -0.124 N  
ATOM     27  CD  PRO A   2      -8.396  12.633  68.368  1.00  0.00    -0.125 C  
ATOM     28  O   PRO A   2      -7.249  10.297  70.680  1.00  0.00    -0.306 OA 
ATOM     29  C   PRO A   2      -6.296  10.213  69.723  1.00  0.00    -0.064 C  
ATOM     30  CA  PRO A   2      -6.643  10.985  68.451  1.00  0.00    -0.058 C  
ATOM     31  CB  PRO A   2      -6.014  12.381  68.504  1.00  0.00    -0.055 C  
ATOM     32  CG  PRO A   2      -7.098  13.325  68.001  1.00  0.00    -0.122 C  
ENDBRANCH   8  23
ENDBRANCH   7   8
ENDBRANCH   6   7
ENDBRANCH   5   6
ENDBRANCH   3   5
TORSDOF 10
ENDMDL
MODEL      293
REMARK 921   NORMALIZED FREE ENERGY PREDICTED BY IDOCK:   -2.72 KCAL/MOL
REMARK 922        TOTAL FREE ENERGY PREDICTED BY IDOCK:   -6.26 KCAL/MOL
REMARK 923 INTER-LIGAND FREE ENERGY PREDICTED BY IDOCK:   -6.27 KCAL/MOL
REMARK 924 INTRA-LIGAND FREE ENERGY PREDICTED BY IDOCK:    0.01 KCAL/MOL
REMARK 927      BINDING AFFINITY PREDICTED BY RF-SCORE:    0.00 PKD
ROOT
HETATM    1  N   UNK A   1      -7.335  10.601  64.481  1.00  0.00    -0.352 NA 
HETATM    2  H2  UNK A   1      -6.767  10.137  65.191  1.00  0.00     0.000 HD 
HETATM    3  C   UNK A   1      -8.762  10.418  64.712  1.00  0.00    -0.186 C  
HETATM    4  H1  UNK A   1      -7.099  10.292  63.538  1.00  0.00     0.000 HD 
ENDROOT
BRANCH   3   5
HETATM    5  C   UNK A   1      -9.113  10.880  66.122  1.00  0.00    -0.201 C  
BRANCH   5   6
HETATM    6  C   UNK A   1      -9.776   9.768  66.945  1.00  0.00    -0.243 C  
BRANCH   6   7
HETATM    7  C   UNK A   1      -8.711   8.763  67.393  1.00  0.00    -0.132 C  
BRANCH   7   8
HETATM    8  C   UNK A   1      -9.164   7.717  68.426  1.00  0.00    -0.140 C  
BRANCH   8   9
HETATM    9  N   UNK A   1      -8.042   7.080  69.181  1.00  0.00    -0.119 NA 
HETATM   10  H   UNK A   1      -7.296   6.807  68.542  1.00  0.00     0.000 HD 
BRANCH   9  11
HETATM   11  C   UNK A   1      -7.489   7.907  70.300  1.00  0.00    -0.077 C  
HETATM   12  C   UNK A   1      -7.155   6.957  71.465  1.00  0.00    -0.075 C  
HETATM   13  O   UNK A   1      -6.311   7.173  72.322  1.00  0.00    -0.047 OA 
HETATM   14  O   UNK A   1      -7.918   5.836  71.443  1.00  0.00    -0.109 OA 
BRANCH  11  15
HETATM   15  C   UNK A   1      -8.493   8.974  70.789  1.00  0.00    -0.238 C  
BRANCH  15  16
HETATM   16  C   UNK A   1      -9.460   8.450  71.864  1.00  0.00    -0.323 C  
BRANCH  16  17
HETATM   17  C   UNK A   1     -10.861   8.996  71.710  1.00  0.00    -0.437 A  
HETATM   18  C   UNK A   1     -11.117  10.042  70.814  1.00  0.00    -0.407 A  
HETATM   19  C   UNK A   1     -13.459  10.021  71.407  1.00  0.00    -0.355 A  
HETATM   20  C   UNK A   1     -12.409  10.550  70.663  1.00  0.00    -0.449 A  
HETATM   21  C   UNK A   1     -13.222   8.971  72.291  1.00  0.00    -0.519 A  
HETATM   22  C   UNK A   1     -11.933   8.459  72.442  1.00  0.00    -0.451 A  
ENDBRANCH  16  17
ENDBRANCH  15  16
ENDBRANCH  11  15
ENDBRANCH   9  11
ENDBRANCH   8   9
BRANCH   8  23
HETATM   23  C   UNK A   1     -10.042   6.573  67.802  1.00  0.00    -0.148 C  
ATOM     24  OXT PRO A   2      -6.000   6.487  66.083  1.00  0.00    -0.027 OA 
HETATM   25  O   UNK A   1     -11.235   6.478  68.096  1.00  0.00    -0.275 OA 
ATOM     26  N   PRO A   2      -9.464   5.720  66.862  1.00  0.00    -0.128 N  
ATOM     27  CD  PRO A   2     -10.265   4.719  66.165  1.00  0.00    -0.281 C  
ATOM     28  O   PRO A   2      -7.950   7.100  65.119  1.00  0.00    -0.117 OA 
ATOM     29  C   PRO A   2      -7.213   6.380  65.997  1.00  0.00    -0.075 C  
ATOM     30  CA  PRO A   2      -8.035   5.370  66.796  1.00  0.00    -0.101 C  
ATOM     31  CB  PRO A   2      -7.977   4.000  66.114  1.00  0.00    -0.094 C  
ATOM     32  CG  PRO A   2      -9.404   3.471  66.162  1.00  0.00    -0.168 C  
ENDBRANCH   8  23
ENDBRANCH   7   8
ENDBRANCH   6   7
ENDBRANCH   5   6
ENDBRANCH   3   5
TORSDOF 10
ENDMDL
MODEL      294
REMARK 921   NORMALIZED FREE ENERGY PREDICTED BY IDOCK:   -2.68 KCAL/MOL
REMARK 922        TOTAL FREE ENERGY PREDICTED BY IDOCK:   -6.20 KCAL/MOL
REMARK 923 INTER-LIGAND FREE ENERGY PREDICTED BY IDOCK:   -7.40 KCAL/MOL
REMARK 924 INTRA-LIGAND FREE ENERGY PREDICTED BY IDOCK:    1.20 KCAL/MOL
REMARK 927      BINDING AFFINITY PREDICTED BY RF-SCORE:    0.00 PKD
ROOT
HETATM    1  N   UNK A   1      -9.374   6.156  65.458  1.00  0.00    -0.366 NA 
HETATM    2  H2  UNK A   1     -10.378   6.332  65.441  1.00  0.00     0.000 HD 
HETATM    3  C   UNK A   1      -8.879   5.917  66.808  1.00  0.00    -0.118 C  
HETATM    4  H1  UNK A   1      -8.842   6.914  65.030  1.00  0.00     0.000 HD 
ENDROOT
BRANCH   3   5
HETATM    5  C   UNK A   1      -9.674   4.784  67.448  1.00  0.00    -0.209 C  
BRANCH   5   6
HETATM    6  C   UNK A   1     -10.099   5.117  68.883  1.00  0.00    -0.237 C  
BRANCH   6   7
HETATM    7  C   UNK A   1     -11.273   6.100  68.850  1.00  0.00    -0.338 C  
BRANCH   7   8
HETATM    8  C   UNK A   1     -11.214   7.254  69.867  1.00  0.00    -0.170 C  
BRANCH   8   9
HETATM    9  N   UNK A   1      -9.930   8.020  69.845  1.00  0.00    -0.187 NA 
HETATM   10  H   UNK A   1      -9.137   7.381  69.881  1.00  0.00     0.000 HD 
BRANCH   9  11
HETATM   11  C   UNK A   1      -9.782   8.964  68.693  1.00  0.00    -0.161 C  
HETATM   12  C   UNK A   1      -8.568   9.868  68.981  1.00  0.00    -0.149 C  
HETATM   13  O   UNK A   1      -7.889  10.417  68.126  1.00  0.00    -0.104 OA 
HETATM   14  O   UNK A   1      -8.334   9.997  70.310  1.00  0.00    -0.135 OA 
BRANCH  11  15
HETATM   15  C   UNK A   1     -11.035   9.847  68.497  1.00  0.00    -0.226 C  
BRANCH  15  16
HETATM   16  C   UNK A   1     -10.788  11.330  68.822  1.00  0.00    -0.252 C  
BRANCH  16  17
HETATM   17  C   UNK A   1     -11.668  11.840  69.941  1.00  0.00    -0.399 A  
HETATM   18  C   UNK A   1     -12.239  10.943  70.854  1.00  0.00    -0.485 A  
HETATM   19  C   UNK A   1     -13.302  12.767  72.031  1.00  0.00    -0.565 A  
HETATM   20  C   UNK A   1     -13.050  11.405  71.893  1.00  0.00    -0.505 A  
HETATM   21  C   UNK A   1     -12.728  13.671  71.139  1.00  0.00    -0.432 A  
HETATM   22  C   UNK A   1     -11.915  13.212  70.102  1.00  0.00    -0.381 A  
ENDBRANCH  16  17
ENDBRANCH  15  16
ENDBRANCH  11  15
ENDBRANCH   9  11
ENDBRANCH   8   9
BRANCH   8  23
HETATM   23  C   UNK A   1     -11.479   6.789  71.344  1.00  0.00    -0.292 C  
ATOM     24  OXT PRO A   2      -7.159   6.991  70.572  1.00  0.00    -0.061 OA 
HETATM   25  O   UNK A   1     -12.631   6.594  71.734  1.00  0.00    -0.354 OA 
ATOM     26  N   PRO A   2     -10.387   6.537  72.174  1.00  0.00    -0.196 N  
ATOM     27  CD  PRO A   2     -10.575   5.990  73.514  1.00  0.00    -0.268 C  
ATOM     28  O   PRO A   2      -8.477   5.176  70.858  1.00  0.00    -0.114 OA 
ATOM     29  C   PRO A   2      -8.144   6.471  71.073  1.00  0.00    -0.120 C  
ATOM     30  CA  PRO A   2      -9.067   7.180  72.063  1.00  0.00    -0.130 C  
ATOM     31  CB  PRO A   2      -8.461   7.123  73.468  1.00  0.00    -0.154 C  
ATOM     32  CG  PRO A   2      -9.624   6.782  74.390  1.00  0.00    -0.296 C  
ENDBRANCH   8  23
ENDBRANCH   7   8
ENDBRANCH   6   7
ENDBRANCH   5   6
ENDBRANCH   3   5
TORSDOF 10
ENDMDL
MODEL      295
REMARK 921   NORMALIZED FREE ENERGY PREDICTED BY IDOCK:   -2.68 KCAL/MOL
REMARK 922        TOTAL FREE ENERGY PREDICTED BY IDOCK:   -6.20 KCAL/MOL
REMARK 923 INTER-LIGAND FREE ENERGY PREDICTED BY IDOCK:   -5.93 KCAL/MOL
REMARK 924 INTRA-LIGAND FREE ENERGY PREDICTED BY IDOCK:   -0.27 KCAL/MOL
REMARK 927      BINDING AFFINITY PREDICTED BY RF-SCORE:    0.00 PKD
ROOT
HETATM    1  N   UNK A   1      -5.849   7.877  66.601  1.00  0.00    -0.042 NA 
HETATM    2  H2  UNK A   1      -6.251   7.123  67.157  1.00  0.00     0.000 HD 
HETATM    3  C   UNK A   1      -6.466   9.165  66.890  1.00  0.00    -0.067 C  
HETATM    4  H1  UNK A   1      -5.905   7.690  65.599  1.00  0.00     0.000 HD 
ENDROOT
BRANCH   3   5
HETATM    5  C   UNK A   1      -6.382   9.445  68.387  1.00  0.00    -0.053 C  
BRANCH   5   6
HETATM    6  C   UNK A   1      -6.820   8.238  69.225  1.00  0.00    -0.050 C  
BRANCH   6   7
HETATM    7  C   UNK A   1      -8.337   8.060  69.106  1.00  0.00    -0.132 C  
BRANCH   7   8
HETATM    8  C   UNK A   1      -9.168   8.544  70.307  1.00  0.00    -0.158 C  
BRANCH   8   9
HETATM    9  N   UNK A   1      -9.457  10.010  70.298  1.00  0.00    -0.384 NA 
HETATM   10  H   UNK A   1      -8.625  10.532  70.021  1.00  0.00     0.000 HD 
BRANCH   9  11
HETATM   11  C   UNK A   1     -10.626  10.415  69.456  1.00  0.00    -0.246 C  
HETATM   12  C   UNK A   1     -11.907  10.111  70.256  1.00  0.00    -0.261 C  
HETATM   13  O   UNK A   1     -12.974  10.689  70.111  1.00  0.00    -0.225 OA 
HETATM   14  O   UNK A   1     -11.723   9.108  71.150  1.00  0.00    -0.279 OA 
BRANCH  11  15
HETATM   15  C   UNK A   1     -10.673   9.650  68.115  1.00  0.00    -0.266 C  
BRANCH  15  16
HETATM   16  C   UNK A   1     -10.084  10.450  66.940  1.00  0.00    -0.269 C  
BRANCH  16  17
HETATM   17  C   UNK A   1     -10.545  11.890  66.921  1.00  0.00    -0.264 A  
HETATM   18  C   UNK A   1     -11.842  12.211  66.498  1.00  0.00    -0.322 A  
HETATM   19  C   UNK A   1     -11.421  14.559  66.881  1.00  0.00    -0.375 A  
HETATM   20  C   UNK A   1     -12.277  13.538  66.480  1.00  0.00    -0.433 A  
HETATM   21  C   UNK A   1     -10.135  14.253  67.319  1.00  0.00    -0.252 A  
HETATM   22  C   UNK A   1      -9.698  12.928  67.341  1.00  0.00    -0.201 A  
ENDBRANCH  16  17
ENDBRANCH  15  16
ENDBRANCH  11  15
ENDBRANCH   9  11
ENDBRANCH   8   9
BRANCH   8  23
HETATM   23  C   UNK A   1      -8.519   8.183  71.692  1.00  0.00    -0.136 C  
ATOM     24  OXT PRO A   2     -10.484   4.649  69.974  1.00  0.00    -0.116 OA 
HETATM   25  O   UNK A   1      -7.985   9.060  72.373  1.00  0.00    -0.344 OA 
ATOM     26  N   PRO A   2      -8.622   6.873  72.160  1.00  0.00    -0.117 N  
ATOM     27  CD  PRO A   2      -8.143   6.514  73.491  1.00  0.00    -0.111 C  
ATOM     28  O   PRO A   2     -11.097   5.902  71.753  1.00  0.00    -0.263 OA 
ATOM     29  C   PRO A   2     -10.179   5.365  70.915  1.00  0.00    -0.234 C  
ATOM     30  CA  PRO A   2      -8.737   5.674  71.314  1.00  0.00    -0.132 C  
ATOM     31  CB  PRO A   2      -8.175   4.522  72.153  1.00  0.00    -0.105 C  
ATOM     32  CG  PRO A   2      -7.424   5.192  73.296  1.00  0.00    -0.092 C  
ENDBRANCH   8  23
ENDBRANCH   7   8
ENDBRANCH   6   7
ENDBRANCH   5   6
ENDBRANCH   3   5
TORSDOF 10
ENDMDL
MODEL      296
REMARK 921   NORMALIZED FREE ENERGY PREDICTED BY IDOCK:   -2.64 KCAL/MOL
REMARK 922        TOTAL FREE ENERGY PREDICTED BY IDOCK:   -6.14 KCAL/MOL
REMARK 923 INTER-LIGAND FREE ENERGY PREDICTED BY IDOCK:   -5.22 KCAL/MOL
REMARK 924 INTRA-LIGAND FREE ENERGY PREDICTED BY IDOCK:   -0.93 KCAL/MOL
REMARK 927      BINDING AFFINITY PREDICTED BY RF-SCORE:    0.00 PKD
ROOT
HETATM    1  N   UNK A   1     -12.251  13.594  67.454  1.00  0.00    -0.374 NA 
HETATM    2  H2  UNK A   1     -12.246  12.584  67.599  1.00  0.00     0.000 HD 
HETATM    3  C   UNK A   1     -11.051  14.058  66.769  1.00  0.00    -0.306 C  
HETATM    4  H1  UNK A   1     -12.365  14.108  68.328  1.00  0.00     0.000 HD 
ENDROOT
BRANCH   3   5
HETATM    5  C   UNK A   1     -10.881  13.291  65.463  1.00  0.00    -0.297 C  
BRANCH   5   6
HETATM    6  C   UNK A   1     -11.136  11.789  65.639  1.00  0.00    -0.340 C  
BRANCH   6   7
HETATM    7  C   UNK A   1      -9.800  11.064  65.824  1.00  0.00    -0.282 C  
BRANCH   7   8
HETATM    8  C   UNK A   1      -9.866   9.700  66.534  1.00  0.00    -0.235 C  
BRANCH   8   9
HETATM    9  N   UNK A   1      -9.718   9.779  68.019  1.00  0.00    -0.143 NA 
HETATM   10  H   UNK A   1      -9.296  10.668  68.286  1.00  0.00     0.000 HD 
BRANCH   9  11
HETATM   11  C   UNK A   1     -10.982   9.554  68.789  1.00  0.00    -0.080 C  
HETATM   12  C   UNK A   1     -11.562  10.934  69.150  1.00  0.00    -0.319 C  
HETATM   13  O   UNK A   1     -12.745  11.161  69.358  1.00  0.00    -0.240 OA 
HETATM   14  O   UNK A   1     -10.601  11.888  69.223  1.00  0.00    -0.121 OA 
BRANCH  11  15
HETATM   15  C   UNK A   1     -10.741   8.751  70.086  1.00  0.00    -0.239 C  
BRANCH  15  16
HETATM   16  C   UNK A   1     -11.358   7.342  70.050  1.00  0.00    -0.150 C  
BRANCH  16  17
HETATM   17  C   UNK A   1     -10.563   6.375  69.202  1.00  0.00    -0.305 A  
HETATM   18  C   UNK A   1     -10.919   6.150  67.866  1.00  0.00    -0.399 A  
HETATM   19  C   UNK A   1      -9.096   4.584  67.609  1.00  0.00    -0.139 A  
HETATM   20  C   UNK A   1     -10.188   5.261  67.075  1.00  0.00    -0.274 A  
HETATM   21  C   UNK A   1      -8.722   4.810  68.932  1.00  0.00    -0.107 A  
HETATM   22  C   UNK A   1      -9.448   5.700  69.725  1.00  0.00    -0.189 A  
ENDBRANCH  16  17
ENDBRANCH  15  16
ENDBRANCH  11  15
ENDBRANCH   9  11
ENDBRANCH   8   9
BRANCH   8  23
HETATM   23  C   UNK A   1      -8.810   8.671  65.992  1.00  0.00    -0.178 C  
ATOM     24  OXT PRO A   2      -7.337  10.554  69.678  1.00  0.00    -0.134 OA 
HETATM   25  O   UNK A   1      -9.001   8.092  64.921  1.00  0.00     0.083 OA 
ATOM     26  N   PRO A   2      -7.629   8.480  66.710  1.00  0.00    -0.089 N  
ATOM     27  CD  PRO A   2      -6.565   7.627  66.191  1.00  0.00    -0.049 C  
ATOM     28  O   PRO A   2      -6.629  10.832  67.550  1.00  0.00    -0.057 OA 
ATOM     29  C   PRO A   2      -7.174  10.106  68.554  1.00  0.00    -0.080 C  
ATOM     30  CA  PRO A   2      -7.479   8.661  68.164  1.00  0.00    -0.096 C  
ATOM     31  CB  PRO A   2      -6.312   7.757  68.573  1.00  0.00    -0.044 C  
ATOM     32  CG  PRO A   2      -6.097   6.824  67.388  1.00  0.00    -0.032 C  
ENDBRANCH   8  23
ENDBRANCH   7   8
ENDBRANCH   6   7
ENDBRANCH   5   6
ENDBRANCH   3   5
TORSDOF 10
ENDMDL
MODEL      297
REMARK 921   NORMALIZED FREE ENERGY PREDICTED BY IDOCK:   -2.63 KCAL/MOL
REMARK 922        TOTAL FREE ENERGY PREDICTED BY IDOCK:   -6.13 KCAL/MOL
REMARK 923 INTER-LIGAND FREE ENERGY PREDICTED BY IDOCK:   -4.89 KCAL/MOL
REMARK 924 INTRA-LIGAND FREE ENERGY PREDICTED BY IDOCK:   -1.24 KCAL/MOL
REMARK 927      BINDING AFFINITY PREDICTED BY RF-SCORE:    0.00 PKD
ROOT
HETATM    1  N   UNK A   1      -8.900  10.279  62.510  1.00  0.00    -0.210 NA 
HETATM    2  H2  UNK A   1      -9.704   9.700  62.267  1.00  0.00     0.000 HD 
HETATM    3  C   UNK A   1      -8.478  10.083  63.891  1.00  0.00    -0.178 C  
HETATM    4  H1  UNK A   1      -9.075  11.270  62.345  1.00  0.00     0.000 HD 
ENDROOT
BRANCH   3   5
HETATM    5  C   UNK A   1      -8.217   8.601  64.138  1.00  0.00    -0.156 C  
BRANCH   5   6
HETATM    6  C   UNK A   1      -8.856   8.112  65.444  1.00  0.00    -0.086 C  
BRANCH   6   7
HETATM    7  C   UNK A   1      -8.020   8.598  66.632  1.00  0.00    -0.096 C  
BRANCH   7   8
HETATM    8  C   UNK A   1      -8.749   9.495  67.647  1.00  0.00    -0.122 C  
BRANCH   8   9
HETATM    9  N   UNK A   1     -10.201   9.179  67.807  1.00  0.00    -0.210 NA 
HETATM   10  H   UNK A   1     -10.498   8.511  67.096  1.00  0.00     0.000 HD 
BRANCH   9  11
HETATM   11  C   UNK A   1     -10.592   8.694  69.169  1.00  0.00    -0.178 C  
HETATM   12  C   UNK A   1     -10.970   7.206  69.046  1.00  0.00    -0.089 C  
HETATM   13  O   UNK A   1     -10.901   6.391  69.954  1.00  0.00    -0.248 OA 
HETATM   14  O   UNK A   1     -11.405   6.892  67.800  1.00  0.00    -0.110 OA 
BRANCH  11  15
HETATM   15  C   UNK A   1     -11.793   9.476  69.744  1.00  0.00     0.225 C  
BRANCH  15  16
HETATM   16  C   UNK A   1     -11.459  10.232  71.042  1.00  0.00    -0.386 C  
BRANCH  16  17
HETATM   17  C   UNK A   1     -12.181  11.556  71.152  1.00  0.00    -0.287 A  
HETATM   18  C   UNK A   1     -13.112  11.770  72.177  1.00  0.00    -0.308 A  
HETATM   19  C   UNK A   1     -13.531  14.010  71.375  1.00  0.00    -0.360 A  
HETATM   20  C   UNK A   1     -13.781  12.991  72.288  1.00  0.00    -0.608 A  
HETATM   21  C   UNK A   1     -12.597  13.817  70.360  1.00  0.00    -0.325 A  
HETATM   22  C   UNK A   1     -11.925  12.599  70.248  1.00  0.00    -0.363 A  
ENDBRANCH  16  17
ENDBRANCH  15  16
ENDBRANCH  11  15
ENDBRANCH   9  11
ENDBRANCH   8   9
BRANCH   8  23
HETATM   23  C   UNK A   1      -8.616  11.026  67.324  1.00  0.00    -0.130 C  
ATOM     24  OXT PRO A   2      -5.357   9.750  69.981  1.00  0.00    -0.035 OA 
HETATM   25  O   UNK A   1      -9.480  11.596  66.656  1.00  0.00    -0.190 OA 
ATOM     26  N   PRO A   2      -7.543  11.736  67.866  1.00  0.00    -0.113 N  
ATOM     27  CD  PRO A   2      -7.439  13.181  67.696  1.00  0.00    -0.164 C  
ATOM     28  O   PRO A   2      -7.146  11.055  70.437  1.00  0.00    -0.061 OA 
ATOM     29  C   PRO A   2      -6.197  10.556  69.611  1.00  0.00    -0.063 C  
ATOM     30  CA  PRO A   2      -6.231  11.163  68.209  1.00  0.00    -0.049 C  
ATOM     31  CB  PRO A   2      -5.238  12.327  68.124  1.00  0.00    -0.061 C  
ATOM     32  CG  PRO A   2      -5.977  13.426  67.373  1.00  0.00     0.075 C  
ENDBRANCH   8  23
ENDBRANCH   7   8
ENDBRANCH   6   7
ENDBRANCH   5   6
ENDBRANCH   3   5
TORSDOF 10
ENDMDL
MODEL      298
REMARK 921   NORMALIZED FREE ENERGY PREDICTED BY IDOCK:   -2.61 KCAL/MOL
REMARK 922        TOTAL FREE ENERGY PREDICTED BY IDOCK:   -6.09 KCAL/MOL
REMARK 923 INTER-LIGAND FREE ENERGY PREDICTED BY IDOCK:   -5.25 KCAL/MOL
REMARK 924 INTRA-LIGAND FREE ENERGY PREDICTED BY IDOCK:   -0.84 KCAL/MOL
REMARK 927      BINDING AFFINITY PREDICTED BY RF-SCORE:    0.00 PKD
ROOT
HETATM    1  N   UNK A   1     -12.542  10.464  70.305  1.00  0.00    -0.502 NA 
HETATM    2  H2  UNK A   1     -13.018   9.951  71.048  1.00  0.00     0.000 HD 
HETATM    3  C   UNK A   1     -11.133  10.107  70.205  1.00  0.00    -0.315 C  
HETATM    4  H1  UNK A   1     -12.631  11.474  70.416  1.00  0.00     0.000 HD 
ENDROOT
BRANCH   3   5
HETATM    5  C   UNK A   1     -11.000   8.598  70.039  1.00  0.00    -0.208 C  
BRANCH   5   6
HETATM    6  C   UNK A   1     -10.332   8.220  68.710  1.00  0.00    -0.223 C  
BRANCH   6   7
HETATM    7  C   UNK A   1      -8.852   7.910  68.955  1.00  0.00    -0.142 C  
BRANCH   7   8
HETATM    8  C   UNK A   1      -8.221   8.573  70.191  1.00  0.00    -0.121 C  
BRANCH   8   9
HETATM    9  N   UNK A   1      -7.736   9.967  69.954  1.00  0.00    -0.166 NA 
HETATM   10  H   UNK A   1      -6.872  10.133  70.472  1.00  0.00     0.000 HD 
BRANCH   9  11
HETATM   11  C   UNK A   1      -7.555  10.333  68.514  1.00  0.00    -0.089 C  
HETATM   12  C   UNK A   1      -6.093  10.781  68.324  1.00  0.00    -0.046 C  
HETATM   13  O   UNK A   1      -5.476  10.718  67.272  1.00  0.00    -0.040 OA 
HETATM   14  O   UNK A   1      -5.558  11.271  69.470  1.00  0.00    -0.051 OA 
BRANCH  11  15
HETATM   15  C   UNK A   1      -8.496  11.479  68.080  1.00  0.00    -0.154 C  
BRANCH  15  16
HETATM   16  C   UNK A   1      -7.769  12.612  67.336  1.00  0.00    -0.161 C  
BRANCH  16  17
HETATM   17  C   UNK A   1      -8.664  13.798  67.056  1.00  0.00    -0.212 A  
HETATM   18  C   UNK A   1     -10.005  13.603  66.699  1.00  0.00    -0.283 A  
HETATM   19  C   UNK A   1     -10.343  15.990  66.533  1.00  0.00    -0.303 A  
HETATM   20  C   UNK A   1     -10.839  14.693  66.441  1.00  0.00    -0.315 A  
HETATM   21  C   UNK A   1      -9.016  16.199  66.902  1.00  0.00    -0.248 A  
HETATM   22  C   UNK A   1      -8.181  15.112  67.163  1.00  0.00    -0.251 A  
ENDBRANCH  16  17
ENDBRANCH  15  16
ENDBRANCH  11  15
ENDBRANCH   9  11
ENDBRANCH   8   9
BRANCH   8  23
HETATM   23  C   UNK A   1      -7.036   7.741  70.800  1.00  0.00    -0.053 C  
ATOM     24  OXT PRO A   2     -10.538   7.551  73.447  1.00  0.00    -0.375 OA 
HETATM   25  O   UNK A   1      -5.936   7.733  70.246  1.00  0.00    -0.029 OA 
ATOM     26  N   PRO A   2      -7.236   7.075  72.010  1.00  0.00    -0.080 N  
ATOM     27  CD  PRO A   2      -6.135   6.388  72.678  1.00  0.00    -0.046 C  
ATOM     28  O   PRO A   2      -8.574   8.630  73.749  1.00  0.00    -0.292 OA 
ATOM     29  C   PRO A   2      -9.335   7.627  73.250  1.00  0.00    -0.243 C  
ATOM     30  CA  PRO A   2      -8.529   6.569  72.498  1.00  0.00    -0.121 C  
ATOM     31  CB  PRO A   2      -8.189   5.411  73.442  1.00  0.00    -0.114 C  
ATOM     32  CG  PRO A   2      -6.731   5.077  73.152  1.00  0.00    -0.068 C  
ENDBRANCH   8  23
ENDBRANCH   7   8
ENDBRANCH   6   7
ENDBRANCH   5   6
ENDBRANCH   3   5
TORSDOF 10
ENDMDL
MODEL      299
REMARK 921   NORMALIZED FREE ENERGY PREDICTED BY IDOCK:   -2.60 KCAL/MOL
REMARK 922        TOTAL FREE ENERGY PREDICTED BY IDOCK:   -6.08 KCAL/MOL
REMARK 923 INTER-LIGAND FREE ENERGY PREDICTED BY IDOCK:   -4.98 KCAL/MOL
REMARK 924 INTRA-LIGAND FREE ENERGY PREDICTED BY IDOCK:   -1.10 KCAL/MOL
REMARK 927      BINDING AFFINITY PREDICTED BY RF-SCORE:    0.00 PKD
ROOT
HETATM    1  N   UNK A   1     -13.089   6.796  72.428  1.00  0.00    -0.394 NA 
HETATM    2  H2  UNK A   1     -13.834   7.406  72.091  1.00  0.00     0.000 HD 
HETATM    3  C   UNK A   1     -11.860   6.951  71.659  1.00  0.00    -0.324 C  
HETATM    4  H1  UNK A   1     -13.367   5.815  72.432  1.00  0.00     0.000 HD 
ENDROOT
BRANCH   3   5
HETATM    5  C   UNK A   1     -11.445   8.418  71.653  1.00  0.00    -0.349 C  
BRANCH   5   6
HETATM    6  C   UNK A   1     -10.497   8.744  70.493  1.00  0.00    -0.246 C  
BRANCH   6   7
HETATM    7  C   UNK A   1     -11.276   8.708  69.174  1.00  0.00     0.291 C  
BRANCH   7   8
HETATM    8  C   UNK A   1     -10.642   9.468  67.996  1.00  0.00    -0.230 C  
BRANCH   8   9
HETATM    9  N   UNK A   1      -9.159   9.314  67.899  1.00  0.00    -0.127 NA 
HETATM   10  H   UNK A   1      -8.699   9.845  68.639  1.00  0.00     0.000 HD 
BRANCH   9  11
HETATM   11  C   UNK A   1      -8.673   7.898  67.900  1.00  0.00    -0.124 C  
HETATM   12  C   UNK A   1      -7.286   7.878  68.570  1.00  0.00    -0.097 C  
HETATM   13  O   UNK A   1      -6.800   6.912  69.139  1.00  0.00    -0.063 OA 
HETATM   14  O   UNK A   1      -6.646   9.068  68.451  1.00  0.00    -0.058 OA 
BRANCH  11  15
HETATM   15  C   UNK A   1      -8.553   7.321  66.472  1.00  0.00    -0.134 C  
BRANCH  15  16
HETATM   16  C   UNK A   1      -9.130   5.901  66.341  1.00  0.00    -0.156 C  
BRANCH  16  17
HETATM   17  C   UNK A   1      -8.307   5.015  65.434  1.00  0.00    -0.132 A  
HETATM   18  C   UNK A   1      -7.192   4.330  65.935  1.00  0.00    -0.072 A  
HETATM   19  C   UNK A   1      -6.768   3.360  63.764  1.00  0.00    -0.039 A  
HETATM   20  C   UNK A   1      -6.429   3.507  65.105  1.00  0.00    -0.035 A  
HETATM   21  C   UNK A   1      -7.883   4.022  63.255  1.00  0.00    -0.078 A  
HETATM   22  C   UNK A   1      -8.650   4.843  64.083  1.00  0.00    -0.135 A  
ENDBRANCH  16  17
ENDBRANCH  15  16
ENDBRANCH  11  15
ENDBRANCH   9  11
ENDBRANCH   8   9
BRANCH   8  23
HETATM   23  C   UNK A   1     -10.973  11.004  68.003  1.00  0.00    -0.258 C  
ATOM     24  OXT PRO A   2      -9.537   9.780  64.035  1.00  0.00    -0.190 OA 
HETATM   25  O   UNK A   1     -11.317  11.559  69.047  1.00  0.00    -0.227 OA 
ATOM     26  N   PRO A   2     -10.802  11.732  66.825  1.00  0.00    -0.257 N  
ATOM     27  CD  PRO A   2     -10.980  13.180  66.807  1.00  0.00    -0.279 C  
ATOM     28  O   PRO A   2      -8.509  11.046  65.600  1.00  0.00    -0.170 OA 
ATOM     29  C   PRO A   2      -9.605  10.570  64.963  1.00  0.00    -0.276 C  
ATOM     30  CA  PRO A   2     -10.912  11.184  65.463  1.00  0.00    -0.072 C  
ATOM     31  CB  PRO A   2     -11.301  12.368  64.572  1.00  0.00    -0.381 C  
ATOM     32  CG  PRO A   2     -11.758  13.456  65.535  1.00  0.00    -0.366 C  
ENDBRANCH   8  23
ENDBRANCH   7   8
ENDBRANCH   6   7
ENDBRANCH   5   6
ENDBRANCH   3   5
TORSDOF 10
ENDMDL
MODEL      300
REMARK 921   NORMALIZED FREE ENERGY PREDICTED BY IDOCK:   -2.56 KCAL/MOL
REMARK 922        TOTAL FREE ENERGY PREDICTED BY IDOCK:   -6.01 KCAL/MOL
REMARK 923 INTER-LIGAND FREE ENERGY PREDICTED BY IDOCK:   -6.64 KCAL/MOL
REMARK 924 INTRA-LIGAND FREE ENERGY PREDICTED BY IDOCK:    0.63 KCAL/MOL
REMARK 927      BINDING AFFINITY PREDICTED BY RF-SCORE:    0.00 PKD
ROOT
HETATM    1  N   UNK A   1      -9.319   7.641  74.168  1.00  0.00    -0.411 NA 
HETATM    2  H2  UNK A   1      -9.358   6.624  74.100  1.00  0.00     0.000 HD 
HETATM    3  C   UNK A   1      -8.021   8.170  73.768  1.00  0.00    -0.209 C  
HETATM    4  H1  UNK A   1      -9.548   7.974  75.105  1.00  0.00     0.000 HD 
ENDROOT
BRANCH   3   5
HETATM    5  C   UNK A   1      -7.678   7.673  72.368  1.00  0.00    -0.113 C  
BRANCH   5   6
HETATM    6  C   UNK A   1      -8.327   8.532  71.276  1.00  0.00    -0.193 C  
BRANCH   6   7
HETATM    7  C   UNK A   1      -9.105   7.629  70.313  1.00  0.00    -0.149 C  
BRANCH   7   8
HETATM    8  C   UNK A   1     -10.185   8.322  69.464  1.00  0.00    -0.210 C  
BRANCH   8   9
HETATM    9  N   UNK A   1     -11.369   7.461  69.164  1.00  0.00    -0.407 NA 
HETATM   10  H   UNK A   1     -11.160   6.829  68.391  1.00  0.00     0.000 HD 
BRANCH   9  11
HETATM   11  C   UNK A   1     -11.900   6.692  70.333  1.00  0.00    -0.346 C  
HETATM   12  C   UNK A   1     -12.678   7.676  71.227  1.00  0.00    -0.275 C  
HETATM   13  O   UNK A   1     -13.588   7.364  71.981  1.00  0.00    -0.237 OA 
HETATM   14  O   UNK A   1     -12.230   8.949  71.093  1.00  0.00    -0.291 OA 
BRANCH  11  15
HETATM   15  C   UNK A   1     -10.772   6.037  71.162  1.00  0.00    -0.323 C  
BRANCH  15  16
HETATM   16  C   UNK A   1     -11.290   5.274  72.393  1.00  0.00    -0.190 C  
BRANCH  16  17
HETATM   17  C   UNK A   1     -10.366   4.156  72.822  1.00  0.00    -0.243 A  
HETATM   18  C   UNK A   1      -8.981   4.279  72.647  1.00  0.00    -0.123 A  
HETATM   19  C   UNK A   1      -8.631   2.093  73.615  1.00  0.00    -0.062 A  
HETATM   20  C   UNK A   1      -8.120   3.253  73.043  1.00  0.00    -0.076 A  
HETATM   21  C   UNK A   1     -10.005   1.964  73.809  1.00  0.00    -0.134 A  
HETATM   22  C   UNK A   1     -10.868   2.988  73.416  1.00  0.00    -0.307 A  
ENDBRANCH  16  17
ENDBRANCH  15  16
ENDBRANCH  11  15
ENDBRANCH   9  11
ENDBRANCH   8   9
BRANCH   8  23
HETATM   23  C   UNK A   1      -9.634   8.885  68.105  1.00  0.00    -0.145 C  
ATOM     24  OXT PRO A   2     -11.737  12.047  70.315  1.00  0.00    -0.292 OA 
HETATM   25  O   UNK A   1      -9.080   8.133  67.302  1.00  0.00    -0.134 OA 
ATOM     26  N   PRO A   2      -9.848  10.230  67.800  1.00  0.00    -0.166 N  
ATOM     27  CD  PRO A   2      -9.463  10.774  66.502  1.00  0.00    -0.169 C  
ATOM     28  O   PRO A   2     -12.357  10.967  68.429  1.00  0.00    -0.528 OA 
ATOM     29  C   PRO A   2     -11.434  11.468  69.284  1.00  0.00    -0.305 C  
ATOM     30  CA  PRO A   2      -9.998  11.312  68.787  1.00  0.00    -0.193 C  
ATOM     31  CB  PRO A   2      -9.557  12.591  68.067  1.00  0.00    -0.212 C  
ATOM     32  CG  PRO A   2      -8.825  12.112  66.820  1.00  0.00    -0.198 C  
ENDBRANCH   8  23
ENDBRANCH   7   8
ENDBRANCH   6   7
ENDBRANCH   5   6
ENDBRANCH   3   5
TORSDOF 10
ENDMDL
MODEL      301
REMARK 921   NORMALIZED FREE ENERGY PREDICTED BY IDOCK:   -2.51 KCAL/MOL
REMARK 922        TOTAL FREE ENERGY PREDICTED BY IDOCK:   -5.93 KCAL/MOL
REMARK 923 INTER-LIGAND FREE ENERGY PREDICTED BY IDOCK:   -5.06 KCAL/MOL
REMARK 924 INTRA-LIGAND FREE ENERGY PREDICTED BY IDOCK:   -0.87 KCAL/MOL
REMARK 927      BINDING AFFINITY PREDICTED BY RF-SCORE:    0.00 PKD
ROOT
HETATM    1  N   UNK A   1      -5.764  13.960  68.651  1.00  0.00    -0.081 NA 
HETATM    2  H2  UNK A   1      -5.095  13.192  68.590  1.00  0.00     0.000 HD 
HETATM    3  C   UNK A   1      -6.689  13.976  67.525  1.00  0.00    -0.108 C  
HETATM    4  H1  UNK A   1      -5.303  14.867  68.727  1.00  0.00     0.000 HD 
ENDROOT
BRANCH   3   5
HETATM    5  C   UNK A   1      -7.377  12.620  67.412  1.00  0.00    -0.140 C  
BRANCH   5   6
HETATM    6  C   UNK A   1      -8.646  12.544  68.271  1.00  0.00    -0.173 C  
BRANCH   6   7
HETATM    7  C   UNK A   1      -9.661  11.616  67.597  1.00  0.00    -0.186 C  
BRANCH   7   8
HETATM    8  C   UNK A   1      -9.379  11.264  66.126  1.00  0.00    -0.211 C  
BRANCH   8   9
HETATM    9  N   UNK A   1     -10.117  12.114  65.144  1.00  0.00    -0.264 NA 
HETATM   10  H   UNK A   1      -9.988  11.754  64.198  1.00  0.00     0.000 HD 
BRANCH   9  11
HETATM   11  C   UNK A   1     -11.575  12.291  65.436  1.00  0.00    -0.363 C  
HETATM   12  C   UNK A   1     -12.315  12.391  64.089  1.00  0.00    -0.467 C  
HETATM   13  O   UNK A   1     -13.486  12.094  63.912  1.00  0.00    -0.544 OA 
HETATM   14  O   UNK A   1     -11.513  12.863  63.102  1.00  0.00    -0.361 OA 
BRANCH  11  15
HETATM   15  C   UNK A   1     -11.854  13.565  66.264  1.00  0.00    -0.431 C  
BRANCH  15  16
HETATM   16  C   UNK A   1     -11.084  14.797  65.758  1.00  0.00    -0.338 C  
BRANCH  16  17
HETATM   17  C   UNK A   1     -10.561  15.664  66.881  1.00  0.00    -0.311 A  
HETATM   18  C   UNK A   1     -10.891  15.371  68.212  1.00  0.00    -0.269 A  
HETATM   19  C   UNK A   1      -9.597  17.260  68.983  1.00  0.00    -0.171 A  
HETATM   20  C   UNK A   1     -10.410  16.165  69.255  1.00  0.00    -0.265 A  
HETATM   21  C   UNK A   1      -9.248  17.553  67.666  1.00  0.00    -0.243 A  
HETATM   22  C   UNK A   1      -9.725  16.761  66.621  1.00  0.00    -0.281 A  
ENDBRANCH  16  17
ENDBRANCH  15  16
ENDBRANCH  11  15
ENDBRANCH   9  11
ENDBRANCH   8   9
BRANCH   8  23
HETATM   23  C   UNK A   1      -9.671   9.758  65.785  1.00  0.00    -0.273 C  
ATOM     24  OXT PRO A   2      -5.563  10.204  67.276  1.00  0.00    -0.042 OA 
HETATM   25  O   UNK A   1     -10.746   9.436  65.277  1.00  0.00     1.083 OA 
ATOM     26  N   PRO A   2      -8.667   8.814  66.002  1.00  0.00    -0.156 N  
ATOM     27  CD  PRO A   2      -8.844   7.425  65.592  1.00  0.00    -0.024 C  
ATOM     28  O   PRO A   2      -6.281   9.746  65.183  1.00  0.00    -0.079 OA 
ATOM     29  C   PRO A   2      -6.394   9.709  66.531  1.00  0.00    -0.066 C  
ATOM     30  CA  PRO A   2      -7.607   8.918  67.019  1.00  0.00    -0.094 C  
ATOM     31  CB  PRO A   2      -7.194   7.477  67.333  1.00  0.00    -0.087 C  
ATOM     32  CG  PRO A   2      -8.301   6.610  66.750  1.00  0.00    -0.115 C  
ENDBRANCH   8  23
ENDBRANCH   7   8
ENDBRANCH   6   7
ENDBRANCH   5   6
ENDBRANCH   3   5
TORSDOF 10
ENDMDL
MODEL      302
REMARK 921   NORMALIZED FREE ENERGY PREDICTED BY IDOCK:   -2.50 KCAL/MOL
REMARK 922        TOTAL FREE ENERGY PREDICTED BY IDOCK:   -5.92 KCAL/MOL
REMARK 923 INTER-LIGAND FREE ENERGY PREDICTED BY IDOCK:   -5.82 KCAL/MOL
REMARK 924 INTRA-LIGAND FREE ENERGY PREDICTED BY IDOCK:   -0.09 KCAL/MOL
REMARK 927      BINDING AFFINITY PREDICTED BY RF-SCORE:    0.00 PKD
ROOT
HETATM    1  N   UNK A   1     -14.099   8.808  73.097  1.00  0.00    -1.183 NA 
HETATM    2  H2  UNK A   1     -14.105   9.635  73.693  1.00  0.00     0.000 HD 
HETATM    3  C   UNK A   1     -13.677   9.112  71.736  1.00  0.00    -0.404 C  
HETATM    4  H1  UNK A   1     -15.006   8.341  73.076  1.00  0.00     0.000 HD 
ENDROOT
BRANCH   3   5
HETATM    5  C   UNK A   1     -12.321   9.810  71.767  1.00  0.00    -0.470 C  
BRANCH   5   6
HETATM    6  C   UNK A   1     -11.653   9.834  70.386  1.00  0.00    -0.327 C  
BRANCH   6   7
HETATM    7  C   UNK A   1     -10.176  10.207  70.543  1.00  0.00    -0.034 C  
BRANCH   7   8
HETATM    8  C   UNK A   1      -9.216   9.610  69.500  1.00  0.00    -0.203 C  
BRANCH   8   9
HETATM    9  N   UNK A   1      -9.758   9.602  68.107  1.00  0.00    -0.144 NA 
HETATM   10  H   UNK A   1     -10.657   9.121  68.080  1.00  0.00     0.000 HD 
BRANCH   9  11
HETATM   11  C   UNK A   1      -9.875  10.952  67.470  1.00  0.00    -0.168 C  
HETATM   12  C   UNK A   1     -10.166  10.740  65.972  1.00  0.00    -0.251 C  
HETATM   13  O   UNK A   1     -10.748  11.540  65.255  1.00  0.00    -0.280 OA 
HETATM   14  O   UNK A   1      -9.690   9.552  65.524  1.00  0.00    -0.283 OA 
BRANCH  11  15
HETATM   15  C   UNK A   1      -8.581  11.782  67.622  1.00  0.00    -0.153 C  
BRANCH  15  16
HETATM   16  C   UNK A   1      -8.492  12.952  66.627  1.00  0.00     0.068 C  
BRANCH  16  17
HETATM   17  C   UNK A   1      -9.655  13.912  66.744  1.00  0.00    -0.288 A  
HETATM   18  C   UNK A   1     -10.135  14.582  65.611  1.00  0.00    -0.384 A  
HETATM   19  C   UNK A   1     -11.817  15.696  66.940  1.00  0.00     0.473 A  
HETATM   20  C   UNK A   1     -11.210  15.467  65.709  1.00  0.00    -0.196 A  
HETATM   21  C   UNK A   1     -11.361  15.024  68.073  1.00  0.00    -0.339 A  
HETATM   22  C   UNK A   1     -10.288  14.137  67.977  1.00  0.00    -0.231 A  
ENDBRANCH  16  17
ENDBRANCH  15  16
ENDBRANCH  11  15
ENDBRANCH   9  11
ENDBRANCH   8   9
BRANCH   8  23
HETATM   23  C   UNK A   1      -8.753   8.150  69.851  1.00  0.00    -0.138 C  
ATOM     24  OXT PRO A   2      -5.684  11.047  71.070  1.00  0.00    -0.287 OA 
HETATM   25  O   UNK A   1      -9.442   7.185  69.518  1.00  0.00    -0.152 OA 
ATOM     26  N   PRO A   2      -7.522   7.970  70.481  1.00  0.00    -0.070 N  
ATOM     27  CD  PRO A   2      -6.991   6.632  70.721  1.00  0.00    -0.067 C  
ATOM     28  O   PRO A   2      -5.643   9.548  69.379  1.00  0.00    -0.035 OA 
ATOM     29  C   PRO A   2      -6.032   9.974  70.604  1.00  0.00    -0.094 C  
ATOM     30  CA  PRO A   2      -6.868   8.948  71.367  1.00  0.00    -0.083 C  
ATOM     31  CB  PRO A   2      -5.964   8.127  72.291  1.00  0.00    -0.048 C  
ATOM     32  CG  PRO A   2      -6.432   6.687  72.130  1.00  0.00    -0.054 C  
ENDBRANCH   8  23
ENDBRANCH   7   8
ENDBRANCH   6   7
ENDBRANCH   5   6
ENDBRANCH   3   5
TORSDOF 10
ENDMDL
MODEL      303
REMARK 921   NORMALIZED FREE ENERGY PREDICTED BY IDOCK:   -2.50 KCAL/MOL
REMARK 922        TOTAL FREE ENERGY PREDICTED BY IDOCK:   -5.92 KCAL/MOL
REMARK 923 INTER-LIGAND FREE ENERGY PREDICTED BY IDOCK:   -6.92 KCAL/MOL
REMARK 924 INTRA-LIGAND FREE ENERGY PREDICTED BY IDOCK:    1.00 KCAL/MOL
REMARK 927      BINDING AFFINITY PREDICTED BY RF-SCORE:    0.00 PKD
ROOT
HETATM    1  N   UNK A   1      -9.719   6.563  65.934  1.00  0.00    -0.379 NA 
HETATM    2  H2  UNK A   1     -10.653   6.784  66.280  1.00  0.00     0.000 HD 
HETATM    3  C   UNK A   1      -8.880   5.959  66.961  1.00  0.00    -0.112 C  
HETATM    4  H1  UNK A   1      -9.248   7.382  65.547  1.00  0.00     0.000 HD 
ENDROOT
BRANCH   3   5
HETATM    5  C   UNK A   1      -9.584   4.736  67.539  1.00  0.00    -0.190 C  
BRANCH   5   6
HETATM    6  C   UNK A   1     -10.152   5.006  68.938  1.00  0.00    -0.215 C  
BRANCH   6   7
HETATM    7  C   UNK A   1     -11.161   6.156  68.864  1.00  0.00    -0.338 C  
BRANCH   7   8
HETATM    8  C   UNK A   1     -11.012   7.252  69.933  1.00  0.00    -0.243 C  
BRANCH   8   9
HETATM    9  N   UNK A   1      -9.636   7.827  70.029  1.00  0.00    -0.161 NA 
HETATM   10  H   UNK A   1      -8.941   7.080  70.044  1.00  0.00     0.000 HD 
BRANCH   9  11
HETATM   11  C   UNK A   1      -9.297   8.828  68.968  1.00  0.00    -0.145 C  
HETATM   12  C   UNK A   1      -8.208   9.759  69.533  1.00  0.00    -0.144 C  
HETATM   13  O   UNK A   1      -7.394  10.370  68.857  1.00  0.00    -0.081 OA 
HETATM   14  O   UNK A   1      -8.255   9.836  70.886  1.00  0.00    -0.234 OA 
BRANCH  11  15
HETATM   15  C   UNK A   1     -10.521   9.674  68.552  1.00  0.00    -0.241 C  
BRANCH  15  16
HETATM   16  C   UNK A   1     -10.442  10.181  67.102  1.00  0.00    -0.305 C  
BRANCH  16  17
HETATM   17  C   UNK A   1     -11.100  11.530  66.916  1.00  0.00    -0.366 A  
HETATM   18  C   UNK A   1     -11.046  12.489  67.937  1.00  0.00    -0.286 A  
HETATM   19  C   UNK A   1     -12.312  14.044  66.589  1.00  0.00    -0.408 A  
HETATM   20  C   UNK A   1     -11.648  13.739  67.772  1.00  0.00    -0.381 A  
HETATM   21  C   UNK A   1     -12.360  13.106  65.559  1.00  0.00    -0.529 A  
HETATM   22  C   UNK A   1     -11.757  11.858  65.720  1.00  0.00    -0.210 A  
ENDBRANCH  16  17
ENDBRANCH  15  16
ENDBRANCH  11  15
ENDBRANCH   9  11
ENDBRANCH   8   9
BRANCH   8  23
HETATM   23  C   UNK A   1     -11.444   6.778  71.367  1.00  0.00    -0.292 C  
ATOM     24  OXT PRO A   2      -7.068   6.676  70.991  1.00  0.00    -0.069 OA 
HETATM   25  O   UNK A   1     -12.638   6.661  71.648  1.00  0.00    -0.347 OA 
ATOM     26  N   PRO A   2     -10.453   6.429  72.285  1.00  0.00    -0.193 N  
ATOM     27  CD  PRO A   2     -10.801   5.870  73.587  1.00  0.00    -0.167 C  
ATOM     28  O   PRO A   2      -8.533   4.958  71.108  1.00  0.00    -0.113 OA 
ATOM     29  C   PRO A   2      -8.129   6.220  71.387  1.00  0.00    -0.117 C  
ATOM     30  CA  PRO A   2      -9.085   6.975  72.309  1.00  0.00    -0.133 C  
ATOM     31  CB  PRO A   2      -8.615   6.844  73.761  1.00  0.00    -0.165 C  
ATOM     32  CG  PRO A   2      -9.879   6.572  74.566  1.00  0.00    -0.355 C  
ENDBRANCH   8  23
ENDBRANCH   7   8
ENDBRANCH   6   7
ENDBRANCH   5   6
ENDBRANCH   3   5
TORSDOF 10
ENDMDL
MODEL      304
REMARK 921   NORMALIZED FREE ENERGY PREDICTED BY IDOCK:   -2.49 KCAL/MOL
REMARK 922        TOTAL FREE ENERGY PREDICTED BY IDOCK:   -5.90 KCAL/MOL
REMARK 923 INTER-LIGAND FREE ENERGY PREDICTED BY IDOCK:   -6.00 KCAL/MOL
REMARK 924 INTRA-LIGAND FREE ENERGY PREDICTED BY IDOCK:    0.10 KCAL/MOL
REMARK 927      BINDING AFFINITY PREDICTED BY RF-SCORE:    0.00 PKD
ROOT
HETATM    1  N   UNK A   1      -8.655   7.737  74.245  1.00  0.00    -0.346 NA 
HETATM    2  H2  UNK A   1      -9.397   7.041  74.318  1.00  0.00     0.000 HD 
HETATM    3  C   UNK A   1      -7.438   7.186  73.663  1.00  0.00    -0.082 C  
HETATM    4  H1  UNK A   1      -8.439   8.165  75.145  1.00  0.00     0.000 HD 
ENDROOT
BRANCH   3   5
HETATM    5  C   UNK A   1      -7.761   6.546  72.317  1.00  0.00    -0.097 C  
BRANCH   5   6
HETATM    6  C   UNK A   1      -8.703   7.416  71.477  1.00  0.00    -0.122 C  
BRANCH   6   7
HETATM    7  C   UNK A   1      -9.537   6.520  70.556  1.00  0.00    -0.180 C  
BRANCH   7   8
HETATM    8  C   UNK A   1     -10.641   7.225  69.749  1.00  0.00    -0.235 C  
BRANCH   8   9
HETATM    9  N   UNK A   1     -12.023   6.747  70.060  1.00  0.00    -0.656 NA 
HETATM   10  H   UNK A   1     -12.132   5.774  69.777  1.00  0.00     0.000 HD 
BRANCH   9  11
HETATM   11  C   UNK A   1     -12.442   6.923  71.487  1.00  0.00    -0.375 C  
HETATM   12  C   UNK A   1     -12.601   8.433  71.746  1.00  0.00    -0.342 C  
HETATM   13  O   UNK A   1     -13.330   8.921  72.596  1.00  0.00    -0.433 OA 
HETATM   14  O   UNK A   1     -11.824   9.176  70.920  1.00  0.00    -0.286 OA 
BRANCH  11  15
HETATM   15  C   UNK A   1     -11.405   6.345  72.475  1.00  0.00    -0.299 C  
BRANCH  15  16
HETATM   16  C   UNK A   1     -11.741   4.918  72.940  1.00  0.00    -0.172 C  
BRANCH  16  17
HETATM   17  C   UNK A   1     -10.512   4.055  73.120  1.00  0.00    -0.251 A  
HETATM   18  C   UNK A   1     -10.091   3.202  72.092  1.00  0.00    -0.200 A  
HETATM   19  C   UNK A   1      -8.230   2.447  73.434  1.00  0.00    -0.062 A  
HETATM   20  C   UNK A   1      -8.955   2.404  72.248  1.00  0.00    -0.111 A  
HETATM   21  C   UNK A   1      -8.628   3.302  74.460  1.00  0.00    -0.076 A  
HETATM   22  C   UNK A   1      -9.760   4.102  74.305  1.00  0.00    -0.149 A  
ENDBRANCH  16  17
ENDBRANCH  15  16
ENDBRANCH  11  15
ENDBRANCH   9  11
ENDBRANCH   8   9
BRANCH   8  23
HETATM   23  C   UNK A   1     -10.429   7.126  68.196  1.00  0.00    -0.200 C  
ATOM     24  OXT PRO A   2      -8.198  10.547  69.814  1.00  0.00    -0.101 OA 
HETATM   25  O   UNK A   1     -11.036   6.277  67.541  1.00  0.00    -0.320 OA 
ATOM     26  N   PRO A   2      -9.600   8.058  67.571  1.00  0.00    -0.148 N  
ATOM     27  CD  PRO A   2      -9.464   8.085  66.118  1.00  0.00    -0.122 C  
ATOM     28  O   PRO A   2     -10.054  10.532  68.523  1.00  0.00    -0.160 OA 
ATOM     29  C   PRO A   2      -8.881  10.012  68.955  1.00  0.00    -0.159 C  
ATOM     30  CA  PRO A   2      -8.465   8.747  68.206  1.00  0.00    -0.130 C  
ATOM     31  CB  PRO A   2      -7.513   9.113  67.062  1.00  0.00    -0.091 C  
ATOM     32  CG  PRO A   2      -7.981   8.282  65.874  1.00  0.00    -0.097 C  
ENDBRANCH   8  23
ENDBRANCH   7   8
ENDBRANCH   6   7
ENDBRANCH   5   6
ENDBRANCH   3   5
TORSDOF 10
ENDMDL
MODEL      305
REMARK 921   NORMALIZED FREE ENERGY PREDICTED BY IDOCK:   -2.45 KCAL/MOL
REMARK 922        TOTAL FREE ENERGY PREDICTED BY IDOCK:   -5.84 KCAL/MOL
REMARK 923 INTER-LIGAND FREE ENERGY PREDICTED BY IDOCK:   -5.51 KCAL/MOL
REMARK 924 INTRA-LIGAND FREE ENERGY PREDICTED BY IDOCK:   -0.33 KCAL/MOL
REMARK 927      BINDING AFFINITY PREDICTED BY RF-SCORE:    0.00 PKD
ROOT
HETATM    1  N   UNK A   1     -14.210   8.879  73.110  1.00  0.00    -1.200 NA 
HETATM    2  H2  UNK A   1     -14.132   9.724  73.677  1.00  0.00     0.000 HD 
HETATM    3  C   UNK A   1     -13.318   8.905  71.957  1.00  0.00    -0.421 C  
HETATM    4  H1  UNK A   1     -15.166   8.711  72.797  1.00  0.00     0.000 HD 
ENDROOT
BRANCH   3   5
HETATM    5  C   UNK A   1     -11.889   9.156  72.424  1.00  0.00    -0.112 C  
BRANCH   5   6
HETATM    6  C   UNK A   1     -10.854   8.556  71.464  1.00  0.00    -0.332 C  
BRANCH   6   7
HETATM    7  C   UNK A   1      -9.673   8.005  72.269  1.00  0.00    -0.294 C  
BRANCH   7   8
HETATM    8  C   UNK A   1      -8.800   6.960  71.553  1.00  0.00    -0.132 C  
BRANCH   8   9
HETATM    9  N   UNK A   1      -9.545   6.107  70.578  1.00  0.00    -0.167 NA 
HETATM   10  H   UNK A   1     -10.517   6.002  70.871  1.00  0.00     0.000 HD 
BRANCH   9  11
HETATM   11  C   UNK A   1      -9.480   6.573  69.157  1.00  0.00    -0.135 C  
HETATM   12  C   UNK A   1      -9.200   5.343  68.273  1.00  0.00    -0.111 C  
HETATM   13  O   UNK A   1      -9.516   5.243  67.097  1.00  0.00    -0.118 OA 
HETATM   14  O   UNK A   1      -8.544   4.368  68.950  1.00  0.00    -0.082 OA 
BRANCH  11  15
HETATM   15  C   UNK A   1      -8.366   7.620  68.936  1.00  0.00    -0.129 C  
BRANCH  15  16
HETATM   16  C   UNK A   1      -8.546   8.432  67.642  1.00  0.00    -0.130 C  
BRANCH  16  17
HETATM   17  C   UNK A   1      -9.243   9.754  67.871  1.00  0.00    -0.133 A  
HETATM   18  C   UNK A   1     -10.643   9.823  67.873  1.00  0.00    -0.310 A  
HETATM   19  C   UNK A   1     -10.558  12.200  68.297  1.00  0.00    -0.236 A  
HETATM   20  C   UNK A   1     -11.295  11.039  68.086  1.00  0.00    -0.374 A  
HETATM   21  C   UNK A   1      -9.166  12.143  68.313  1.00  0.00    -0.192 A  
HETATM   22  C   UNK A   1      -8.511  10.929  68.103  1.00  0.00    -0.131 A  
ENDBRANCH  16  17
ENDBRANCH  15  16
ENDBRANCH  11  15
ENDBRANCH   9  11
ENDBRANCH   8   9
BRANCH   8  23
HETATM   23  C   UNK A   1      -8.033   6.013  72.544  1.00  0.00    -0.105 C  
ATOM     24  OXT PRO A   2     -12.370   5.436  72.945  1.00  0.00    -0.046 OA 
HETATM   25  O   UNK A   1      -6.807   6.079  72.641  1.00  0.00    -0.071 OA 
ATOM     26  N   PRO A   2      -8.772   5.151  73.355  1.00  0.00    -0.115 N  
ATOM     27  CD  PRO A   2      -8.119   4.338  74.375  1.00  0.00    -0.091 C  
ATOM     28  O   PRO A   2     -10.919   6.407  74.380  1.00  0.00     0.266 OA 
ATOM     29  C   PRO A   2     -11.244   5.521  73.409  1.00  0.00    -0.158 C  
ATOM     30  CA  PRO A   2     -10.093   4.593  73.022  1.00  0.00    -0.162 C  
ATOM     31  CB  PRO A   2     -10.198   3.283  73.809  1.00  0.00    -0.212 C  
ATOM     32  CG  PRO A   2      -8.776   2.976  74.261  1.00  0.00    -0.080 C  
ENDBRANCH   8  23
ENDBRANCH   7   8
ENDBRANCH   6   7
ENDBRANCH   5   6
ENDBRANCH   3   5
TORSDOF 10
ENDMDL
MODEL      306
REMARK 921   NORMALIZED FREE ENERGY PREDICTED BY IDOCK:   -2.41 KCAL/MOL
REMARK 922        TOTAL FREE ENERGY PREDICTED BY IDOCK:   -5.77 KCAL/MOL
REMARK 923 INTER-LIGAND FREE ENERGY PREDICTED BY IDOCK:   -5.62 KCAL/MOL
REMARK 924 INTRA-LIGAND FREE ENERGY PREDICTED BY IDOCK:   -0.15 KCAL/MOL
REMARK 927      BINDING AFFINITY PREDICTED BY RF-SCORE:    0.00 PKD
ROOT
HETATM    1  N   UNK A   1      -8.962   4.222  64.935  1.00  0.00    -0.136 NA 
HETATM    2  H2  UNK A   1      -8.813   4.845  64.140  1.00  0.00     0.000 HD 
HETATM    3  C   UNK A   1      -7.890   4.319  65.918  1.00  0.00    -0.094 C  
HETATM    4  H1  UNK A   1      -9.074   3.250  64.647  1.00  0.00     0.000 HD 
ENDROOT
BRANCH   3   5
HETATM    5  C   UNK A   1      -7.723   5.772  66.348  1.00  0.00    -0.099 C  
BRANCH   5   6
HETATM    6  C   UNK A   1      -6.690   5.926  67.472  1.00  0.00    -0.058 C  
BRANCH   6   7
HETATM    7  C   UNK A   1      -7.405   6.316  68.769  1.00  0.00    -0.086 C  
BRANCH   7   8
HETATM    8  C   UNK A   1      -8.886   6.708  68.630  1.00  0.00    -0.122 C  
BRANCH   8   9
HETATM    9  N   UNK A   1      -9.145   8.174  68.767  1.00  0.00    -0.144 NA 
HETATM   10  H   UNK A   1      -8.459   8.597  69.393  1.00  0.00     0.000 HD 
BRANCH   9  11
HETATM   11  C   UNK A   1      -9.199   8.926  67.474  1.00  0.00    -0.136 C  
HETATM   12  C   UNK A   1      -7.815   9.562  67.243  1.00  0.00    -0.098 C  
HETATM   13  O   UNK A   1      -7.351   9.847  66.149  1.00  0.00    -0.098 OA 
HETATM   14  O   UNK A   1      -7.157   9.786  68.408  1.00  0.00    -0.072 OA 
BRANCH  11  15
HETATM   15  C   UNK A   1     -10.271  10.038  67.489  1.00  0.00    -0.260 C  
BRANCH  15  16
HETATM   16  C   UNK A   1     -10.837  10.353  66.093  1.00  0.00     0.011 C  
BRANCH  16  17
HETATM   17  C   UNK A   1     -11.065  11.832  65.873  1.00  0.00    -0.355 A  
HETATM   18  C   UNK A   1     -11.139  12.349  64.573  1.00  0.00    -0.360 A  
HETATM   19  C   UNK A   1     -11.492  14.575  65.444  1.00  0.00    -0.348 A  
HETATM   20  C   UNK A   1     -11.353  13.713  64.361  1.00  0.00    -0.394 A  
HETATM   21  C   UNK A   1     -11.435  14.072  66.742  1.00  0.00    -0.379 A  
HETATM   22  C   UNK A   1     -11.225  12.710  66.957  1.00  0.00    -0.348 A  
ENDBRANCH  16  17
ENDBRANCH  15  16
ENDBRANCH  11  15
ENDBRANCH   9  11
ENDBRANCH   8   9
BRANCH   8  23
HETATM   23  C   UNK A   1      -9.823   5.952  69.639  1.00  0.00    -0.167 C  
ATOM     24  OXT PRO A   2      -7.777   9.271  71.665  1.00  0.00    -0.336 OA 
HETATM   25  O   UNK A   1     -10.427   4.938  69.284  1.00  0.00    -0.145 OA 
ATOM     26  N   PRO A   2      -9.899   6.409  70.955  1.00  0.00    -0.179 N  
ATOM     27  CD  PRO A   2     -10.658   5.674  71.961  1.00  0.00    -0.229 C  
ATOM     28  O   PRO A   2      -7.459   7.044  71.891  1.00  0.00    -0.085 OA 
ATOM     29  C   PRO A   2      -8.220   8.133  71.633  1.00  0.00    -0.126 C  
ATOM     30  CA  PRO A   2      -9.691   7.802  71.385  1.00  0.00    -0.166 C  
ATOM     31  CB  PRO A   2     -10.482   7.953  72.688  1.00  0.00    -0.384 C  
ATOM     32  CG  PRO A   2     -11.404   6.742  72.737  1.00  0.00    -0.227 C  
ENDBRANCH   8  23
ENDBRANCH   7   8
ENDBRANCH   6   7
ENDBRANCH   5   6
ENDBRANCH   3   5
TORSDOF 10
ENDMDL
MODEL      307
REMARK 921   NORMALIZED FREE ENERGY PREDICTED BY IDOCK:   -2.38 KCAL/MOL
REMARK 922        TOTAL FREE ENERGY PREDICTED BY IDOCK:   -5.73 KCAL/MOL
REMARK 923 INTER-LIGAND FREE ENERGY PREDICTED BY IDOCK:   -5.55 KCAL/MOL
REMARK 924 INTRA-LIGAND FREE ENERGY PREDICTED BY IDOCK:   -0.18 KCAL/MOL
REMARK 927      BINDING AFFINITY PREDICTED BY RF-SCORE:    0.00 PKD
ROOT
HETATM    1  N   UNK A   1     -10.730  16.934  70.156  1.00  0.00    -0.210 NA 
HETATM    2  H2  UNK A   1     -10.055  17.503  69.646  1.00  0.00     0.000 HD 
HETATM    3  C   UNK A   1     -11.858  16.537  69.323  1.00  0.00     0.307 C  
HETATM    4  H1  UNK A   1     -11.074  17.404  70.994  1.00  0.00     0.000 HD 
ENDROOT
BRANCH   3   5
HETATM    5  C   UNK A   1     -11.344  15.835  68.071  1.00  0.00    -0.310 C  
BRANCH   5   6
HETATM    6  C   UNK A   1     -10.640  16.805  67.114  1.00  0.00    -0.256 C  
BRANCH   6   7
HETATM    7  C   UNK A   1      -9.652  16.028  66.239  1.00  0.00    -0.336 C  
BRANCH   7   8
HETATM    8  C   UNK A   1      -8.634  15.151  66.988  1.00  0.00    -0.237 C  
BRANCH   8   9
HETATM    9  N   UNK A   1      -9.101  13.754  67.239  1.00  0.00    -0.222 NA 
HETATM   10  H   UNK A   1      -9.703  13.725  68.061  1.00  0.00     0.000 HD 
BRANCH   9  11
HETATM   11  C   UNK A   1      -9.780  13.100  66.076  1.00  0.00    -0.226 C  
HETATM   12  C   UNK A   1     -11.223  12.769  66.502  1.00  0.00    -0.307 C  
HETATM   13  O   UNK A   1     -12.169  12.661  65.736  1.00  0.00    -0.532 OA 
HETATM   14  O   UNK A   1     -11.332  12.599  67.843  1.00  0.00    -0.250 OA 
BRANCH  11  15
HETATM   15  C   UNK A   1      -9.070  11.799  65.641  1.00  0.00    -0.034 C  
BRANCH  15  16
HETATM   16  C   UNK A   1      -9.442  10.585  66.509  1.00  0.00    -0.200 C  
BRANCH  16  17
HETATM   17  C   UNK A   1      -8.453  10.338  67.626  1.00  0.00    -0.118 A  
HETATM   18  C   UNK A   1      -8.858   9.682  68.797  1.00  0.00    -0.130 A  
HETATM   19  C   UNK A   1      -6.630   9.866  69.711  1.00  0.00    -0.066 A  
HETATM   20  C   UNK A   1      -7.951   9.447  69.831  1.00  0.00    -0.132 A  
HETATM   21  C   UNK A   1      -6.209  10.505  68.547  1.00  0.00    -0.046 A  
HETATM   22  C   UNK A   1      -7.113  10.739  67.510  1.00  0.00    -0.089 A  
ENDBRANCH  16  17
ENDBRANCH  15  16
ENDBRANCH  11  15
ENDBRANCH   9  11
ENDBRANCH   8   9
BRANCH   8  23
HETATM   23  C   UNK A   1      -8.179  15.767  68.359  1.00  0.00    -0.151 C  
ATOM     24  OXT PRO A   2      -6.715  18.234  65.031  1.00  0.00    -0.416 OA 
HETATM   25  O   UNK A   1      -8.424  15.180  69.414  1.00  0.00    -0.225 OA 
ATOM     26  N   PRO A   2      -7.438  16.949  68.351  1.00  0.00    -0.196 N  
ATOM     27  CD  PRO A   2      -6.890  17.499  69.587  1.00  0.00     0.054 C  
ATOM     28  O   PRO A   2      -5.557  16.887  66.430  1.00  0.00    -0.341 OA 
ATOM     29  C   PRO A   2      -6.587  17.713  66.128  1.00  0.00    -0.267 C  
ATOM     30  CA  PRO A   2      -7.510  17.991  67.314  1.00  0.00    -0.199 C  
ATOM     31  CB  PRO A   2      -7.087  19.291  68.005  1.00  0.00    -0.287 C  
ATOM     32  CG  PRO A   2      -7.155  18.989  69.496  1.00  0.00    -0.127 C  
ENDBRANCH   8  23
ENDBRANCH   7   8
ENDBRANCH   6   7
ENDBRANCH   5   6
ENDBRANCH   3   5
TORSDOF 10
ENDMDL
MODEL      308
REMARK 921   NORMALIZED FREE ENERGY PREDICTED BY IDOCK:   -2.38 KCAL/MOL
REMARK 922        TOTAL FREE ENERGY PREDICTED BY IDOCK:   -5.72 KCAL/MOL
REMARK 923 INTER-LIGAND FREE ENERGY PREDICTED BY IDOCK:   -5.57 KCAL/MOL
REMARK 924 INTRA-LIGAND FREE ENERGY PREDICTED BY IDOCK:   -0.16 KCAL/MOL
REMARK 927      BINDING AFFINITY PREDICTED BY RF-SCORE:    0.00 PKD
ROOT
HETATM    1  N   UNK A   1      -9.599   9.453  62.368  1.00  0.00    -0.516 NA 
HETATM    2  H2  UNK A   1      -8.809   9.709  61.775  1.00  0.00     0.000 HD 
HETATM    3  C   UNK A   1      -9.237   9.403  63.778  1.00  0.00     0.091 C  
HETATM    4  H1  UNK A   1     -10.016   8.563  62.091  1.00  0.00     0.000 HD 
ENDROOT
BRANCH   3   5
HETATM    5  C   UNK A   1      -8.615  10.732  64.191  1.00  0.00    -0.029 C  
BRANCH   5   6
HETATM    6  C   UNK A   1      -7.614  10.568  65.342  1.00  0.00    -0.097 C  
BRANCH   6   7
HETATM    7  C   UNK A   1      -7.960  11.555  66.461  1.00  0.00    -0.095 C  
BRANCH   7   8
HETATM    8  C   UNK A   1      -9.126  11.150  67.379  1.00  0.00    -0.142 C  
BRANCH   8   9
HETATM    9  N   UNK A   1      -9.234   9.678  67.615  1.00  0.00    -0.130 NA 
HETATM   10  H   UNK A   1      -8.379   9.208  67.315  1.00  0.00     0.000 HD 
BRANCH   9  11
HETATM   11  C   UNK A   1      -9.571   9.290  69.021  1.00  0.00    -0.159 C  
HETATM   12  C   UNK A   1      -8.301   9.471  69.875  1.00  0.00    -0.170 C  
HETATM   13  O   UNK A   1      -8.294   9.688  71.077  1.00  0.00    -0.253 OA 
HETATM   14  O   UNK A   1      -7.170   9.352  69.136  1.00  0.00    -0.064 OA 
BRANCH  11  15
HETATM   15  C   UNK A   1     -10.047   7.824  69.125  1.00  0.00    -0.196 C  
BRANCH  15  16
HETATM   16  C   UNK A   1     -10.984   7.408  67.978  1.00  0.00    -0.037 C  
BRANCH  16  17
HETATM   17  C   UNK A   1     -10.341   6.431  67.020  1.00  0.00    -0.307 A  
HETATM   18  C   UNK A   1      -9.167   6.777  66.338  1.00  0.00    -0.185 A  
HETATM   19  C   UNK A   1      -9.130   4.626  65.239  1.00  0.00    -0.151 A  
HETATM   20  C   UNK A   1      -8.566   5.879  65.455  1.00  0.00    -0.138 A  
HETATM   21  C   UNK A   1     -10.289   4.262  65.922  1.00  0.00    -0.152 A  
HETATM   22  C   UNK A   1     -10.891   5.156  66.808  1.00  0.00    -0.047 A  
ENDBRANCH  16  17
ENDBRANCH  15  16
ENDBRANCH  11  15
ENDBRANCH   9  11
ENDBRANCH   8   9
BRANCH   8  23
HETATM   23  C   UNK A   1     -10.520  11.665  66.870  1.00  0.00    -0.227 C  
ATOM     24  OXT PRO A   2      -7.649  14.986  67.040  1.00  0.00    -0.186 OA 
HETATM   25  O   UNK A   1     -11.485  10.899  66.826  1.00  0.00    -0.285 OA 
ATOM     26  N   PRO A   2     -10.657  13.013  66.538  1.00  0.00    -0.279 N  
ATOM     27  CD  PRO A   2     -11.957  13.567  66.174  1.00  0.00    -0.412 C  
ATOM     28  O   PRO A   2      -9.440  14.575  68.357  1.00  0.00    -0.197 OA 
ATOM     29  C   PRO A   2      -8.766  14.515  67.184  1.00  0.00    -0.219 C  
ATOM     30  CA  PRO A   2      -9.574  13.883  66.051  1.00  0.00    -0.187 C  
ATOM     31  CB  PRO A   2     -10.263  14.980  65.232  1.00  0.00    -0.409 C  
ATOM     32  CG  PRO A   2     -11.674  14.464  64.985  1.00  0.00    -0.389 C  
ENDBRANCH   8  23
ENDBRANCH   7   8
ENDBRANCH   6   7
ENDBRANCH   5   6
ENDBRANCH   3   5
TORSDOF 10
ENDMDL
MODEL      309
REMARK 921   NORMALIZED FREE ENERGY PREDICTED BY IDOCK:   -2.34 KCAL/MOL
REMARK 922        TOTAL FREE ENERGY PREDICTED BY IDOCK:   -5.66 KCAL/MOL
REMARK 923 INTER-LIGAND FREE ENERGY PREDICTED BY IDOCK:   -5.08 KCAL/MOL
REMARK 924 INTRA-LIGAND FREE ENERGY PREDICTED BY IDOCK:   -0.57 KCAL/MOL
REMARK 927      BINDING AFFINITY PREDICTED BY RF-SCORE:    0.00 PKD
ROOT
HETATM    1  N   UNK A   1     -11.971  12.058  66.759  1.00  0.00    -0.610 NA 
HETATM    2  H2  UNK A   1     -12.711  11.568  66.257  1.00  0.00     0.000 HD 
HETATM    3  C   UNK A   1     -11.412  11.256  67.840  1.00  0.00    -0.288 C  
HETATM    4  H1  UNK A   1     -12.286  12.956  67.128  1.00  0.00     0.000 HD 
ENDROOT
BRANCH   3   5
HETATM    5  C   UNK A   1     -10.942   9.915  67.288  1.00  0.00    -0.187 C  
BRANCH   5   6
HETATM    6  C   UNK A   1      -9.720  10.065  66.373  1.00  0.00    -0.266 C  
BRANCH   6   7
HETATM    7  C   UNK A   1      -8.812  11.173  66.915  1.00  0.00    -0.157 C  
BRANCH   7   8
HETATM    8  C   UNK A   1      -7.761  10.736  67.950  1.00  0.00    -0.100 C  
BRANCH   8   9
HETATM    9  N   UNK A   1      -8.233  10.814  69.367  1.00  0.00    -0.357 NA 
HETATM   10  H   UNK A   1      -9.107  11.336  69.420  1.00  0.00     0.000 HD 
BRANCH   9  11
HETATM   11  C   UNK A   1      -8.378   9.491  70.054  1.00  0.00    -0.179 C  
HETATM   12  C   UNK A   1      -7.368   9.454  71.217  1.00  0.00     0.123 C  
HETATM   13  O   UNK A   1      -7.493   8.781  72.228  1.00  0.00    -0.309 OA 
HETATM   14  O   UNK A   1      -6.300  10.258  70.989  1.00  0.00    -0.312 OA 
BRANCH  11  15
HETATM   15  C   UNK A   1      -8.100   8.306  69.103  1.00  0.00    -0.120 C  
BRANCH  15  16
HETATM   16  C   UNK A   1      -9.298   7.352  68.958  1.00  0.00    -0.145 C  
BRANCH  16  17
HETATM   17  C   UNK A   1      -9.264   6.559  67.671  1.00  0.00    -0.113 A  
HETATM   18  C   UNK A   1     -10.177   5.517  67.459  1.00  0.00    -0.245 A  
HETATM   19  C   UNK A   1      -9.217   5.075  65.286  1.00  0.00    -0.125 A  
HETATM   20  C   UNK A   1     -10.153   4.781  66.272  1.00  0.00    -0.291 A  
HETATM   21  C   UNK A   1      -8.313   6.118  65.477  1.00  0.00    -0.147 A  
HETATM   22  C   UNK A   1      -8.336   6.857  66.660  1.00  0.00    -0.118 A  
ENDBRANCH  16  17
ENDBRANCH  15  16
ENDBRANCH  11  15
ENDBRANCH   9  11
ENDBRANCH   8   9
BRANCH   8  23
HETATM   23  C   UNK A   1      -6.415  11.538  67.840  1.00  0.00    -0.056 C  
ATOM     24  OXT PRO A   2      -9.737  14.270  68.739  1.00  0.00    -0.221 OA 
HETATM   25  O   UNK A   1      -5.375  10.962  67.516  1.00  0.00    -0.040 OA 
ATOM     26  N   PRO A   2      -6.437  12.918  68.048  1.00  0.00    -0.092 N  
ATOM     27  CD  PRO A   2      -5.240  13.726  67.841  1.00  0.00    -0.074 C  
ATOM     28  O   PRO A   2      -8.555  14.036  66.826  1.00  0.00    -0.173 OA 
ATOM     29  C   PRO A   2      -8.693  13.988  68.172  1.00  0.00    -0.180 C  
ATOM     30  CA  PRO A   2      -7.399  13.634  68.902  1.00  0.00    -0.060 C  
ATOM     31  CB  PRO A   2      -6.685  14.916  69.341  1.00  0.00    -0.153 C  
ATOM     32  CG  PRO A   2      -5.215  14.685  69.015  1.00  0.00    -0.090 C  
ENDBRANCH   8  23
ENDBRANCH   7   8
ENDBRANCH   6   7
ENDBRANCH   5   6
ENDBRANCH   3   5
TORSDOF 10
ENDMDL
MODEL      310
REMARK 921   NORMALIZED FREE ENERGY PREDICTED BY IDOCK:   -2.32 KCAL/MOL
REMARK 922        TOTAL FREE ENERGY PREDICTED BY IDOCK:   -5.63 KCAL/MOL
REMARK 923 INTER-LIGAND FREE ENERGY PREDICTED BY IDOCK:   -4.26 KCAL/MOL
REMARK 924 INTRA-LIGAND FREE ENERGY PREDICTED BY IDOCK:   -1.38 KCAL/MOL
REMARK 927      BINDING AFFINITY PREDICTED BY RF-SCORE:    0.00 PKD
ROOT
HETATM    1  N   UNK A   1      -7.441  18.853  68.490  1.00  0.00    -0.295 NA 
HETATM    2  H2  UNK A   1      -6.421  18.868  68.494  1.00  0.00     0.000 HD 
HETATM    3  C   UNK A   1      -7.971  17.628  67.904  1.00  0.00    -0.231 C  
HETATM    4  H1  UNK A   1      -7.837  19.660  68.008  1.00  0.00     0.000 HD 
ENDROOT
BRANCH   3   5
HETATM    5  C   UNK A   1      -7.380  16.421  68.624  1.00  0.00    -0.186 C  
BRANCH   5   6
HETATM    6  C   UNK A   1      -8.001  15.103  68.146  1.00  0.00    -0.125 C  
BRANCH   6   7
HETATM    7  C   UNK A   1      -8.450  14.283  69.360  1.00  0.00     0.358 C  
BRANCH   7   8
HETATM    8  C   UNK A   1      -9.850  13.652  69.265  1.00  0.00     0.437 C  
BRANCH   8   9
HETATM    9  N   UNK A   1     -10.185  13.112  67.912  1.00  0.00    -0.228 NA 
HETATM   10  H   UNK A   1      -9.971  13.802  67.193  1.00  0.00     0.000 HD 
BRANCH   9  11
HETATM   11  C   UNK A   1      -9.539  11.802  67.581  1.00  0.00    -0.183 C  
HETATM   12  C   UNK A   1     -10.468  11.055  66.606  1.00  0.00    -0.256 C  
HETATM   13  O   UNK A   1     -10.101  10.215  65.798  1.00  0.00    -0.264 OA 
HETATM   14  O   UNK A   1     -11.763  11.428  66.750  1.00  0.00    -0.474 OA 
BRANCH  11  15
HETATM   15  C   UNK A   1      -9.312  10.929  68.835  1.00  0.00    -0.169 C  
BRANCH  15  16
HETATM   16  C   UNK A   1      -8.089  10.003  68.715  1.00  0.00    -0.106 C  
BRANCH  16  17
HETATM   17  C   UNK A   1      -8.348   8.617  69.261  1.00  0.00    -0.118 A  
HETATM   18  C   UNK A   1      -9.533   8.341  69.956  1.00  0.00    -0.167 A  
HETATM   19  C   UNK A   1      -8.848   6.046  70.278  1.00  0.00    -0.144 A  
HETATM   20  C   UNK A   1      -9.781   7.062  70.460  1.00  0.00    -0.178 A  
HETATM   21  C   UNK A   1      -7.673   6.302  69.575  1.00  0.00    -0.099 A  
HETATM   22  C   UNK A   1      -7.423   7.578  69.068  1.00  0.00    -0.096 A  
ENDBRANCH  16  17
ENDBRANCH  15  16
ENDBRANCH  11  15
ENDBRANCH   9  11
ENDBRANCH   8   9
BRANCH   8  23
HETATM   23  C   UNK A   1     -10.999  14.631  69.697  1.00  0.00    -0.226 C  
ATOM     24  OXT PRO A   2     -11.808  10.587  71.210  1.00  0.00    -0.328 OA 
HETATM   25  O   UNK A   1     -10.998  15.799  69.304  1.00  0.00    -0.242 OA 
ATOM     26  N   PRO A   2     -12.049  14.135  70.471  1.00  0.00    -0.329 N  
ATOM     27  CD  PRO A   2     -13.199  14.971  70.798  1.00  0.00    -0.348 C  
ATOM     28  O   PRO A   2     -12.852  11.733  69.566  1.00  0.00     0.301 OA 
ATOM     29  C   PRO A   2     -12.163  11.651  70.728  1.00  0.00    -0.344 C  
ATOM     30  CA  PRO A   2     -11.953  13.003  71.408  1.00  0.00     0.733 C  
ATOM     31  CB  PRO A   2     -13.053  13.236  72.448  1.00  0.00    -0.443 C  
ATOM     32  CG  PRO A   2     -13.478  14.686  72.261  1.00  0.00    -0.507 C  
ENDBRANCH   8  23
ENDBRANCH   7   8
ENDBRANCH   6   7
ENDBRANCH   5   6
ENDBRANCH   3   5
TORSDOF 10
ENDMDL
MODEL      311
REMARK 921   NORMALIZED FREE ENERGY PREDICTED BY IDOCK:   -2.25 KCAL/MOL
REMARK 922        TOTAL FREE ENERGY PREDICTED BY IDOCK:   -5.52 KCAL/MOL
REMARK 923 INTER-LIGAND FREE ENERGY PREDICTED BY IDOCK:   -5.73 KCAL/MOL
REMARK 924 INTRA-LIGAND FREE ENERGY PREDICTED BY IDOCK:    0.21 KCAL/MOL
REMARK 927      BINDING AFFINITY PREDICTED BY RF-SCORE:    0.00 PKD
ROOT
HETATM    1  N   UNK A   1      -5.150  14.408  69.520  1.00  0.00    -0.090 NA 
HETATM    2  H2  UNK A   1      -4.355  13.771  69.463  1.00  0.00     0.000 HD 
HETATM    3  C   UNK A   1      -6.044  14.279  68.376  1.00  0.00    -0.102 C  
HETATM    4  H1  UNK A   1      -4.858  15.381  69.617  1.00  0.00     0.000 HD 
ENDROOT
BRANCH   3   5
HETATM    5  C   UNK A   1      -6.480  12.826  68.232  1.00  0.00    -0.083 C  
BRANCH   5   6
HETATM    6  C   UNK A   1      -7.632  12.473  69.181  1.00  0.00     0.241 C  
BRANCH   6   7
HETATM    7  C   UNK A   1      -8.766  11.820  68.384  1.00  0.00    -0.155 C  
BRANCH   7   8
HETATM    8  C   UNK A   1      -8.789  12.121  66.876  1.00  0.00    -0.202 C  
BRANCH   8   9
HETATM    9  N   UNK A   1      -9.523  13.372  66.516  1.00  0.00    -0.309 NA 
HETATM   10  H   UNK A   1      -9.084  13.821  65.712  1.00  0.00     0.000 HD 
BRANCH   9  11
HETATM   11  C   UNK A   1     -10.989  13.192  66.271  1.00  0.00    -0.280 C  
HETATM   12  C   UNK A   1     -11.325  13.857  64.923  1.00  0.00    -0.347 C  
HETATM   13  O   UNK A   1     -12.260  13.541  64.203  1.00  0.00    -0.501 OA 
HETATM   14  O   UNK A   1     -10.459  14.856  64.619  1.00  0.00    -0.337 OA 
BRANCH  11  15
HETATM   15  C   UNK A   1     -11.850  13.835  67.381  1.00  0.00    -0.431 C  
BRANCH  15  16
HETATM   16  C   UNK A   1     -11.041  14.733  68.332  1.00  0.00    -0.274 C  
BRANCH  16  17
HETATM   17  C   UNK A   1     -11.599  14.753  69.737  1.00  0.00    -0.338 A  
HETATM   18  C   UNK A   1     -12.869  14.222  70.001  1.00  0.00    -0.037 A  
HETATM   19  C   UNK A   1     -12.651  14.776  72.342  1.00  0.00    -0.421 A  
HETATM   20  C   UNK A   1     -13.390  14.233  71.296  1.00  0.00    -0.388 A  
HETATM   21  C   UNK A   1     -11.381  15.293  72.098  1.00  0.00    -0.414 A  
HETATM   22  C   UNK A   1     -10.856  15.281  70.805  1.00  0.00    -0.255 A  
ENDBRANCH  16  17
ENDBRANCH  15  16
ENDBRANCH  11  15
ENDBRANCH   9  11
ENDBRANCH   8   9
BRANCH   8  23
HETATM   23  C   UNK A   1      -9.381  10.945  66.020  1.00  0.00    -0.190 C  
ATOM     24  OXT PRO A   2      -5.153  10.175  66.933  1.00  0.00    -0.039 OA 
HETATM   25  O   UNK A   1     -10.536  11.008  65.594  1.00  0.00    -0.254 OA 
ATOM     26  N   PRO A   2      -8.555   9.867  65.698  1.00  0.00    -0.140 N  
ATOM     27  CD  PRO A   2      -9.018   8.808  64.807  1.00  0.00     0.037 C  
ATOM     28  O   PRO A   2      -6.113  10.721  64.961  1.00  0.00    -0.073 OA 
ATOM     29  C   PRO A   2      -6.120  10.148  66.187  1.00  0.00    -0.080 C  
ATOM     30  CA  PRO A   2      -7.414   9.400  66.502  1.00  0.00    -0.093 C  
ATOM     31  CB  PRO A   2      -7.250   7.915  66.161  1.00  0.00    -0.073 C  
ATOM     32  CG  PRO A   2      -8.543   7.524  65.458  1.00  0.00    -0.102 C  
ENDBRANCH   8  23
ENDBRANCH   7   8
ENDBRANCH   6   7
ENDBRANCH   5   6
ENDBRANCH   3   5
TORSDOF 10
ENDMDL
MODEL      312
REMARK 921   NORMALIZED FREE ENERGY PREDICTED BY IDOCK:   -2.22 KCAL/MOL
REMARK 922        TOTAL FREE ENERGY PREDICTED BY IDOCK:   -5.47 KCAL/MOL
REMARK 923 INTER-LIGAND FREE ENERGY PREDICTED BY IDOCK:   -7.56 KCAL/MOL
REMARK 924 INTRA-LIGAND FREE ENERGY PREDICTED BY IDOCK:    2.10 KCAL/MOL
REMARK 927      BINDING AFFINITY PREDICTED BY RF-SCORE:    0.00 PKD
ROOT
HETATM    1  N   UNK A   1     -10.886   8.363  72.091  1.00  0.00    -0.312 NA 
HETATM    2  H2  UNK A   1     -11.351   9.242  72.320  1.00  0.00     0.000 HD 
HETATM    3  C   UNK A   1     -10.463   8.311  70.698  1.00  0.00    -0.203 C  
HETATM    4  H1  UNK A   1     -11.470   7.553  72.301  1.00  0.00     0.000 HD 
ENDROOT
BRANCH   3   5
HETATM    5  C   UNK A   1      -9.591   9.522  70.385  1.00  0.00    -0.326 C  
BRANCH   5   6
HETATM    6  C   UNK A   1      -9.786  10.016  68.946  1.00  0.00    -0.187 C  
BRANCH   6   7
HETATM    7  C   UNK A   1     -11.223  10.519  68.772  1.00  0.00    -0.317 C  
BRANCH   7   8
HETATM    8  C   UNK A   1     -11.486  11.970  69.209  1.00  0.00    -0.301 C  
BRANCH   8   9
HETATM    9  N   UNK A   1     -10.269  12.839  69.202  1.00  0.00    -0.413 NA 
HETATM   10  H   UNK A   1      -9.519  12.399  69.734  1.00  0.00     0.000 HD 
BRANCH   9  11
HETATM   11  C   UNK A   1      -9.782  13.227  67.841  1.00  0.00    -0.224 C  
HETATM   12  C   UNK A   1     -11.016  13.514  66.965  1.00  0.00    -0.288 C  
HETATM   13  O   UNK A   1     -11.025  14.256  65.995  1.00  0.00    -0.303 OA 
HETATM   14  O   UNK A   1     -12.110  12.833  67.389  1.00  0.00    -0.382 OA 
BRANCH  11  15
HETATM   15  C   UNK A   1      -8.941  12.111  67.182  1.00  0.00    -0.189 C  
BRANCH  15  16
HETATM   16  C   UNK A   1      -7.447  12.461  67.075  1.00  0.00    -0.037 C  
BRANCH  16  17
HETATM   17  C   UNK A   1      -6.768  12.554  68.423  1.00  0.00    -0.081 A  
HETATM   18  C   UNK A   1      -6.654  11.418  69.236  1.00  0.00    -0.106 A  
HETATM   19  C   UNK A   1      -5.506  12.704  70.929  1.00  0.00    -0.167 A  
HETATM   20  C   UNK A   1      -6.025  11.494  70.481  1.00  0.00    -0.093 A  
HETATM   21  C   UNK A   1      -5.599  13.838  70.125  1.00  0.00    -0.123 A  
HETATM   22  C   UNK A   1      -6.224  13.765  68.879  1.00  0.00    -0.091 A  
ENDBRANCH  16  17
ENDBRANCH  15  16
ENDBRANCH  11  15
ENDBRANCH   9  11
ENDBRANCH   8   9
BRANCH   8  23
HETATM   23  C   UNK A   1     -12.154  12.077  70.627  1.00  0.00    -0.274 C  
ATOM     24  OXT PRO A   2     -11.850  16.057  68.793  1.00  0.00    -0.375 OA 
HETATM   25  O   UNK A   1     -12.258  11.077  71.339  1.00  0.00    -0.295 OA 
ATOM     26  N   PRO A   2     -12.558  13.331  71.086  1.00  0.00    -0.361 N  
ATOM     27  CD  PRO A   2     -13.072  13.503  72.440  1.00  0.00    -0.393 C  
ATOM     28  O   PRO A   2     -10.699  15.196  70.537  1.00  0.00    -0.244 OA 
ATOM     29  C   PRO A   2     -11.796  15.302  69.751  1.00  0.00    -0.332 C  
ATOM     30  CA  PRO A   2     -12.973  14.456  70.232  1.00  0.00    -0.070 C  
ATOM     31  CB  PRO A   2     -13.905  15.309  71.099  1.00  0.00    -0.498 C  
ATOM     32  CG  PRO A   2     -14.267  14.424  72.284  1.00  0.00    -0.580 C  
ENDBRANCH   8  23
ENDBRANCH   7   8
ENDBRANCH   6   7
ENDBRANCH   5   6
ENDBRANCH   3   5
TORSDOF 10
ENDMDL
MODEL      313
REMARK 921   NORMALIZED FREE ENERGY PREDICTED BY IDOCK:   -2.17 KCAL/MOL
REMARK 922        TOTAL FREE ENERGY PREDICTED BY IDOCK:   -5.40 KCAL/MOL
REMARK 923 INTER-LIGAND FREE ENERGY PREDICTED BY IDOCK:   -4.82 KCAL/MOL
REMARK 924 INTRA-LIGAND FREE ENERGY PREDICTED BY IDOCK:   -0.58 KCAL/MOL
REMARK 927      BINDING AFFINITY PREDICTED BY RF-SCORE:    0.00 PKD
ROOT
HETATM    1  N   UNK A   1     -12.401  12.164  64.697  1.00  0.00    -0.363 NA 
HETATM    2  H2  UNK A   1     -12.286  12.313  63.694  1.00  0.00     0.000 HD 
HETATM    3  C   UNK A   1     -11.596  11.051  65.185  1.00  0.00     0.641 C  
HETATM    4  H1  UNK A   1     -13.377  12.017  64.955  1.00  0.00     0.000 HD 
ENDROOT
BRANCH   3   5
HETATM    5  C   UNK A   1     -10.137  11.270  64.799  1.00  0.00    -0.338 C  
BRANCH   5   6
HETATM    6  C   UNK A   1      -9.256  11.562  66.020  1.00  0.00    -0.229 C  
BRANCH   6   7
HETATM    7  C   UNK A   1      -9.396  13.037  66.407  1.00  0.00    -0.189 C  
BRANCH   7   8
HETATM    8  C   UNK A   1      -9.502  13.331  67.913  1.00  0.00    -0.214 C  
BRANCH   8   9
HETATM    9  N   UNK A   1     -10.864  13.760  68.357  1.00  0.00    -0.244 NA 
HETATM   10  H   UNK A   1     -11.436  14.007  67.550  1.00  0.00     0.000 HD 
BRANCH   9  11
HETATM   11  C   UNK A   1     -11.584  12.772  69.220  1.00  0.00    -0.314 C  
HETATM   12  C   UNK A   1     -12.024  13.503  70.503  1.00  0.00    -0.269 C  
HETATM   13  O   UNK A   1     -12.976  13.181  71.198  1.00  0.00    -0.288 OA 
HETATM   14  O   UNK A   1     -11.221  14.558  70.789  1.00  0.00    -0.132 OA 
BRANCH  11  15
HETATM   15  C   UNK A   1     -10.691  11.571  69.603  1.00  0.00     0.035 C  
BRANCH  15  16
HETATM   16  C   UNK A   1     -11.408  10.216  69.473  1.00  0.00    -0.260 C  
BRANCH  16  17
HETATM   17  C   UNK A   1     -10.463   9.082  69.144  1.00  0.00    -0.239 A  
HETATM   18  C   UNK A   1      -9.162   9.352  68.701  1.00  0.00    -0.131 A  
HETATM   19  C   UNK A   1      -8.693   6.988  68.532  1.00  0.00    -0.122 A  
HETATM   20  C   UNK A   1      -8.282   8.310  68.399  1.00  0.00    -0.132 A  
HETATM   21  C   UNK A   1      -9.979   6.704  68.987  1.00  0.00    -0.162 A  
HETATM   22  C   UNK A   1     -10.859   7.743  69.292  1.00  0.00    -0.091 A  
ENDBRANCH  16  17
ENDBRANCH  15  16
ENDBRANCH  11  15
ENDBRANCH   9  11
ENDBRANCH   8   9
BRANCH   8  23
HETATM   23  C   UNK A   1      -8.468  14.405  68.407  1.00  0.00    -0.165 C  
ATOM     24  OXT PRO A   2     -11.524  16.295  65.881  1.00  0.00     0.288 OA 
HETATM   25  O   UNK A   1      -7.485  14.061  69.066  1.00  0.00    -0.119 OA 
ATOM     26  N   PRO A   2      -8.648  15.735  68.027  1.00  0.00    -0.162 N  
ATOM     27  CD  PRO A   2      -7.653  16.750  68.357  1.00  0.00    -0.205 C  
ATOM     28  O   PRO A   2      -9.343  15.903  65.434  1.00  0.00    -0.323 OA 
ATOM     29  C   PRO A   2     -10.375  16.165  66.271  1.00  0.00    -0.328 C  
ATOM     30  CA  PRO A   2      -9.943  16.365  67.723  1.00  0.00    -0.248 C  
ATOM     31  CB  PRO A   2      -9.752  17.858  68.006  1.00  0.00    -0.303 C  
ATOM     32  CG  PRO A   2      -8.464  17.948  68.813  1.00  0.00    -0.212 C  
ENDBRANCH   8  23
ENDBRANCH   7   8
ENDBRANCH   6   7
ENDBRANCH   5   6
ENDBRANCH   3   5
TORSDOF 10
ENDMDL
MODEL      314
REMARK 921   NORMALIZED FREE ENERGY PREDICTED BY IDOCK:   -2.17 KCAL/MOL
REMARK 922        TOTAL FREE ENERGY PREDICTED BY IDOCK:   -5.39 KCAL/MOL
REMARK 923 INTER-LIGAND FREE ENERGY PREDICTED BY IDOCK:   -6.95 KCAL/MOL
REMARK 924 INTRA-LIGAND FREE ENERGY PREDICTED BY IDOCK:    1.56 KCAL/MOL
REMARK 927      BINDING AFFINITY PREDICTED BY RF-SCORE:    0.00 PKD
ROOT
HETATM    1  N   UNK A   1     -11.099  12.112  62.611  1.00  0.00     0.036 NA 
HETATM    2  H2  UNK A   1     -10.324  11.649  63.086  1.00  0.00     0.000 HD 
HETATM    3  C   UNK A   1     -12.207  12.400  63.513  1.00  0.00    -0.563 C  
HETATM    4  H1  UNK A   1     -11.439  11.572  61.815  1.00  0.00     0.000 HD 
ENDROOT
BRANCH   3   5
HETATM    5  C   UNK A   1     -11.698  13.206  64.703  1.00  0.00    -0.404 C  
BRANCH   5   6
HETATM    6  C   UNK A   1     -12.844  13.736  65.573  1.00  0.00    -0.464 C  
BRANCH   6   7
HETATM    7  C   UNK A   1     -12.284  14.214  66.916  1.00  0.00    -0.400 C  
BRANCH   7   8
HETATM    8  C   UNK A   1     -11.313  13.251  67.622  1.00  0.00    -0.296 C  
BRANCH   8   9
HETATM    9  N   UNK A   1     -11.044  11.992  66.862  1.00  0.00    -0.284 NA 
HETATM   10  H   UNK A   1     -11.165  12.150  65.862  1.00  0.00     0.000 HD 
BRANCH   9  11
HETATM   11  C   UNK A   1      -9.708  11.371  67.130  1.00  0.00    -0.182 C  
HETATM   12  C   UNK A   1      -8.642  12.475  66.996  1.00  0.00    -0.188 C  
HETATM   13  O   UNK A   1      -7.557  12.469  67.556  1.00  0.00    -0.134 OA 
HETATM   14  O   UNK A   1      -9.042  13.470  66.165  1.00  0.00    -0.058 OA 
BRANCH  11  15
HETATM   15  C   UNK A   1      -9.385  10.231  66.139  1.00  0.00    -0.211 C  
BRANCH  15  16
HETATM   16  C   UNK A   1      -8.925  10.739  64.761  1.00  0.00    -0.194 C  
BRANCH  16  17
HETATM   17  C   UNK A   1      -8.027   9.756  64.044  1.00  0.00    -0.147 A  
HETATM   18  C   UNK A   1      -6.634   9.849  64.170  1.00  0.00    -0.126 A  
HETATM   19  C   UNK A   1      -6.341   7.937  62.723  1.00  0.00    -0.077 A  
HETATM   20  C   UNK A   1      -5.797   8.944  63.514  1.00  0.00    -0.076 A  
HETATM   21  C   UNK A   1      -7.724   7.823  62.601  1.00  0.00    -0.129 A  
HETATM   22  C   UNK A   1      -8.563   8.724  63.257  1.00  0.00    -0.068 A  
ENDBRANCH  16  17
ENDBRANCH  15  16
ENDBRANCH  11  15
ENDBRANCH   9  11
ENDBRANCH   8   9
BRANCH   8  23
HETATM   23  C   UNK A   1     -11.779  12.857  69.070  1.00  0.00    -0.327 C  
ATOM     24  OXT PRO A   2     -10.945  17.165  68.868  1.00  0.00    -0.236 OA 
HETATM   25  O   UNK A   1     -11.987  11.676  69.353  1.00  0.00    -0.313 OA 
ATOM     26  N   PRO A   2     -11.883  13.857  70.037  1.00  0.00    -0.308 N  
ATOM     27  CD  PRO A   2     -12.194  13.528  71.424  1.00  0.00    -0.033 C  
ATOM     28  O   PRO A   2      -9.782  15.532  69.912  1.00  0.00    -0.290 OA 
ATOM     29  C   PRO A   2     -10.923  16.086  69.439  1.00  0.00    -0.321 C  
ATOM     30  CA  PRO A   2     -12.175  15.274  69.767  1.00  0.00    -0.294 C  
ATOM     31  CB  PRO A   2     -12.821  15.813  71.047  1.00  0.00    -0.425 C  
ATOM     32  CG  PRO A   2     -13.203  14.577  71.851  1.00  0.00    -0.440 C  
ENDBRANCH   8  23
ENDBRANCH   7   8
ENDBRANCH   6   7
ENDBRANCH   5   6
ENDBRANCH   3   5
TORSDOF 10
ENDMDL
MODEL      315
REMARK 921   NORMALIZED FREE ENERGY PREDICTED BY IDOCK:   -2.15 KCAL/MOL
REMARK 922        TOTAL FREE ENERGY PREDICTED BY IDOCK:   -5.37 KCAL/MOL
REMARK 923 INTER-LIGAND FREE ENERGY PREDICTED BY IDOCK:   -4.04 KCAL/MOL
REMARK 924 INTRA-LIGAND FREE ENERGY PREDICTED BY IDOCK:   -1.33 KCAL/MOL
REMARK 927      BINDING AFFINITY PREDICTED BY RF-SCORE:    0.00 PKD
ROOT
HETATM    1  N   UNK A   1      -8.258   7.278  62.889  1.00  0.00    -0.336 NA 
HETATM    2  H2  UNK A   1      -7.577   7.606  62.204  1.00  0.00     0.000 HD 
HETATM    3  C   UNK A   1      -7.779   7.428  64.257  1.00  0.00    -0.121 C  
HETATM    4  H1  UNK A   1      -8.531   6.308  62.727  1.00  0.00     0.000 HD 
ENDROOT
BRANCH   3   5
HETATM    5  C   UNK A   1      -7.372   8.877  64.499  1.00  0.00    -0.102 C  
BRANCH   5   6
HETATM    6  C   UNK A   1      -6.077   8.984  65.313  1.00  0.00    -0.059 C  
BRANCH   6   7
HETATM    7  C   UNK A   1      -6.308   9.904  66.516  1.00  0.00    -0.070 C  
BRANCH   7   8
HETATM    8  C   UNK A   1      -7.387   9.449  67.514  1.00  0.00    -0.084 C  
BRANCH   8   9
HETATM    9  N   UNK A   1      -8.466  10.457  67.747  1.00  0.00    -0.114 NA 
HETATM   10  H   UNK A   1      -8.609  11.021  66.909  1.00  0.00     0.000 HD 
BRANCH   9  11
HETATM   11  C   UNK A   1      -9.768   9.887  68.216  1.00  0.00    -0.144 C  
HETATM   12  C   UNK A   1     -10.534   9.385  66.977  1.00  0.00    -0.231 C  
HETATM   13  O   UNK A   1     -11.373   8.496  66.989  1.00  0.00     0.619 OA 
HETATM   14  O   UNK A   1     -10.177  10.053  65.853  1.00  0.00    -0.259 OA 
BRANCH  11  15
HETATM   15  C   UNK A   1     -10.631  10.933  68.956  1.00  0.00    -0.248 C  
BRANCH  15  16
HETATM   16  C   UNK A   1     -10.121  12.373  68.779  1.00  0.00    -0.068 C  
BRANCH  16  17
HETATM   17  C   UNK A   1     -10.506  12.973  67.445  1.00  0.00    -0.235 A  
HETATM   18  C   UNK A   1     -11.786  12.757  66.917  1.00  0.00    -0.440 A  
HETATM   19  C   UNK A   1     -11.242  14.080  64.970  1.00  0.00    -0.352 A  
HETATM   20  C   UNK A   1     -12.151  13.310  65.687  1.00  0.00    -0.488 A  
HETATM   21  C   UNK A   1      -9.971  14.316  65.490  1.00  0.00    -0.341 A  
HETATM   22  C   UNK A   1      -9.605  13.767  66.720  1.00  0.00    -0.283 A  
ENDBRANCH  16  17
ENDBRANCH  15  16
ENDBRANCH  11  15
ENDBRANCH   9  11
ENDBRANCH   8   9
BRANCH   8  23
HETATM   23  C   UNK A   1      -6.801   9.032  68.910  1.00  0.00    -0.057 C  
ATOM     24  OXT PRO A   2      -8.567   5.544  66.906  1.00  0.00    -0.111 OA 
HETATM   25  O   UNK A   1      -6.329   9.885  69.664  1.00  0.00    -0.043 OA 
ATOM     26  N   PRO A   2      -6.888   7.696  69.303  1.00  0.00    -0.051 N  
ATOM     27  CD  PRO A   2      -6.468   7.278  70.636  1.00  0.00    -0.043 C  
ATOM     28  O   PRO A   2      -9.308   6.681  68.713  1.00  0.00    -0.132 OA 
ATOM     29  C   PRO A   2      -8.333   6.216  67.898  1.00  0.00    -0.117 C  
ATOM     30  CA  PRO A   2      -6.923   6.541  68.390  1.00  0.00    -0.080 C  
ATOM     31  CB  PRO A   2      -6.371   5.362  69.196  1.00  0.00    -0.034 C  
ATOM     32  CG  PRO A   2      -5.701   5.989  70.411  1.00  0.00    -0.014 C  
ENDBRANCH   8  23
ENDBRANCH   7   8
ENDBRANCH   6   7
ENDBRANCH   5   6
ENDBRANCH   3   5
TORSDOF 10
ENDMDL
MODEL      316
REMARK 921   NORMALIZED FREE ENERGY PREDICTED BY IDOCK:   -2.14 KCAL/MOL
REMARK 922        TOTAL FREE ENERGY PREDICTED BY IDOCK:   -5.34 KCAL/MOL
REMARK 923 INTER-LIGAND FREE ENERGY PREDICTED BY IDOCK:   -5.24 KCAL/MOL
REMARK 924 INTRA-LIGAND FREE ENERGY PREDICTED BY IDOCK:   -0.10 KCAL/MOL
REMARK 927      BINDING AFFINITY PREDICTED BY RF-SCORE:    0.00 PKD
ROOT
HETATM    1  N   UNK A   1      -8.466   5.064  64.838  1.00  0.00    -0.142 NA 
HETATM    2  H2  UNK A   1      -8.238   6.006  64.518  1.00  0.00     0.000 HD 
HETATM    3  C   UNK A   1      -7.524   4.578  65.837  1.00  0.00    -0.082 C  
HETATM    4  H1  UNK A   1      -8.521   4.398  64.068  1.00  0.00     0.000 HD 
ENDROOT
BRANCH   3   5
HETATM    5  C   UNK A   1      -7.442   5.575  66.989  1.00  0.00    -0.088 C  
BRANCH   5   6
HETATM    6  C   UNK A   1      -6.244   5.300  67.906  1.00  0.00    -0.038 C  
BRANCH   6   7
HETATM    7  C   UNK A   1      -6.742   4.711  69.230  1.00  0.00    -0.045 C  
BRANCH   7   8
HETATM    8  C   UNK A   1      -8.226   4.950  69.557  1.00  0.00    -0.084 C  
BRANCH   8   9
HETATM    9  N   UNK A   1      -8.455   5.810  70.758  1.00  0.00    -0.123 NA 
HETATM   10  H   UNK A   1      -7.857   5.509  71.527  1.00  0.00     0.000 HD 
BRANCH   9  11
HETATM   11  C   UNK A   1      -8.292   7.279  70.519  1.00  0.00    -0.133 C  
HETATM   12  C   UNK A   1      -8.069   7.954  71.886  1.00  0.00    -0.115 C  
HETATM   13  O   UNK A   1      -7.473   9.007  72.055  1.00  0.00    -0.337 OA 
HETATM   14  O   UNK A   1      -8.624   7.245  72.900  1.00  0.00    -0.117 OA 
BRANCH  11  15
HETATM   15  C   UNK A   1      -9.532   7.902  69.842  1.00  0.00    -0.160 C  
BRANCH  15  16
HETATM   16  C   UNK A   1     -10.050   9.158  70.564  1.00  0.00    -0.288 C  
BRANCH  16  17
HETATM   17  C   UNK A   1     -11.467   9.004  71.068  1.00  0.00    -0.358 A  
HETATM   18  C   UNK A   1     -12.082   7.744  71.072  1.00  0.00    -0.264 A  
HETATM   19  C   UNK A   1     -14.099   8.695  72.003  1.00  0.00    -0.523 A  
HETATM   20  C   UNK A   1     -13.389   7.592  71.539  1.00  0.00    -0.409 A  
HETATM   21  C   UNK A   1     -13.495   9.951  72.018  1.00  0.00    -0.478 A  
HETATM   22  C   UNK A   1     -12.187  10.105  71.555  1.00  0.00    -0.473 A  
ENDBRANCH  16  17
ENDBRANCH  15  16
ENDBRANCH  11  15
ENDBRANCH   9  11
ENDBRANCH   8   9
BRANCH   8  23
HETATM   23  C   UNK A   1      -9.038   3.619  69.749  1.00  0.00    -0.124 C  
ATOM     24  OXT PRO A   2      -6.818   4.581  73.416  1.00  0.00    -0.059 OA 
HETATM   25  O   UNK A   1      -9.667   3.135  68.806  1.00  0.00    -0.094 OA 
ATOM     26  N   PRO A   2      -8.975   2.965  70.980  1.00  0.00    -0.086 N  
ATOM     27  CD  PRO A   2      -9.611   1.667  71.173  1.00  0.00    -0.135 C  
ATOM     28  O   PRO A   2      -6.454   2.930  71.916  1.00  0.00    -0.014 OA 
ATOM     29  C   PRO A   2      -7.250   3.792  72.590  1.00  0.00    -0.053 C  
ATOM     30  CA  PRO A   2      -8.736   3.618  72.278  1.00  0.00    -0.092 C  
ATOM     31  CB  PRO A   2      -9.381   2.704  73.324  1.00  0.00    -0.109 C  
ATOM     32  CG  PRO A   2     -10.279   1.764  72.531  1.00  0.00    -0.219 C  
ENDBRANCH   8  23
ENDBRANCH   7   8
ENDBRANCH   6   7
ENDBRANCH   5   6
ENDBRANCH   3   5
TORSDOF 10
ENDMDL
MODEL      317
REMARK 921   NORMALIZED FREE ENERGY PREDICTED BY IDOCK:   -2.10 KCAL/MOL
REMARK 922        TOTAL FREE ENERGY PREDICTED BY IDOCK:   -5.28 KCAL/MOL
REMARK 923 INTER-LIGAND FREE ENERGY PREDICTED BY IDOCK:   -5.36 KCAL/MOL
REMARK 924 INTRA-LIGAND FREE ENERGY PREDICTED BY IDOCK:    0.07 KCAL/MOL
REMARK 927      BINDING AFFINITY PREDICTED BY RF-SCORE:    0.00 PKD
ROOT
HETATM    1  N   UNK A   1      -7.117  12.913  69.778  1.00  0.00    -0.216 NA 
HETATM    2  H2  UNK A   1      -6.832  11.937  69.700  1.00  0.00     0.000 HD 
HETATM    3  C   UNK A   1      -5.990  13.828  69.652  1.00  0.00    -0.113 C  
HETATM    4  H1  UNK A   1      -7.613  13.101  70.650  1.00  0.00     0.000 HD 
ENDROOT
BRANCH   3   5
HETATM    5  C   UNK A   1      -5.250  13.547  68.349  1.00  0.00    -0.096 C  
BRANCH   5   6
HETATM    6  C   UNK A   1      -5.271  14.754  67.402  1.00  0.00     0.356 C  
BRANCH   6   7
HETATM    7  C   UNK A   1      -6.721  15.106  67.059  1.00  0.00     0.389 C  
BRANCH   7   8
HETATM    8  C   UNK A   1      -7.173  16.530  67.424  1.00  0.00    -0.149 C  
BRANCH   8   9
HETATM    9  N   UNK A   1      -8.551  16.872  66.957  1.00  0.00    -0.197 NA 
HETATM   10  H   UNK A   1      -8.531  17.714  66.382  1.00  0.00     0.000 HD 
BRANCH   9  11
HETATM   11  C   UNK A   1      -9.261  15.769  66.235  1.00  0.00    -0.333 C  
HETATM   12  C   UNK A   1     -10.374  16.407  65.382  1.00  0.00    -0.262 C  
HETATM   13  O   UNK A   1     -10.839  15.918  64.363  1.00  0.00    -0.465 OA 
HETATM   14  O   UNK A   1     -10.798  17.587  65.899  1.00  0.00    -0.201 OA 
BRANCH  11  15
HETATM   15  C   UNK A   1      -9.890  14.745  67.206  1.00  0.00    -0.230 C  
BRANCH  15  16
HETATM   16  C   UNK A   1     -10.693  13.645  66.491  1.00  0.00    -0.284 C  
BRANCH  16  17
HETATM   17  C   UNK A   1     -10.250  12.251  66.875  1.00  0.00    -0.229 A  
HETATM   18  C   UNK A   1      -8.893  11.976  67.094  1.00  0.00    -0.188 A  
HETATM   19  C   UNK A   1      -9.408   9.669  67.593  1.00  0.00    -0.144 A  
HETATM   20  C   UNK A   1      -8.476  10.693  67.452  1.00  0.00    -0.122 A  
HETATM   21  C   UNK A   1     -10.761   9.932  67.394  1.00  0.00    -0.323 A  
HETATM   22  C   UNK A   1     -11.182  11.214  67.039  1.00  0.00    -0.291 A  
ENDBRANCH  16  17
ENDBRANCH  15  16
ENDBRANCH  11  15
ENDBRANCH   9  11
ENDBRANCH   8   9
BRANCH   8  23
HETATM   23  C   UNK A   1      -6.192  17.641  66.902  1.00  0.00    -0.164 C  
ATOM     24  OXT PRO A   2      -9.369  19.448  69.340  1.00  0.00    -0.203 OA 
HETATM   25  O   UNK A   1      -5.275  17.347  66.133  1.00  0.00    -0.216 OA 
ATOM     26  N   PRO A   2      -6.424  18.967  67.269  1.00  0.00    -0.189 N  
ATOM     27  CD  PRO A   2      -5.617  20.050  66.717  1.00  0.00    -0.170 C  
ATOM     28  O   PRO A   2      -9.042  19.563  67.106  1.00  0.00    -0.293 OA 
ATOM     29  C   PRO A   2      -8.610  19.447  68.384  1.00  0.00    -0.360 C  
ATOM     30  CA  PRO A   2      -7.087  19.403  68.509  1.00  0.00    -0.315 C  
ATOM     31  CB  PRO A   2      -6.550  20.809  68.792  1.00  0.00    -0.045 C  
ATOM     32  CG  PRO A   2      -5.326  20.954  67.898  1.00  0.00    -0.308 C  
ENDBRANCH   8  23
ENDBRANCH   7   8
ENDBRANCH   6   7
ENDBRANCH   5   6
ENDBRANCH   3   5
TORSDOF 10
ENDMDL
MODEL      318
REMARK 921   NORMALIZED FREE ENERGY PREDICTED BY IDOCK:   -2.09 KCAL/MOL
REMARK 922        TOTAL FREE ENERGY PREDICTED BY IDOCK:   -5.27 KCAL/MOL
REMARK 923 INTER-LIGAND FREE ENERGY PREDICTED BY IDOCK:   -3.98 KCAL/MOL
REMARK 924 INTRA-LIGAND FREE ENERGY PREDICTED BY IDOCK:   -1.28 KCAL/MOL
REMARK 927      BINDING AFFINITY PREDICTED BY RF-SCORE:    0.00 PKD
ROOT
HETATM    1  N   UNK A   1     -14.203   8.122  72.306  1.00  0.00    -0.604 NA 
HETATM    2  H2  UNK A   1     -14.181   7.451  73.075  1.00  0.00     0.000 HD 
HETATM    3  C   UNK A   1     -12.929   8.196  71.603  1.00  0.00    -0.331 C  
HETATM    4  H1  UNK A   1     -14.476   9.055  72.617  1.00  0.00     0.000 HD 
ENDROOT
BRANCH   3   5
HETATM    5  C   UNK A   1     -12.521   6.802  71.140  1.00  0.00    -0.351 C  
BRANCH   5   6
HETATM    6  C   UNK A   1     -11.107   6.782  70.546  1.00  0.00    -0.346 C  
BRANCH   6   7
HETATM    7  C   UNK A   1     -10.452   5.428  70.837  1.00  0.00    -0.307 C  
BRANCH   7   8
HETATM    8  C   UNK A   1      -8.925   5.367  70.663  1.00  0.00    -0.143 C  
BRANCH   8   9
HETATM    9  N   UNK A   1      -8.478   4.583  69.471  1.00  0.00    -0.076 NA 
HETATM   10  H   UNK A   1      -8.822   3.625  69.530  1.00  0.00     0.000 HD 
BRANCH   9  11
HETATM   11  C   UNK A   1      -8.843   5.184  68.150  1.00  0.00    -0.102 C  
HETATM   12  C   UNK A   1      -8.127   4.375  67.053  1.00  0.00    -0.101 C  
HETATM   13  O   UNK A   1      -8.513   4.271  65.898  1.00  0.00    -0.112 OA 
HETATM   14  O   UNK A   1      -6.995   3.786  67.511  1.00  0.00    -0.053 OA 
BRANCH  11  15
HETATM   15  C   UNK A   1      -8.419   6.666  68.045  1.00  0.00    -0.116 C  
BRANCH  15  16
HETATM   16  C   UNK A   1      -7.422   6.932  66.904  1.00  0.00    -0.083 C  
BRANCH  16  17
HETATM   17  C   UNK A   1      -7.703   8.223  66.169  1.00  0.00    -0.097 A  
HETATM   18  C   UNK A   1      -8.842   8.344  65.361  1.00  0.00    -0.146 A  
HETATM   19  C   UNK A   1      -8.244  10.616  64.799  1.00  0.00    -0.038 A  
HETATM   20  C   UNK A   1      -9.110   9.534  64.682  1.00  0.00    -0.263 A  
HETATM   21  C   UNK A   1      -7.116  10.516  65.611  1.00  0.00    -0.119 A  
HETATM   22  C   UNK A   1      -6.847   9.329  66.294  1.00  0.00    -0.082 A  
ENDBRANCH  16  17
ENDBRANCH  15  16
ENDBRANCH  11  15
ENDBRANCH   9  11
ENDBRANCH   8   9
BRANCH   8  23
HETATM   23  C   UNK A   1      -8.181   4.802  71.925  1.00  0.00    -0.110 C  
ATOM     24  OXT PRO A   2      -5.752   7.919  70.006  1.00  0.00    -0.023 OA 
HETATM   25  O   UNK A   1      -8.663   3.862  72.560  1.00  0.00    -0.099 OA 
ATOM     26  N   PRO A   2      -6.939   5.337  72.268  1.00  0.00    -0.077 N  
ATOM     27  CD  PRO A   2      -6.153   4.769  73.358  1.00  0.00    -0.029 C  
ATOM     28  O   PRO A   2      -5.410   5.686  70.083  1.00  0.00    -0.004 OA 
ATOM     29  C   PRO A   2      -5.878   6.853  70.586  1.00  0.00    -0.027 C  
ATOM     30  CA  PRO A   2      -6.495   6.710  71.977  1.00  0.00    -0.054 C  
ATOM     31  CB  PRO A   2      -5.446   7.040  73.044  1.00  0.00    -0.038 C  
ATOM     32  CG  PRO A   2      -5.618   5.970  74.114  1.00  0.00    -0.052 C  
ENDBRANCH   8  23
ENDBRANCH   7   8
ENDBRANCH   6   7
ENDBRANCH   5   6
ENDBRANCH   3   5
TORSDOF 10
ENDMDL
MODEL      319
REMARK 921   NORMALIZED FREE ENERGY PREDICTED BY IDOCK:   -2.02 KCAL/MOL
REMARK 922        TOTAL FREE ENERGY PREDICTED BY IDOCK:   -5.16 KCAL/MOL
REMARK 923 INTER-LIGAND FREE ENERGY PREDICTED BY IDOCK:   -4.71 KCAL/MOL
REMARK 924 INTRA-LIGAND FREE ENERGY PREDICTED BY IDOCK:   -0.45 KCAL/MOL
REMARK 927      BINDING AFFINITY PREDICTED BY RF-SCORE:    0.00 PKD
ROOT
HETATM    1  N   UNK A   1      -8.451   5.108  64.671  1.00  0.00    -0.144 NA 
HETATM    2  H2  UNK A   1      -8.298   6.004  64.208  1.00  0.00     0.000 HD 
HETATM    3  C   UNK A   1      -7.513   4.884  65.763  1.00  0.00    -0.078 C  
HETATM    4  H1  UNK A   1      -8.406   4.325  64.017  1.00  0.00     0.000 HD 
ENDROOT
BRANCH   3   5
HETATM    5  C   UNK A   1      -7.580   6.054  66.739  1.00  0.00    -0.095 C  
BRANCH   5   6
HETATM    6  C   UNK A   1      -6.513   5.951  67.837  1.00  0.00    -0.047 C  
BRANCH   6   7
HETATM    7  C   UNK A   1      -7.147   5.380  69.109  1.00  0.00    -0.057 C  
BRANCH   7   8
HETATM    8  C   UNK A   1      -8.676   5.213  69.083  1.00  0.00    -0.092 C  
BRANCH   8   9
HETATM    9  N   UNK A   1      -9.392   5.994  70.138  1.00  0.00    -0.153 NA 
HETATM   10  H   UNK A   1      -9.008   5.780  71.058  1.00  0.00     0.000 HD 
BRANCH   9  11
HETATM   11  C   UNK A   1      -9.416   7.474  69.917  1.00  0.00    -0.160 C  
HETATM   12  C   UNK A   1      -9.424   8.154  71.299  1.00  0.00    -0.159 C  
HETATM   13  O   UNK A   1      -9.002   9.278  71.525  1.00  0.00    -0.316 OA 
HETATM   14  O   UNK A   1      -9.968   7.361  72.254  1.00  0.00    -0.163 OA 
BRANCH  11  15
HETATM   15  C   UNK A   1     -10.661   7.926  69.122  1.00  0.00    -0.130 C  
BRANCH  15  16
HETATM   16  C   UNK A   1     -10.331   8.404  67.698  1.00  0.00    -0.317 C  
BRANCH  16  17
HETATM   17  C   UNK A   1     -10.477   9.899  67.532  1.00  0.00    -0.310 A  
HETATM   18  C   UNK A   1     -10.571  10.463  66.252  1.00  0.00    -0.180 A  
HETATM   19  C   UNK A   1     -10.753  12.676  67.203  1.00  0.00    -0.264 A  
HETATM   20  C   UNK A   1     -10.709  11.843  66.090  1.00  0.00    -0.318 A  
HETATM   21  C   UNK A   1     -10.677  12.129  68.482  1.00  0.00    -0.257 A  
HETATM   22  C   UNK A   1     -10.541  10.750  68.647  1.00  0.00    -0.226 A  
ENDBRANCH  16  17
ENDBRANCH  15  16
ENDBRANCH  11  15
ENDBRANCH   9  11
ENDBRANCH   8   9
BRANCH   8  23
HETATM   23  C   UNK A   1      -9.135   3.714  69.190  1.00  0.00    -0.137 C  
ATOM     24  OXT PRO A   2      -7.792   5.170  73.112  1.00  0.00    -0.099 OA 
HETATM   25  O   UNK A   1      -9.474   3.097  68.179  1.00  0.00    -0.197 OA 
ATOM     26  N   PRO A   2      -9.083   3.083  70.433  1.00  0.00    -0.108 N  
ATOM     27  CD  PRO A   2      -9.383   1.661  70.565  1.00  0.00    -0.105 C  
ATOM     28  O   PRO A   2      -6.800   3.690  71.720  1.00  0.00    -0.025 OA 
ATOM     29  C   PRO A   2      -7.881   4.307  72.252  1.00  0.00    -0.086 C  
ATOM     30  CA  PRO A   2      -9.210   3.758  71.736  1.00  0.00    -0.118 C  
ATOM     31  CB  PRO A   2      -9.741   2.694  72.701  1.00  0.00    -0.190 C  
ATOM     32  CG  PRO A   2     -10.241   1.564  71.811  1.00  0.00    -0.177 C  
ENDBRANCH   8  23
ENDBRANCH   7   8
ENDBRANCH   6   7
ENDBRANCH   5   6
ENDBRANCH   3   5
TORSDOF 10
ENDMDL
MODEL      320
REMARK 921   NORMALIZED FREE ENERGY PREDICTED BY IDOCK:   -2.00 KCAL/MOL
REMARK 922        TOTAL FREE ENERGY PREDICTED BY IDOCK:   -5.13 KCAL/MOL
REMARK 923 INTER-LIGAND FREE ENERGY PREDICTED BY IDOCK:   -5.43 KCAL/MOL
REMARK 924 INTRA-LIGAND FREE ENERGY PREDICTED BY IDOCK:    0.30 KCAL/MOL
REMARK 927      BINDING AFFINITY PREDICTED BY RF-SCORE:    0.00 PKD
ROOT
HETATM    1  N   UNK A   1      -5.137  14.312  69.597  1.00  0.00    -0.091 NA 
HETATM    2  H2  UNK A   1      -4.386  13.636  69.735  1.00  0.00     0.000 HD 
HETATM    3  C   UNK A   1      -5.923  14.027  68.403  1.00  0.00    -0.102 C  
HETATM    4  H1  UNK A   1      -4.790  15.270  69.557  1.00  0.00     0.000 HD 
ENDROOT
BRANCH   3   5
HETATM    5  C   UNK A   1      -6.441  12.594  68.464  1.00  0.00    -0.074 C  
BRANCH   5   6
HETATM    6  C   UNK A   1      -7.825  12.509  69.118  1.00  0.00     0.366 C  
BRANCH   6   7
HETATM    7  C   UNK A   1      -8.848  12.029  68.084  1.00  0.00    -0.182 C  
BRANCH   7   8
HETATM    8  C   UNK A   1     -10.317  12.378  68.377  1.00  0.00    -0.229 C  
BRANCH   8   9
HETATM    9  N   UNK A   1     -10.822  11.844  69.679  1.00  0.00    -0.450 NA 
HETATM   10  H   UNK A   1     -11.410  12.537  70.141  1.00  0.00     0.000 HD 
BRANCH   9  11
HETATM   11  C   UNK A   1     -11.543  10.535  69.584  1.00  0.00    -0.271 C  
HETATM   12  C   UNK A   1     -12.703  10.564  70.598  1.00  0.00    -0.355 C  
HETATM   13  O   UNK A   1     -13.731   9.912  70.500  1.00  0.00    -0.018 OA 
HETATM   14  O   UNK A   1     -12.451  11.400  71.636  1.00  0.00    -0.247 OA 
BRANCH  11  15
HETATM   15  C   UNK A   1     -10.622   9.336  69.902  1.00  0.00    -0.246 C  
BRANCH  15  16
HETATM   16  C   UNK A   1      -9.359   9.734  70.685  1.00  0.00    -0.029 C  
BRANCH  16  17
HETATM   17  C   UNK A   1      -8.298   8.656  70.673  1.00  0.00    -0.157 A  
HETATM   18  C   UNK A   1      -8.578   7.395  70.130  1.00  0.00    -0.139 A  
HETATM   19  C   UNK A   1      -6.339   6.642  70.638  1.00  0.00    -0.040 A  
HETATM   20  C   UNK A   1      -7.603   6.395  70.112  1.00  0.00    -0.096 A  
HETATM   21  C   UNK A   1      -6.042   7.897  71.167  1.00  0.00    -0.034 A  
HETATM   22  C   UNK A   1      -7.013   8.898  71.184  1.00  0.00    -0.089 A  
ENDBRANCH  16  17
ENDBRANCH  15  16
ENDBRANCH  11  15
ENDBRANCH   9  11
ENDBRANCH   8   9
BRANCH   8  23
HETATM   23  C   UNK A   1     -11.301  11.911  67.245  1.00  0.00    -0.329 C  
ATOM     24  OXT PRO A   2      -9.301  15.643  66.071  1.00  0.00    -0.318 OA 
HETATM   25  O   UNK A   1     -12.017  10.923  67.415  1.00  0.00    -0.343 OA 
ATOM     26  N   PRO A   2     -11.394  12.674  66.080  1.00  0.00    -0.312 N  
ATOM     27  CD  PRO A   2     -12.376  12.353  65.051  1.00  0.00    -0.369 C  
ATOM     28  O   PRO A   2     -11.457  15.300  66.659  1.00  0.00    -0.250 OA 
ATOM     29  C   PRO A   2     -10.276  14.910  66.123  1.00  0.00    -0.300 C  
ATOM     30  CA  PRO A   2     -10.316  13.506  65.520  1.00  0.00    -0.300 C  
ATOM     31  CB  PRO A   2     -10.604  13.597  64.018  1.00  0.00     0.127 C  
ATOM     32  CG  PRO A   2     -11.624  12.501  63.742  1.00  0.00    -0.552 C  
ENDBRANCH   8  23
ENDBRANCH   7   8
ENDBRANCH   6   7
ENDBRANCH   5   6
ENDBRANCH   3   5
TORSDOF 10
ENDMDL
MODEL      321
REMARK 921   NORMALIZED FREE ENERGY PREDICTED BY IDOCK:   -1.96 KCAL/MOL
REMARK 922        TOTAL FREE ENERGY PREDICTED BY IDOCK:   -5.05 KCAL/MOL
REMARK 923 INTER-LIGAND FREE ENERGY PREDICTED BY IDOCK:   -4.94 KCAL/MOL
REMARK 924 INTRA-LIGAND FREE ENERGY PREDICTED BY IDOCK:   -0.11 KCAL/MOL
REMARK 927      BINDING AFFINITY PREDICTED BY RF-SCORE:    0.00 PKD
ROOT
HETATM    1  N   UNK A   1     -10.674   5.170  65.739  1.00  0.00    -0.621 NA 
HETATM    2  H2  UNK A   1      -9.825   5.274  65.183  1.00  0.00     0.000 HD 
HETATM    3  C   UNK A   1     -10.534   5.744  67.072  1.00  0.00    -0.280 C  
HETATM    4  H1  UNK A   1     -10.966   4.195  65.817  1.00  0.00     0.000 HD 
ENDROOT
BRANCH   3   5
HETATM    5  C   UNK A   1     -10.098   7.200  66.955  1.00  0.00    -0.308 C  
BRANCH   5   6
HETATM    6  C   UNK A   1     -10.837   8.104  67.950  1.00  0.00    -0.038 C  
BRANCH   6   7
HETATM    7  C   UNK A   1     -10.034   9.392  68.159  1.00  0.00    -0.202 C  
BRANCH   7   8
HETATM    8  C   UNK A   1     -10.459  10.264  69.353  1.00  0.00    -0.236 C  
BRANCH   8   9
HETATM    9  N   UNK A   1      -9.729  11.565  69.449  1.00  0.00    -0.291 NA 
HETATM   10  H   UNK A   1      -8.738  11.401  69.631  1.00  0.00     0.000 HD 
BRANCH   9  11
HETATM   11  C   UNK A   1      -9.896  12.468  68.267  1.00  0.00    -0.227 C  
HETATM   12  C   UNK A   1      -8.554  13.185  68.031  1.00  0.00    -0.182 C  
HETATM   13  O   UNK A   1      -8.176  13.622  66.955  1.00  0.00    -0.094 OA 
HETATM   14  O   UNK A   1      -7.826  13.290  69.171  1.00  0.00     0.138 OA 
BRANCH  11  15
HETATM   15  C   UNK A   1     -11.002  13.523  68.491  1.00  0.00    -0.291 C  
BRANCH  15  16
HETATM   16  C   UNK A   1     -10.792  14.362  69.763  1.00  0.00    -0.087 C  
BRANCH  16  17
HETATM   17  C   UNK A   1     -11.917  14.205  70.761  1.00  0.00    -0.377 A  
HETATM   18  C   UNK A   1     -12.594  12.983  70.877  1.00  0.00    -0.364 A  
HETATM   19  C   UNK A   1     -14.006  13.893  72.613  1.00  0.00    -0.428 A  
HETATM   20  C   UNK A   1     -13.631  12.829  71.799  1.00  0.00    -0.214 A  
HETATM   21  C   UNK A   1     -13.332  15.109  72.520  1.00  0.00    -0.540 A  
HETATM   22  C   UNK A   1     -12.293  15.265  71.602  1.00  0.00    -0.432 A  
ENDBRANCH  16  17
ENDBRANCH  15  16
ENDBRANCH  11  15
ENDBRANCH   9  11
ENDBRANCH   8   9
BRANCH   8  23
HETATM   23  C   UNK A   1     -10.325   9.527  70.734  1.00  0.00    -0.306 C  
ATOM     24  OXT PRO A   2      -6.374   9.973  68.867  1.00  0.00    -0.044 OA 
HETATM   25  O   UNK A   1     -11.333   9.235  71.381  1.00  0.00    -0.307 OA 
ATOM     26  N   PRO A   2      -9.056   9.152  71.175  1.00  0.00    -0.236 N  
ATOM     27  CD  PRO A   2      -8.887   8.361  72.389  1.00  0.00    -0.224 C  
ATOM     28  O   PRO A   2      -7.614   8.106  69.159  1.00  0.00    -0.092 OA 
ATOM     29  C   PRO A   2      -7.199   9.346  69.511  1.00  0.00    -0.067 C  
ATOM     30  CA  PRO A   2      -7.799   9.836  70.829  1.00  0.00     0.191 C  
ATOM     31  CB  PRO A   2      -6.835   9.534  71.980  1.00  0.00     0.587 C  
ATOM     32  CG  PRO A   2      -7.713   9.000  73.104  1.00  0.00     0.632 C  
ENDBRANCH   8  23
ENDBRANCH   7   8
ENDBRANCH   6   7
ENDBRANCH   5   6
ENDBRANCH   3   5
TORSDOF 10
ENDMDL
MODEL      322
REMARK 921   NORMALIZED FREE ENERGY PREDICTED BY IDOCK:   -1.93 KCAL/MOL
REMARK 922        TOTAL FREE ENERGY PREDICTED BY IDOCK:   -5.01 KCAL/MOL
REMARK 923 INTER-LIGAND FREE ENERGY PREDICTED BY IDOCK:   -3.43 KCAL/MOL
REMARK 924 INTRA-LIGAND FREE ENERGY PREDICTED BY IDOCK:   -1.57 KCAL/MOL
REMARK 927      BINDING AFFINITY PREDICTED BY RF-SCORE:    0.00 PKD
ROOT
HETATM    1  N   UNK A   1      -8.862   7.851  73.767  1.00  0.00    -0.269 NA 
HETATM    2  H2  UNK A   1      -9.174   7.938  72.800  1.00  0.00     0.000 HD 
HETATM    3  C   UNK A   1      -7.415   7.713  73.869  1.00  0.00    -0.123 C  
HETATM    4  H1  UNK A   1      -9.313   7.072  74.249  1.00  0.00     0.000 HD 
ENDROOT
BRANCH   3   5
HETATM    5  C   UNK A   1      -6.740   8.876  73.150  1.00  0.00     0.158 C  
BRANCH   5   6
HETATM    6  C   UNK A   1      -6.346   8.514  71.712  1.00  0.00    -0.067 C  
BRANCH   6   7
HETATM    7  C   UNK A   1      -7.282   9.229  70.733  1.00  0.00    -0.126 C  
BRANCH   7   8
HETATM    8  C   UNK A   1      -8.278   8.332  69.977  1.00  0.00    -0.119 C  
BRANCH   8   9
HETATM    9  N   UNK A   1      -9.510   7.998  70.756  1.00  0.00    -0.161 NA 
HETATM   10  H   UNK A   1      -9.264   7.727  71.708  1.00  0.00     0.000 HD 
BRANCH   9  11
HETATM   11  C   UNK A   1     -10.551   9.074  70.778  1.00  0.00    -0.240 C  
HETATM   12  C   UNK A   1     -11.928   8.396  70.655  1.00  0.00    -0.026 C  
HETATM   13  O   UNK A   1     -12.976   8.865  71.073  1.00  0.00    -0.169 OA 
HETATM   14  O   UNK A   1     -11.854   7.204  70.012  1.00  0.00    -0.129 OA 
BRANCH  11  15
HETATM   15  C   UNK A   1     -10.375  10.080  69.618  1.00  0.00    -0.274 C  
BRANCH  15  16
HETATM   16  C   UNK A   1     -10.842  11.502  69.973  1.00  0.00     0.325 C  
BRANCH  16  17
HETATM   17  C   UNK A   1     -10.776  12.452  68.798  1.00  0.00    -0.242 A  
HETATM   18  C   UNK A   1     -10.613  13.827  69.010  1.00  0.00    -0.161 A  
HETATM   19  C   UNK A   1     -10.647  14.232  66.628  1.00  0.00    -0.278 A  
HETATM   20  C   UNK A   1     -10.548  14.711  67.931  1.00  0.00    -0.244 A  
HETATM   21  C   UNK A   1     -10.794  12.865  66.402  1.00  0.00    -0.293 A  
HETATM   22  C   UNK A   1     -10.857  11.979  67.479  1.00  0.00    -0.284 A  
ENDBRANCH  16  17
ENDBRANCH  15  16
ENDBRANCH  11  15
ENDBRANCH   9  11
ENDBRANCH   8   9
BRANCH   8  23
HETATM   23  C   UNK A   1      -7.640   6.988  69.474  1.00  0.00    -0.098 C  
ATOM     24  OXT PRO A   2      -7.273  10.089  66.384  1.00  0.00    -0.096 OA 
HETATM   25  O   UNK A   1      -7.711   5.971  70.167  1.00  0.00    -0.092 OA 
ATOM     26  N   PRO A   2      -7.059   6.954  68.207  1.00  0.00    -0.083 N  
ATOM     27  CD  PRO A   2      -6.560   5.704  67.644  1.00  0.00    -0.053 C  
ATOM     28  O   PRO A   2      -8.590   8.252  66.416  1.00  0.00    -0.121 OA 
ATOM     29  C   PRO A   2      -7.469   8.938  66.742  1.00  0.00    -0.083 C  
ATOM     30  CA  PRO A   2      -6.451   8.106  67.519  1.00  0.00    -0.057 C  
ATOM     31  CB  PRO A   2      -5.422   7.512  66.552  1.00  0.00    -0.024 C  
ATOM     32  CG  PRO A   2      -5.233   6.071  67.008  1.00  0.00    -0.005 C  
ENDBRANCH   8  23
ENDBRANCH   7   8
ENDBRANCH   6   7
ENDBRANCH   5   6
ENDBRANCH   3   5
TORSDOF 10
ENDMDL
MODEL      323
REMARK 921   NORMALIZED FREE ENERGY PREDICTED BY IDOCK:   -1.90 KCAL/MOL
REMARK 922        TOTAL FREE ENERGY PREDICTED BY IDOCK:   -4.96 KCAL/MOL
REMARK 923 INTER-LIGAND FREE ENERGY PREDICTED BY IDOCK:   -3.59 KCAL/MOL
REMARK 924 INTRA-LIGAND FREE ENERGY PREDICTED BY IDOCK:   -1.38 KCAL/MOL
REMARK 927      BINDING AFFINITY PREDICTED BY RF-SCORE:    0.00 PKD
ROOT
HETATM    1  N   UNK A   1      -8.251   7.270  62.880  1.00  0.00    -0.336 NA 
HETATM    2  H2  UNK A   1      -7.589   7.655  62.206  1.00  0.00     0.000 HD 
HETATM    3  C   UNK A   1      -7.743   7.328  64.245  1.00  0.00    -0.124 C  
HETATM    4  H1  UNK A   1      -8.515   6.311  62.655  1.00  0.00     0.000 HD 
ENDROOT
BRANCH   3   5
HETATM    5  C   UNK A   1      -7.348   8.761  64.581  1.00  0.00    -0.098 C  
BRANCH   5   6
HETATM    6  C   UNK A   1      -6.018   8.829  65.343  1.00  0.00    -0.048 C  
BRANCH   6   7
HETATM    7  C   UNK A   1      -6.233   9.552  66.676  1.00  0.00    -0.065 C  
BRANCH   7   8
HETATM    8  C   UNK A   1      -7.215   8.884  67.654  1.00  0.00    -0.080 C  
BRANCH   8   9
HETATM    9  N   UNK A   1      -8.337   9.771  68.091  1.00  0.00    -0.110 NA 
HETATM   10  H   UNK A   1      -8.537  10.468  67.374  1.00  0.00     0.000 HD 
BRANCH   9  11
HETATM   11  C   UNK A   1      -9.592   9.052  68.478  1.00  0.00    -0.153 C  
HETATM   12  C   UNK A   1     -10.396   8.787  67.191  1.00  0.00    -0.293 C  
HETATM   13  O   UNK A   1     -11.198   7.876  67.045  1.00  0.00     0.134 OA 
HETATM   14  O   UNK A   1     -10.120   9.695  66.223  1.00  0.00    -0.258 OA 
BRANCH  11  15
HETATM   15  C   UNK A   1     -10.458   9.874  69.457  1.00  0.00    -0.261 C  
BRANCH  15  16
HETATM   16  C   UNK A   1     -11.759   9.160  69.862  1.00  0.00     0.219 C  
BRANCH  16  17
HETATM   17  C   UNK A   1     -11.591   8.282  71.082  1.00  0.00    -0.310 A  
HETATM   18  C   UNK A   1     -10.817   8.719  72.166  1.00  0.00    -0.400 A  
HETATM   19  C   UNK A   1     -11.269   6.667  73.358  1.00  0.00     0.061 A  
HETATM   20  C   UNK A   1     -10.660   7.916  73.297  1.00  0.00    -0.239 A  
HETATM   21  C   UNK A   1     -12.053   6.226  72.294  1.00  0.00    -0.255 A  
HETATM   22  C   UNK A   1     -12.215   7.028  71.163  1.00  0.00    -0.427 A  
ENDBRANCH  16  17
ENDBRANCH  15  16
ENDBRANCH  11  15
ENDBRANCH   9  11
ENDBRANCH   8   9
BRANCH   8  23
HETATM   23  C   UNK A   1      -6.516   8.313  68.939  1.00  0.00    -0.052 C  
ATOM     24  OXT PRO A   2      -8.188   5.034  66.540  1.00  0.00    -0.108 OA 
HETATM   25  O   UNK A   1      -6.051   9.080  69.784  1.00  0.00    -0.037 OA 
ATOM     26  N   PRO A   2      -6.495   6.932  69.134  1.00  0.00    -0.042 N  
ATOM     27  CD  PRO A   2      -5.965   6.357  70.366  1.00  0.00    -0.023 C  
ATOM     28  O   PRO A   2      -8.881   5.845  68.534  1.00  0.00    -0.112 OA 
ATOM     29  C   PRO A   2      -7.933   5.571  67.607  1.00  0.00    -0.101 C  
ATOM     30  CA  PRO A   2      -6.517   5.921  68.064  1.00  0.00    -0.043 C  
ATOM     31  CB  PRO A   2      -5.843   4.680  68.655  1.00  0.00    -0.025 C  
ATOM     32  CG  PRO A   2      -5.136   5.171  69.912  1.00  0.00    -0.003 C  
ENDBRANCH   8  23
ENDBRANCH   7   8
ENDBRANCH   6   7
ENDBRANCH   5   6
ENDBRANCH   3   5
TORSDOF 10
ENDMDL
MODEL      324
REMARK 921   NORMALIZED FREE ENERGY PREDICTED BY IDOCK:   -1.78 KCAL/MOL
REMARK 922        TOTAL FREE ENERGY PREDICTED BY IDOCK:   -4.77 KCAL/MOL
REMARK 923 INTER-LIGAND FREE ENERGY PREDICTED BY IDOCK:   -6.46 KCAL/MOL
REMARK 924 INTRA-LIGAND FREE ENERGY PREDICTED BY IDOCK:    1.68 KCAL/MOL
REMARK 927      BINDING AFFINITY PREDICTED BY RF-SCORE:    0.00 PKD
ROOT
HETATM    1  N   UNK A   1     -11.120  12.305  63.727  1.00  0.00    -0.402 NA 
HETATM    2  H2  UNK A   1     -10.269  12.126  64.260  1.00  0.00     0.000 HD 
HETATM    3  C   UNK A   1     -12.091  13.085  64.484  1.00  0.00    -0.410 C  
HETATM    4  H1  UNK A   1     -11.557  11.443  63.398  1.00  0.00     0.000 HD 
ENDROOT
BRANCH   3   5
HETATM    5  C   UNK A   1     -11.438  14.372  64.974  1.00  0.00    -0.372 C  
BRANCH   5   6
HETATM    6  C   UNK A   1     -11.942  14.781  66.364  1.00  0.00    -0.179 C  
BRANCH   6   7
HETATM    7  C   UNK A   1     -10.756  14.869  67.329  1.00  0.00    -0.294 C  
BRANCH   7   8
HETATM    8  C   UNK A   1      -9.627  13.848  67.103  1.00  0.00    -0.247 C  
BRANCH   8   9
HETATM    9  N   UNK A   1      -9.943  12.471  67.590  1.00  0.00    -0.198 NA 
HETATM   10  H   UNK A   1     -10.631  12.030  66.979  1.00  0.00     0.000 HD 
BRANCH   9  11
HETATM   11  C   UNK A   1      -8.755  11.577  67.763  1.00  0.00    -0.142 C  
HETATM   12  C   UNK A   1      -8.618  10.728  66.485  1.00  0.00    -0.150 C  
HETATM   13  O   UNK A   1      -7.572  10.245  66.077  1.00  0.00    -0.115 OA 
HETATM   14  O   UNK A   1      -9.807  10.562  65.853  1.00  0.00    -0.210 OA 
BRANCH  11  15
HETATM   15  C   UNK A   1      -8.902  10.639  68.981  1.00  0.00    -0.154 C  
BRANCH  15  16
HETATM   16  C   UNK A   1     -10.356  10.487  69.457  1.00  0.00    -0.251 C  
BRANCH  16  17
HETATM   17  C   UNK A   1     -10.520   9.415  70.511  1.00  0.00    -0.335 A  
HETATM   18  C   UNK A   1     -11.735   9.275  71.194  1.00  0.00    -0.394 A  
HETATM   19  C   UNK A   1     -10.844   7.428  72.471  1.00  0.00    -0.327 A  
HETATM   20  C   UNK A   1     -11.896   8.285  72.166  1.00  0.00    -0.431 A  
HETATM   21  C   UNK A   1      -9.634   7.546  71.789  1.00  0.00    -0.178 A  
HETATM   22  C   UNK A   1      -9.472   8.531  70.815  1.00  0.00    -0.213 A  
ENDBRANCH  16  17
ENDBRANCH  15  16
ENDBRANCH  11  15
ENDBRANCH   9  11
ENDBRANCH   8   9
BRANCH   8  23
HETATM   23  C   UNK A   1      -8.260  14.289  67.740  1.00  0.00    -0.174 C  
ATOM     24  OXT PRO A   2     -10.317  17.766  66.015  1.00  0.00    -0.442 OA 
HETATM   25  O   UNK A   1      -7.495  13.444  68.209  1.00  0.00    -0.109 OA 
ATOM     26  N   PRO A   2      -7.905  15.637  67.701  1.00  0.00    -0.143 N  
ATOM     27  CD  PRO A   2      -6.596  16.081  68.170  1.00  0.00    -0.122 C  
ATOM     28  O   PRO A   2      -8.457  16.703  65.294  1.00  0.00     0.515 OA 
ATOM     29  C   PRO A   2      -9.313  17.117  66.259  1.00  0.00    -0.234 C  
ATOM     30  CA  PRO A   2      -8.850  16.765  67.672  1.00  0.00    -0.205 C  
ATOM     31  CB  PRO A   2      -8.095  17.952  68.279  1.00  0.00    -0.294 C  
ATOM     32  CG  PRO A   2      -6.880  17.341  68.965  1.00  0.00    -0.245 C  
ENDBRANCH   8  23
ENDBRANCH   7   8
ENDBRANCH   6   7
ENDBRANCH   5   6
ENDBRANCH   3   5
TORSDOF 10
ENDMDL
MODEL      325
REMARK 921   NORMALIZED FREE ENERGY PREDICTED BY IDOCK:   -1.72 KCAL/MOL
REMARK 922        TOTAL FREE ENERGY PREDICTED BY IDOCK:   -4.69 KCAL/MOL
REMARK 923 INTER-LIGAND FREE ENERGY PREDICTED BY IDOCK:   -4.75 KCAL/MOL
REMARK 924 INTRA-LIGAND FREE ENERGY PREDICTED BY IDOCK:    0.07 KCAL/MOL
REMARK 927      BINDING AFFINITY PREDICTED BY RF-SCORE:    0.00 PKD
ROOT
HETATM    1  N   UNK A   1     -13.114  12.177  64.416  1.00  0.00    -0.713 NA 
HETATM    2  H2  UNK A   1     -12.810  13.044  64.860  1.00  0.00     0.000 HD 
HETATM    3  C   UNK A   1     -12.244  11.788  63.313  1.00  0.00    -0.285 C  
HETATM    4  H1  UNK A   1     -14.079  12.231  64.086  1.00  0.00     0.000 HD 
ENDROOT
BRANCH   3   5
HETATM    5  C   UNK A   1     -10.804  11.707  63.806  1.00  0.00    -0.493 C  
BRANCH   5   6
HETATM    6  C   UNK A   1     -10.532  10.414  64.584  1.00  0.00    -0.047 C  
BRANCH   6   7
HETATM    7  C   UNK A   1      -9.057  10.368  64.995  1.00  0.00    -0.237 C  
BRANCH   7   8
HETATM    8  C   UNK A   1      -8.701   9.380  66.119  1.00  0.00    -0.147 C  
BRANCH   8   9
HETATM    9  N   UNK A   1      -8.135   8.084  65.635  1.00  0.00    -0.114 NA 
HETATM   10  H   UNK A   1      -7.666   8.216  64.739  1.00  0.00     0.000 HD 
BRANCH   9  11
HETATM   11  C   UNK A   1      -7.221   7.397  66.602  1.00  0.00    -0.080 C  
HETATM   12  C   UNK A   1      -6.827   6.040  65.991  1.00  0.00    -0.061 C  
HETATM   13  O   UNK A   1      -5.798   5.432  66.246  1.00  0.00    -0.017 OA 
HETATM   14  O   UNK A   1      -7.767   5.577  65.129  1.00  0.00    -0.084 OA 
BRANCH  11  15
HETATM   15  C   UNK A   1      -7.893   7.160  67.972  1.00  0.00    -0.118 C  
BRANCH  15  16
HETATM   16  C   UNK A   1      -7.476   5.834  68.630  1.00  0.00    -0.085 C  
BRANCH  16  17
HETATM   17  C   UNK A   1      -7.166   5.981  70.103  1.00  0.00    -0.076 A  
HETATM   18  C   UNK A   1      -6.614   7.172  70.593  1.00  0.00    -0.048 A  
HETATM   19  C   UNK A   1      -6.587   6.276  72.836  1.00  0.00    -0.065 A  
HETATM   20  C   UNK A   1      -6.328   7.318  71.952  1.00  0.00    -0.040 A  
HETATM   21  C   UNK A   1      -7.149   5.091  72.366  1.00  0.00    -0.084 A  
HETATM   22  C   UNK A   1      -7.439   4.944  71.009  1.00  0.00    -0.073 A  
ENDBRANCH  16  17
ENDBRANCH  15  16
ENDBRANCH  11  15
ENDBRANCH   9  11
ENDBRANCH   8   9
BRANCH   8  23
HETATM   23  C   UNK A   1      -9.913   9.060  67.065  1.00  0.00    -0.230 C  
ATOM     24  OXT PRO A   2      -7.873  12.714  68.402  1.00  0.00    -0.136 OA 
HETATM   25  O   UNK A   1     -10.568   8.029  66.905  1.00  0.00    -0.338 OA 
ATOM     26  N   PRO A   2     -10.185   9.926  68.125  1.00  0.00    -0.170 N  
ATOM     27  CD  PRO A   2     -11.221   9.612  69.103  1.00  0.00    -0.019 C  
ATOM     28  O   PRO A   2      -7.914  10.668  69.361  1.00  0.00    -0.154 OA 
ATOM     29  C   PRO A   2      -8.453  11.661  68.615  1.00  0.00    -0.094 C  
ATOM     30  CA  PRO A   2      -9.877  11.365  68.147  1.00  0.00    -0.191 C  
ATOM     31  CB  PRO A   2     -10.881  11.987  69.122  1.00  0.00    -0.175 C  
ATOM     32  CG  PRO A   2     -11.952  10.923  69.322  1.00  0.00    -0.382 C  
ENDBRANCH   8  23
ENDBRANCH   7   8
ENDBRANCH   6   7
ENDBRANCH   5   6
ENDBRANCH   3   5
TORSDOF 10
ENDMDL
MODEL      326
REMARK 921   NORMALIZED FREE ENERGY PREDICTED BY IDOCK:   -1.70 KCAL/MOL
REMARK 922        TOTAL FREE ENERGY PREDICTED BY IDOCK:   -4.65 KCAL/MOL
REMARK 923 INTER-LIGAND FREE ENERGY PREDICTED BY IDOCK:   -5.91 KCAL/MOL
REMARK 924 INTRA-LIGAND FREE ENERGY PREDICTED BY IDOCK:    1.27 KCAL/MOL
REMARK 927      BINDING AFFINITY PREDICTED BY RF-SCORE:    0.00 PKD
ROOT
HETATM    1  N   UNK A   1     -11.167   9.455  70.639  1.00  0.00    -0.265 NA 
HETATM    2  H2  UNK A   1     -11.025   9.024  69.725  1.00  0.00     0.000 HD 
HETATM    3  C   UNK A   1     -10.479   8.734  71.702  1.00  0.00    -0.317 C  
HETATM    4  H1  UNK A   1     -12.156   9.546  70.873  1.00  0.00     0.000 HD 
ENDROOT
BRANCH   3   5
HETATM    5  C   UNK A   1      -9.001   8.599  71.352  1.00  0.00    -0.286 C  
BRANCH   5   6
HETATM    6  C   UNK A   1      -8.628   9.406  70.103  1.00  0.00    -0.233 C  
BRANCH   6   7
HETATM    7  C   UNK A   1      -8.034   8.467  69.049  1.00  0.00    -0.111 C  
BRANCH   7   8
HETATM    8  C   UNK A   1      -9.040   7.806  68.091  1.00  0.00    -0.129 C  
BRANCH   8   9
HETATM    9  N   UNK A   1     -10.049   8.750  67.520  1.00  0.00    -0.205 NA 
HETATM   10  H   UNK A   1     -10.336   9.429  68.225  1.00  0.00     0.000 HD 
BRANCH   9  11
HETATM   11  C   UNK A   1      -9.615   9.453  66.271  1.00  0.00    -0.234 C  
HETATM   12  C   UNK A   1      -8.713   8.487  65.480  1.00  0.00    -0.174 C  
HETATM   13  O   UNK A   1      -8.551   8.518  64.269  1.00  0.00    -0.108 OA 
HETATM   14  O   UNK A   1      -8.098   7.587  66.287  1.00  0.00    -0.104 OA 
BRANCH  11  15
HETATM   15  C   UNK A   1      -8.829  10.748  66.572  1.00  0.00    -0.162 C  
BRANCH  15  16
HETATM   16  C   UNK A   1      -9.654  11.792  67.345  1.00  0.00    -0.173 C  
BRANCH  16  17
HETATM   17  C   UNK A   1     -10.438  12.710  66.435  1.00  0.00    -0.267 A  
HETATM   18  C   UNK A   1     -11.839  12.709  66.466  1.00  0.00    -0.463 A  
HETATM   19  C   UNK A   1     -11.913  14.412  64.754  1.00  0.00    -0.455 A  
HETATM   20  C   UNK A   1     -12.571  13.556  65.631  1.00  0.00    -0.512 A  
HETATM   21  C   UNK A   1     -10.520  14.436  64.724  1.00  0.00    -0.394 A  
HETATM   22  C   UNK A   1      -9.786  13.592  65.559  1.00  0.00    -0.175 A  
ENDBRANCH  16  17
ENDBRANCH  15  16
ENDBRANCH  11  15
ENDBRANCH   9  11
ENDBRANCH   8   9
BRANCH   8  23
HETATM   23  C   UNK A   1      -9.813   6.603  68.742  1.00  0.00    -0.138 C  
ATOM     24  OXT PRO A   2      -5.537   5.651  68.401  1.00  0.00    -0.007 OA 
HETATM   25  O   UNK A   1     -11.039   6.642  68.853  1.00  0.00    -0.272 OA 
ATOM     26  N   PRO A   2      -9.092   5.470  69.123  1.00  0.00    -0.107 N  
ATOM     27  CD  PRO A   2      -9.775   4.280  69.620  1.00  0.00    -0.214 C  
ATOM     28  O   PRO A   2      -7.286   4.807  67.244  1.00  0.00    -0.075 OA 
ATOM     29  C   PRO A   2      -6.719   5.349  68.347  1.00  0.00    -0.054 C  
ATOM     30  CA  PRO A   2      -7.678   5.459  69.531  1.00  0.00    -0.077 C  
ATOM     31  CB  PRO A   2      -7.521   4.237  70.441  1.00  0.00    -0.045 C  
ATOM     32  CG  PRO A   2      -8.942   3.825  70.803  1.00  0.00    -0.157 C  
ENDBRANCH   8  23
ENDBRANCH   7   8
ENDBRANCH   6   7
ENDBRANCH   5   6
ENDBRANCH   3   5
TORSDOF 10
ENDMDL
MODEL      327
REMARK 921   NORMALIZED FREE ENERGY PREDICTED BY IDOCK:   -1.63 KCAL/MOL
REMARK 922        TOTAL FREE ENERGY PREDICTED BY IDOCK:   -4.55 KCAL/MOL
REMARK 923 INTER-LIGAND FREE ENERGY PREDICTED BY IDOCK:   -3.77 KCAL/MOL
REMARK 924 INTRA-LIGAND FREE ENERGY PREDICTED BY IDOCK:   -0.78 KCAL/MOL
REMARK 927      BINDING AFFINITY PREDICTED BY RF-SCORE:    0.00 PKD
ROOT
HETATM    1  N   UNK A   1      -9.018   8.239  62.333  1.00  0.00    -0.397 NA 
HETATM    2  H2  UNK A   1      -8.444   8.519  61.537  1.00  0.00     0.000 HD 
HETATM    3  C   UNK A   1      -8.326   8.419  63.602  1.00  0.00    -0.045 C  
HETATM    4  H1  UNK A   1      -9.341   7.274  62.254  1.00  0.00     0.000 HD 
ENDROOT
BRANCH   3   5
HETATM    5  C   UNK A   1      -7.843   9.861  63.719  1.00  0.00    -0.147 C  
BRANCH   5   6
HETATM    6  C   UNK A   1      -6.384   9.945  64.183  1.00  0.00    -0.126 C  
BRANCH   6   7
HETATM    7  C   UNK A   1      -6.291  10.862  65.406  1.00  0.00     0.102 C  
BRANCH   7   8
HETATM    8  C   UNK A   1      -7.046  10.391  66.660  1.00  0.00    -0.112 C  
BRANCH   8   9
HETATM    9  N   UNK A   1      -7.316   8.921  66.693  1.00  0.00    -0.085 NA 
HETATM   10  H   UNK A   1      -6.616   8.421  66.145  1.00  0.00     0.000 HD 
BRANCH   9  11
HETATM   11  C   UNK A   1      -7.416   8.331  68.066  1.00  0.00    -0.097 C  
HETATM   12  C   UNK A   1      -5.990   7.976  68.529  1.00  0.00    -0.040 C  
HETATM   13  O   UNK A   1      -5.632   7.909  69.695  1.00  0.00    -0.023 OA 
HETATM   14  O   UNK A   1      -5.162   7.732  67.484  1.00  0.00    -0.028 OA 
BRANCH  11  15
HETATM   15  C   UNK A   1      -8.289   7.057  68.092  1.00  0.00    -0.123 C  
BRANCH  15  16
HETATM   16  C   UNK A   1      -8.390   6.420  69.488  1.00  0.00    -0.126 C  
BRANCH  16  17
HETATM   17  C   UNK A   1      -9.419   7.095  70.368  1.00  0.00    -0.162 A  
HETATM   18  C   UNK A   1      -9.020   8.042  71.322  1.00  0.00    -0.166 A  
HETATM   19  C   UNK A   1     -11.314   8.363  72.010  1.00  0.00    -0.411 A  
HETATM   20  C   UNK A   1      -9.964   8.672  72.136  1.00  0.00    -0.386 A  
HETATM   21  C   UNK A   1     -11.726   7.435  71.055  1.00  0.00    -0.326 A  
HETATM   22  C   UNK A   1     -10.786   6.806  70.238  1.00  0.00    -0.314 A  
ENDBRANCH  16  17
ENDBRANCH  15  16
ENDBRANCH  11  15
ENDBRANCH   9  11
ENDBRANCH   8   9
BRANCH   8  23
HETATM   23  C   UNK A   1      -8.409  11.141  66.879  1.00  0.00    -0.147 C  
ATOM     24  OXT PRO A   2      -5.576  12.186  70.070  1.00  0.00    -0.095 OA 
HETATM   25  O   UNK A   1      -9.364  10.921  66.132  1.00  0.00    -0.175 OA 
ATOM     26  N   PRO A   2      -8.534  12.002  67.970  1.00  0.00    -0.160 N  
ATOM     27  CD  PRO A   2      -9.812  12.630  68.287  1.00  0.00    -0.227 C  
ATOM     28  O   PRO A   2      -7.443  10.916  70.175  1.00  0.00    -0.004 OA 
ATOM     29  C   PRO A   2      -6.697  11.924  69.664  1.00  0.00    -0.009 C  
ATOM     30  CA  PRO A   2      -7.428  12.742  68.601  1.00  0.00    -0.092 C  
ATOM     31  CB  PRO A   2      -8.071  13.973  69.246  1.00  0.00     0.293 C  
ATOM     32  CG  PRO A   2      -9.462  14.064  68.631  1.00  0.00    -0.142 C  
ENDBRANCH   8  23
ENDBRANCH   7   8
ENDBRANCH   6   7
ENDBRANCH   5   6
ENDBRANCH   3   5
TORSDOF 10
ENDMDL
MODEL      328
REMARK 921   NORMALIZED FREE ENERGY PREDICTED BY IDOCK:   -1.58 KCAL/MOL
REMARK 922        TOTAL FREE ENERGY PREDICTED BY IDOCK:   -4.46 KCAL/MOL
REMARK 923 INTER-LIGAND FREE ENERGY PREDICTED BY IDOCK:   -5.10 KCAL/MOL
REMARK 924 INTRA-LIGAND FREE ENERGY PREDICTED BY IDOCK:    0.64 KCAL/MOL
REMARK 927      BINDING AFFINITY PREDICTED BY RF-SCORE:    0.00 PKD
ROOT
HETATM    1  N   UNK A   1      -9.567   8.655  69.513  1.00  0.00    -0.168 NA 
HETATM    2  H2  UNK A   1      -9.415   8.267  70.444  1.00  0.00     0.000 HD 
HETATM    3  C   UNK A   1      -9.224  10.069  69.442  1.00  0.00    -0.216 C  
HETATM    4  H1  UNK A   1     -10.527   8.520  69.193  1.00  0.00     0.000 HD 
ENDROOT
BRANCH   3   5
HETATM    5  C   UNK A   1      -7.791  10.271  69.921  1.00  0.00    -0.119 C  
BRANCH   5   6
HETATM    6  C   UNK A   1      -7.247  11.655  69.546  1.00  0.00     0.112 C  
BRANCH   6   7
HETATM    7  C   UNK A   1      -8.276  12.388  68.681  1.00  0.00    -0.002 C  
BRANCH   7   8
HETATM    8  C   UNK A   1      -7.752  12.959  67.351  1.00  0.00    -0.159 C  
BRANCH   8   9
HETATM    9  N   UNK A   1      -6.821  14.117  67.509  1.00  0.00    -0.220 NA 
HETATM   10  H   UNK A   1      -6.253  14.231  66.670  1.00  0.00     0.000 HD 
BRANCH   9  11
HETATM   11  C   UNK A   1      -7.482  15.411  67.867  1.00  0.00    -0.140 C  
HETATM   12  C   UNK A   1      -6.413  16.518  67.804  1.00  0.00    -0.143 C  
HETATM   13  O   UNK A   1      -6.642  17.699  67.590  1.00  0.00    -0.168 OA 
HETATM   14  O   UNK A   1      -5.165  16.033  68.024  1.00  0.00    -0.104 OA 
BRANCH  11  15
HETATM   15  C   UNK A   1      -8.097  15.381  69.284  1.00  0.00    -0.246 C  
BRANCH  15  16
HETATM   16  C   UNK A   1      -9.561  15.850  69.320  1.00  0.00    -0.266 C  
BRANCH  16  17
HETATM   17  C   UNK A   1      -9.792  17.113  68.521  1.00  0.00    -0.297 A  
HETATM   18  C   UNK A   1      -9.500  18.365  69.079  1.00  0.00    -0.163 A  
HETATM   19  C   UNK A   1     -10.211  19.471  67.052  1.00  0.00    -0.540 A  
HETATM   20  C   UNK A   1      -9.707  19.536  68.347  1.00  0.00    -0.498 A  
HETATM   21  C   UNK A   1     -10.492  18.233  66.480  1.00  0.00    -0.378 A  
HETATM   22  C   UNK A   1     -10.284  17.060  67.207  1.00  0.00    -0.310 A  
ENDBRANCH  16  17
ENDBRANCH  15  16
ENDBRANCH  11  15
ENDBRANCH   9  11
ENDBRANCH   8   9
BRANCH   8  23
HETATM   23  C   UNK A   1      -8.901  13.387  66.369  1.00  0.00     0.128 C  
ATOM     24  OXT PRO A   2      -8.099   9.086  65.977  1.00  0.00    -0.107 OA 
HETATM   25  O   UNK A   1      -9.221  14.573  66.270  1.00  0.00    -0.268 OA 
ATOM     26  N   PRO A   2      -9.496  12.414  65.566  1.00  0.00    -0.062 N  
ATOM     27  CD  PRO A   2     -10.481  12.777  64.553  1.00  0.00    -0.368 C  
ATOM     28  O   PRO A   2      -7.642  10.762  64.531  1.00  0.00     0.088 OA 
ATOM     29  C   PRO A   2      -8.374  10.180  65.511  1.00  0.00    -0.158 C  
ATOM     30  CA  PRO A   2      -9.611  10.986  65.906  1.00  0.00    -0.218 C  
ATOM     31  CB  PRO A   2     -10.830  10.475  65.131  1.00  0.00     0.160 C  
ATOM     32  CG  PRO A   2     -11.569  11.728  64.681  1.00  0.00    -0.270 C  
ENDBRANCH   8  23
ENDBRANCH   7   8
ENDBRANCH   6   7
ENDBRANCH   5   6
ENDBRANCH   3   5
TORSDOF 10
ENDMDL
MODEL      329
REMARK 921   NORMALIZED FREE ENERGY PREDICTED BY IDOCK:   -1.54 KCAL/MOL
REMARK 922        TOTAL FREE ENERGY PREDICTED BY IDOCK:   -4.39 KCAL/MOL
REMARK 923 INTER-LIGAND FREE ENERGY PREDICTED BY IDOCK:   -3.63 KCAL/MOL
REMARK 924 INTRA-LIGAND FREE ENERGY PREDICTED BY IDOCK:   -0.76 KCAL/MOL
REMARK 927      BINDING AFFINITY PREDICTED BY RF-SCORE:    0.00 PKD
ROOT
HETATM    1  N   UNK A   1     -12.828  15.128  73.357  1.00  0.00    -0.506 NA 
HETATM    2  H2  UNK A   1     -12.186  15.919  73.304  1.00  0.00     0.000 HD 
HETATM    3  C   UNK A   1     -12.951  14.431  72.084  1.00  0.00    -0.355 C  
HETATM    4  H1  UNK A   1     -13.754  15.406  73.685  1.00  0.00     0.000 HD 
ENDROOT
BRANCH   3   5
HETATM    5  C   UNK A   1     -11.567  14.017  71.595  1.00  0.00     0.767 C  
BRANCH   5   6
HETATM    6  C   UNK A   1     -11.451  14.086  70.067  1.00  0.00    -0.235 C  
BRANCH   6   7
HETATM    7  C   UNK A   1     -10.247  13.256  69.611  1.00  0.00     0.909 C  
BRANCH   7   8
HETATM    8  C   UNK A   1     -10.046  13.141  68.090  1.00  0.00    -0.237 C  
BRANCH   8   9
HETATM    9  N   UNK A   1     -10.041  11.736  67.580  1.00  0.00    -0.191 NA 
HETATM   10  H   UNK A   1      -9.631  11.700  66.647  1.00  0.00     0.000 HD 
BRANCH   9  11
HETATM   11  C   UNK A   1      -9.370  10.744  68.479  1.00  0.00    -0.174 C  
HETATM   12  C   UNK A   1      -8.571   9.772  67.591  1.00  0.00    -0.125 C  
HETATM   13  O   UNK A   1      -7.583   9.149  67.951  1.00  0.00    -0.084 OA 
HETATM   14  O   UNK A   1      -9.095   9.673  66.344  1.00  0.00    -0.147 OA 
BRANCH  11  15
HETATM   15  C   UNK A   1     -10.385   9.941  69.323  1.00  0.00    -0.235 C  
BRANCH  15  16
HETATM   16  C   UNK A   1      -9.817   9.479  70.675  1.00  0.00    -0.328 C  
BRANCH  16  17
HETATM   17  C   UNK A   1     -10.441   8.191  71.164  1.00  0.00    -0.238 A  
HETATM   18  C   UNK A   1     -11.420   7.545  70.398  1.00  0.00    -0.219 A  
HETATM   19  C   UNK A   1     -11.610   5.796  72.054  1.00  0.00    -0.226 A  
HETATM   20  C   UNK A   1     -11.999   6.353  70.840  1.00  0.00    -0.258 A  
HETATM   21  C   UNK A   1     -10.626   6.419  72.819  1.00  0.00    -0.254 A  
HETATM   22  C   UNK A   1     -10.044   7.608  72.378  1.00  0.00    -0.265 A  
ENDBRANCH  16  17
ENDBRANCH  15  16
ENDBRANCH  11  15
ENDBRANCH   9  11
ENDBRANCH   8   9
BRANCH   8  23
HETATM   23  C   UNK A   1      -8.737  13.848  67.585  1.00  0.00    -0.187 C  
ATOM     24  OXT PRO A   2     -12.016  16.758  67.867  1.00  0.00     0.539 OA 
HETATM   25  O   UNK A   1      -7.721  13.186  67.365  1.00  0.00    -0.161 OA 
ATOM     26  N   PRO A   2      -8.770  15.219  67.328  1.00  0.00    -0.185 N  
ATOM     27  CD  PRO A   2      -7.619  15.900  66.745  1.00  0.00    -0.180 C  
ATOM     28  O   PRO A   2     -11.026  15.893  66.028  1.00  0.00    -0.261 OA 
ATOM     29  C   PRO A   2     -11.027  16.294  67.321  1.00  0.00    -0.144 C  
ATOM     30  CA  PRO A   2      -9.658  16.187  67.992  1.00  0.00    -0.220 C  
ATOM     31  CB  PRO A   2      -8.935  17.534  67.909  1.00  0.00    -0.251 C  
ATOM     32  CG  PRO A   2      -7.500  17.193  67.529  1.00  0.00    -0.180 C  
ENDBRANCH   8  23
ENDBRANCH   7   8
ENDBRANCH   6   7
ENDBRANCH   5   6
ENDBRANCH   3   5
TORSDOF 10
ENDMDL
MODEL      330
REMARK 921   NORMALIZED FREE ENERGY PREDICTED BY IDOCK:   -1.34 KCAL/MOL
REMARK 922        TOTAL FREE ENERGY PREDICTED BY IDOCK:   -4.08 KCAL/MOL
REMARK 923 INTER-LIGAND FREE ENERGY PREDICTED BY IDOCK:   -6.20 KCAL/MOL
REMARK 924 INTRA-LIGAND FREE ENERGY PREDICTED BY IDOCK:    2.12 KCAL/MOL
REMARK 927      BINDING AFFINITY PREDICTED BY RF-SCORE:    0.00 PKD
ROOT
HETATM    1  N   UNK A   1     -11.873  12.762  63.108  1.00  0.00    -0.815 NA 
HETATM    2  H2  UNK A   1     -11.489  12.250  62.314  1.00  0.00     0.000 HD 
HETATM    3  C   UNK A   1     -11.674  12.058  64.368  1.00  0.00    -0.320 C  
HETATM    4  H1  UNK A   1     -12.865  12.972  62.987  1.00  0.00     0.000 HD 
ENDROOT
BRANCH   3   5
HETATM    5  C   UNK A   1     -10.192  11.746  64.548  1.00  0.00    -0.327 C  
BRANCH   5   6
HETATM    6  C   UNK A   1      -9.965  10.345  65.130  1.00  0.00    -0.390 C  
BRANCH   6   7
HETATM    7  C   UNK A   1      -9.349  10.470  66.528  1.00  0.00    -0.189 C  
BRANCH   7   8
HETATM    8  C   UNK A   1     -10.003   9.617  67.629  1.00  0.00    -0.174 C  
BRANCH   8   9
HETATM    9  N   UNK A   1     -10.479   8.279  67.163  1.00  0.00    -0.318 NA 
HETATM   10  H   UNK A   1     -11.060   8.382  66.331  1.00  0.00     0.000 HD 
BRANCH   9  11
HETATM   11  C   UNK A   1      -9.395   7.277  66.917  1.00  0.00    -0.156 C  
HETATM   12  C   UNK A   1      -8.287   7.521  67.958  1.00  0.00    -0.124 C  
HETATM   13  O   UNK A   1      -7.503   6.671  68.355  1.00  0.00    -0.091 OA 
HETATM   14  O   UNK A   1      -8.267   8.806  68.389  1.00  0.00    -0.115 OA 
BRANCH  11  15
HETATM   15  C   UNK A   1      -8.795   7.401  65.499  1.00  0.00     0.002 C  
BRANCH  15  16
HETATM   16  C   UNK A   1      -7.633   6.425  65.246  1.00  0.00    -0.091 C  
BRANCH  16  17
HETATM   17  C   UNK A   1      -8.088   4.988  65.131  1.00  0.00    -0.112 A  
HETATM   18  C   UNK A   1      -7.362   3.965  65.755  1.00  0.00    -0.073 A  
HETATM   19  C   UNK A   1      -8.919   2.311  64.933  1.00  0.00    -0.125 A  
HETATM   20  C   UNK A   1      -7.777   2.635  65.657  1.00  0.00    -0.077 A  
HETATM   21  C   UNK A   1      -9.660   3.320  64.320  1.00  0.00    -0.151 A  
HETATM   22  C   UNK A   1      -9.250   4.650  64.419  1.00  0.00    -0.090 A  
ENDBRANCH  16  17
ENDBRANCH  15  16
ENDBRANCH  11  15
ENDBRANCH   9  11
ENDBRANCH   8   9
BRANCH   8  23
HETATM   23  C   UNK A   1     -11.201  10.341  68.341  1.00  0.00    -0.224 C  
ATOM     24  OXT PRO A   2      -9.804   6.967  70.784  1.00  0.00    -0.185 OA 
HETATM   25  O   UNK A   1     -11.787  11.268  67.779  1.00  0.00    -0.610 OA 
ATOM     26  N   PRO A   2     -11.629   9.869  69.582  1.00  0.00    -0.108 N  
ATOM     27  CD  PRO A   2     -12.811  10.428  70.229  1.00  0.00    -0.105 C  
ATOM     28  O   PRO A   2     -11.721   7.181  69.604  1.00  0.00    -0.010 OA 
ATOM     29  C   PRO A   2     -10.686   7.676  70.323  1.00  0.00    -0.239 C  
ATOM     30  CA  PRO A   2     -10.780   9.181  70.569  1.00  0.00    -0.238 C  
ATOM     31  CB  PRO A   2     -11.434   9.443  71.929  1.00  0.00    -0.308 C  
ATOM     32  CG  PRO A   2     -12.417  10.581  71.685  1.00  0.00    -0.443 C  
ENDBRANCH   8  23
ENDBRANCH   7   8
ENDBRANCH   6   7
ENDBRANCH   5   6
ENDBRANCH   3   5
TORSDOF 10
ENDMDL
MODEL      331
REMARK 921   NORMALIZED FREE ENERGY PREDICTED BY IDOCK:   -1.22 KCAL/MOL
REMARK 922        TOTAL FREE ENERGY PREDICTED BY IDOCK:   -3.89 KCAL/MOL
REMARK 923 INTER-LIGAND FREE ENERGY PREDICTED BY IDOCK:   -5.97 KCAL/MOL
REMARK 924 INTRA-LIGAND FREE ENERGY PREDICTED BY IDOCK:    2.09 KCAL/MOL
REMARK 927      BINDING AFFINITY PREDICTED BY RF-SCORE:    0.00 PKD
ROOT
HETATM    1  N   UNK A   1     -12.648   8.170  72.707  1.00  0.00    -0.606 NA 
HETATM    2  H2  UNK A   1     -11.889   8.409  73.345  1.00  0.00     0.000 HD 
HETATM    3  C   UNK A   1     -12.438   8.713  71.371  1.00  0.00    -0.301 C  
HETATM    4  H1  UNK A   1     -13.557   8.472  73.059  1.00  0.00     0.000 HD 
ENDROOT
BRANCH   3   5
HETATM    5  C   UNK A   1     -11.080   8.261  70.846  1.00  0.00    -0.289 C  
BRANCH   5   6
HETATM    6  C   UNK A   1     -10.717   8.944  69.522  1.00  0.00    -0.206 C  
BRANCH   6   7
HETATM    7  C   UNK A   1      -9.556   9.917  69.754  1.00  0.00    -0.261 C  
BRANCH   7   8
HETATM    8  C   UNK A   1      -8.300   9.683  68.896  1.00  0.00    -0.116 C  
BRANCH   8   9
HETATM    9  N   UNK A   1      -8.393  10.247  67.514  1.00  0.00    -0.115 NA 
HETATM   10  H   UNK A   1      -9.300  10.027  67.103  1.00  0.00     0.000 HD 
BRANCH   9  11
HETATM   11  C   UNK A   1      -8.121  11.715  67.415  1.00  0.00    -0.153 C  
HETATM   12  C   UNK A   1      -6.603  11.923  67.573  1.00  0.00    -0.110 C  
HETATM   13  O   UNK A   1      -5.978  12.869  67.118  1.00  0.00    -0.325 OA 
HETATM   14  O   UNK A   1      -6.025  10.930  68.293  1.00  0.00    -0.046 OA 
BRANCH  11  15
HETATM   15  C   UNK A   1      -8.859  12.520  68.508  1.00  0.00    -0.046 C  
BRANCH  15  16
HETATM   16  C   UNK A   1     -10.283  12.933  68.099  1.00  0.00    -0.239 C  
BRANCH  16  17
HETATM   17  C   UNK A   1     -10.383  14.391  67.710  1.00  0.00    -0.238 A  
HETATM   18  C   UNK A   1     -10.882  15.333  68.620  1.00  0.00    -0.253 A  
HETATM   19  C   UNK A   1     -10.572  17.105  67.007  1.00  0.00    -0.227 A  
HETATM   20  C   UNK A   1     -10.974  16.682  68.269  1.00  0.00    -0.341 A  
HETATM   21  C   UNK A   1     -10.059  16.182  66.097  1.00  0.00    -0.356 A  
HETATM   22  C   UNK A   1      -9.963  14.834  66.445  1.00  0.00    -0.291 A  
ENDBRANCH  16  17
ENDBRANCH  15  16
ENDBRANCH  11  15
ENDBRANCH   9  11
ENDBRANCH   8   9
BRANCH   8  23
HETATM   23  C   UNK A   1      -7.906   8.167  68.779  1.00  0.00    -0.113 C  
ATOM     24  OXT PRO A   2      -9.874   9.510  65.087  1.00  0.00    -0.248 OA 
HETATM   25  O   UNK A   1      -7.412   7.579  69.742  1.00  0.00    -0.087 OA 
ATOM     26  N   PRO A   2      -8.191   7.489  67.593  1.00  0.00    -0.117 N  
ATOM     27  CD  PRO A   2      -7.955   6.054  67.475  1.00  0.00    -0.102 C  
ATOM     28  O   PRO A   2     -10.646   8.121  66.695  1.00  0.00    -0.272 OA 
ATOM     29  C   PRO A   2      -9.658   8.680  65.956  1.00  0.00    -0.195 C  
ATOM     30  CA  PRO A   2      -8.275   8.107  66.259  1.00  0.00    -0.114 C  
ATOM     31  CB  PRO A   2      -7.948   6.989  65.265  1.00  0.00    -0.127 C  
ATOM     32  CG  PRO A   2      -7.330   5.879  66.104  1.00  0.00    -0.081 C  
ENDBRANCH   8  23
ENDBRANCH   7   8
ENDBRANCH   6   7
ENDBRANCH   5   6
ENDBRANCH   3   5
TORSDOF 10
ENDMDL
MODEL      332
REMARK 921   NORMALIZED FREE ENERGY PREDICTED BY IDOCK:   -1.17 KCAL/MOL
REMARK 922        TOTAL FREE ENERGY PREDICTED BY IDOCK:   -3.81 KCAL/MOL
REMARK 923 INTER-LIGAND FREE ENERGY PREDICTED BY IDOCK:   -5.89 KCAL/MOL
REMARK 924 INTRA-LIGAND FREE ENERGY PREDICTED BY IDOCK:    2.07 KCAL/MOL
REMARK 927      BINDING AFFINITY PREDICTED BY RF-SCORE:    0.00 PKD
ROOT
HETATM    1  N   UNK A   1     -11.413   5.179  73.486  1.00  0.00    -0.455 NA 
HETATM    2  H2  UNK A   1     -11.156   4.344  72.958  1.00  0.00     0.000 HD 
HETATM    3  C   UNK A   1     -10.713   6.367  73.015  1.00  0.00    -0.259 C  
HETATM    4  H1  UNK A   1     -11.255   5.064  74.487  1.00  0.00     0.000 HD 
ENDROOT
BRANCH   3   5
HETATM    5  C   UNK A   1     -10.950   6.537  71.518  1.00  0.00    -0.298 C  
BRANCH   5   6
HETATM    6  C   UNK A   1     -10.393   7.866  70.994  1.00  0.00    -0.221 C  
BRANCH   6   7
HETATM    7  C   UNK A   1     -11.070   8.212  69.664  1.00  0.00    -0.015 C  
BRANCH   7   8
HETATM    8  C   UNK A   1     -10.407   9.330  68.841  1.00  0.00    -0.214 C  
BRANCH   8   9
HETATM    9  N   UNK A   1      -8.916   9.366  68.952  1.00  0.00    -0.134 NA 
HETATM   10  H   UNK A   1      -8.632   9.272  69.927  1.00  0.00     0.000 HD 
BRANCH   9  11
HETATM   11  C   UNK A   1      -8.199   8.363  68.104  1.00  0.00    -0.124 C  
HETATM   12  C   UNK A   1      -9.173   7.896  67.006  1.00  0.00    -0.148 C  
HETATM   13  O   UNK A   1      -8.838   7.460  65.915  1.00  0.00    -0.164 OA 
HETATM   14  O   UNK A   1     -10.468   8.014  67.391  1.00  0.00    -0.258 OA 
BRANCH  11  15
HETATM   15  C   UNK A   1      -7.728   7.138  68.919  1.00  0.00    -0.113 C  
BRANCH  15  16
HETATM   16  C   UNK A   1      -8.265   5.804  68.373  1.00  0.00    -0.108 C  
BRANCH  16  17
HETATM   17  C   UNK A   1      -8.255   4.701  69.406  1.00  0.00    -0.073 A  
HETATM   18  C   UNK A   1      -9.333   3.810  69.499  1.00  0.00    -0.249 A  
HETATM   19  C   UNK A   1      -8.254   2.641  71.318  1.00  0.00    -0.071 A  
HETATM   20  C   UNK A   1      -9.330   2.785  70.448  1.00  0.00    -0.217 A  
HETATM   21  C   UNK A   1      -7.169   3.510  71.227  1.00  0.00    -0.033 A  
HETATM   22  C   UNK A   1      -7.167   4.533  70.277  1.00  0.00    -0.049 A  
ENDBRANCH  16  17
ENDBRANCH  15  16
ENDBRANCH  11  15
ENDBRANCH   9  11
ENDBRANCH   8   9
BRANCH   8  23
HETATM   23  C   UNK A   1     -10.956  10.761  69.188  1.00  0.00    -0.244 C  
ATOM     24  OXT PRO A   2      -9.635  10.620  65.001  1.00  0.00    -0.222 OA 
HETATM   25  O   UNK A   1     -11.304  11.028  70.340  1.00  0.00    -0.277 OA 
ATOM     26  N   PRO A   2     -10.975  11.733  68.188  1.00  0.00    -0.213 N  
ATOM     27  CD  PRO A   2     -11.361  13.108  68.487  1.00  0.00    -0.286 C  
ATOM     28  O   PRO A   2      -8.696  11.682  66.761  1.00  0.00    -0.178 OA 
ATOM     29  C   PRO A   2      -9.752  11.182  66.078  1.00  0.00    -0.226 C  
ATOM     30  CA  PRO A   2     -11.097  11.467  66.745  1.00  0.00    -0.302 C  
ATOM     31  CB  PRO A   2     -11.715  12.733  66.144  1.00  0.00    -0.458 C  
ATOM     32  CG  PRO A   2     -12.258  13.515  67.333  1.00  0.00    -0.278 C  
ENDBRANCH   8  23
ENDBRANCH   7   8
ENDBRANCH   6   7
ENDBRANCH   5   6
ENDBRANCH   3   5
TORSDOF 10
ENDMDL
MODEL      333
REMARK 921   NORMALIZED FREE ENERGY PREDICTED BY IDOCK:   -0.85 KCAL/MOL
REMARK 922        TOTAL FREE ENERGY PREDICTED BY IDOCK:   -3.30 KCAL/MOL
REMARK 923 INTER-LIGAND FREE ENERGY PREDICTED BY IDOCK:   -3.28 KCAL/MOL
REMARK 924 INTRA-LIGAND FREE ENERGY PREDICTED BY IDOCK:   -0.02 KCAL/MOL
REMARK 927      BINDING AFFINITY PREDICTED BY RF-SCORE:    0.00 PKD
ROOT
HETATM    1  N   UNK A   1     -11.918   8.712  70.211  1.00  0.00    -0.436 NA 
HETATM    2  H2  UNK A   1     -11.643   8.529  69.245  1.00  0.00     0.000 HD 
HETATM    3  C   UNK A   1     -11.328   7.759  71.142  1.00  0.00    -0.269 C  
HETATM    4  H1  UNK A   1     -12.932   8.720  70.327  1.00  0.00     0.000 HD 
ENDROOT
BRANCH   3   5
HETATM    5  C   UNK A   1      -9.813   7.747  70.967  1.00  0.00    -0.186 C  
BRANCH   5   6
HETATM    6  C   UNK A   1      -9.296   9.044  70.332  1.00  0.00    -0.244 C  
BRANCH   6   7
HETATM    7  C   UNK A   1      -8.626   8.722  68.992  1.00  0.00    -0.132 C  
BRANCH   7   8
HETATM    8  C   UNK A   1      -9.551   8.707  67.763  1.00  0.00    -0.148 C  
BRANCH   8   9
HETATM    9  N   UNK A   1     -10.610   9.762  67.784  1.00  0.00    -0.250 NA 
HETATM   10  H   UNK A   1     -10.756  10.096  68.736  1.00  0.00     0.000 HD 
BRANCH   9  11
HETATM   11  C   UNK A   1     -10.366  10.915  66.862  1.00  0.00    -0.238 C  
HETATM   12  C   UNK A   1     -10.705  10.452  65.432  1.00  0.00     0.122 C  
HETATM   13  O   UNK A   1     -11.056  11.191  64.525  1.00  0.00    -0.253 OA 
HETATM   14  O   UNK A   1     -10.562   9.112  65.283  1.00  0.00     1.212 OA 
BRANCH  11  15
HETATM   15  C   UNK A   1      -8.898  11.396  66.903  1.00  0.00    -0.173 C  
BRANCH  15  16
HETATM   16  C   UNK A   1      -8.484  11.960  68.273  1.00  0.00    -0.161 C  
BRANCH  16  17
HETATM   17  C   UNK A   1      -8.634  13.463  68.358  1.00  0.00    -0.134 A  
HETATM   18  C   UNK A   1      -7.528  14.267  68.662  1.00  0.00    -0.127 A  
HETATM   19  C   UNK A   1      -8.893  16.256  68.519  1.00  0.00    -0.219 A  
HETATM   20  C   UNK A   1      -7.657  15.656  68.739  1.00  0.00    -0.162 A  
HETATM   21  C   UNK A   1      -9.998  15.469  68.201  1.00  0.00    -0.217 A  
HETATM   22  C   UNK A   1      -9.871  14.082  68.120  1.00  0.00    -0.235 A  
ENDBRANCH  16  17
ENDBRANCH  15  16
ENDBRANCH  11  15
ENDBRANCH   9  11
ENDBRANCH   8   9
BRANCH   8  23
HETATM   23  C   UNK A   1     -10.250   7.319  67.534  1.00  0.00    -0.221 C  
ATOM     24  OXT PRO A   2      -6.000   7.073  66.447  1.00  0.00    -0.032 OA 
HETATM   25  O   UNK A   1     -11.464   7.201  67.706  1.00  0.00     0.175 OA 
ATOM     26  N   PRO A   2      -9.483   6.251  67.066  1.00  0.00    -0.126 N  
ATOM     27  CD  PRO A   2     -10.105   4.976  66.723  1.00  0.00    -0.239 C  
ATOM     28  O   PRO A   2      -7.821   7.049  65.108  1.00  0.00    -0.109 OA 
ATOM     29  C   PRO A   2      -7.177   6.800  66.273  1.00  0.00    -0.072 C  
ATOM     30  CA  PRO A   2      -8.041   6.072  67.302  1.00  0.00    -0.106 C  
ATOM     31  CB  PRO A   2      -7.793   4.563  67.211  1.00  0.00    -0.097 C  
ATOM     32  CG  PRO A   2      -9.174   3.927  67.298  1.00  0.00    -0.200 C  
ENDBRANCH   8  23
ENDBRANCH   7   8
ENDBRANCH   6   7
ENDBRANCH   5   6
ENDBRANCH   3   5
TORSDOF 10
ENDMDL
MODEL      334
REMARK 921   NORMALIZED FREE ENERGY PREDICTED BY IDOCK:   -0.47 KCAL/MOL
REMARK 922        TOTAL FREE ENERGY PREDICTED BY IDOCK:   -2.70 KCAL/MOL
REMARK 923 INTER-LIGAND FREE ENERGY PREDICTED BY IDOCK:   -4.67 KCAL/MOL
REMARK 924 INTRA-LIGAND FREE ENERGY PREDICTED BY IDOCK:    1.97 KCAL/MOL
REMARK 927      BINDING AFFINITY PREDICTED BY RF-SCORE:    0.00 PKD
ROOT
HETATM    1  N   UNK A   1      -9.842   9.542  71.259  1.00  0.00    -0.235 NA 
HETATM    2  H2  UNK A   1     -10.091   8.862  70.539  1.00  0.00     0.000 HD 
HETATM    3  C   UNK A   1      -9.305   8.906  72.455  1.00  0.00     0.120 C  
HETATM    4  H1  UNK A   1     -10.630  10.138  71.514  1.00  0.00     0.000 HD 
ENDROOT
BRANCH   3   5
HETATM    5  C   UNK A   1      -8.128   8.015  72.073  1.00  0.00    -0.164 C  
BRANCH   5   6
HETATM    6  C   UNK A   1      -7.831   8.065  70.569  1.00  0.00    -0.094 C  
BRANCH   6   7
HETATM    7  C   UNK A   1      -8.116   6.693  69.949  1.00  0.00    -0.125 C  
BRANCH   7   8
HETATM    8  C   UNK A   1      -9.561   6.454  69.478  1.00  0.00    -0.144 C  
BRANCH   8   9
HETATM    9  N   UNK A   1     -10.199   7.646  68.840  1.00  0.00    -0.205 NA 
HETATM   10  H   UNK A   1      -9.771   8.504  69.187  1.00  0.00     0.000 HD 
BRANCH   9  11
HETATM   11  C   UNK A   1     -10.197   7.634  67.343  1.00  0.00    -0.251 C  
HETATM   12  C   UNK A   1      -9.943   6.185  66.886  1.00  0.00    -0.168 C  
HETATM   13  O   UNK A   1     -10.307   5.716  65.818  1.00  0.00     0.100 OA 
HETATM   14  O   UNK A   1      -9.252   5.473  67.811  1.00  0.00    -0.108 OA 
BRANCH  11  15
HETATM   15  C   UNK A   1      -9.101   8.550  66.753  1.00  0.00    -0.186 C  
BRANCH  15  16
HETATM   16  C   UNK A   1      -9.151   9.985  67.303  1.00  0.00    -0.152 C  
BRANCH  16  17
HETATM   17  C   UNK A   1     -10.052  10.892  66.495  1.00  0.00    -0.269 A  
HETATM   18  C   UNK A   1      -9.730  11.208  65.168  1.00  0.00    -0.296 A  
HETATM   19  C   UNK A   1     -11.715  12.572  64.975  1.00  0.00    -0.407 A  
HETATM   20  C   UNK A   1     -10.558  12.041  64.413  1.00  0.00    -0.361 A  
HETATM   21  C   UNK A   1     -12.056  12.254  66.288  1.00  0.00    -0.154 A  
HETATM   22  C   UNK A   1     -11.232  11.419  67.044  1.00  0.00    -0.350 A  
ENDBRANCH  16  17
ENDBRANCH  15  16
ENDBRANCH  11  15
ENDBRANCH   9  11
ENDBRANCH   8   9
BRANCH   8  23
HETATM   23  C   UNK A   1     -10.508   5.949  70.624  1.00  0.00    -0.253 C  
ATOM     24  OXT PRO A   2      -6.974   3.356  70.328  1.00  0.00    -0.033 OA 
HETATM   25  O   UNK A   1     -11.595   6.497  70.817  1.00  0.00    -0.343 OA 
ATOM     26  N   PRO A   2     -10.127   4.832  71.368  1.00  0.00    -0.195 N  
ATOM     27  CD  PRO A   2     -11.023   4.250  72.361  1.00  0.00     0.162 C  
ATOM     28  O   PRO A   2      -9.120   2.917  69.769  1.00  0.00    -0.100 OA 
ATOM     29  C   PRO A   2      -8.169   3.538  70.505  1.00  0.00    -0.053 C  
ATOM     30  CA  PRO A   2      -8.738   4.413  71.621  1.00  0.00    -0.118 C  
ATOM     31  CB  PRO A   2      -8.779   3.619  72.930  1.00  0.00    -0.098 C  
ATOM     32  CG  PRO A   2     -10.132   3.943  73.550  1.00  0.00    -0.192 C  
ENDBRANCH   8  23
ENDBRANCH   7   8
ENDBRANCH   6   7
ENDBRANCH   5   6
ENDBRANCH   3   5
TORSDOF 10
ENDMDL
MODEL      335
REMARK 921   NORMALIZED FREE ENERGY PREDICTED BY IDOCK:    0.62 KCAL/MOL
REMARK 922        TOTAL FREE ENERGY PREDICTED BY IDOCK:   -0.98 KCAL/MOL
REMARK 923 INTER-LIGAND FREE ENERGY PREDICTED BY IDOCK:   -1.67 KCAL/MOL
REMARK 924 INTRA-LIGAND FREE ENERGY PREDICTED BY IDOCK:    0.69 KCAL/MOL
REMARK 927      BINDING AFFINITY PREDICTED BY RF-SCORE:    0.00 PKD
ROOT
HETATM    1  N   UNK A   1      -9.232  16.970  65.178  1.00  0.00     0.863 NA 
HETATM    2  H2  UNK A   1      -9.699  16.063  65.172  1.00  0.00     0.000 HD 
HETATM    3  C   UNK A   1      -8.958  17.439  66.530  1.00  0.00    -0.260 C  
HETATM    4  H1  UNK A   1      -9.763  17.680  64.672  1.00  0.00     0.000 HD 
ENDROOT
BRANCH   3   5
HETATM    5  C   UNK A   1      -8.165  16.378  67.286  1.00  0.00    -0.193 C  
BRANCH   5   6
HETATM    6  C   UNK A   1      -7.741  15.218  66.377  1.00  0.00     0.721 C  
BRANCH   6   7
HETATM    7  C   UNK A   1      -8.683  14.030  66.596  1.00  0.00    -0.055 C  
BRANCH   7   8
HETATM    8  C   UNK A   1      -8.640  13.386  67.993  1.00  0.00    -0.174 C  
BRANCH   8   9
HETATM    9  N   UNK A   1      -9.330  12.062  68.075  1.00  0.00    -0.190 NA 
HETATM   10  H   UNK A   1     -10.340  12.192  68.130  1.00  0.00     0.000 HD 
BRANCH   9  11
HETATM   11  C   UNK A   1      -8.991  11.108  66.972  1.00  0.00    -0.154 C  
HETATM   12  C   UNK A   1     -10.233  10.236  66.708  1.00  0.00    -0.228 C  
HETATM   13  O   UNK A   1     -10.490   9.692  65.645  1.00  0.00    -0.054 OA 
HETATM   14  O   UNK A   1     -11.021  10.127  67.806  1.00  0.00    -0.280 OA 
BRANCH  11  15
HETATM   15  C   UNK A   1      -7.799  10.194  67.336  1.00  0.00    -0.102 C  
BRANCH  15  16
HETATM   16  C   UNK A   1      -6.922  10.763  68.464  1.00  0.00    -0.068 C  
BRANCH  16  17
HETATM   17  C   UNK A   1      -6.305   9.686  69.328  1.00  0.00    -0.044 A  
HETATM   18  C   UNK A   1      -6.062   9.924  70.688  1.00  0.00    -0.095 A  
HETATM   19  C   UNK A   1      -5.164   7.696  70.951  1.00  0.00    -0.026 A  
HETATM   20  C   UNK A   1      -5.497   8.933  71.493  1.00  0.00    -0.046 A  
HETATM   21  C   UNK A   1      -5.414   7.441  69.604  1.00  0.00    -0.023 A  
HETATM   22  C   UNK A   1      -5.982   8.428  68.797  1.00  0.00    -0.044 A  
ENDBRANCH  16  17
ENDBRANCH  15  16
ENDBRANCH  11  15
ENDBRANCH   9  11
ENDBRANCH   8   9
BRANCH   8  23
HETATM   23  C   UNK A   1      -9.227  14.311  69.118  1.00  0.00     0.142 C  
ATOM     24  OXT PRO A   2     -12.415  13.074  66.360  1.00  0.00    -0.401 OA 
HETATM   25  O   UNK A   1      -8.477  14.829  69.948  1.00  0.00     0.149 OA 
ATOM     26  N   PRO A   2     -10.594  14.588  69.114  1.00  0.00    -0.247 N  
ATOM     27  CD  PRO A   2     -11.170  15.536  70.063  1.00  0.00    -0.315 C  
ATOM     28  O   PRO A   2     -11.459  15.106  66.621  1.00  0.00    -0.300 OA 
ATOM     29  C   PRO A   2     -11.863  13.896  67.074  1.00  0.00    -0.415 C  
ATOM     30  CA  PRO A   2     -11.640  13.704  68.574  1.00  0.00    -0.335 C  
ATOM     31  CB  PRO A   2     -12.918  14.062  69.338  1.00  0.00     0.919 C  
ATOM     32  CG  PRO A   2     -12.450  14.876  70.537  1.00  0.00    -0.419 C  
ENDBRANCH   8  23
ENDBRANCH   7   8
ENDBRANCH   6   7
ENDBRANCH   5   6
ENDBRANCH   3   5
TORSDOF 10
ENDMDL
MODEL      336
REMARK 921   NORMALIZED FREE ENERGY PREDICTED BY IDOCK:    0.79 KCAL/MOL
REMARK 922        TOTAL FREE ENERGY PREDICTED BY IDOCK:   -0.71 KCAL/MOL
REMARK 923 INTER-LIGAND FREE ENERGY PREDICTED BY IDOCK:   -2.67 KCAL/MOL
REMARK 924 INTRA-LIGAND FREE ENERGY PREDICTED BY IDOCK:    1.96 KCAL/MOL
REMARK 927      BINDING AFFINITY PREDICTED BY RF-SCORE:    0.00 PKD
ROOT
HETATM    1  N   UNK A   1     -12.035  11.129  66.964  1.00  0.00    -0.015 NA 
HETATM    2  H2  UNK A   1     -12.992  10.777  66.933  1.00  0.00     0.000 HD 
HETATM    3  C   UNK A   1     -11.359  10.781  68.207  1.00  0.00    -0.309 C  
HETATM    4  H1  UNK A   1     -11.991  12.139  66.824  1.00  0.00     0.000 HD 
ENDROOT
BRANCH   3   5
HETATM    5  C   UNK A   1     -11.424   9.272  68.416  1.00  0.00     0.601 C  
BRANCH   5   6
HETATM    6  C   UNK A   1     -10.614   8.508  67.361  1.00  0.00    -0.304 C  
BRANCH   6   7
HETATM    7  C   UNK A   1      -9.303   9.253  67.090  1.00  0.00    -0.166 C  
BRANCH   7   8
HETATM    8  C   UNK A   1      -8.058   8.708  67.810  1.00  0.00    -0.107 C  
BRANCH   8   9
HETATM    9  N   UNK A   1      -8.070   8.918  69.290  1.00  0.00    -0.107 NA 
HETATM   10  H   UNK A   1      -8.893   9.454  69.565  1.00  0.00     0.000 HD 
BRANCH   9  11
HETATM   11  C   UNK A   1      -7.974   7.664  70.103  1.00  0.00    -0.109 C  
HETATM   12  C   UNK A   1      -8.156   8.050  71.583  1.00  0.00    -0.114 C  
HETATM   13  O   UNK A   1      -8.577   7.302  72.453  1.00  0.00    -0.114 OA 
HETATM   14  O   UNK A   1      -7.783   9.332  71.825  1.00  0.00    -0.320 OA 
BRANCH  11  15
HETATM   15  C   UNK A   1      -6.612   6.957  69.928  1.00  0.00    -0.044 C  
BRANCH  15  16
HETATM   16  C   UNK A   1      -6.743   5.450  69.648  1.00  0.00    -0.055 C  
BRANCH  16  17
HETATM   17  C   UNK A   1      -7.022   5.146  68.193  1.00  0.00    -0.061 A  
HETATM   18  C   UNK A   1      -8.177   4.442  67.827  1.00  0.00    -0.098 A  
HETATM   19  C   UNK A   1      -7.559   4.574  65.495  1.00  0.00    -0.082 A  
HETATM   20  C   UNK A   1      -8.444   4.160  66.486  1.00  0.00    -0.104 A  
HETATM   21  C   UNK A   1      -6.414   5.288  65.843  1.00  0.00    -0.040 A  
HETATM   22  C   UNK A   1      -6.147   5.574  67.182  1.00  0.00    -0.030 A  
ENDBRANCH  16  17
ENDBRANCH  15  16
ENDBRANCH  11  15
ENDBRANCH   9  11
ENDBRANCH   8   9
BRANCH   8  23
HETATM   23  C   UNK A   1      -6.713   9.292  67.246  1.00  0.00    -0.069 C  
ATOM     24  OXT PRO A   2      -9.666  12.506  67.753  1.00  0.00    -0.191 OA 
HETATM   25  O   UNK A   1      -5.782   8.538  66.960  1.00  0.00    -0.040 OA 
ATOM     26  N   PRO A   2      -6.623  10.665  67.013  1.00  0.00    -0.076 N  
ATOM     27  CD  PRO A   2      -5.443  11.242  66.379  1.00  0.00    -0.139 C  
ATOM     28  O   PRO A   2      -8.866  11.587  65.849  1.00  0.00    -0.187 OA 
ATOM     29  C   PRO A   2      -8.759  11.958  67.147  1.00  0.00    -0.176 C  
ATOM     30  CA  PRO A   2      -7.374  11.702  67.740  1.00  0.00    -0.106 C  
ATOM     31  CB  PRO A   2      -6.525  12.973  67.639  1.00  0.00    -0.162 C  
ATOM     32  CG  PRO A   2      -5.154  12.499  67.176  1.00  0.00     0.053 C  
ENDBRANCH   8  23
ENDBRANCH   7   8
ENDBRANCH   6   7
ENDBRANCH   5   6
ENDBRANCH   3   5
TORSDOF 10
ENDMDL
MODEL      337
REMARK 921   NORMALIZED FREE ENERGY PREDICTED BY IDOCK:    0.79 KCAL/MOL
REMARK 922        TOTAL FREE ENERGY PREDICTED BY IDOCK:   -0.70 KCAL/MOL
REMARK 923 INTER-LIGAND FREE ENERGY PREDICTED BY IDOCK:   -2.86 KCAL/MOL
REMARK 924 INTRA-LIGAND FREE ENERGY PREDICTED BY IDOCK:    2.16 KCAL/MOL
REMARK 927      BINDING AFFINITY PREDICTED BY RF-SCORE:    0.00 PKD
ROOT
HETATM    1  N   UNK A   1     -11.665   5.841  67.447  1.00  0.00     0.848 NA 
HETATM    2  H2  UNK A   1     -12.080   4.912  67.364  1.00  0.00     0.000 HD 
HETATM    3  C   UNK A   1     -10.552   5.866  68.387  1.00  0.00    -0.250 C  
HETATM    4  H1  UNK A   1     -12.352   6.547  67.713  1.00  0.00     0.000 HD 
ENDROOT
BRANCH   3   5
HETATM    5  C   UNK A   1      -9.526   4.811  67.989  1.00  0.00    -0.182 C  
BRANCH   5   6
HETATM    6  C   UNK A   1      -8.590   4.450  69.149  1.00  0.00    -0.106 C  
BRANCH   6   7
HETATM    7  C   UNK A   1      -8.650   5.551  70.212  1.00  0.00    -0.126 C  
BRANCH   7   8
HETATM    8  C   UNK A   1      -7.922   6.862  69.866  1.00  0.00    -0.120 C  
BRANCH   8   9
HETATM    9  N   UNK A   1      -6.727   6.681  68.987  1.00  0.00    -0.051 NA 
HETATM   10  H   UNK A   1      -6.206   5.850  69.265  1.00  0.00     0.000 HD 
BRANCH   9  11
HETATM   11  C   UNK A   1      -7.026   6.639  67.521  1.00  0.00    -0.082 C  
HETATM   12  C   UNK A   1      -5.826   7.258  66.779  1.00  0.00    -0.034 C  
HETATM   13  O   UNK A   1      -5.508   7.000  65.628  1.00  0.00    -0.026 OA 
HETATM   14  O   UNK A   1      -5.152   8.145  67.553  1.00  0.00    -0.030 OA 
BRANCH  11  15
HETATM   15  C   UNK A   1      -8.305   7.428  67.162  1.00  0.00    -0.118 C  
BRANCH  15  16
HETATM   16  C   UNK A   1      -8.107   8.953  67.200  1.00  0.00    -0.103 C  
BRANCH  16  17
HETATM   17  C   UNK A   1      -9.411   9.712  67.292  1.00  0.00    -0.175 A  
HETATM   18  C   UNK A   1     -10.326   9.424  68.315  1.00  0.00    -0.251 A  
HETATM   19  C   UNK A   1     -11.839  11.113  67.483  1.00  0.00     0.070 A  
HETATM   20  C   UNK A   1     -11.531  10.122  68.409  1.00  0.00    -0.086 A  
HETATM   21  C   UNK A   1     -10.933  11.420  66.470  1.00  0.00    -0.328 A  
HETATM   22  C   UNK A   1      -9.726  10.726  66.375  1.00  0.00    -0.241 A  
ENDBRANCH  16  17
ENDBRANCH  15  16
ENDBRANCH  11  15
ENDBRANCH   9  11
ENDBRANCH   8   9
BRANCH   8  23
HETATM   23  C   UNK A   1      -7.477   7.674  71.134  1.00  0.00    -0.078 C  
ATOM     24  OXT PRO A   2     -11.561   6.148  71.672  1.00  0.00    -0.295 OA 
HETATM   25  O   UNK A   1      -6.388   8.252  71.149  1.00  0.00    -0.034 OA 
ATOM     26  N   PRO A   2      -8.362   7.784  72.207  1.00  0.00    -0.111 N  
ATOM     27  CD  PRO A   2      -8.047   8.625  73.357  1.00  0.00     0.144 C  
ATOM     28  O   PRO A   2     -10.861   8.271  71.338  1.00  0.00    -0.226 OA 
ATOM     29  C   PRO A   2     -10.704   7.008  71.799  1.00  0.00    -0.216 C  
ATOM     30  CA  PRO A   2      -9.396   6.797  72.561  1.00  0.00    -0.139 C  
ATOM     31  CB  PRO A   2      -9.638   6.974  74.063  1.00  0.00    -0.308 C  
ATOM     32  CG  PRO A   2      -8.459   7.800  74.561  1.00  0.00    -0.205 C  
ENDBRANCH   8  23
ENDBRANCH   7   8
ENDBRANCH   6   7
ENDBRANCH   5   6
ENDBRANCH   3   5
TORSDOF 10
ENDMDL
MODEL      338
REMARK 921   NORMALIZED FREE ENERGY PREDICTED BY IDOCK:    0.88 KCAL/MOL
REMARK 922        TOTAL FREE ENERGY PREDICTED BY IDOCK:   -0.56 KCAL/MOL
REMARK 923 INTER-LIGAND FREE ENERGY PREDICTED BY IDOCK:   -3.79 KCAL/MOL
REMARK 924 INTRA-LIGAND FREE ENERGY PREDICTED BY IDOCK:    3.23 KCAL/MOL
REMARK 927      BINDING AFFINITY PREDICTED BY RF-SCORE:    0.00 PKD
ROOT
HETATM    1  N   UNK A   1     -12.075  11.831  67.153  1.00  0.00    -0.465 NA 
HETATM    2  H2  UNK A   1     -13.062  11.573  67.161  1.00  0.00     0.000 HD 
HETATM    3  C   UNK A   1     -11.364  11.326  68.321  1.00  0.00    -0.289 C  
HETATM    4  H1  UNK A   1     -11.942  12.840  67.082  1.00  0.00     0.000 HD 
ENDROOT
BRANCH   3   5
HETATM    5  C   UNK A   1     -11.563   9.818  68.426  1.00  0.00     0.376 C  
BRANCH   5   6
HETATM    6  C   UNK A   1     -10.798   9.058  67.335  1.00  0.00    -0.116 C  
BRANCH   6   7
HETATM    7  C   UNK A   1      -9.438   9.725  67.109  1.00  0.00    -0.189 C  
BRANCH   7   8
HETATM    8  C   UNK A   1      -8.231   9.034  67.767  1.00  0.00    -0.109 C  
BRANCH   8   9
HETATM    9  N   UNK A   1      -8.222   9.115  69.259  1.00  0.00    -0.114 NA 
HETATM   10  H   UNK A   1      -8.427  10.066  69.563  1.00  0.00     0.000 HD 
BRANCH   9  11
HETATM   11  C   UNK A   1      -9.131   8.144  69.947  1.00  0.00    -0.151 C  
HETATM   12  C   UNK A   1      -9.831   8.892  71.097  1.00  0.00    -0.275 C  
HETATM   13  O   UNK A   1     -10.918   8.590  71.566  1.00  0.00    -0.237 OA 
HETATM   14  O   UNK A   1      -9.093   9.937  71.549  1.00  0.00     0.507 OA 
BRANCH  11  15
HETATM   15  C   UNK A   1      -8.364   6.933  70.523  1.00  0.00    -0.129 C  
BRANCH  15  16
HETATM   16  C   UNK A   1      -9.062   5.589  70.253  1.00  0.00    -0.163 C  
BRANCH  16  17
HETATM   17  C   UNK A   1      -9.609   4.949  71.509  1.00  0.00    -0.218 A  
HETATM   18  C   UNK A   1      -9.907   3.580  71.532  1.00  0.00    -0.219 A  
HETATM   19  C   UNK A   1     -10.621   3.740  73.834  1.00  0.00    -0.292 A  
HETATM   20  C   UNK A   1     -10.408   2.980  72.689  1.00  0.00    -0.211 A  
HETATM   21  C   UNK A   1     -10.315   5.099  73.831  1.00  0.00    -0.289 A  
HETATM   22  C   UNK A   1      -9.811   5.701  72.677  1.00  0.00    -0.182 A  
ENDBRANCH  16  17
ENDBRANCH  15  16
ENDBRANCH  11  15
ENDBRANCH   9  11
ENDBRANCH   8   9
BRANCH   8  23
HETATM   23  C   UNK A   1      -6.851   9.568  67.240  1.00  0.00    -0.084 C  
ATOM     24  OXT PRO A   2      -9.641  12.909  67.837  1.00  0.00    -0.201 OA 
HETATM   25  O   UNK A   1      -5.956   8.778  66.936  1.00  0.00    -0.054 OA 
ATOM     26  N   PRO A   2      -6.688  10.942  67.061  1.00  0.00    -0.090 N  
ATOM     27  CD  PRO A   2      -5.470  11.480  66.463  1.00  0.00    -0.117 C  
ATOM     28  O   PRO A   2      -8.864  12.023  65.908  1.00  0.00    -0.052 OA 
ATOM     29  C   PRO A   2      -8.755  12.338  67.220  1.00  0.00    -0.188 C  
ATOM     30  CA  PRO A   2      -7.394  11.989  67.818  1.00  0.00    -0.113 C  
ATOM     31  CB  PRO A   2      -6.479  13.216  67.776  1.00  0.00    -0.153 C  
ATOM     32  CG  PRO A   2      -5.128  12.690  67.310  1.00  0.00     0.028 C  
ENDBRANCH   8  23
ENDBRANCH   7   8
ENDBRANCH   6   7
ENDBRANCH   5   6
ENDBRANCH   3   5
TORSDOF 10
ENDMDL
MODEL      339
REMARK 921   NORMALIZED FREE ENERGY PREDICTED BY IDOCK:    0.90 KCAL/MOL
REMARK 922        TOTAL FREE ENERGY PREDICTED BY IDOCK:   -0.54 KCAL/MOL
REMARK 923 INTER-LIGAND FREE ENERGY PREDICTED BY IDOCK:   -3.39 KCAL/MOL
REMARK 924 INTRA-LIGAND FREE ENERGY PREDICTED BY IDOCK:    2.86 KCAL/MOL
REMARK 927      BINDING AFFINITY PREDICTED BY RF-SCORE:    0.00 PKD
ROOT
HETATM    1  N   UNK A   1     -11.445   4.639  72.906  1.00  0.00    -0.131 NA 
HETATM    2  H2  UNK A   1     -11.217   3.657  72.747  1.00  0.00     0.000 HD 
HETATM    3  C   UNK A   1     -10.270   5.498  72.823  1.00  0.00    -0.186 C  
HETATM    4  H1  UNK A   1     -11.912   4.785  73.801  1.00  0.00     0.000 HD 
ENDROOT
BRANCH   3   5
HETATM    5  C   UNK A   1      -9.572   5.278  71.485  1.00  0.00    -0.201 C  
BRANCH   5   6
HETATM    6  C   UNK A   1      -8.715   6.483  71.078  1.00  0.00    -0.138 C  
BRANCH   6   7
HETATM    7  C   UNK A   1      -9.133   6.955  69.681  1.00  0.00    -0.143 C  
BRANCH   7   8
HETATM    8  C   UNK A   1      -8.375   8.174  69.128  1.00  0.00    -0.131 C  
BRANCH   8   9
HETATM    9  N   UNK A   1      -6.931   8.220  69.513  1.00  0.00    -0.045 NA 
HETATM   10  H   UNK A   1      -6.833   8.134  70.525  1.00  0.00     0.000 HD 
BRANCH   9  11
HETATM   11  C   UNK A   1      -6.063   7.216  68.821  1.00  0.00    -0.030 C  
HETATM   12  C   UNK A   1      -6.717   6.887  67.466  1.00  0.00    -0.067 C  
HETATM   13  O   UNK A   1      -6.115   6.489  66.479  1.00  0.00    -0.030 OA 
HETATM   14  O   UNK A   1      -8.059   7.080  67.487  1.00  0.00    -0.111 OA 
BRANCH  11  15
HETATM   15  C   UNK A   1      -5.910   5.914  69.639  1.00  0.00    -0.020 C  
BRANCH  15  16
HETATM   16  C   UNK A   1      -5.881   4.649  68.764  1.00  0.00    -0.021 C  
BRANCH  16  17
HETATM   17  C   UNK A   1      -7.170   3.860  68.830  1.00  0.00    -0.054 A  
HETATM   18  C   UNK A   1      -8.249   4.200  68.003  1.00  0.00    -0.094 A  
HETATM   19  C   UNK A   1      -9.571   2.406  68.935  1.00  0.00    -0.067 A  
HETATM   20  C   UNK A   1      -9.441   3.475  68.055  1.00  0.00    -0.217 A  
HETATM   21  C   UNK A   1      -8.502   2.047  69.752  1.00  0.00    -0.085 A  
HETATM   22  C   UNK A   1      -7.308   2.768  69.701  1.00  0.00    -0.044 A  
ENDBRANCH  16  17
ENDBRANCH  15  16
ENDBRANCH  11  15
ENDBRANCH   9  11
ENDBRANCH   8   9
BRANCH   8  23
HETATM   23  C   UNK A   1      -9.031   9.543  69.529  1.00  0.00    -0.181 C  
ATOM     24  OXT PRO A   2      -8.526   9.325  65.170  1.00  0.00    -0.140 OA 
HETATM   25  O   UNK A   1      -9.185   9.832  70.717  1.00  0.00    -0.109 OA 
ATOM     26  N   PRO A   2      -9.367  10.447  68.521  1.00  0.00    -0.153 N  
ATOM     27  CD  PRO A   2      -9.867  11.779  68.845  1.00  0.00    -0.002 C  
ATOM     28  O   PRO A   2      -7.415  10.594  66.676  1.00  0.00    -0.115 OA 
ATOM     29  C   PRO A   2      -8.508   9.930  66.231  1.00  0.00    -0.128 C  
ATOM     30  CA  PRO A   2      -9.726  10.086  67.140  1.00  0.00    -0.174 C  
ATOM     31  CB  PRO A   2     -10.609  11.230  66.630  1.00  0.00    -0.309 C  
ATOM     32  CG  PRO A   2     -11.012  12.006  67.877  1.00  0.00    -0.266 C  
ENDBRANCH   8  23
ENDBRANCH   7   8
ENDBRANCH   6   7
ENDBRANCH   5   6
ENDBRANCH   3   5
TORSDOF 10
ENDMDL
MODEL      340
REMARK 921   NORMALIZED FREE ENERGY PREDICTED BY IDOCK:    0.91 KCAL/MOL
REMARK 922        TOTAL FREE ENERGY PREDICTED BY IDOCK:   -0.51 KCAL/MOL
REMARK 923 INTER-LIGAND FREE ENERGY PREDICTED BY IDOCK:   -4.12 KCAL/MOL
REMARK 924 INTRA-LIGAND FREE ENERGY PREDICTED BY IDOCK:    3.61 KCAL/MOL
REMARK 927      BINDING AFFINITY PREDICTED BY RF-SCORE:    0.00 PKD
ROOT
HETATM    1  N   UNK A   1      -5.131  14.619  68.646  1.00  0.00    -0.091 NA 
HETATM    2  H2  UNK A   1      -4.526  13.812  68.490  1.00  0.00     0.000 HD 
HETATM    3  C   UNK A   1      -6.379  14.524  67.900  1.00  0.00    -0.161 C  
HETATM    4  H1  UNK A   1      -4.664  15.498  68.420  1.00  0.00     0.000 HD 
ENDROOT
BRANCH   3   5
HETATM    5  C   UNK A   1      -7.075  13.210  68.237  1.00  0.00    -0.105 C  
BRANCH   5   6
HETATM    6  C   UNK A   1      -8.250  13.411  69.202  1.00  0.00     0.460 C  
BRANCH   6   7
HETATM    7  C   UNK A   1      -9.563  13.096  68.477  1.00  0.00    -0.118 C  
BRANCH   7   8
HETATM    8  C   UNK A   1     -10.840  13.664  69.120  1.00  0.00    -0.152 C  
BRANCH   8   9
HETATM    9  N   UNK A   1     -11.486  12.747  70.108  1.00  0.00    -0.519 NA 
HETATM   10  H   UNK A   1     -12.381  13.129  70.412  1.00  0.00     0.000 HD 
BRANCH   9  11
HETATM   11  C   UNK A   1     -11.658  11.337  69.636  1.00  0.00    -0.330 C  
HETATM   12  C   UNK A   1     -12.492  10.588  70.693  1.00  0.00    -0.366 C  
HETATM   13  O   UNK A   1     -13.191   9.612  70.467  1.00  0.00    -0.021 OA 
HETATM   14  O   UNK A   1     -12.357  11.133  71.928  1.00  0.00    -0.061 OA 
BRANCH  11  15
HETATM   15  C   UNK A   1     -10.306  10.613  69.451  1.00  0.00    -0.234 C  
BRANCH  15  16
HETATM   16  C   UNK A   1     -10.271   9.219  70.100  1.00  0.00    -0.251 C  
BRANCH  16  17
HETATM   17  C   UNK A   1      -9.413   8.237  69.335  1.00  0.00    -0.159 A  
HETATM   18  C   UNK A   1      -9.066   7.006  69.908  1.00  0.00    -0.141 A  
HETATM   19  C   UNK A   1      -7.821   6.398  67.929  1.00  0.00    -0.104 A  
HETATM   20  C   UNK A   1      -8.276   6.092  69.207  1.00  0.00    -0.116 A  
HETATM   21  C   UNK A   1      -8.171   7.611  67.341  1.00  0.00    -0.116 A  
HETATM   22  C   UNK A   1      -8.962   8.525  68.037  1.00  0.00    -0.141 A  
ENDBRANCH  16  17
ENDBRANCH  15  16
ENDBRANCH  11  15
ENDBRANCH   9  11
ENDBRANCH   8   9
BRANCH   8  23
HETATM   23  C   UNK A   1     -11.925  14.088  68.066  1.00  0.00    -0.350 C  
ATOM     24  OXT PRO A   2      -8.974  11.414  66.210  1.00  0.00    -0.192 OA 
HETATM   25  O   UNK A   1     -12.800  14.900  68.370  1.00  0.00     0.645 OA 
ATOM     26  N   PRO A   2     -11.835  13.581  66.769  1.00  0.00    -0.386 N  
ATOM     27  CD  PRO A   2     -12.745  14.034  65.722  1.00  0.00    -0.450 C  
ATOM     28  O   PRO A   2      -9.292  13.630  65.896  1.00  0.00    -0.099 OA 
ATOM     29  C   PRO A   2      -9.721  12.380  66.189  1.00  0.00    -0.246 C  
ATOM     30  CA  PRO A   2     -11.231  12.290  66.401  1.00  0.00    -0.324 C  
ATOM     31  CB  PRO A   2     -11.913  11.873  65.094  1.00  0.00    -0.113 C  
ATOM     32  CG  PRO A   2     -13.139  12.771  64.981  1.00  0.00     0.126 C  
ENDBRANCH   8  23
ENDBRANCH   7   8
ENDBRANCH   6   7
ENDBRANCH   5   6
ENDBRANCH   3   5
TORSDOF 10
ENDMDL
MODEL      341
REMARK 921   NORMALIZED FREE ENERGY PREDICTED BY IDOCK:    0.97 KCAL/MOL
REMARK 922        TOTAL FREE ENERGY PREDICTED BY IDOCK:   -0.41 KCAL/MOL
REMARK 923 INTER-LIGAND FREE ENERGY PREDICTED BY IDOCK:   -2.82 KCAL/MOL
REMARK 924 INTRA-LIGAND FREE ENERGY PREDICTED BY IDOCK:    2.41 KCAL/MOL
REMARK 927      BINDING AFFINITY PREDICTED BY RF-SCORE:    0.00 PKD
ROOT
HETATM    1  N   UNK A   1     -12.034  11.129  66.964  1.00  0.00    -0.015 NA 
HETATM    2  H2  UNK A   1     -12.986  10.764  66.923  1.00  0.00     0.000 HD 
HETATM    3  C   UNK A   1     -11.362  10.777  68.208  1.00  0.00    -0.309 C  
HETATM    4  H1  UNK A   1     -12.005  12.141  66.835  1.00  0.00     0.000 HD 
ENDROOT
BRANCH   3   5
HETATM    5  C   UNK A   1     -11.407   9.265  68.400  1.00  0.00     0.372 C  
BRANCH   5   6
HETATM    6  C   UNK A   1     -10.579   8.524  67.343  1.00  0.00    -0.304 C  
BRANCH   6   7
HETATM    7  C   UNK A   1      -9.277   9.290  67.089  1.00  0.00    -0.157 C  
BRANCH   7   8
HETATM    8  C   UNK A   1      -8.029   8.753  67.812  1.00  0.00    -0.106 C  
BRANCH   8   9
HETATM    9  N   UNK A   1      -8.054   8.945  69.294  1.00  0.00    -0.107 NA 
HETATM   10  H   UNK A   1      -8.886   9.467  69.569  1.00  0.00     0.000 HD 
BRANCH   9  11
HETATM   11  C   UNK A   1      -7.947   7.683  70.092  1.00  0.00    -0.109 C  
HETATM   12  C   UNK A   1      -8.144   8.049  71.576  1.00  0.00    -0.110 C  
HETATM   13  O   UNK A   1      -8.561   7.285  72.433  1.00  0.00    -0.114 OA 
HETATM   14  O   UNK A   1      -7.789   9.332  71.835  1.00  0.00    -0.285 OA 
BRANCH  11  15
HETATM   15  C   UNK A   1      -6.575   6.995  69.918  1.00  0.00    -0.044 C  
BRANCH  15  16
HETATM   16  C   UNK A   1      -6.258   5.983  71.032  1.00  0.00    -0.039 C  
BRANCH  16  17
HETATM   17  C   UNK A   1      -6.966   4.661  70.841  1.00  0.00    -0.037 A  
HETATM   18  C   UNK A   1      -7.549   4.007  71.935  1.00  0.00    -0.066 A  
HETATM   19  C   UNK A   1      -8.290   2.205  70.507  1.00  0.00    -0.074 A  
HETATM   20  C   UNK A   1      -8.208   2.787  71.768  1.00  0.00    -0.061 A  
HETATM   21  C   UNK A   1      -7.728   2.851  69.408  1.00  0.00    -0.045 A  
HETATM   22  C   UNK A   1      -7.072   4.071  69.572  1.00  0.00    -0.046 A  
ENDBRANCH  16  17
ENDBRANCH  15  16
ENDBRANCH  11  15
ENDBRANCH   9  11
ENDBRANCH   8   9
BRANCH   8  23
HETATM   23  C   UNK A   1      -6.689   9.362  67.264  1.00  0.00    -0.075 C  
ATOM     24  OXT PRO A   2      -9.687  12.530  67.792  1.00  0.00    -0.191 OA 
HETATM   25  O   UNK A   1      -5.746   8.623  66.974  1.00  0.00    -0.040 OA 
ATOM     26  N   PRO A   2      -6.615  10.738  67.048  1.00  0.00    -0.079 N  
ATOM     27  CD  PRO A   2      -5.438  11.338  66.430  1.00  0.00    -0.139 C  
ATOM     28  O   PRO A   2      -8.862  11.646  65.881  1.00  0.00    -0.164 OA 
ATOM     29  C   PRO A   2      -8.768  12.002  67.184  1.00  0.00    -0.183 C  
ATOM     30  CA  PRO A   2      -7.384  11.756  67.783  1.00  0.00    -0.106 C  
ATOM     31  CB  PRO A   2      -6.551  13.039  67.704  1.00  0.00    -0.160 C  
ATOM     32  CG  PRO A   2      -5.171  12.589  67.244  1.00  0.00    -0.025 C  
ENDBRANCH   8  23
ENDBRANCH   7   8
ENDBRANCH   6   7
ENDBRANCH   5   6
ENDBRANCH   3   5
TORSDOF 10
ENDMDL
MODEL      342
REMARK 921   NORMALIZED FREE ENERGY PREDICTED BY IDOCK:    1.18 KCAL/MOL
REMARK 922        TOTAL FREE ENERGY PREDICTED BY IDOCK:   -0.09 KCAL/MOL
REMARK 923 INTER-LIGAND FREE ENERGY PREDICTED BY IDOCK:   -4.83 KCAL/MOL
REMARK 924 INTRA-LIGAND FREE ENERGY PREDICTED BY IDOCK:    4.73 KCAL/MOL
REMARK 927      BINDING AFFINITY PREDICTED BY RF-SCORE:    0.00 PKD
ROOT
HETATM    1  N   UNK A   1      -7.435  19.473  65.884  1.00  0.00    -0.303 NA 
HETATM    2  H2  UNK A   1      -7.723  18.528  65.632  1.00  0.00     0.000 HD 
HETATM    3  C   UNK A   1      -7.857  19.837  67.231  1.00  0.00    -0.274 C  
HETATM    4  H1  UNK A   1      -7.776  20.170  65.221  1.00  0.00     0.000 HD 
ENDROOT
BRANCH   3   5
HETATM    5  C   UNK A   1      -7.348  18.796  68.222  1.00  0.00    -0.295 C  
BRANCH   5   6
HETATM    6  C   UNK A   1      -8.383  17.695  68.485  1.00  0.00    -0.291 C  
BRANCH   6   7
HETATM    7  C   UNK A   1      -8.187  16.561  67.474  1.00  0.00    -0.170 C  
BRANCH   7   8
HETATM    8  C   UNK A   1      -9.015  15.288  67.721  1.00  0.00    -0.177 C  
BRANCH   8   9
HETATM    9  N   UNK A   1     -10.479  15.536  67.887  1.00  0.00    -0.260 NA 
HETATM   10  H   UNK A   1     -10.827  16.122  67.128  1.00  0.00     0.000 HD 
BRANCH   9  11
HETATM   11  C   UNK A   1     -11.316  14.300  68.012  1.00  0.00    -0.294 C  
HETATM   12  C   UNK A   1     -11.699  13.849  66.590  1.00  0.00    -0.395 C  
HETATM   13  O   UNK A   1     -11.968  12.700  66.272  1.00  0.00    -0.448 OA 
HETATM   14  O   UNK A   1     -11.717  14.884  65.714  1.00  0.00    -0.296 OA 
BRANCH  11  15
HETATM   15  C   UNK A   1     -12.602  14.546  68.830  1.00  0.00     0.279 C  
BRANCH  15  16
HETATM   16  C   UNK A   1     -12.496  14.062  70.286  1.00  0.00    -0.403 C  
BRANCH  16  17
HETATM   17  C   UNK A   1     -12.168  12.590  70.393  1.00  0.00    -0.368 A  
HETATM   18  C   UNK A   1     -11.646  11.901  69.290  1.00  0.00    -0.376 A  
HETATM   19  C   UNK A   1     -11.548   9.855  70.572  1.00  0.00    -0.386 A  
HETATM   20  C   UNK A   1     -11.337  10.542  69.381  1.00  0.00    -0.331 A  
HETATM   21  C   UNK A   1     -12.052  10.531  71.681  1.00  0.00    -0.197 A  
HETATM   22  C   UNK A   1     -12.359  11.889  71.594  1.00  0.00     0.096 A  
ENDBRANCH  16  17
ENDBRANCH  15  16
ENDBRANCH  11  15
ENDBRANCH   9  11
ENDBRANCH   8   9
BRANCH   8  23
HETATM   23  C   UNK A   1      -8.517  14.459  68.960  1.00  0.00    -0.001 C  
ATOM     24  OXT PRO A   2      -5.187  16.744  67.230  1.00  0.00    -0.120 OA 
HETATM   25  O   UNK A   1      -9.285  13.689  69.539  1.00  0.00     0.728 OA 
ATOM     26  N   PRO A   2      -7.179  14.561  69.342  1.00  0.00    -0.141 N  
ATOM     27  CD  PRO A   2      -6.639  13.724  70.408  1.00  0.00     0.202 C  
ATOM     28  O   PRO A   2      -5.563  14.515  67.193  1.00  0.00    -0.127 OA 
ATOM     29  C   PRO A   2      -5.656  15.745  67.752  1.00  0.00    -0.137 C  
ATOM     30  CA  PRO A   2      -6.321  15.738  69.128  1.00  0.00    -0.134 C  
ATOM     31  CB  PRO A   2      -5.250  15.672  70.220  1.00  0.00    -0.135 C  
ATOM     32  CG  PRO A   2      -5.775  14.660  71.231  1.00  0.00    -0.074 C  
ENDBRANCH   8  23
ENDBRANCH   7   8
ENDBRANCH   6   7
ENDBRANCH   5   6
ENDBRANCH   3   5
TORSDOF 10
ENDMDL
MODEL      343
REMARK 921   NORMALIZED FREE ENERGY PREDICTED BY IDOCK:    1.30 KCAL/MOL
REMARK 922        TOTAL FREE ENERGY PREDICTED BY IDOCK:    0.10 KCAL/MOL
REMARK 923 INTER-LIGAND FREE ENERGY PREDICTED BY IDOCK:   -3.26 KCAL/MOL
REMARK 924 INTRA-LIGAND FREE ENERGY PREDICTED BY IDOCK:    3.36 KCAL/MOL
REMARK 927      BINDING AFFINITY PREDICTED BY RF-SCORE:    0.00 PKD
ROOT
HETATM    1  N   UNK A   1     -12.876  11.854  64.417  1.00  0.00    -0.420 NA 
HETATM    2  H2  UNK A   1     -12.742  12.758  64.870  1.00  0.00     0.000 HD 
HETATM    3  C   UNK A   1     -11.911  11.625  63.349  1.00  0.00    -0.212 C  
HETATM    4  H1  UNK A   1     -13.822  11.743  64.051  1.00  0.00     0.000 HD 
ENDROOT
BRANCH   3   5
HETATM    5  C   UNK A   1     -10.497  11.792  63.896  1.00  0.00    -0.437 C  
BRANCH   5   6
HETATM    6  C   UNK A   1      -9.930  10.474  64.437  1.00  0.00    -0.410 C  
BRANCH   6   7
HETATM    7  C   UNK A   1      -8.471  10.683  64.858  1.00  0.00    -0.116 C  
BRANCH   7   8
HETATM    8  C   UNK A   1      -7.806   9.504  65.589  1.00  0.00    -0.101 C  
BRANCH   8   9
HETATM    9  N   UNK A   1      -6.893   8.690  64.730  1.00  0.00    -0.072 NA 
HETATM   10  H   UNK A   1      -6.128   9.268  64.382  1.00  0.00     0.000 HD 
BRANCH   9  11
HETATM   11  C   UNK A   1      -6.355   7.454  65.380  1.00  0.00    -0.038 C  
HETATM   12  C   UNK A   1      -5.995   6.456  64.263  1.00  0.00    -0.023 C  
HETATM   13  O   UNK A   1      -5.153   5.576  64.359  1.00  0.00    -0.009 OA 
HETATM   14  O   UNK A   1      -6.733   6.657  63.143  1.00  0.00    -0.040 OA 
BRANCH  11  15
HETATM   15  C   UNK A   1      -7.381   6.800  66.332  1.00  0.00    -0.073 C  
BRANCH  15  16
HETATM   16  C   UNK A   1      -6.921   5.436  66.874  1.00  0.00    -0.065 C  
BRANCH  16  17
HETATM   17  C   UNK A   1      -6.887   5.387  68.385  1.00  0.00    -0.056 A  
HETATM   18  C   UNK A   1      -7.985   4.892  69.102  1.00  0.00    -0.075 A  
HETATM   19  C   UNK A   1      -6.840   5.285  71.193  1.00  0.00    -0.045 A  
HETATM   20  C   UNK A   1      -7.960   4.840  70.497  1.00  0.00    -0.072 A  
HETATM   21  C   UNK A   1      -5.735   5.766  70.493  1.00  0.00    -0.013 A  
HETATM   22  C   UNK A   1      -5.756   5.816  69.099  1.00  0.00    -0.011 A  
ENDBRANCH  16  17
ENDBRANCH  15  16
ENDBRANCH  11  15
ENDBRANCH   9  11
ENDBRANCH   8   9
BRANCH   8  23
HETATM   23  C   UNK A   1      -8.841   8.531  66.260  1.00  0.00    -0.156 C  
ATOM     24  OXT PRO A   2      -6.897  11.015  69.318  1.00  0.00    -0.086 OA 
HETATM   25  O   UNK A   1      -9.436   7.694  65.578  1.00  0.00     0.245 OA 
ATOM     26  N   PRO A   2      -9.017   8.587  67.643  1.00  0.00    -0.135 N  
ATOM     27  CD  PRO A   2      -9.874   7.626  68.329  1.00  0.00    -0.166 C  
ATOM     28  O   PRO A   2      -6.650   8.807  68.901  1.00  0.00    -0.051 OA 
ATOM     29  C   PRO A   2      -7.362   9.959  68.919  1.00  0.00    -0.078 C  
ATOM     30  CA  PRO A   2      -8.814   9.782  68.478  1.00  0.00    -0.121 C  
ATOM     31  CB  PRO A   2      -9.707   9.584  69.706  1.00  0.00    -0.234 C  
ATOM     32  CG  PRO A   2     -10.658   8.455  69.328  1.00  0.00    -0.193 C  
ENDBRANCH   8  23
ENDBRANCH   7   8
ENDBRANCH   6   7
ENDBRANCH   5   6
ENDBRANCH   3   5
TORSDOF 10
ENDMDL
MODEL      344
REMARK 921   NORMALIZED FREE ENERGY PREDICTED BY IDOCK:    2.05 KCAL/MOL
REMARK 922        TOTAL FREE ENERGY PREDICTED BY IDOCK:    1.30 KCAL/MOL
REMARK 923 INTER-LIGAND FREE ENERGY PREDICTED BY IDOCK:    0.57 KCAL/MOL
REMARK 924 INTRA-LIGAND FREE ENERGY PREDICTED BY IDOCK:    0.73 KCAL/MOL
REMARK 927      BINDING AFFINITY PREDICTED BY RF-SCORE:    0.00 PKD
ROOT
HETATM    1  N   UNK A   1     -11.915  15.343  73.042  1.00  0.00    -0.435 NA 
HETATM    2  H2  UNK A   1     -11.406  16.215  72.898  1.00  0.00     0.000 HD 
HETATM    3  C   UNK A   1     -12.111  14.607  71.800  1.00  0.00    -0.319 C  
HETATM    4  H1  UNK A   1     -12.817  15.494  73.495  1.00  0.00     0.000 HD 
ENDROOT
BRANCH   3   5
HETATM    5  C   UNK A   1     -10.763  14.380  71.124  1.00  0.00     1.292 C  
BRANCH   5   6
HETATM    6  C   UNK A   1     -10.852  14.519  69.599  1.00  0.00    -0.180 C  
BRANCH   6   7
HETATM    7  C   UNK A   1      -9.605  13.902  68.959  1.00  0.00     0.128 C  
BRANCH   7   8
HETATM    8  C   UNK A   1      -9.650  13.724  67.431  1.00  0.00    -0.229 C  
BRANCH   8   9
HETATM    9  N   UNK A   1      -9.085  12.426  66.952  1.00  0.00    -0.206 NA 
HETATM   10  H   UNK A   1      -8.812  12.500  65.972  1.00  0.00     0.000 HD 
BRANCH   9  11
HETATM   11  C   UNK A   1      -7.948  11.896  67.769  1.00  0.00    -0.144 C  
HETATM   12  C   UNK A   1      -6.964  11.202  66.807  1.00  0.00    -0.137 C  
HETATM   13  O   UNK A   1      -5.768  11.062  67.015  1.00  0.00    -0.051 OA 
HETATM   14  O   UNK A   1      -7.580  10.747  65.689  1.00  0.00    -0.131 OA 
BRANCH  11  15
HETATM   15  C   UNK A   1      -8.417  10.880  68.834  1.00  0.00    -0.142 C  
BRANCH  15  16
HETATM   16  C   UNK A   1      -9.882  10.447  68.654  1.00  0.00    -0.183 C  
BRANCH  16  17
HETATM   17  C   UNK A   1     -10.518   9.980  69.945  1.00  0.00    -0.317 A  
HETATM   18  C   UNK A   1     -10.170   8.739  70.495  1.00  0.00    -0.240 A  
HETATM   19  C   UNK A   1     -11.685   9.097  72.343  1.00  0.00    -0.044 A  
HETATM   20  C   UNK A   1     -10.750   8.302  71.688  1.00  0.00    -0.320 A  
HETATM   21  C   UNK A   1     -12.029  10.340  71.815  1.00  0.00    -0.079 A  
HETATM   22  C   UNK A   1     -11.449  10.781  70.625  1.00  0.00    -0.314 A  
ENDBRANCH  16  17
ENDBRANCH  15  16
ENDBRANCH  11  15
ENDBRANCH   9  11
ENDBRANCH   8   9
BRANCH   8  23
HETATM   23  C   UNK A   1      -8.933  14.885  66.653  1.00  0.00    -0.270 C  
ATOM     24  OXT PRO A   2     -12.660  16.350  68.461  1.00  0.00     0.863 OA 
HETATM   25  O   UNK A   1      -7.908  14.658  66.008  1.00  0.00     1.305 OA 
ATOM     26  N   PRO A   2      -9.517  16.152  66.650  1.00  0.00    -0.232 N  
ATOM     27  CD  PRO A   2      -8.957  17.233  65.846  1.00  0.00     0.045 C  
ATOM     28  O   PRO A   2     -12.176  15.981  66.284  1.00  0.00     1.262 OA 
ATOM     29  C   PRO A   2     -11.843  16.307  67.555  1.00  0.00     0.640 C  
ATOM     30  CA  PRO A   2     -10.374  16.696  67.717  1.00  0.00    -0.306 C  
ATOM     31  CB  PRO A   2     -10.228  18.218  67.627  1.00  0.00    -0.397 C  
ATOM     32  CG  PRO A   2      -9.004  18.449  66.751  1.00  0.00    -0.291 C  
ENDBRANCH   8  23
ENDBRANCH   7   8
ENDBRANCH   6   7
ENDBRANCH   5   6
ENDBRANCH   3   5
TORSDOF 10
ENDMDL
MODEL      345
REMARK 921   NORMALIZED FREE ENERGY PREDICTED BY IDOCK:    3.76 KCAL/MOL
REMARK 922        TOTAL FREE ENERGY PREDICTED BY IDOCK:    4.00 KCAL/MOL
REMARK 923 INTER-LIGAND FREE ENERGY PREDICTED BY IDOCK:   -5.66 KCAL/MOL
REMARK 924 INTRA-LIGAND FREE ENERGY PREDICTED BY IDOCK:    9.66 KCAL/MOL
REMARK 927      BINDING AFFINITY PREDICTED BY RF-SCORE:    0.00 PKD
ROOT
HETATM    1  N   UNK A   1     -12.413  12.811  64.457  1.00  0.00    -0.588 NA 
HETATM    2  H2  UNK A   1     -11.772  13.605  64.470  1.00  0.00     0.000 HD 
HETATM    3  C   UNK A   1     -11.916  11.714  63.638  1.00  0.00    -0.268 C  
HETATM    4  H1  UNK A   1     -13.347  13.076  64.141  1.00  0.00     0.000 HD 
ENDROOT
BRANCH   3   5
HETATM    5  C   UNK A   1     -10.521  11.318  64.110  1.00  0.00    -0.431 C  
BRANCH   5   6
HETATM    6  C   UNK A   1     -10.424  11.260  65.640  1.00  0.00    -0.317 C  
BRANCH   6   7
HETATM    7  C   UNK A   1      -9.146  10.517  66.041  1.00  0.00    -0.191 C  
BRANCH   7   8
HETATM    8  C   UNK A   1      -9.298   9.475  67.163  1.00  0.00    -0.143 C  
BRANCH   8   9
HETATM    9  N   UNK A   1     -10.716   9.159  67.514  1.00  0.00    -0.423 NA 
HETATM   10  H   UNK A   1     -10.977   8.246  67.142  1.00  0.00     0.000 HD 
BRANCH   9  11
HETATM   11  C   UNK A   1     -11.033   9.232  68.976  1.00  0.00    -0.033 C  
HETATM   12  C   UNK A   1     -11.657  10.613  69.252  1.00  0.00    -0.275 C  
HETATM   13  O   UNK A   1     -12.422  10.861  70.171  1.00  0.00    -0.314 OA 
HETATM   14  O   UNK A   1     -11.251  11.544  68.353  1.00  0.00    -0.213 OA 
BRANCH  11  15
HETATM   15  C   UNK A   1      -9.775   9.059  69.855  1.00  0.00    -0.194 C  
BRANCH  15  16
HETATM   16  C   UNK A   1      -9.998   8.123  71.055  1.00  0.00    -0.220 C  
BRANCH  16  17
HETATM   17  C   UNK A   1     -11.408   8.191  71.598  1.00  0.00    -0.315 A  
HETATM   18  C   UNK A   1     -12.285   7.112  71.424  1.00  0.00    -0.399 A  
HETATM   19  C   UNK A   1     -14.029   8.297  72.603  1.00  0.00    -0.042 A  
HETATM   20  C   UNK A   1     -13.587   7.166  71.925  1.00  0.00    -0.279 A  
HETATM   21  C   UNK A   1     -13.163   9.371  72.797  1.00  0.00    -0.111 A  
HETATM   22  C   UNK A   1     -11.860   9.320  72.300  1.00  0.00    -0.136 A  
ENDBRANCH  16  17
ENDBRANCH  15  16
ENDBRANCH  11  15
ENDBRANCH   9  11
ENDBRANCH   8   9
BRANCH   8  23
HETATM   23  C   UNK A   1      -8.547   9.876  68.483  1.00  0.00    -0.117 C  
ATOM     24  OXT PRO A   2      -6.871   6.154  66.858  1.00  0.00    -0.059 OA 
HETATM   25  O   UNK A   1      -8.920  10.852  69.137  1.00  0.00    -0.137 OA 
ATOM     26  N   PRO A   2      -7.501   9.069  68.932  1.00  0.00    -0.074 N  
ATOM     27  CD  PRO A   2      -6.850   9.329  70.212  1.00  0.00    -0.071 C  
ATOM     28  O   PRO A   2      -8.136   6.466  68.706  1.00  0.00    -0.111 OA 
ATOM     29  C   PRO A   2      -7.226   6.865  67.785  1.00  0.00    -0.091 C  
ATOM     30  CA  PRO A   2      -6.635   8.244  68.074  1.00  0.00    -0.057 C  
ATOM     31  CB  PRO A   2      -5.318   8.092  68.841  1.00  0.00    -0.027 C  
ATOM     32  CG  PRO A   2      -5.370   9.152  69.933  1.00  0.00    -0.029 C  
ENDBRANCH   8  23
ENDBRANCH   7   8
ENDBRANCH   6   7
ENDBRANCH   5   6
ENDBRANCH   3   5
TORSDOF 10
ENDMDL
MODEL      346
REMARK 921   NORMALIZED FREE ENERGY PREDICTED BY IDOCK:    3.90 KCAL/MOL
REMARK 922        TOTAL FREE ENERGY PREDICTED BY IDOCK:    4.23 KCAL/MOL
REMARK 923 INTER-LIGAND FREE ENERGY PREDICTED BY IDOCK:   -5.22 KCAL/MOL
REMARK 924 INTRA-LIGAND FREE ENERGY PREDICTED BY IDOCK:    9.44 KCAL/MOL
REMARK 927      BINDING AFFINITY PREDICTED BY RF-SCORE:    0.00 PKD
ROOT
HETATM    1  N   UNK A   1     -12.430  12.822  64.456  1.00  0.00    -0.588 NA 
HETATM    2  H2  UNK A   1     -11.764  13.594  64.491  1.00  0.00     0.000 HD 
HETATM    3  C   UNK A   1     -11.936  11.703  63.663  1.00  0.00    -0.268 C  
HETATM    4  H1  UNK A   1     -13.341  13.115  64.102  1.00  0.00     0.000 HD 
ENDROOT
BRANCH   3   5
HETATM    5  C   UNK A   1     -10.575  11.266  64.193  1.00  0.00    -0.437 C  
BRANCH   5   6
HETATM    6  C   UNK A   1     -10.537  11.228  65.726  1.00  0.00    -0.306 C  
BRANCH   6   7
HETATM    7  C   UNK A   1      -9.322  10.417  66.185  1.00  0.00    -0.210 C  
BRANCH   7   8
HETATM    8  C   UNK A   1      -9.575   9.407  67.318  1.00  0.00    -0.151 C  
BRANCH   8   9
HETATM    9  N   UNK A   1     -11.021   9.194  67.632  1.00  0.00    -0.476 NA 
HETATM   10  H   UNK A   1     -11.345   8.316  67.225  1.00  0.00     0.000 HD 
BRANCH   9  11
HETATM   11  C   UNK A   1     -11.362   9.247  69.088  1.00  0.00     0.251 C  
HETATM   12  C   UNK A   1     -11.550  10.727  69.472  1.00  0.00    -0.303 C  
HETATM   13  O   UNK A   1     -12.242  11.126  70.396  1.00  0.00    -0.318 OA 
HETATM   14  O   UNK A   1     -10.843  11.556  68.664  1.00  0.00    -0.190 OA 
BRANCH  11  15
HETATM   15  C   UNK A   1     -10.254   8.632  69.971  1.00  0.00    -0.201 C  
BRANCH  15  16
HETATM   16  C   UNK A   1     -10.803   7.869  71.188  1.00  0.00    -0.257 C  
BRANCH  16  17
HETATM   17  C   UNK A   1      -9.738   7.078  71.914  1.00  0.00    -0.166 A  
HETATM   18  C   UNK A   1      -9.242   7.525  73.146  1.00  0.00    -0.244 A  
HETATM   19  C   UNK A   1      -7.761   5.621  73.280  1.00  0.00    -0.099 A  
HETATM   20  C   UNK A   1      -8.261   6.799  73.825  1.00  0.00    -0.124 A  
HETATM   21  C   UNK A   1      -8.255   5.156  72.062  1.00  0.00    -0.117 A  
HETATM   22  C   UNK A   1      -9.238   5.878  71.384  1.00  0.00    -0.158 A  
ENDBRANCH  16  17
ENDBRANCH  15  16
ENDBRANCH  11  15
ENDBRANCH   9  11
ENDBRANCH   8   9
BRANCH   8  23
HETATM   23  C   UNK A   1      -8.836   9.779  68.653  1.00  0.00    -0.126 C  
ATOM     24  OXT PRO A   2      -6.891   6.327  66.757  1.00  0.00    -0.059 OA 
HETATM   25  O   UNK A   1      -9.277  10.674  69.376  1.00  0.00    -0.158 OA 
ATOM     26  N   PRO A   2      -7.720   9.033  69.033  1.00  0.00    -0.088 N  
ATOM     27  CD  PRO A   2      -7.071   9.259  70.320  1.00  0.00    -0.084 C  
ATOM     28  O   PRO A   2      -8.144   6.407  68.636  1.00  0.00    -0.111 OA 
ATOM     29  C   PRO A   2      -7.287   6.941  67.735  1.00  0.00    -0.097 C  
ATOM     30  CA  PRO A   2      -6.805   8.342  68.110  1.00  0.00    -0.069 C  
ATOM     31  CB  PRO A   2      -5.467   8.248  68.849  1.00  0.00    -0.035 C  
ATOM     32  CG  PRO A   2      -5.586   9.224  70.012  1.00  0.00    -0.027 C  
ENDBRANCH   8  23
ENDBRANCH   7   8
ENDBRANCH   6   7
ENDBRANCH   5   6
ENDBRANCH   3   5
TORSDOF 10
ENDMDL
MODEL      347
REMARK 921   NORMALIZED FREE ENERGY PREDICTED BY IDOCK:    4.14 KCAL/MOL
REMARK 922        TOTAL FREE ENERGY PREDICTED BY IDOCK:    4.61 KCAL/MOL
REMARK 923 INTER-LIGAND FREE ENERGY PREDICTED BY IDOCK:   -1.91 KCAL/MOL
REMARK 924 INTRA-LIGAND FREE ENERGY PREDICTED BY IDOCK:    6.52 KCAL/MOL
REMARK 927      BINDING AFFINITY PREDICTED BY RF-SCORE:    0.00 PKD
ROOT
HETATM    1  N   UNK A   1     -10.087   9.753  63.056  1.00  0.00    -0.023 NA 
HETATM    2  H2  UNK A   1      -9.665   9.410  62.192  1.00  0.00     0.000 HD 
HETATM    3  C   UNK A   1      -9.326   9.359  64.235  1.00  0.00     0.099 C  
HETATM    4  H1  UNK A   1     -11.056   9.448  63.158  1.00  0.00     0.000 HD 
ENDROOT
BRANCH   3   5
HETATM    5  C   UNK A   1      -7.879   9.814  64.082  1.00  0.00    -0.134 C  
BRANCH   5   6
HETATM    6  C   UNK A   1      -7.047   9.521  65.337  1.00  0.00    -0.095 C  
BRANCH   6   7
HETATM    7  C   UNK A   1      -7.502  10.441  66.475  1.00  0.00    -0.119 C  
BRANCH   7   8
HETATM    8  C   UNK A   1      -8.579   9.869  67.412  1.00  0.00    -0.125 C  
BRANCH   8   9
HETATM    9  N   UNK A   1      -8.888   8.425  67.177  1.00  0.00    -0.128 NA 
HETATM   10  H   UNK A   1      -9.098   8.264  66.192  1.00  0.00     0.000 HD 
BRANCH   9  11
HETATM   11  C   UNK A   1      -7.831   7.473  67.643  1.00  0.00    -0.113 C  
HETATM   12  C   UNK A   1      -6.844   8.262  68.523  1.00  0.00    -0.064 C  
HETATM   13  O   UNK A   1      -6.154   7.776  69.407  1.00  0.00    -0.033 OA 
HETATM   14  O   UNK A   1      -6.814   9.579  68.200  1.00  0.00    -0.069 OA 
BRANCH  11  15
HETATM   15  C   UNK A   1      -7.061   6.833  66.467  1.00  0.00    -0.071 C  
BRANCH  15  16
HETATM   16  C   UNK A   1      -5.957   5.863  66.921  1.00  0.00    -0.018 C  
BRANCH  16  17
HETATM   17  C   UNK A   1      -6.453   4.832  67.911  1.00  0.00    -0.045 A  
HETATM   18  C   UNK A   1      -7.004   3.625  67.458  1.00  0.00    -0.055 A  
HETATM   19  C   UNK A   1      -7.376   2.903  69.733  1.00  0.00    -0.044 A  
HETATM   20  C   UNK A   1      -7.460   2.667  68.365  1.00  0.00    -0.048 A  
HETATM   21  C   UNK A   1      -6.817   4.091  70.198  1.00  0.00    -0.034 A  
HETATM   22  C   UNK A   1      -6.357   5.050  69.294  1.00  0.00    -0.031 A  
ENDBRANCH  16  17
ENDBRANCH  15  16
ENDBRANCH  11  15
ENDBRANCH   9  11
ENDBRANCH   8   9
BRANCH   8  23
HETATM   23  C   UNK A   1      -9.929  10.670  67.363  1.00  0.00    -0.181 C  
ATOM     24  OXT PRO A   2      -9.395   8.845  71.323  1.00  0.00    -0.223 OA 
HETATM   25  O   UNK A   1     -10.301  11.193  66.311  1.00  0.00    -0.235 OA 
ATOM     26  N   PRO A   2     -10.724  10.717  68.508  1.00  0.00    -0.195 N  
ATOM     27  CD  PRO A   2     -12.041  11.345  68.482  1.00  0.00    -0.098 C  
ATOM     28  O   PRO A   2     -10.853   8.301  69.683  1.00  0.00    -0.226 OA 
ATOM     29  C   PRO A   2     -10.083   9.177  70.371  1.00  0.00    -0.218 C  
ATOM     30  CA  PRO A   2     -10.229  10.621  69.892  1.00  0.00     0.039 C  
ATOM     31  CB  PRO A   2     -11.266  11.349  70.752  1.00  0.00     0.878 C  
ATOM     32  CG  PRO A   2     -12.111  12.146  69.767  1.00  0.00    -0.306 C  
ENDBRANCH   8  23
ENDBRANCH   7   8
ENDBRANCH   6   7
ENDBRANCH   5   6
ENDBRANCH   3   5
TORSDOF 10
ENDMDL
MODEL      348
REMARK 921   NORMALIZED FREE ENERGY PREDICTED BY IDOCK:    4.28 KCAL/MOL
REMARK 922        TOTAL FREE ENERGY PREDICTED BY IDOCK:    4.83 KCAL/MOL
REMARK 923 INTER-LIGAND FREE ENERGY PREDICTED BY IDOCK:    0.72 KCAL/MOL
REMARK 924 INTRA-LIGAND FREE ENERGY PREDICTED BY IDOCK:    4.11 KCAL/MOL
REMARK 927      BINDING AFFINITY PREDICTED BY RF-SCORE:    0.00 PKD
ROOT
HETATM    1  N   UNK A   1     -10.388   9.793  63.185  1.00  0.00     0.540 NA 
HETATM    2  H2  UNK A   1      -9.892   9.320  62.429  1.00  0.00     0.000 HD 
HETATM    3  C   UNK A   1      -9.941   9.348  64.499  1.00  0.00     0.941 C  
HETATM    4  H1  UNK A   1     -11.399   9.679  63.112  1.00  0.00     0.000 HD 
ENDROOT
BRANCH   3   5
HETATM    5  C   UNK A   1      -8.429   9.518  64.607  1.00  0.00    -0.177 C  
BRANCH   5   6
HETATM    6  C   UNK A   1      -7.877   8.945  65.918  1.00  0.00    -0.102 C  
BRANCH   6   7
HETATM    7  C   UNK A   1      -8.229   9.888  67.073  1.00  0.00    -0.117 C  
BRANCH   7   8
HETATM    8  C   UNK A   1      -9.724  10.000  67.419  1.00  0.00    -0.161 C  
BRANCH   8   9
HETATM    9  N   UNK A   1     -10.560   8.883  66.882  1.00  0.00    -0.236 NA 
HETATM   10  H   UNK A   1     -10.816   9.068  65.912  1.00  0.00     0.000 HD 
BRANCH   9  11
HETATM   11  C   UNK A   1      -9.945   7.524  67.005  1.00  0.00    -0.234 C  
HETATM   12  C   UNK A   1     -11.087   6.490  66.985  1.00  0.00    -0.339 C  
HETATM   13  O   UNK A   1     -10.971   5.329  66.621  1.00  0.00    -0.184 OA 
HETATM   14  O   UNK A   1     -12.255   7.013  67.433  1.00  0.00     2.180 OA 
BRANCH  11  15
HETATM   15  C   UNK A   1      -9.139   7.363  68.313  1.00  0.00    -0.128 C  
BRANCH  15  16
HETATM   16  C   UNK A   1      -8.458   5.990  68.441  1.00  0.00    -0.112 C  
BRANCH  16  17
HETATM   17  C   UNK A   1      -7.518   5.692  67.294  1.00  0.00    -0.084 A  
HETATM   18  C   UNK A   1      -6.155   6.002  67.400  1.00  0.00    -0.018 A  
HETATM   19  C   UNK A   1      -5.755   5.144  65.177  1.00  0.00    -0.014 A  
HETATM   20  C   UNK A   1      -5.280   5.727  66.347  1.00  0.00    -0.009 A  
HETATM   21  C   UNK A   1      -7.104   4.817  65.064  1.00  0.00    -0.063 A  
HETATM   22  C   UNK A   1      -7.981   5.087  66.115  1.00  0.00    -0.107 A  
ENDBRANCH  16  17
ENDBRANCH  15  16
ENDBRANCH  11  15
ENDBRANCH   9  11
ENDBRANCH   8   9
BRANCH   8  23
HETATM   23  C   UNK A   1     -10.365  11.356  66.953  1.00  0.00    -0.227 C  
ATOM     24  OXT PRO A   2     -10.976  10.797  71.267  1.00  0.00     0.729 OA 
HETATM   25  O   UNK A   1     -10.369  11.661  65.759  1.00  0.00    -0.232 OA 
ATOM     26  N   PRO A   2     -10.986  12.167  67.903  1.00  0.00    -0.217 N  
ATOM     27  CD  PRO A   2     -11.700  13.376  67.506  1.00  0.00    -0.366 C  
ATOM     28  O   PRO A   2     -12.483  10.696  69.585  1.00  0.00    -0.257 OA 
ATOM     29  C   PRO A   2     -11.348  11.157  70.161  1.00  0.00    -0.209 C  
ATOM     30  CA  PRO A   2     -10.635  12.224  69.332  1.00  0.00     0.229 C  
ATOM     31  CB  PRO A   2     -11.062  13.617  69.806  1.00  0.00     0.006 C  
ATOM     32  CG  PRO A   2     -11.294  14.417  68.531  1.00  0.00    -0.307 C  
ENDBRANCH   8  23
ENDBRANCH   7   8
ENDBRANCH   6   7
ENDBRANCH   5   6
ENDBRANCH   3   5
TORSDOF 10
ENDMDL
MODEL      349
REMARK 921   NORMALIZED FREE ENERGY PREDICTED BY IDOCK:    5.53 KCAL/MOL
REMARK 922        TOTAL FREE ENERGY PREDICTED BY IDOCK:    6.81 KCAL/MOL
REMARK 923 INTER-LIGAND FREE ENERGY PREDICTED BY IDOCK:   -2.53 KCAL/MOL
REMARK 924 INTRA-LIGAND FREE ENERGY PREDICTED BY IDOCK:    9.34 KCAL/MOL
REMARK 927      BINDING AFFINITY PREDICTED BY RF-SCORE:    0.00 PKD
ROOT
HETATM    1  N   UNK A   1     -11.511   4.648  72.764  1.00  0.00    -0.053 NA 
HETATM    2  H2  UNK A   1     -11.234   3.667  72.792  1.00  0.00     0.000 HD 
HETATM    3  C   UNK A   1     -10.362   5.545  72.746  1.00  0.00    -0.194 C  
HETATM    4  H1  UNK A   1     -12.125   4.897  73.540  1.00  0.00     0.000 HD 
ENDROOT
BRANCH   3   5
HETATM    5  C   UNK A   1      -9.444   5.173  71.587  1.00  0.00    -0.193 C  
BRANCH   5   6
HETATM    6  C   UNK A   1      -8.599   6.363  71.116  1.00  0.00    -0.128 C  
BRANCH   6   7
HETATM    7  C   UNK A   1      -8.645   6.447  69.588  1.00  0.00    -0.134 C  
BRANCH   7   8
HETATM    8  C   UNK A   1      -7.612   7.380  68.933  1.00  0.00    -0.103 C  
BRANCH   8   9
HETATM    9  N   UNK A   1      -6.193   7.053  69.273  1.00  0.00    -0.033 NA 
HETATM   10  H   UNK A   1      -5.987   7.330  70.232  1.00  0.00     0.000 HD 
BRANCH   9  11
HETATM   11  C   UNK A   1      -5.808   5.623  69.052  1.00  0.00    -0.016 C  
HETATM   12  C   UNK A   1      -7.066   4.865  68.587  1.00  0.00    -0.057 C  
HETATM   13  O   UNK A   1      -7.058   3.851  67.906  1.00  0.00    -0.054 OA 
HETATM   14  O   UNK A   1      -8.206   5.451  69.031  1.00  0.00    -0.092 OA 
BRANCH  11  15
HETATM   15  C   UNK A   1      -5.263   4.960  70.336  1.00  0.00    -0.004 C  
BRANCH  15  16
HETATM   16  C   UNK A   1      -5.442   3.432  70.352  1.00  0.00    -0.012 C  
BRANCH  16  17
HETATM   17  C   UNK A   1      -6.095   2.931  71.621  1.00  0.00    -0.014 A  
HETATM   18  C   UNK A   1      -7.472   2.672  71.651  1.00  0.00    -0.040 A  
HETATM   19  C   UNK A   1      -7.327   1.997  73.967  1.00  0.00    -0.032 A  
HETATM   20  C   UNK A   1      -8.083   2.206  72.817  1.00  0.00    -0.054 A  
HETATM   21  C   UNK A   1      -5.955   2.237  73.947  1.00  0.00    -0.004 A  
HETATM   22  C   UNK A   1      -5.341   2.699  72.782  1.00  0.00     0.000 A  
ENDBRANCH  16  17
ENDBRANCH  15  16
ENDBRANCH  11  15
ENDBRANCH   9  11
ENDBRANCH   8   9
BRANCH   8  23
HETATM   23  C   UNK A   1      -7.854   8.897  69.261  1.00  0.00    -0.096 C  
ATOM     24  OXT PRO A   2      -8.695   8.112  65.021  1.00  0.00    -0.099 OA 
HETATM   25  O   UNK A   1      -7.598   9.337  70.383  1.00  0.00    -0.094 OA 
ATOM     26  N   PRO A   2      -8.296   9.742  68.242  1.00  0.00    -0.106 N  
ATOM     27  CD  PRO A   2      -8.422  11.179  68.462  1.00  0.00    -0.156 C  
ATOM     28  O   PRO A   2      -6.977   9.249  65.951  1.00  0.00    -0.086 OA 
ATOM     29  C   PRO A   2      -8.256   8.805  65.925  1.00  0.00    -0.118 C  
ATOM     30  CA  PRO A   2      -9.104   9.327  67.084  1.00  0.00    -0.130 C  
ATOM     31  CB  PRO A   2      -9.867  10.580  66.643  1.00  0.00    -0.246 C  
ATOM     32  CG  PRO A   2      -9.736  11.555  67.806  1.00  0.00    -0.180 C  
ENDBRANCH   8  23
ENDBRANCH   7   8
ENDBRANCH   6   7
ENDBRANCH   5   6
ENDBRANCH   3   5
TORSDOF 10
ENDMDL
MODEL      350
REMARK 921   NORMALIZED FREE ENERGY PREDICTED BY IDOCK:   13.07 KCAL/MOL
REMARK 922        TOTAL FREE ENERGY PREDICTED BY IDOCK:   18.75 KCAL/MOL
REMARK 923 INTER-LIGAND FREE ENERGY PREDICTED BY IDOCK:    7.39 KCAL/MOL
REMARK 924 INTRA-LIGAND FREE ENERGY PREDICTED BY IDOCK:   11.36 KCAL/MOL
REMARK 927      BINDING AFFINITY PREDICTED BY RF-SCORE:    0.00 PKD
ROOT
HETATM    1  N   UNK A   1      -9.297  12.783  65.474  1.00  0.00    -0.442 NA 
HETATM    2  H2  UNK A   1      -8.499  13.025  66.060  1.00  0.00     0.000 HD 
HETATM    3  C   UNK A   1     -10.300  13.840  65.443  1.00  0.00    -0.333 C  
HETATM    4  H1  UNK A   1      -9.734  11.906  65.761  1.00  0.00     0.000 HD 
ENDROOT
BRANCH   3   5
HETATM    5  C   UNK A   1      -9.647  15.149  65.014  1.00  0.00     0.321 C  
BRANCH   5   6
HETATM    6  C   UNK A   1      -9.735  16.222  66.106  1.00  0.00    -0.357 C  
BRANCH   6   7
HETATM    7  C   UNK A   1      -8.699  15.926  67.195  1.00  0.00    -0.223 C  
BRANCH   7   8
HETATM    8  C   UNK A   1      -7.829  14.677  66.974  1.00  0.00    -0.021 C  
BRANCH   8   9
HETATM    9  N   UNK A   1      -8.590  13.390  67.006  1.00  0.00    -0.341 NA 
HETATM   10  H   UNK A   1      -8.885  13.132  66.064  1.00  0.00     0.000 HD 
BRANCH   9  11
HETATM   11  C   UNK A   1      -7.870  12.250  67.654  1.00  0.00    -0.156 C  
HETATM   12  C   UNK A   1      -6.529  12.064  66.920  1.00  0.00    -0.059 C  
HETATM   13  O   UNK A   1      -5.525  11.572  67.414  1.00  0.00    -0.050 OA 
HETATM   14  O   UNK A   1      -6.585  12.504  65.638  1.00  0.00     2.513 OA 
BRANCH  11  15
HETATM   15  C   UNK A   1      -8.675  10.933  67.581  1.00  0.00    -0.127 C  
BRANCH  15  16
HETATM   16  C   UNK A   1     -10.076  11.043  68.206  1.00  0.00    -0.191 C  
BRANCH  16  17
HETATM   17  C   UNK A   1     -10.583   9.724  68.744  1.00  0.00    -0.244 A  
HETATM   18  C   UNK A   1     -11.882   9.626  69.263  1.00  0.00     0.456 A  
HETATM   19  C   UNK A   1     -11.547   7.282  69.745  1.00  0.00     0.048 A  
HETATM   20  C   UNK A   1     -12.360   8.411  69.758  1.00  0.00     1.584 A  
HETATM   21  C   UNK A   1     -10.259   7.362  69.218  1.00  0.00    -0.199 A  
HETATM   22  C   UNK A   1      -9.780   8.574  68.720  1.00  0.00    -0.168 A  
ENDBRANCH  16  17
ENDBRANCH  15  16
ENDBRANCH  11  15
ENDBRANCH   9  11
ENDBRANCH   8   9
BRANCH   8  23
HETATM   23  C   UNK A   1      -6.640  14.564  67.995  1.00  0.00    -0.148 C  
ATOM     24  OXT PRO A   2     -10.341  15.654  70.096  1.00  0.00    -0.303 OA 
HETATM   25  O   UNK A   1      -5.497  14.343  67.592  1.00  0.00    -0.314 OA 
ATOM     26  N   PRO A   2      -6.894  14.787  69.348  1.00  0.00    -0.150 N  
ATOM     27  CD  PRO A   2      -5.806  14.813  70.321  1.00  0.00    -0.151 C  
ATOM     28  O   PRO A   2      -8.509  16.912  69.682  1.00  0.00     0.315 OA 
ATOM     29  C   PRO A   2      -9.136  15.735  69.918  1.00  0.00     0.194 C  
ATOM     30  CA  PRO A   2      -8.180  14.548  70.023  1.00  0.00     0.787 C  
ATOM     31  CB  PRO A   2      -7.833  14.292  71.493  1.00  0.00     4.585 C  
ATOM     32  CG  PRO A   2      -6.333  14.031  71.508  1.00  0.00     0.567 C  
ENDBRANCH   8  23
ENDBRANCH   7   8
ENDBRANCH   6   7
ENDBRANCH   5   6
ENDBRANCH   3   5
TORSDOF 10
ENDMDL
MODEL      351
REMARK 921   NORMALIZED FREE ENERGY PREDICTED BY IDOCK:   26.17 KCAL/MOL
REMARK 922        TOTAL FREE ENERGY PREDICTED BY IDOCK:   39.52 KCAL/MOL
REMARK 923 INTER-LIGAND FREE ENERGY PREDICTED BY IDOCK:   24.46 KCAL/MOL
REMARK 924 INTRA-LIGAND FREE ENERGY PREDICTED BY IDOCK:   15.06 KCAL/MOL
REMARK 927      BINDING AFFINITY PREDICTED BY RF-SCORE:    0.00 PKD
ROOT
HETATM    1  N   UNK A   1      -7.327  18.556  65.784  1.00  0.00    -0.495 NA 
HETATM    2  H2  UNK A   1      -7.697  17.623  65.603  1.00  0.00     0.000 HD 
HETATM    3  C   UNK A   1      -7.731  19.066  67.088  1.00  0.00    -0.234 C  
HETATM    4  H1  UNK A   1      -7.594  19.223  65.060  1.00  0.00     0.000 HD 
ENDROOT
BRANCH   3   5
HETATM    5  C   UNK A   1      -7.331  18.069  68.171  1.00  0.00    -0.250 C  
BRANCH   5   6
HETATM    6  C   UNK A   1      -8.503  17.173  68.590  1.00  0.00    -0.258 C  
BRANCH   6   7
HETATM    7  C   UNK A   1      -8.515  15.911  67.722  1.00  0.00    -0.165 C  
BRANCH   7   8
HETATM    8  C   UNK A   1      -9.491  14.804  68.156  1.00  0.00    -0.208 C  
BRANCH   8   9
HETATM    9  N   UNK A   1     -10.918  15.243  68.225  1.00  0.00    -0.265 NA 
HETATM   10  H   UNK A   1     -11.205  15.654  67.337  1.00  0.00     0.000 HD 
BRANCH   9  11
HETATM   11  C   UNK A   1     -11.884  14.175  68.637  1.00  0.00    -0.348 C  
HETATM   12  C   UNK A   1     -12.318  13.421  67.366  1.00  0.00    -0.065 C  
HETATM   13  O   UNK A   1     -12.711  12.264  67.341  1.00  0.00     0.644 OA 
HETATM   14  O   UNK A   1     -12.224  14.195  66.256  1.00  0.00    -0.437 OA 
BRANCH  11  15
HETATM   15  C   UNK A   1     -13.135  14.756  69.333  1.00  0.00     0.930 C  
BRANCH  15  16
HETATM   16  C   UNK A   1     -13.685  16.014  68.639  1.00  0.00     5.425 C  
BRANCH  16  17
HETATM   17  C   UNK A   1     -12.634  17.084  68.444  1.00  0.00     3.284 A  
HETATM   18  C   UNK A   1     -12.885  18.175  67.602  1.00  0.00     6.595 A  
HETATM   19  C   UNK A   1     -10.696  19.083  68.070  1.00  0.00    -0.297 A  
HETATM   20  C   UNK A   1     -11.922  19.169  67.418  1.00  0.00     2.274 A  
HETATM   21  C   UNK A   1     -10.438  18.011  68.922  1.00  0.00    -0.117 A  
HETATM   22  C   UNK A   1     -11.401  17.018  69.110  1.00  0.00     0.395 A  
ENDBRANCH  16  17
ENDBRANCH  15  16
ENDBRANCH  11  15
ENDBRANCH   9  11
ENDBRANCH   8   9
BRANCH   8  23
HETATM   23  C   UNK A   1      -9.113  14.154  69.536  1.00  0.00     0.690 C  
ATOM     24  OXT PRO A   2      -5.602  16.126  67.779  1.00  0.00    -0.121 OA 
HETATM   25  O   UNK A   1      -9.943  13.485  70.153  1.00  0.00     1.679 OA 
ATOM     26  N   PRO A   2      -7.808  14.293  70.008  1.00  0.00     0.601 N  
ATOM     27  CD  PRO A   2      -7.373  13.610  71.222  1.00  0.00     4.027 C  
ATOM     28  O   PRO A   2      -6.028  13.920  68.026  1.00  0.00    -0.114 OA 
ATOM     29  C   PRO A   2      -6.134  15.218  68.397  1.00  0.00    -0.105 C  
ATOM     30  CA  PRO A   2      -6.907  15.416  69.700  1.00  0.00    -0.185 C  
ATOM     31  CB  PRO A   2      -5.927  15.492  70.875  1.00  0.00     0.227 C  
ATOM     32  CG  PRO A   2      -6.555  14.642  71.972  1.00  0.00     1.357 C  
ENDBRANCH   8  23
ENDBRANCH   7   8
ENDBRANCH   6   7
ENDBRANCH   5   6
ENDBRANCH   3   5
TORSDOF 10
ENDMDL
MODEL      352
REMARK 921   NORMALIZED FREE ENERGY PREDICTED BY IDOCK:   41.23 KCAL/MOL
REMARK 922        TOTAL FREE ENERGY PREDICTED BY IDOCK:   63.38 KCAL/MOL
REMARK 923 INTER-LIGAND FREE ENERGY PREDICTED BY IDOCK:   40.31 KCAL/MOL
REMARK 924 INTRA-LIGAND FREE ENERGY PREDICTED BY IDOCK:   23.07 KCAL/MOL
REMARK 927      BINDING AFFINITY PREDICTED BY RF-SCORE:    0.00 PKD
ROOT
HETATM    1  N   UNK A   1      -6.565  18.818  64.871  1.00  0.00    -0.491 NA 
HETATM    2  H2  UNK A   1      -7.001  17.897  64.827  1.00  0.00     0.000 HD 
HETATM    3  C   UNK A   1      -6.910  19.534  66.093  1.00  0.00    -0.235 C  
HETATM    4  H1  UNK A   1      -6.797  19.394  64.062  1.00  0.00     0.000 HD 
ENDROOT
BRANCH   3   5
HETATM    5  C   UNK A   1      -6.563  18.673  67.303  1.00  0.00    -0.205 C  
BRANCH   5   6
HETATM    6  C   UNK A   1      -7.810  18.061  67.952  1.00  0.00    -0.235 C  
BRANCH   6   7
HETATM    7  C   UNK A   1      -8.066  16.674  67.354  1.00  0.00    -0.187 C  
BRANCH   7   8
HETATM    8  C   UNK A   1      -9.487  16.113  67.540  1.00  0.00    -0.223 C  
BRANCH   8   9
HETATM    9  N   UNK A   1     -10.559  16.949  66.919  1.00  0.00    -0.263 NA 
HETATM   10  H   UNK A   1     -10.374  17.079  65.925  1.00  0.00     0.000 HD 
BRANCH   9  11
HETATM   11  C   UNK A   1     -11.951  16.440  67.126  1.00  0.00     1.290 C  
HETATM   12  C   UNK A   1     -12.259  15.445  65.991  1.00  0.00     0.742 C  
HETATM   13  O   UNK A   1     -13.066  14.530  66.066  1.00  0.00    -0.010 OA 
HETATM   14  O   UNK A   1     -11.533  15.703  64.876  1.00  0.00    -0.326 OA 
BRANCH  11  15
HETATM   15  C   UNK A   1     -12.998  17.576  67.102  1.00  0.00     7.167 C  
BRANCH  15  16
HETATM   16  C   UNK A   1     -12.756  18.599  65.979  1.00  0.00     9.271 C  
BRANCH  16  17
HETATM   17  C   UNK A   1     -11.334  19.114  65.951  1.00  0.00     0.775 A  
HETATM   18  C   UNK A   1     -10.872  19.854  64.855  1.00  0.00     0.930 A  
HETATM   19  C   UNK A   1      -8.697  20.082  65.882  1.00  0.00    -0.138 A  
HETATM   20  C   UNK A   1      -9.562  20.336  64.822  1.00  0.00     2.099 A  
HETATM   21  C   UNK A   1      -9.148  19.360  66.985  1.00  0.00    -0.362 A  
HETATM   22  C   UNK A   1     -10.457  18.880  67.022  1.00  0.00    -0.497 A  
ENDBRANCH  16  17
ENDBRANCH  15  16
ENDBRANCH  11  15
ENDBRANCH   9  11
ENDBRANCH   8   9
BRANCH   8  23
HETATM   23  C   UNK A   1      -9.864  15.875  69.046  1.00  0.00    -0.234 C  
ATOM     24  OXT PRO A   2      -5.506  16.224  68.614  1.00  0.00    -0.100 OA 
HETATM   25  O   UNK A   1     -11.037  15.673  69.367  1.00  0.00    -0.260 OA 
ATOM     26  N   PRO A   2      -8.842  15.830  69.995  1.00  0.00     0.270 N  
ATOM     27  CD  PRO A   2      -9.126  15.494  71.387  1.00  0.00     3.880 C  
ATOM     28  O   PRO A   2      -6.754  14.399  69.085  1.00  0.00    -0.103 OA 
ATOM     29  C   PRO A   2      -6.506  15.730  69.110  1.00  0.00    -0.143 C  
ATOM     30  CA  PRO A   2      -7.551  16.528  69.889  1.00  0.00     0.766 C  
ATOM     31  CB  PRO A   2      -7.075  16.736  71.330  1.00  0.00     4.611 C  
ATOM     32  CG  PRO A   2      -8.301  16.475  72.195  1.00  0.00    12.521 C  
ENDBRANCH   8  23
ENDBRANCH   7   8
ENDBRANCH   6   7
ENDBRANCH   5   6
ENDBRANCH   3   5
TORSDOF 10
ENDMDL
