MODEL        1
REMARK 921   NORMALIZED FREE ENERGY PREDICTED BY IDOCK:   -6.99 KCAL/MOL
REMARK 922        TOTAL FREE ENERGY PREDICTED BY IDOCK:   -9.52 KCAL/MOL
REMARK 923 INTER-LIGAND FREE ENERGY PREDICTED BY IDOCK:   -9.03 KCAL/MOL
REMARK 924 INTRA-LIGAND FREE ENERGY PREDICTED BY IDOCK:   -0.48 KCAL/MOL
REMARK 927      BINDING AFFINITY PREDICTED BY RF-SCORE:    0.00 PKD
ROOT
HETATM    1  C   UNL     1     -11.298  13.633  68.055  1.00  0.00    -0.285 C  
HETATM    2  C   UNL     1     -11.924  12.241  68.227  1.00  0.00    -0.259 C  
HETATM    3  C   UNL     1     -12.031  11.961  69.667  1.00  0.00    -0.365 A  
HETATM    4  C   UNL     1     -11.937  10.845  70.465  1.00  0.00    -0.371 A  
HETATM    5  N   UNL     1     -12.462  11.185  71.692  1.00  0.00    -0.241 NA 
HETATM    6  C   UNL     1     -12.912  12.497  71.663  1.00  0.00    -0.302 A  
HETATM    7  H   UNL     1     -12.511  10.566  72.501  1.00  0.00     0.000 HD 
HETATM    8  C   UNL     1     -13.741  13.233  72.496  1.00  0.00    -0.613 A  
HETATM    9  C   UNL     1     -13.973  14.558  72.088  1.00  0.00    -0.597 A  
HETATM   10  C   UNL     1     -13.259  15.175  71.026  1.00  0.00    -0.510 A  
HETATM   11  C   UNL     1     -12.364  14.432  70.247  1.00  0.00    -0.410 A  
HETATM   12  C   UNL     1     -12.362  13.041  70.526  1.00  0.00    -0.365 A  
HETATM   13  C   UNL     1     -11.427  14.767  69.125  1.00  0.00    -0.323 C  
HETATM   14  C   UNL     1     -10.490  15.770  68.961  1.00  0.00    -0.225 C  
HETATM   15  C   UNL     1      -9.419  15.450  67.862  1.00  0.00    -0.197 C  
HETATM   16  N   UNL     1     -11.373  14.356  66.793  1.00  0.00    -0.340 NA 
HETATM   17  C   UNL     1     -10.084  14.966  66.503  1.00  0.00    -0.271 C  
HETATM   18  C   UNL     1     -12.312  14.019  65.766  1.00  0.00    -0.480 C  
ENDROOT
BRANCH  15  19
HETATM   19  N   UNL     1      -8.214  16.249  67.658  1.00  0.00    -0.151 N  
HETATM   20  H   UNL     1      -7.299  15.992  68.028  1.00  0.00     0.000 HD 
BRANCH  19  21
HETATM   21  C   UNL     1      -8.443  17.406  66.900  1.00  0.00    -0.241 C  
HETATM   22  O   UNL     1      -7.989  17.533  65.760  1.00  0.00    -0.548 OA 
BRANCH  21  23
HETATM   23  N   UNL     1      -9.210  18.413  67.448  1.00  0.00    -0.270 N  
BRANCH  23  24
HETATM   24  C   UNL     1      -8.832  19.271  68.563  1.00  0.00    -0.369 C  
HETATM   25  C   UNL     1      -7.364  19.663  68.501  1.00  0.00    -0.371 C  
ENDBRANCH  23  24
BRANCH  23  26
HETATM   26  C   UNL     1     -10.498  18.705  66.791  1.00  0.00    -0.408 C  
HETATM   27  C   UNL     1     -10.493  19.980  65.957  1.00  0.00    -0.523 C  
ENDBRANCH  23  26
ENDBRANCH  21  23
ENDBRANCH  19  21
ENDBRANCH  15  19
TORSDOF 5
ENDMDL
MODEL        2
REMARK 921   NORMALIZED FREE ENERGY PREDICTED BY IDOCK:   -6.97 KCAL/MOL
REMARK 922        TOTAL FREE ENERGY PREDICTED BY IDOCK:   -9.49 KCAL/MOL
REMARK 923 INTER-LIGAND FREE ENERGY PREDICTED BY IDOCK:   -8.99 KCAL/MOL
REMARK 924 INTRA-LIGAND FREE ENERGY PREDICTED BY IDOCK:   -0.50 KCAL/MOL
REMARK 927      BINDING AFFINITY PREDICTED BY RF-SCORE:    0.00 PKD
ROOT
HETATM    1  C   UNL     1     -11.198  13.715  68.081  1.00  0.00    -0.275 C  
HETATM    2  C   UNL     1     -11.874  12.342  68.223  1.00  0.00    -0.367 C  
HETATM    3  C   UNL     1     -12.057  12.067  69.657  1.00  0.00    -0.295 A  
HETATM    4  C   UNL     1     -12.036  10.951  70.459  1.00  0.00    -0.371 A  
HETATM    5  N   UNL     1     -12.608  11.309  71.659  1.00  0.00    -0.303 NA 
HETATM    6  C   UNL     1     -13.017  12.634  71.608  1.00  0.00    -0.299 A  
HETATM    7  H   UNL     1     -12.714  10.693  72.464  1.00  0.00     0.000 HD 
HETATM    8  C   UNL     1     -13.861  13.395  72.400  1.00  0.00    -0.665 A  
HETATM    9  C   UNL     1     -14.033  14.726  71.982  1.00  0.00    -0.582 A  
HETATM   10  C   UNL     1     -13.251  15.320  70.955  1.00  0.00    -0.546 A  
HETATM   11  C   UNL     1     -12.343  14.548  70.220  1.00  0.00    -0.408 A  
HETATM   12  C   UNL     1     -12.397  13.158  70.498  1.00  0.00    -0.380 A  
HETATM   13  C   UNL     1     -11.344  14.854  69.144  1.00  0.00    -0.309 C  
HETATM   14  C   UNL     1     -10.370  15.827  69.024  1.00  0.00    -0.223 C  
HETATM   15  C   UNL     1      -9.258  15.473  67.978  1.00  0.00    -0.187 C  
HETATM   16  N   UNL     1     -11.191  14.437  66.816  1.00  0.00    -0.327 NA 
HETATM   17  C   UNL     1      -9.872  15.007  66.589  1.00  0.00    -0.254 C  
HETATM   18  C   UNL     1     -12.090  14.127  65.746  1.00  0.00    -0.420 C  
ENDROOT
BRANCH  15  19
HETATM   19  N   UNL     1      -8.021  16.235  67.831  1.00  0.00    -0.144 N  
HETATM   20  H   UNL     1      -7.144  15.977  68.284  1.00  0.00     0.000 HD 
BRANCH  19  21
HETATM   21  C   UNL     1      -8.162  17.358  67.004  1.00  0.00    -0.217 C  
HETATM   22  O   UNL     1      -7.672  17.393  65.872  1.00  0.00    -0.496 OA 
BRANCH  21  23
HETATM   23  N   UNL     1      -8.880  18.438  67.473  1.00  0.00    -0.259 N  
BRANCH  23  24
HETATM   24  C   UNL     1     -10.206  18.847  67.029  1.00  0.00    -0.378 C  
HETATM   25  C   UNL     1     -10.144  20.053  66.105  1.00  0.00    -0.588 C  
ENDBRANCH  23  24
BRANCH  23  26
HETATM   26  C   UNL     1      -8.287  19.201  68.588  1.00  0.00    -0.368 C  
HETATM   27  C   UNL     1      -6.940  19.831  68.260  1.00  0.00    -0.333 C  
ENDBRANCH  23  26
ENDBRANCH  21  23
ENDBRANCH  19  21
ENDBRANCH  15  19
TORSDOF 5
ENDMDL
MODEL        3
REMARK 921   NORMALIZED FREE ENERGY PREDICTED BY IDOCK:   -6.84 KCAL/MOL
REMARK 922        TOTAL FREE ENERGY PREDICTED BY IDOCK:   -9.32 KCAL/MOL
REMARK 923 INTER-LIGAND FREE ENERGY PREDICTED BY IDOCK:   -8.81 KCAL/MOL
REMARK 924 INTRA-LIGAND FREE ENERGY PREDICTED BY IDOCK:   -0.51 KCAL/MOL
REMARK 927      BINDING AFFINITY PREDICTED BY RF-SCORE:    0.00 PKD
ROOT
HETATM    1  C   UNL     1     -10.246  10.737  65.171  1.00  0.00    -0.298 C  
HETATM    2  C   UNL     1     -10.620  11.236  63.767  1.00  0.00    -0.455 C  
HETATM    3  C   UNL     1     -11.363  12.498  63.911  1.00  0.00    -0.504 A  
HETATM    4  C   UNL     1     -12.391  13.119  63.243  1.00  0.00    -0.283 A  
HETATM    5  N   UNL     1     -12.410  14.429  63.666  1.00  0.00    -1.106 NA 
HETATM    6  C   UNL     1     -11.382  14.645  64.573  1.00  0.00    -0.310 A  
HETATM    7  H   UNL     1     -13.079  15.135  63.360  1.00  0.00     0.000 HD 
HETATM    8  C   UNL     1     -10.792  15.791  65.081  1.00  0.00    -0.444 A  
HETATM    9  C   UNL     1      -9.736  15.570  65.982  1.00  0.00    -0.378 A  
HETATM   10  C   UNL     1      -9.421  14.286  66.503  1.00  0.00    -0.306 A  
HETATM   11  C   UNL     1     -10.088  13.148  66.033  1.00  0.00    -0.286 A  
HETATM   12  C   UNL     1     -10.955  13.389  64.937  1.00  0.00    -0.353 A  
HETATM   13  C   UNL     1     -10.052  11.693  66.395  1.00  0.00    -0.246 C  
HETATM   14  C   UNL     1     -10.110  11.032  67.607  1.00  0.00    -0.208 C  
HETATM   15  C   UNL     1     -10.527   9.527  67.479  1.00  0.00    -0.275 C  
HETATM   16  N   UNL     1      -9.224   9.721  65.376  1.00  0.00    -0.208 NA 
HETATM   17  C   UNL     1      -9.680   8.764  66.373  1.00  0.00    -0.265 C  
HETATM   18  C   UNL     1      -8.258   9.386  64.373  1.00  0.00    -0.147 C  
ENDROOT
BRANCH  15  19
HETATM   19  N   UNL     1     -10.864   8.685  68.624  1.00  0.00    -0.438 N  
HETATM   20  H   UNL     1     -11.246   7.744  68.537  1.00  0.00     0.000 HD 
BRANCH  19  21
HETATM   21  C   UNL     1     -10.609   9.305  69.855  1.00  0.00    -0.226 C  
HETATM   22  O   UNL     1      -9.459   9.488  70.261  1.00  0.00    -0.228 OA 
BRANCH  21  23
HETATM   23  N   UNL     1     -11.679   9.729  70.615  1.00  0.00    -0.286 N  
BRANCH  23  24
HETATM   24  C   UNL     1     -12.638  10.763  70.250  1.00  0.00    -0.276 C  
HETATM   25  C   UNL     1     -12.105  12.157  70.547  1.00  0.00    -0.383 C  
ENDBRANCH  23  24
BRANCH  23  26
HETATM   26  C   UNL     1     -11.927   9.009  71.880  1.00  0.00    -0.375 C  
HETATM   27  C   UNL     1     -13.337   9.186  72.427  1.00  0.00    -0.527 C  
ENDBRANCH  23  26
ENDBRANCH  21  23
ENDBRANCH  19  21
ENDBRANCH  15  19
TORSDOF 5
ENDMDL
MODEL        4
REMARK 921   NORMALIZED FREE ENERGY PREDICTED BY IDOCK:   -6.77 KCAL/MOL
REMARK 922        TOTAL FREE ENERGY PREDICTED BY IDOCK:   -9.23 KCAL/MOL
REMARK 923 INTER-LIGAND FREE ENERGY PREDICTED BY IDOCK:   -8.95 KCAL/MOL
REMARK 924 INTRA-LIGAND FREE ENERGY PREDICTED BY IDOCK:   -0.28 KCAL/MOL
REMARK 927      BINDING AFFINITY PREDICTED BY RF-SCORE:    0.00 PKD
ROOT
HETATM    1  C   UNL     1     -10.144  10.693  65.155  1.00  0.00    -0.307 C  
HETATM    2  C   UNL     1     -10.497  11.204  63.750  1.00  0.00    -0.444 C  
HETATM    3  C   UNL     1     -11.259  12.455  63.895  1.00  0.00    -0.487 A  
HETATM    4  C   UNL     1     -12.282  13.072  63.215  1.00  0.00    -0.382 A  
HETATM    5  N   UNL     1     -12.325  14.377  63.655  1.00  0.00    -1.106 NA 
HETATM    6  C   UNL     1     -11.317  14.593  64.584  1.00  0.00    -0.369 A  
HETATM    7  H   UNL     1     -12.997  15.078  63.344  1.00  0.00     0.000 HD 
HETATM    8  C   UNL     1     -10.752  15.741  65.117  1.00  0.00    -0.455 A  
HETATM    9  C   UNL     1      -9.711  15.521  66.036  1.00  0.00    -0.378 A  
HETATM   10  C   UNL     1      -9.390  14.235  66.546  1.00  0.00    -0.292 A  
HETATM   11  C   UNL     1     -10.033  13.094  66.050  1.00  0.00    -0.283 A  
HETATM   12  C   UNL     1     -10.882  13.338  64.940  1.00  0.00    -0.358 A  
HETATM   13  C   UNL     1      -9.986  11.635  66.394  1.00  0.00    -0.235 C  
HETATM   14  C   UNL     1     -10.058  10.958  67.596  1.00  0.00    -0.206 C  
HETATM   15  C   UNL     1     -10.454   9.450  67.441  1.00  0.00    -0.278 C  
HETATM   16  N   UNL     1      -9.113   9.687  65.367  1.00  0.00    -0.199 NA 
HETATM   17  C   UNL     1      -9.577   8.712  66.342  1.00  0.00    -0.247 C  
HETATM   18  C   UNL     1      -8.124   9.376  64.379  1.00  0.00    -0.138 C  
ENDROOT
BRANCH  15  19
HETATM   19  N   UNL     1     -10.802   8.589  68.569  1.00  0.00    -0.437 N  
HETATM   20  H   UNL     1     -11.162   7.641  68.463  1.00  0.00     0.000 HD 
BRANCH  19  21
HETATM   21  C   UNL     1     -10.591   9.201  69.812  1.00  0.00    -0.229 C  
HETATM   22  O   UNL     1      -9.455   9.443  70.229  1.00  0.00    -0.215 OA 
BRANCH  21  23
HETATM   23  N   UNL     1     -11.688   9.549  70.572  1.00  0.00    -0.251 N  
BRANCH  23  24
HETATM   24  C   UNL     1     -12.405   8.680  71.496  1.00  0.00    -0.324 C  
HETATM   25  C   UNL     1     -11.453   7.858  72.351  1.00  0.00    -0.433 C  
ENDBRANCH  23  24
BRANCH  23  26
HETATM   26  C   UNL     1     -12.125  10.957  70.508  1.00  0.00    -0.371 C  
HETATM   27  C   UNL     1     -13.007  11.386  71.674  1.00  0.00    -0.523 C  
ENDBRANCH  23  26
ENDBRANCH  21  23
ENDBRANCH  19  21
ENDBRANCH  15  19
TORSDOF 5
ENDMDL
MODEL        5
REMARK 921   NORMALIZED FREE ENERGY PREDICTED BY IDOCK:   -6.75 KCAL/MOL
REMARK 922        TOTAL FREE ENERGY PREDICTED BY IDOCK:   -9.21 KCAL/MOL
REMARK 923 INTER-LIGAND FREE ENERGY PREDICTED BY IDOCK:   -8.91 KCAL/MOL
REMARK 924 INTRA-LIGAND FREE ENERGY PREDICTED BY IDOCK:   -0.31 KCAL/MOL
REMARK 927      BINDING AFFINITY PREDICTED BY RF-SCORE:    0.00 PKD
ROOT
HETATM    1  C   UNL     1     -12.381  11.879  70.495  1.00  0.00    -0.284 C  
HETATM    2  C   UNL     1     -13.189  11.466  71.734  1.00  0.00    -0.472 C  
HETATM    3  C   UNL     1     -13.130  10.001  71.853  1.00  0.00    -0.563 A  
HETATM    4  C   UNL     1     -13.980   9.010  72.285  1.00  0.00    -0.455 A  
HETATM    5  N   UNL     1     -13.218   7.876  72.456  1.00  0.00    -0.504 NA 
HETATM    6  C   UNL     1     -11.891   8.152  72.163  1.00  0.00    -0.359 A  
HETATM    7  H   UNL     1     -13.577   6.969  72.753  1.00  0.00     0.000 HD 
HETATM    8  C   UNL     1     -10.705   7.483  72.421  1.00  0.00    -0.311 A  
HETATM    9  C   UNL     1      -9.543   8.130  71.965  1.00  0.00    -0.284 A  
HETATM   10  C   UNL     1      -9.576   9.275  71.125  1.00  0.00    -0.305 A  
HETATM   11  C   UNL     1     -10.795   9.889  70.810  1.00  0.00    -0.387 A  
HETATM   12  C   UNL     1     -11.912   9.360  71.506  1.00  0.00    -0.456 A  
HETATM   13  C   UNL     1     -11.190  11.037  69.930  1.00  0.00    -0.327 C  
HETATM   14  C   UNL     1     -10.870  11.366  68.627  1.00  0.00    -0.249 C  
HETATM   15  C   UNL     1     -11.879  12.369  67.970  1.00  0.00    -0.316 C  
HETATM   16  N   UNL     1     -11.946  13.254  70.287  1.00  0.00    -0.327 NA 
HETATM   17  C   UNL     1     -12.159  13.628  68.897  1.00  0.00    -0.300 C  
HETATM   18  C   UNL     1     -11.906  14.217  71.346  1.00  0.00    -0.092 C  
ENDROOT
BRANCH  15  19
HETATM   19  N   UNL     1     -11.876  12.696  66.546  1.00  0.00    -0.410 N  
HETATM   20  H   UNL     1     -12.711  12.972  66.031  1.00  0.00     0.000 HD 
BRANCH  19  21
HETATM   21  C   UNL     1     -10.607  12.590  65.961  1.00  0.00    -0.263 C  
HETATM   22  O   UNL     1      -9.671  13.317  66.308  1.00  0.00    -0.276 OA 
BRANCH  21  23
HETATM   23  N   UNL     1     -10.407  11.637  64.984  1.00  0.00    -0.267 N  
BRANCH  23  24
HETATM   24  C   UNL     1      -9.983  10.260  65.200  1.00  0.00    -0.325 C  
HETATM   25  C   UNL     1      -9.062   9.773  64.092  1.00  0.00    -0.289 C  
ENDBRANCH  23  24
BRANCH  23  26
HETATM   26  C   UNL     1     -10.735  12.022  63.598  1.00  0.00    -0.449 C  
HETATM   27  C   UNL     1     -12.226  12.205  63.341  1.00  0.00    -0.635 C  
ENDBRANCH  23  26
ENDBRANCH  21  23
ENDBRANCH  19  21
ENDBRANCH  15  19
TORSDOF 5
ENDMDL
MODEL        6
REMARK 921   NORMALIZED FREE ENERGY PREDICTED BY IDOCK:   -6.69 KCAL/MOL
REMARK 922        TOTAL FREE ENERGY PREDICTED BY IDOCK:   -9.13 KCAL/MOL
REMARK 923 INTER-LIGAND FREE ENERGY PREDICTED BY IDOCK:   -8.90 KCAL/MOL
REMARK 924 INTRA-LIGAND FREE ENERGY PREDICTED BY IDOCK:   -0.23 KCAL/MOL
REMARK 927      BINDING AFFINITY PREDICTED BY RF-SCORE:    0.00 PKD
ROOT
HETATM    1  C   UNL     1     -12.322  11.615  70.252  1.00  0.00    -0.258 C  
HETATM    2  C   UNL     1     -13.222  11.317  71.461  1.00  0.00    -0.354 C  
HETATM    3  C   UNL     1     -13.155   9.874  71.739  1.00  0.00    -0.553 A  
HETATM    4  C   UNL     1     -14.025   8.917  72.205  1.00  0.00    -0.466 A  
HETATM    5  N   UNL     1     -13.266   7.823  72.555  1.00  0.00    -0.434 NA 
HETATM    6  C   UNL     1     -11.922   8.094  72.340  1.00  0.00    -0.372 A  
HETATM    7  H   UNL     1     -13.636   6.944  72.916  1.00  0.00     0.000 HD 
HETATM    8  C   UNL     1     -10.753   7.480  72.759  1.00  0.00    -0.382 A  
HETATM    9  C   UNL     1      -9.566   8.100  72.331  1.00  0.00    -0.335 A  
HETATM   10  C   UNL     1      -9.545   9.149  71.374  1.00  0.00    -0.316 A  
HETATM   11  C   UNL     1     -10.742   9.702  70.901  1.00  0.00    -0.402 A  
HETATM   12  C   UNL     1     -11.905   9.226  71.559  1.00  0.00    -0.444 A  
HETATM   13  C   UNL     1     -11.078  10.743  69.876  1.00  0.00    -0.339 C  
HETATM   14  C   UNL     1     -10.659  10.941  68.574  1.00  0.00    -0.219 C  
HETATM   15  C   UNL     1     -11.623  11.849  67.737  1.00  0.00    -0.323 C  
HETATM   16  N   UNL     1     -11.888  12.969  69.935  1.00  0.00    -0.325 NA 
HETATM   17  C   UNL     1     -11.993  13.191  68.501  1.00  0.00    -0.289 C  
HETATM   18  C   UNL     1     -11.945  14.039  70.886  1.00  0.00    -0.267 C  
ENDROOT
BRANCH  15  19
HETATM   19  N   UNL     1     -11.510  12.025  66.292  1.00  0.00    -0.360 N  
HETATM   20  H   UNL     1     -12.078  11.513  65.617  1.00  0.00     0.000 HD 
BRANCH  19  21
HETATM   21  C   UNL     1     -10.541  12.969  65.928  1.00  0.00    -0.275 C  
HETATM   22  O   UNL     1      -9.351  12.820  66.217  1.00  0.00    -0.228 OA 
BRANCH  21  23
HETATM   23  N   UNL     1     -10.938  14.082  65.216  1.00  0.00    -0.318 N  
BRANCH  23  24
HETATM   24  C   UNL     1     -12.098  14.174  64.340  1.00  0.00    -0.463 C  
HETATM   25  C   UNL     1     -12.100  13.074  63.290  1.00  0.00    -0.499 C  
ENDBRANCH  23  24
BRANCH  23  26
HETATM   26  C   UNL     1     -10.163  15.321  65.426  1.00  0.00    -0.383 C  
HETATM   27  C   UNL     1     -10.540  16.079  66.693  1.00  0.00    -0.297 C  
ENDBRANCH  23  26
ENDBRANCH  21  23
ENDBRANCH  19  21
ENDBRANCH  15  19
TORSDOF 5
ENDMDL
MODEL        7
REMARK 921   NORMALIZED FREE ENERGY PREDICTED BY IDOCK:   -6.67 KCAL/MOL
REMARK 922        TOTAL FREE ENERGY PREDICTED BY IDOCK:   -9.10 KCAL/MOL
REMARK 923 INTER-LIGAND FREE ENERGY PREDICTED BY IDOCK:   -8.98 KCAL/MOL
REMARK 924 INTRA-LIGAND FREE ENERGY PREDICTED BY IDOCK:   -0.13 KCAL/MOL
REMARK 927      BINDING AFFINITY PREDICTED BY RF-SCORE:    0.00 PKD
ROOT
HETATM    1  C   UNL     1     -12.270  11.708  70.208  1.00  0.00    -0.318 C  
HETATM    2  C   UNL     1     -13.093  11.469  71.483  1.00  0.00    -0.429 C  
HETATM    3  C   UNL     1     -13.039  10.034  71.801  1.00  0.00    -0.562 A  
HETATM    4  C   UNL     1     -13.897   9.113  72.355  1.00  0.00    -0.457 A  
HETATM    5  N   UNL     1     -13.141   8.011  72.688  1.00  0.00    -0.506 NA 
HETATM    6  C   UNL     1     -11.809   8.243  72.375  1.00  0.00    -0.396 A  
HETATM    7  H   UNL     1     -13.505   7.153  73.101  1.00  0.00     0.000 HD 
HETATM    8  C   UNL     1     -10.628   7.614  72.735  1.00  0.00    -0.381 A  
HETATM    9  C   UNL     1      -9.460   8.191  72.209  1.00  0.00    -0.312 A  
HETATM   10  C   UNL     1      -9.480   9.210  71.219  1.00  0.00    -0.313 A  
HETATM   11  C   UNL     1     -10.693   9.777  70.810  1.00  0.00    -0.393 A  
HETATM   12  C   UNL     1     -11.820   9.350  71.559  1.00  0.00    -0.456 A  
HETATM   13  C   UNL     1     -11.075  10.795  69.777  1.00  0.00    -0.346 C  
HETATM   14  C   UNL     1     -10.740  10.942  68.444  1.00  0.00    -0.240 C  
HETATM   15  C   UNL     1     -11.739  11.848  67.645  1.00  0.00    -0.275 C  
HETATM   16  N   UNL     1     -11.829  13.041  69.819  1.00  0.00    -0.321 NA 
HETATM   17  C   UNL     1     -12.026  13.221  68.389  1.00  0.00    -0.301 C  
HETATM   18  C   UNL     1     -11.797  14.140  70.736  1.00  0.00    -0.242 C  
ENDROOT
BRANCH  15  19
HETATM   19  N   UNL     1     -11.719  11.977  66.191  1.00  0.00    -0.322 N  
HETATM   20  H   UNL     1     -12.433  11.579  65.581  1.00  0.00     0.000 HD 
BRANCH  19  21
HETATM   21  C   UNL     1     -10.618  12.704  65.718  1.00  0.00    -0.272 C  
HETATM   22  O   UNL     1      -9.480  12.226  65.715  1.00  0.00    -0.217 OA 
BRANCH  21  23
HETATM   23  N   UNL     1     -10.826  13.979  65.234  1.00  0.00    -0.327 N  
BRANCH  23  24
HETATM   24  C   UNL     1      -9.969  15.135  65.459  1.00  0.00    -0.349 C  
HETATM   25  C   UNL     1     -10.549  16.072  66.507  1.00  0.00    -0.284 C  
ENDBRANCH  23  24
BRANCH  23  26
HETATM   26  C   UNL     1     -11.980  14.171  64.335  1.00  0.00    -0.457 C  
HETATM   27  C   UNL     1     -12.150  13.067  63.299  1.00  0.00    -0.499 C  
ENDBRANCH  23  26
ENDBRANCH  21  23
ENDBRANCH  19  21
ENDBRANCH  15  19
TORSDOF 5
ENDMDL
MODEL        8
REMARK 921   NORMALIZED FREE ENERGY PREDICTED BY IDOCK:   -6.61 KCAL/MOL
REMARK 922        TOTAL FREE ENERGY PREDICTED BY IDOCK:   -9.03 KCAL/MOL
REMARK 923 INTER-LIGAND FREE ENERGY PREDICTED BY IDOCK:   -8.48 KCAL/MOL
REMARK 924 INTRA-LIGAND FREE ENERGY PREDICTED BY IDOCK:   -0.55 KCAL/MOL
REMARK 927      BINDING AFFINITY PREDICTED BY RF-SCORE:    0.00 PKD
ROOT
HETATM    1  C   UNL     1     -12.274  11.750  70.232  1.00  0.00    -0.299 C  
HETATM    2  C   UNL     1     -13.124  11.382  71.458  1.00  0.00    -0.438 C  
HETATM    3  C   UNL     1     -13.047   9.925  71.649  1.00  0.00    -0.538 A  
HETATM    4  C   UNL     1     -13.898   8.942  72.095  1.00  0.00    -0.473 A  
HETATM    5  N   UNL     1     -13.127   7.830  72.349  1.00  0.00    -0.514 NA 
HETATM    6  C   UNL     1     -11.793   8.114  72.094  1.00  0.00    -0.359 A  
HETATM    7  H   UNL     1     -13.483   6.932  72.675  1.00  0.00     0.000 HD 
HETATM    8  C   UNL     1     -10.608   7.478  72.428  1.00  0.00    -0.299 A  
HETATM    9  C   UNL     1      -9.439   8.123  71.987  1.00  0.00    -0.279 A  
HETATM   10  C   UNL     1      -9.457   9.226  71.092  1.00  0.00    -0.287 A  
HETATM   11  C   UNL     1     -10.671   9.804  70.703  1.00  0.00    -0.394 A  
HETATM   12  C   UNL     1     -11.807   9.290  71.380  1.00  0.00    -0.428 A  
HETATM   13  C   UNL     1     -11.049  10.903  69.755  1.00  0.00    -0.328 C  
HETATM   14  C   UNL     1     -10.683  11.175  68.450  1.00  0.00    -0.234 C  
HETATM   15  C   UNL     1     -11.681  12.129  67.708  1.00  0.00    -0.320 C  
HETATM   16  N   UNL     1     -11.852  13.120  69.976  1.00  0.00    -0.315 NA 
HETATM   17  C   UNL     1     -12.017  13.425  68.563  1.00  0.00    -0.328 C  
HETATM   18  C   UNL     1     -11.867  14.133  70.988  1.00  0.00    -0.182 C  
ENDROOT
BRANCH  15  19
HETATM   19  N   UNL     1     -11.628  12.388  66.272  1.00  0.00    -0.379 N  
HETATM   20  H   UNL     1     -12.457  12.485  65.686  1.00  0.00     0.000 HD 
BRANCH  19  21
HETATM   21  C   UNL     1     -10.319  12.491  65.780  1.00  0.00    -0.265 C  
HETATM   22  O   UNL     1      -9.557  13.388  66.150  1.00  0.00    -0.268 OA 
BRANCH  21  23
HETATM   23  N   UNL     1      -9.879  11.551  64.871  1.00  0.00    -0.248 N  
BRANCH  23  24
HETATM   24  C   UNL     1     -10.225  11.494  63.457  1.00  0.00    -0.420 C  
HETATM   25  C   UNL     1      -9.055  11.023  62.608  1.00  0.00    -0.375 C  
ENDBRANCH  23  24
BRANCH  23  26
HETATM   26  C   UNL     1      -8.901  10.559  65.356  1.00  0.00    -0.187 C  
HETATM   27  C   UNL     1      -9.509   9.207  65.705  1.00  0.00    -0.322 C  
ENDBRANCH  23  26
ENDBRANCH  21  23
ENDBRANCH  19  21
ENDBRANCH  15  19
TORSDOF 5
ENDMDL
MODEL        9
REMARK 921   NORMALIZED FREE ENERGY PREDICTED BY IDOCK:   -6.61 KCAL/MOL
REMARK 922        TOTAL FREE ENERGY PREDICTED BY IDOCK:   -9.02 KCAL/MOL
REMARK 923 INTER-LIGAND FREE ENERGY PREDICTED BY IDOCK:   -8.28 KCAL/MOL
REMARK 924 INTRA-LIGAND FREE ENERGY PREDICTED BY IDOCK:   -0.74 KCAL/MOL
REMARK 927      BINDING AFFINITY PREDICTED BY RF-SCORE:    0.00 PKD
ROOT
HETATM    1  C   UNL     1     -12.447  10.460  71.682  1.00  0.00    -0.370 C  
HETATM    2  C   UNL     1     -13.393  11.643  71.943  1.00  0.00    -0.403 C  
HETATM    3  C   UNL     1     -12.794  12.848  71.349  1.00  0.00    -0.377 A  
HETATM    4  C   UNL     1     -12.760  14.188  71.658  1.00  0.00    -0.349 A  
HETATM    5  N   UNL     1     -12.316  14.846  70.533  1.00  0.00    -0.319 NA 
HETATM    6  C   UNL     1     -12.099  13.935  69.509  1.00  0.00    -0.342 A  
HETATM    7  H   UNL     1     -12.169  15.853  70.463  1.00  0.00     0.000 HD 
HETATM    8  C   UNL     1     -11.923  14.071  68.142  1.00  0.00    -0.382 A  
HETATM    9  C   UNL     1     -11.751  12.866  67.439  1.00  0.00    -0.428 A  
HETATM   10  C   UNL     1     -11.562  11.616  68.086  1.00  0.00    -0.389 A  
HETATM   11  C   UNL     1     -11.664  11.515  69.479  1.00  0.00    -0.413 A  
HETATM   12  C   UNL     1     -12.100  12.703  70.120  1.00  0.00    -0.368 A  
HETATM   13  C   UNL     1     -11.468  10.400  70.463  1.00  0.00    -0.431 C  
HETATM   14  C   UNL     1     -10.460   9.470  70.629  1.00  0.00    -0.374 C  
HETATM   15  C   UNL     1     -10.432   8.826  72.058  1.00  0.00    -0.344 C  
HETATM   16  N   UNL     1     -12.890   9.080  71.822  1.00  0.00    -0.350 NA 
HETATM   17  C   UNL     1     -11.865   8.306  72.506  1.00  0.00    -0.373 C  
HETATM   18  C   UNL     1     -14.274   8.713  71.844  1.00  0.00    -0.427 C  
ENDROOT
BRANCH  15  19
HETATM   19  N   UNL     1      -9.341   7.985  72.540  1.00  0.00    -0.198 N  
HETATM   20  H   UNL     1      -8.887   8.115  73.444  1.00  0.00     0.000 HD 
BRANCH  19  21
HETATM   21  C   UNL     1      -8.979   6.980  71.632  1.00  0.00    -0.134 C  
HETATM   22  O   UNL     1      -8.010   7.106  70.879  1.00  0.00    -0.095 OA 
BRANCH  21  23
HETATM   23  N   UNL     1      -9.725   5.820  71.599  1.00  0.00    -0.160 N  
BRANCH  23  24
HETATM   24  C   UNL     1     -10.247   5.167  70.407  1.00  0.00    -0.264 C  
HETATM   25  C   UNL     1     -11.157   6.090  69.611  1.00  0.00    -0.474 C  
ENDBRANCH  23  24
BRANCH  23  26
HETATM   26  C   UNL     1      -9.943   5.130  72.885  1.00  0.00    -0.159 C  
HETATM   27  C   UNL     1     -11.372   4.644  73.094  1.00  0.00    -0.355 C  
ENDBRANCH  23  26
ENDBRANCH  21  23
ENDBRANCH  19  21
ENDBRANCH  15  19
TORSDOF 5
ENDMDL
MODEL       10
REMARK 921   NORMALIZED FREE ENERGY PREDICTED BY IDOCK:   -6.60 KCAL/MOL
REMARK 922        TOTAL FREE ENERGY PREDICTED BY IDOCK:   -9.01 KCAL/MOL
REMARK 923 INTER-LIGAND FREE ENERGY PREDICTED BY IDOCK:   -8.48 KCAL/MOL
REMARK 924 INTRA-LIGAND FREE ENERGY PREDICTED BY IDOCK:   -0.52 KCAL/MOL
REMARK 927      BINDING AFFINITY PREDICTED BY RF-SCORE:    0.00 PKD
ROOT
HETATM    1  C   UNL     1     -11.049  14.057  66.960  1.00  0.00    -0.304 C  
HETATM    2  C   UNL     1     -12.237  13.469  66.183  1.00  0.00    -0.484 C  
HETATM    3  C   UNL     1     -11.718  12.837  64.960  1.00  0.00    -0.391 A  
HETATM    4  C   UNL     1     -12.166  12.667  63.671  1.00  0.00    -0.536 A  
HETATM    5  N   UNL     1     -11.367  11.706  63.094  1.00  0.00    -0.823 NA 
HETATM    6  C   UNL     1     -10.440  11.248  64.018  1.00  0.00    -0.378 A  
HETATM    7  H   UNL     1     -11.446  11.380  62.131  1.00  0.00     0.000 HD 
HETATM    8  C   UNL     1      -9.611  10.138  64.058  1.00  0.00    -0.320 A  
HETATM    9  C   UNL     1      -8.820  10.024  65.215  1.00  0.00    -0.205 A  
HETATM   10  C   UNL     1      -8.711  11.061  66.180  1.00  0.00    -0.188 A  
HETATM   11  C   UNL     1      -9.501  12.213  66.076  1.00  0.00    -0.215 A  
HETATM   12  C   UNL     1     -10.472  12.164  65.043  1.00  0.00    -0.326 A  
HETATM   13  C   UNL     1      -9.595  13.489  66.857  1.00  0.00    -0.258 C  
HETATM   14  C   UNL     1      -8.638  14.378  67.309  1.00  0.00    -0.230 C  
HETATM   15  C   UNL     1      -9.213  15.797  67.648  1.00  0.00    -0.200 C  
HETATM   16  N   UNL     1     -11.162  14.435  68.361  1.00  0.00    -0.261 NA 
HETATM   17  C   UNL     1     -10.499  15.713  68.576  1.00  0.00    -0.236 C  
HETATM   18  C   UNL     1     -12.221  13.967  69.203  1.00  0.00    -0.267 C  
ENDROOT
BRANCH  15  19
HETATM   19  N   UNL     1      -8.375  16.957  67.933  1.00  0.00    -0.195 N  
HETATM   20  H   UNL     1      -7.969  17.146  68.850  1.00  0.00     0.000 HD 
BRANCH  19  21
HETATM   21  C   UNL     1      -8.185  17.786  66.819  1.00  0.00    -0.250 C  
HETATM   22  O   UNL     1      -7.916  17.323  65.707  1.00  0.00    -0.511 OA 
BRANCH  21  23
HETATM   23  N   UNL     1      -8.319  19.149  66.979  1.00  0.00    -0.270 N  
BRANCH  23  24
HETATM   24  C   UNL     1      -7.578  20.177  66.261  1.00  0.00    -0.268 C  
HETATM   25  C   UNL     1      -6.719  21.012  67.198  1.00  0.00    -0.424 C  
ENDBRANCH  23  24
BRANCH  23  26
HETATM   26  C   UNL     1      -9.373  19.612  67.903  1.00  0.00    -0.337 C  
HETATM   27  C   UNL     1     -10.778  19.562  67.317  1.00  0.00    -0.604 C  
ENDBRANCH  23  26
ENDBRANCH  21  23
ENDBRANCH  19  21
ENDBRANCH  15  19
TORSDOF 5
ENDMDL
MODEL       11
REMARK 921   NORMALIZED FREE ENERGY PREDICTED BY IDOCK:   -6.51 KCAL/MOL
REMARK 922        TOTAL FREE ENERGY PREDICTED BY IDOCK:   -8.89 KCAL/MOL
REMARK 923 INTER-LIGAND FREE ENERGY PREDICTED BY IDOCK:   -8.41 KCAL/MOL
REMARK 924 INTRA-LIGAND FREE ENERGY PREDICTED BY IDOCK:   -0.48 KCAL/MOL
REMARK 927      BINDING AFFINITY PREDICTED BY RF-SCORE:    0.00 PKD
ROOT
HETATM    1  C   UNL     1     -10.841  14.588  68.841  1.00  0.00    -0.253 C  
HETATM    2  C   UNL     1     -10.888  15.442  70.117  1.00  0.00    -0.328 C  
HETATM    3  C   UNL     1     -12.143  15.141  70.824  1.00  0.00    -0.387 A  
HETATM    4  C   UNL     1     -13.033  15.847  71.598  1.00  0.00    -0.313 A  
HETATM    5  N   UNL     1     -13.827  14.922  72.239  1.00  0.00    -0.441 NA 
HETATM    6  C   UNL     1     -13.423  13.639  71.898  1.00  0.00    -0.433 A  
HETATM    7  H   UNL     1     -14.596  15.147  72.869  1.00  0.00     0.000 HD 
HETATM    8  C   UNL     1     -13.680  12.390  72.441  1.00  0.00    -0.192 A  
HETATM    9  C   UNL     1     -13.041  11.317  71.796  1.00  0.00    -0.527 A  
HETATM   10  C   UNL     1     -12.354  11.457  70.561  1.00  0.00    -0.439 A  
HETATM   11  C   UNL     1     -12.176  12.722  69.988  1.00  0.00    -0.279 A  
HETATM   12  C   UNL     1     -12.604  13.800  70.805  1.00  0.00    -0.410 A  
HETATM   13  C   UNL     1     -11.575  13.212  68.705  1.00  0.00    -0.356 C  
HETATM   14  C   UNL     1     -11.728  12.814  67.390  1.00  0.00    -0.425 C  
HETATM   15  C   UNL     1     -11.294  13.904  66.352  1.00  0.00    -0.328 C  
HETATM   16  N   UNL     1      -9.602  14.380  68.104  1.00  0.00    -0.212 NA 
HETATM   17  C   UNL     1      -9.859  14.501  66.676  1.00  0.00    -0.273 C  
HETATM   18  C   UNL     1      -8.313  14.624  68.678  1.00  0.00    -0.165 C  
ENDROOT
BRANCH  15  19
HETATM   19  N   UNL     1     -11.562  13.802  64.920  1.00  0.00    -0.337 N  
HETATM   20  H   UNL     1     -11.564  14.604  64.290  1.00  0.00     0.000 HD 
BRANCH  19  21
HETATM   21  C   UNL     1     -11.815  12.489  64.500  1.00  0.00    -0.383 C  
HETATM   22  O   UNL     1     -12.961  12.092  64.272  1.00  0.00    -0.650 OA 
BRANCH  21  23
HETATM   23  N   UNL     1     -10.747  11.633  64.328  1.00  0.00    -0.316 N  
BRANCH  23  24
HETATM   24  C   UNL     1     -10.366  10.544  65.217  1.00  0.00    -0.229 C  
HETATM   25  C   UNL     1      -9.146  10.899  66.054  1.00  0.00    -0.208 C  
ENDBRANCH  23  24
BRANCH  23  26
HETATM   26  C   UNL     1      -9.966  11.781  63.084  1.00  0.00    -0.344 C  
HETATM   27  C   UNL     1      -9.581  10.458  62.434  1.00  0.00    -0.178 C  
ENDBRANCH  23  26
ENDBRANCH  21  23
ENDBRANCH  19  21
ENDBRANCH  15  19
TORSDOF 5
ENDMDL
MODEL       12
REMARK 921   NORMALIZED FREE ENERGY PREDICTED BY IDOCK:   -6.49 KCAL/MOL
REMARK 922        TOTAL FREE ENERGY PREDICTED BY IDOCK:   -8.86 KCAL/MOL
REMARK 923 INTER-LIGAND FREE ENERGY PREDICTED BY IDOCK:   -8.33 KCAL/MOL
REMARK 924 INTRA-LIGAND FREE ENERGY PREDICTED BY IDOCK:   -0.54 KCAL/MOL
REMARK 927      BINDING AFFINITY PREDICTED BY RF-SCORE:    0.00 PKD
ROOT
HETATM    1  C   UNL     1     -12.403  11.687  70.390  1.00  0.00    -0.288 C  
HETATM    2  C   UNL     1     -13.271  11.274  71.588  1.00  0.00    -0.431 C  
HETATM    3  C   UNL     1     -13.163   9.815  71.752  1.00  0.00    -0.532 A  
HETATM    4  C   UNL     1     -14.000   8.803  72.158  1.00  0.00    -0.460 A  
HETATM    5  N   UNL     1     -13.207   7.705  72.408  1.00  0.00    -0.483 NA 
HETATM    6  C   UNL     1     -11.875   8.027  72.191  1.00  0.00    -0.349 A  
HETATM    7  H   UNL     1     -13.549   6.792  72.707  1.00  0.00     0.000 HD 
HETATM    8  C   UNL     1     -10.683   7.412  72.540  1.00  0.00    -0.315 A  
HETATM    9  C   UNL     1      -9.521   8.094  72.140  1.00  0.00    -0.291 A  
HETATM   10  C   UNL     1      -9.545   9.214  71.267  1.00  0.00    -0.331 A  
HETATM   11  C   UNL     1     -10.764   9.770  70.860  1.00  0.00    -0.375 A  
HETATM   12  C   UNL     1     -11.902   9.216  71.500  1.00  0.00    -0.428 A  
HETATM   13  C   UNL     1     -11.146  10.879  69.925  1.00  0.00    -0.311 C  
HETATM   14  C   UNL     1     -10.757  11.187  68.635  1.00  0.00    -0.234 C  
HETATM   15  C   UNL     1     -11.760  12.131  67.888  1.00  0.00    -0.336 C  
HETATM   16  N   UNL     1     -12.008  13.072  70.172  1.00  0.00    -0.335 NA 
HETATM   17  C   UNL     1     -12.148  13.401  68.761  1.00  0.00    -0.246 C  
HETATM   18  C   UNL     1     -12.072  14.063  71.203  1.00  0.00    -0.274 C  
ENDROOT
BRANCH  15  19
HETATM   19  N   UNL     1     -11.680  12.421  66.459  1.00  0.00    -0.391 N  
HETATM   20  H   UNL     1     -12.466  12.312  65.819  1.00  0.00     0.000 HD 
BRANCH  19  21
HETATM   21  C   UNL     1     -10.412  12.865  66.059  1.00  0.00    -0.276 C  
HETATM   22  O   UNL     1      -9.552  12.080  65.651  1.00  0.00    -0.239 OA 
BRANCH  21  23
HETATM   23  N   UNL     1     -10.137  14.215  66.114  1.00  0.00    -0.302 N  
BRANCH  23  24
HETATM   24  C   UNL     1     -11.018  15.291  65.680  1.00  0.00    -0.344 C  
HETATM   25  C   UNL     1     -10.347  16.651  65.794  1.00  0.00    -0.338 C  
ENDBRANCH  23  24
BRANCH  23  26
HETATM   26  C   UNL     1      -8.866  14.612  66.750  1.00  0.00    -0.241 C  
HETATM   27  C   UNL     1      -8.909  14.618  68.272  1.00  0.00    -0.176 C  
ENDBRANCH  23  26
ENDBRANCH  21  23
ENDBRANCH  19  21
ENDBRANCH  15  19
TORSDOF 5
ENDMDL
MODEL       13
REMARK 921   NORMALIZED FREE ENERGY PREDICTED BY IDOCK:   -6.47 KCAL/MOL
REMARK 922        TOTAL FREE ENERGY PREDICTED BY IDOCK:   -8.85 KCAL/MOL
REMARK 923 INTER-LIGAND FREE ENERGY PREDICTED BY IDOCK:   -8.46 KCAL/MOL
REMARK 924 INTRA-LIGAND FREE ENERGY PREDICTED BY IDOCK:   -0.39 KCAL/MOL
REMARK 927      BINDING AFFINITY PREDICTED BY RF-SCORE:    0.00 PKD
ROOT
HETATM    1  C   UNL     1     -10.979  12.319  68.214  1.00  0.00    -0.232 C  
HETATM    2  C   UNL     1     -10.207  11.021  67.929  1.00  0.00    -0.207 C  
HETATM    3  C   UNL     1      -9.901  10.378  69.216  1.00  0.00    -0.243 A  
HETATM    4  C   UNL     1      -8.869   9.623  69.721  1.00  0.00    -0.210 A  
HETATM    5  N   UNL     1      -9.327   9.045  70.884  1.00  0.00    -0.241 NA 
HETATM    6  C   UNL     1     -10.649   9.406  71.099  1.00  0.00    -0.333 A  
HETATM    7  H   UNL     1      -8.777   8.442  71.495  1.00  0.00     0.000 HD 
HETATM    8  C   UNL     1     -11.643   8.913  71.929  1.00  0.00    -0.442 A  
HETATM    9  C   UNL     1     -12.885   9.562  71.824  1.00  0.00    -0.496 A  
HETATM   10  C   UNL     1     -13.070  10.761  71.086  1.00  0.00    -0.381 A  
HETATM   11  C   UNL     1     -12.026  11.288  70.316  1.00  0.00    -0.466 A  
HETATM   12  C   UNL     1     -10.878  10.457  70.242  1.00  0.00    -0.308 A  
HETATM   13  C   UNL     1     -11.859  12.528  69.490  1.00  0.00    -0.375 C  
HETATM   14  C   UNL     1     -12.133  13.859  69.741  1.00  0.00    -0.404 C  
HETATM   15  C   UNL     1     -11.359  14.845  68.800  1.00  0.00    -0.287 C  
HETATM   16  N   UNL     1     -11.730  13.008  67.173  1.00  0.00    -0.367 NA 
HETATM   17  C   UNL     1     -11.495  14.441  67.270  1.00  0.00    -0.359 C  
HETATM   18  C   UNL     1     -12.111  12.371  65.949  1.00  0.00    -0.281 C  
ENDROOT
BRANCH  15  19
HETATM   19  N   UNL     1     -11.316  16.290  69.009  1.00  0.00    -0.325 N  
HETATM   20  H   UNL     1     -12.114  16.834  69.336  1.00  0.00     0.000 HD 
BRANCH  19  21
HETATM   21  C   UNL     1     -10.066  16.851  68.713  1.00  0.00    -0.295 C  
HETATM   22  O   UNL     1      -9.019  16.362  69.146  1.00  0.00    -0.250 OA 
BRANCH  21  23
HETATM   23  N   UNL     1     -10.018  17.969  67.907  1.00  0.00    -0.315 N  
BRANCH  23  24
HETATM   24  C   UNL     1     -10.430  18.040  66.511  1.00  0.00    -0.334 C  
HETATM   25  C   UNL     1     -10.733  19.469  66.085  1.00  0.00    -0.528 C  
ENDBRANCH  23  24
BRANCH  23  26
HETATM   26  C   UNL     1      -9.589  19.231  68.539  1.00  0.00    -0.403 C  
HETATM   27  C   UNL     1      -8.091  19.493  68.445  1.00  0.00    -0.377 C  
ENDBRANCH  23  26
ENDBRANCH  21  23
ENDBRANCH  19  21
ENDBRANCH  15  19
TORSDOF 5
ENDMDL
MODEL       14
REMARK 921   NORMALIZED FREE ENERGY PREDICTED BY IDOCK:   -6.46 KCAL/MOL
REMARK 922        TOTAL FREE ENERGY PREDICTED BY IDOCK:   -8.83 KCAL/MOL
REMARK 923 INTER-LIGAND FREE ENERGY PREDICTED BY IDOCK:   -8.84 KCAL/MOL
REMARK 924 INTRA-LIGAND FREE ENERGY PREDICTED BY IDOCK:    0.01 KCAL/MOL
REMARK 927      BINDING AFFINITY PREDICTED BY RF-SCORE:    0.00 PKD
ROOT
HETATM    1  C   UNL     1     -10.743  11.063  66.464  1.00  0.00    -0.241 C  
HETATM    2  C   UNL     1     -10.739  11.051  64.927  1.00  0.00    -0.278 C  
HETATM    3  C   UNL     1     -11.487  12.228  64.458  1.00  0.00    -0.401 A  
HETATM    4  C   UNL     1     -12.305  12.516  63.391  1.00  0.00    -0.477 A  
HETATM    5  N   UNL     1     -12.427  13.887  63.339  1.00  0.00    -1.110 NA 
HETATM    6  C   UNL     1     -11.667  14.465  64.345  1.00  0.00    -0.375 A  
HETATM    7  H   UNL     1     -12.991  14.400  62.661  1.00  0.00     0.000 HD 
HETATM    8  C   UNL     1     -11.224  15.758  64.573  1.00  0.00    -0.334 A  
HETATM    9  C   UNL     1     -10.438  15.924  65.727  1.00  0.00    -0.386 A  
HETATM   10  C   UNL     1     -10.274  14.906  66.704  1.00  0.00    -0.264 A  
HETATM   11  C   UNL     1     -10.802  13.627  66.489  1.00  0.00    -0.283 A  
HETATM   12  C   UNL     1     -11.355  13.432  65.198  1.00  0.00    -0.316 A  
HETATM   13  C   UNL     1     -10.868  12.373  67.309  1.00  0.00    -0.279 C  
HETATM   14  C   UNL     1     -11.240  12.134  68.619  1.00  0.00    -0.318 C  
HETATM   15  C   UNL     1     -11.617  10.638  68.898  1.00  0.00    -0.249 C  
HETATM   16  N   UNL     1      -9.812  10.253  67.238  1.00  0.00    -0.176 NA 
HETATM   17  C   UNL     1     -10.516   9.632  68.351  1.00  0.00    -0.223 C  
HETATM   18  C   UNL     1      -8.622   9.693  66.672  1.00  0.00    -0.130 C  
ENDROOT
BRANCH  15  19
HETATM   19  N   UNL     1     -12.242  10.184  70.137  1.00  0.00    -0.484 N  
HETATM   20  H   UNL     1     -13.176  10.468  70.432  1.00  0.00     0.000 HD 
BRANCH  19  21
HETATM   21  C   UNL     1     -11.426   9.319  70.879  1.00  0.00    -0.303 C  
HETATM   22  O   UNL     1     -10.248   9.593  71.125  1.00  0.00    -0.272 OA 
BRANCH  21  23
HETATM   23  N   UNL     1     -11.969   8.143  71.353  1.00  0.00    -0.293 N  
BRANCH  23  24
HETATM   24  C   UNL     1     -11.371   6.819  71.255  1.00  0.00    -0.289 C  
HETATM   25  C   UNL     1     -11.203   6.382  69.807  1.00  0.00    -0.484 C  
ENDBRANCH  23  24
BRANCH  23  26
HETATM   26  C   UNL     1     -13.234   8.248  72.105  1.00  0.00    -0.274 C  
HETATM   27  C   UNL     1     -14.399   7.504  71.464  1.00  0.00    -0.603 C  
ENDBRANCH  23  26
ENDBRANCH  21  23
ENDBRANCH  19  21
ENDBRANCH  15  19
TORSDOF 5
ENDMDL
MODEL       15
REMARK 921   NORMALIZED FREE ENERGY PREDICTED BY IDOCK:   -6.44 KCAL/MOL
REMARK 922        TOTAL FREE ENERGY PREDICTED BY IDOCK:   -8.80 KCAL/MOL
REMARK 923 INTER-LIGAND FREE ENERGY PREDICTED BY IDOCK:   -8.27 KCAL/MOL
REMARK 924 INTRA-LIGAND FREE ENERGY PREDICTED BY IDOCK:   -0.54 KCAL/MOL
REMARK 927      BINDING AFFINITY PREDICTED BY RF-SCORE:    0.00 PKD
ROOT
HETATM    1  C   UNL     1      -9.616  10.696  67.342  1.00  0.00    -0.158 C  
HETATM    2  C   UNL     1      -8.827  10.710  66.023  1.00  0.00    -0.187 C  
HETATM    3  C   UNL     1      -9.787  10.848  64.916  1.00  0.00    -0.339 A  
HETATM    4  C   UNL     1      -9.873  10.391  63.622  1.00  0.00    -0.223 A  
HETATM    5  N   UNL     1     -10.846  11.139  62.998  1.00  0.00    -0.822 NA 
HETATM    6  C   UNL     1     -11.353  12.082  63.880  1.00  0.00    -0.425 A  
HETATM    7  H   UNL     1     -11.150  11.017  62.032  1.00  0.00     0.000 HD 
HETATM    8  C   UNL     1     -12.118  13.225  63.709  1.00  0.00    -0.546 A  
HETATM    9  C   UNL     1     -12.404  13.934  64.888  1.00  0.00    -0.445 A  
HETATM   10  C   UNL     1     -12.117  13.426  66.183  1.00  0.00    -0.481 A  
HETATM   11  C   UNL     1     -11.412  12.226  66.334  1.00  0.00    -0.434 A  
HETATM   12  C   UNL     1     -10.914  11.684  65.122  1.00  0.00    -0.326 A  
HETATM   13  C   UNL     1     -11.006  11.395  67.515  1.00  0.00    -0.312 C  
HETATM   14  C   UNL     1     -11.702  10.940  68.618  1.00  0.00    -0.334 C  
HETATM   15  C   UNL     1     -11.020   9.720  69.328  1.00  0.00    -0.193 C  
HETATM   16  N   UNL     1      -8.967  10.924  68.625  1.00  0.00    -0.157 NA 
HETATM   17  C   UNL     1      -9.477   9.976  69.604  1.00  0.00    -0.223 C  
HETATM   18  C   UNL     1      -7.672  11.525  68.738  1.00  0.00    -0.124 C  
ENDROOT
BRANCH  15  19
HETATM   19  N   UNL     1     -11.667   8.935  70.376  1.00  0.00    -0.460 N  
HETATM   20  H   UNL     1     -12.382   9.309  70.998  1.00  0.00     0.000 HD 
BRANCH  19  21
HETATM   21  C   UNL     1     -11.203   7.613  70.437  1.00  0.00    -0.244 C  
HETATM   22  O   UNL     1     -11.118   6.910  69.426  1.00  0.00    -0.244 OA 
BRANCH  21  23
HETATM   23  N   UNL     1     -10.823   7.103  71.660  1.00  0.00    -0.224 N  
BRANCH  23  24
HETATM   24  C   UNL     1     -10.568   7.871  72.871  1.00  0.00    -0.368 C  
HETATM   25  C   UNL     1      -9.085   8.155  73.058  1.00  0.00    -0.344 C  
ENDBRANCH  23  24
BRANCH  23  26
HETATM   26  C   UNL     1     -10.749   5.633  71.777  1.00  0.00    -0.244 C  
HETATM   27  C   UNL     1     -11.283   5.089  73.096  1.00  0.00    -0.408 C  
ENDBRANCH  23  26
ENDBRANCH  21  23
ENDBRANCH  19  21
ENDBRANCH  15  19
TORSDOF 5
ENDMDL
MODEL       16
REMARK 921   NORMALIZED FREE ENERGY PREDICTED BY IDOCK:   -6.43 KCAL/MOL
REMARK 922        TOTAL FREE ENERGY PREDICTED BY IDOCK:   -8.79 KCAL/MOL
REMARK 923 INTER-LIGAND FREE ENERGY PREDICTED BY IDOCK:   -8.13 KCAL/MOL
REMARK 924 INTRA-LIGAND FREE ENERGY PREDICTED BY IDOCK:   -0.67 KCAL/MOL
REMARK 927      BINDING AFFINITY PREDICTED BY RF-SCORE:    0.00 PKD
ROOT
HETATM    1  C   UNL     1     -10.134  10.543  68.998  1.00  0.00    -0.217 C  
HETATM    2  C   UNL     1      -8.921   9.606  69.107  1.00  0.00    -0.154 C  
HETATM    3  C   UNL     1      -8.725   9.274  70.527  1.00  0.00    -0.276 A  
HETATM    4  C   UNL     1      -7.646   9.023  71.342  1.00  0.00    -0.039 A  
HETATM    5  N   UNL     1      -8.139   8.450  72.493  1.00  0.00    -0.275 NA 
HETATM    6  C   UNL     1      -9.516   8.311  72.397  1.00  0.00    -0.287 A  
HETATM    7  H   UNL     1      -7.575   8.170  73.296  1.00  0.00     0.000 HD 
HETATM    8  C   UNL     1     -10.446   7.578  73.116  1.00  0.00    -0.419 A  
HETATM    9  C   UNL     1     -11.774   7.697  72.671  1.00  0.00    -0.323 A  
HETATM   10  C   UNL     1     -12.179   8.649  71.697  1.00  0.00    -0.388 A  
HETATM   11  C   UNL     1     -11.228   9.438  71.039  1.00  0.00    -0.412 A  
HETATM   12  C   UNL     1      -9.882   9.096  71.329  1.00  0.00    -0.363 A  
HETATM   13  C   UNL     1     -11.307  10.549  70.034  1.00  0.00    -0.392 C  
HETATM   14  C   UNL     1     -12.070  11.700  69.974  1.00  0.00    -0.395 C  
HETATM   15  C   UNL     1     -11.482  12.791  69.016  1.00  0.00    -0.309 C  
HETATM   16  N   UNL     1     -10.809  10.778  67.729  1.00  0.00    -0.247 NA 
HETATM   17  C   UNL     1     -11.107  12.196  67.591  1.00  0.00    -0.268 C  
HETATM   18  C   UNL     1     -10.651   9.912  66.600  1.00  0.00    -0.115 C  
ENDROOT
BRANCH  15  19
HETATM   19  N   UNL     1     -11.986  14.160  68.950  1.00  0.00    -0.401 N  
HETATM   20  H   UNL     1     -12.628  14.489  68.229  1.00  0.00     0.000 HD 
BRANCH  19  21
HETATM   21  C   UNL     1     -11.497  14.976  69.980  1.00  0.00    -0.276 C  
HETATM   22  O   UNL     1     -10.401  15.536  69.896  1.00  0.00    -0.288 OA 
BRANCH  21  23
HETATM   23  N   UNL     1     -12.276  15.160  71.103  1.00  0.00    -0.302 N  
BRANCH  23  24
HETATM   24  C   UNL     1     -13.731  15.107  71.158  1.00  0.00    -0.437 C  
HETATM   25  C   UNL     1     -14.220  14.033  72.118  1.00  0.00    -0.628 C  
ENDBRANCH  23  24
BRANCH  23  26
HETATM   26  C   UNL     1     -11.568  15.345  72.384  1.00  0.00    -0.447 C  
HETATM   27  C   UNL     1     -12.035  16.557  73.181  1.00  0.00    -0.469 C  
ENDBRANCH  23  26
ENDBRANCH  21  23
ENDBRANCH  19  21
ENDBRANCH  15  19
TORSDOF 5
ENDMDL
MODEL       17
REMARK 921   NORMALIZED FREE ENERGY PREDICTED BY IDOCK:   -6.39 KCAL/MOL
REMARK 922        TOTAL FREE ENERGY PREDICTED BY IDOCK:   -8.74 KCAL/MOL
REMARK 923 INTER-LIGAND FREE ENERGY PREDICTED BY IDOCK:   -8.13 KCAL/MOL
REMARK 924 INTRA-LIGAND FREE ENERGY PREDICTED BY IDOCK:   -0.61 KCAL/MOL
REMARK 927      BINDING AFFINITY PREDICTED BY RF-SCORE:    0.00 PKD
ROOT
HETATM    1  C   UNL     1     -10.669  13.789  66.607  1.00  0.00    -0.277 C  
HETATM    2  C   UNL     1     -11.266  12.403  66.317  1.00  0.00    -0.361 C  
HETATM    3  C   UNL     1     -11.163  11.594  67.541  1.00  0.00    -0.355 A  
HETATM    4  C   UNL     1     -10.957  10.266  67.832  1.00  0.00    -0.292 A  
HETATM    5  N   UNL     1     -11.298  10.089  69.155  1.00  0.00    -0.428 NA 
HETATM    6  C   UNL     1     -11.745  11.288  69.690  1.00  0.00    -0.350 A  
HETATM    7  H   UNL     1     -11.231   9.208  69.664  1.00  0.00     0.000 HD 
HETATM    8  C   UNL     1     -12.443  11.608  70.844  1.00  0.00    -0.440 A  
HETATM    9  C   UNL     1     -12.729  12.975  71.008  1.00  0.00    -0.347 A  
HETATM   10  C   UNL     1     -12.175  13.985  70.177  1.00  0.00    -0.425 A  
HETATM   11  C   UNL     1     -11.404  13.640  69.060  1.00  0.00    -0.333 A  
HETATM   12  C   UNL     1     -11.365  12.249  68.783  1.00  0.00    -0.337 A  
HETATM   13  C   UNL     1     -10.639  14.425  68.036  1.00  0.00    -0.241 C  
HETATM   14  C   UNL     1      -9.733  15.463  68.143  1.00  0.00    -0.212 C  
HETATM   15  C   UNL     1      -8.833  15.641  66.872  1.00  0.00    -0.250 C  
HETATM   16  N   UNL     1     -10.924  14.930  65.739  1.00  0.00    -0.335 NA 
HETATM   17  C   UNL     1      -9.689  15.672  65.534  1.00  0.00    -0.251 C  
HETATM   18  C   UNL     1     -12.003  14.956  64.798  1.00  0.00    -0.361 C  
ENDROOT
BRANCH  15  19
HETATM   19  N   UNL     1      -7.669  16.521  66.828  1.00  0.00    -0.230 N  
HETATM   20  H   UNL     1      -6.910  16.415  66.155  1.00  0.00     0.000 HD 
BRANCH  19  21
HETATM   21  C   UNL     1      -7.701  17.525  67.805  1.00  0.00    -0.205 C  
HETATM   22  O   UNL     1      -7.258  17.336  68.941  1.00  0.00    -0.231 OA 
BRANCH  21  23
HETATM   23  N   UNL     1      -8.231  18.754  67.472  1.00  0.00    -0.259 N  
BRANCH  23  24
HETATM   24  C   UNL     1      -7.760  19.635  66.413  1.00  0.00    -0.298 C  
HETATM   25  C   UNL     1      -7.021  20.842  66.969  1.00  0.00    -0.393 C  
ENDBRANCH  23  24
BRANCH  23  26
HETATM   26  C   UNL     1      -9.442  19.179  68.202  1.00  0.00    -0.342 C  
HETATM   27  C   UNL     1     -10.714  19.144  67.365  1.00  0.00    -0.578 C  
ENDBRANCH  23  26
ENDBRANCH  21  23
ENDBRANCH  19  21
ENDBRANCH  15  19
TORSDOF 5
ENDMDL
MODEL       18
REMARK 921   NORMALIZED FREE ENERGY PREDICTED BY IDOCK:   -6.39 KCAL/MOL
REMARK 922        TOTAL FREE ENERGY PREDICTED BY IDOCK:   -8.74 KCAL/MOL
REMARK 923 INTER-LIGAND FREE ENERGY PREDICTED BY IDOCK:   -8.04 KCAL/MOL
REMARK 924 INTRA-LIGAND FREE ENERGY PREDICTED BY IDOCK:   -0.70 KCAL/MOL
REMARK 927      BINDING AFFINITY PREDICTED BY RF-SCORE:    0.00 PKD
ROOT
HETATM    1  C   UNL     1      -9.529  14.425  67.812  1.00  0.00    -0.211 C  
HETATM    2  C   UNL     1      -8.631  13.319  67.236  1.00  0.00    -0.211 C  
HETATM    3  C   UNL     1      -9.494  12.323  66.580  1.00  0.00    -0.238 A  
HETATM    4  C   UNL     1      -9.469  10.960  66.402  1.00  0.00    -0.187 A  
HETATM    5  N   UNL     1     -10.388  10.669  65.418  1.00  0.00    -0.260 NA 
HETATM    6  C   UNL     1     -10.969  11.840  64.955  1.00  0.00    -0.300 A  
HETATM    7  H   UNL     1     -10.608   9.732  65.081  1.00  0.00     0.000 HD 
HETATM    8  C   UNL     1     -11.719  12.145  63.830  1.00  0.00    -0.576 A  
HETATM    9  C   UNL     1     -12.104  13.492  63.717  1.00  0.00    -0.482 A  
HETATM   10  C   UNL     1     -11.928  14.436  64.763  1.00  0.00    -0.455 A  
HETATM   11  C   UNL     1     -11.236  14.083  65.928  1.00  0.00    -0.308 A  
HETATM   12  C   UNL     1     -10.636  12.798  65.884  1.00  0.00    -0.295 A  
HETATM   13  C   UNL     1     -10.929  14.788  67.216  1.00  0.00    -0.318 C  
HETATM   14  C   UNL     1     -11.715  15.511  68.093  1.00  0.00    -0.241 C  
HETATM   15  C   UNL     1     -11.094  15.643  69.526  1.00  0.00    -0.298 C  
HETATM   16  N   UNL     1      -8.991  15.718  68.210  1.00  0.00    -0.179 NA 
HETATM   17  C   UNL     1      -9.580  16.121  69.478  1.00  0.00    -0.150 C  
HETATM   18  C   UNL     1      -7.711  16.188  67.772  1.00  0.00    -0.140 C  
ENDROOT
BRANCH  15  19
HETATM   19  N   UNL     1     -11.826  16.170  70.674  1.00  0.00    -0.494 N  
HETATM   20  H   UNL     1     -11.580  17.040  71.146  1.00  0.00     0.000 HD 
BRANCH  19  21
HETATM   21  C   UNL     1     -12.900  15.357  71.062  1.00  0.00    -0.463 C  
HETATM   22  O   UNL     1     -14.028  15.505  70.585  1.00  0.00    -0.319 OA 
BRANCH  21  23
HETATM   23  N   UNL     1     -12.673  14.362  71.989  1.00  0.00    -0.327 N  
BRANCH  23  24
HETATM   24  C   UNL     1     -13.079  12.967  71.870  1.00  0.00    -0.384 C  
HETATM   25  C   UNL     1     -12.357  12.265  70.730  1.00  0.00    -0.383 C  
ENDBRANCH  23  24
BRANCH  23  26
HETATM   26  C   UNL     1     -11.872  14.723  73.174  1.00  0.00    -0.057 C  
HETATM   27  C   UNL     1     -12.541  15.742  74.088  1.00  0.00    -0.761 C  
ENDBRANCH  23  26
ENDBRANCH  21  23
ENDBRANCH  19  21
ENDBRANCH  15  19
TORSDOF 5
ENDMDL
MODEL       19
REMARK 921   NORMALIZED FREE ENERGY PREDICTED BY IDOCK:   -6.38 KCAL/MOL
REMARK 922        TOTAL FREE ENERGY PREDICTED BY IDOCK:   -8.72 KCAL/MOL
REMARK 923 INTER-LIGAND FREE ENERGY PREDICTED BY IDOCK:   -8.33 KCAL/MOL
REMARK 924 INTRA-LIGAND FREE ENERGY PREDICTED BY IDOCK:   -0.40 KCAL/MOL
REMARK 927      BINDING AFFINITY PREDICTED BY RF-SCORE:    0.00 PKD
ROOT
HETATM    1  C   UNL     1     -11.092  13.146  67.650  1.00  0.00    -0.270 C  
HETATM    2  C   UNL     1     -11.404  11.693  67.262  1.00  0.00    -0.372 C  
HETATM    3  C   UNL     1     -11.185  10.845  68.444  1.00  0.00    -0.347 A  
HETATM    4  C   UNL     1     -10.738   9.565  68.671  1.00  0.00    -0.184 A  
HETATM    5  N   UNL     1     -11.078   9.246  69.967  1.00  0.00    -0.300 NA 
HETATM    6  C   UNL     1     -11.762  10.304  70.547  1.00  0.00    -0.331 A  
HETATM    7  H   UNL     1     -10.859   8.365  70.431  1.00  0.00     0.000 HD 
HETATM    8  C   UNL     1     -12.542  10.416  71.687  1.00  0.00    -0.521 A  
HETATM    9  C   UNL     1     -13.089  11.691  71.913  1.00  0.00    -0.490 A  
HETATM   10  C   UNL     1     -12.714  12.836  71.161  1.00  0.00    -0.355 A  
HETATM   11  C   UNL     1     -11.858  12.713  70.060  1.00  0.00    -0.358 A  
HETATM   12  C   UNL     1     -11.546  11.374  69.710  1.00  0.00    -0.407 A  
HETATM   13  C   UNL     1     -11.227  13.689  69.112  1.00  0.00    -0.309 C  
HETATM   14  C   UNL     1     -10.541  14.871  69.311  1.00  0.00    -0.248 C  
HETATM   15  C   UNL     1      -9.654  15.293  68.089  1.00  0.00    -0.204 C  
HETATM   16  N   UNL     1     -11.535  14.269  66.835  1.00  0.00    -0.346 NA 
HETATM   17  C   UNL     1     -10.459  15.242  66.721  1.00  0.00    -0.293 C  
HETATM   18  C   UNL     1     -12.571  14.148  65.854  1.00  0.00    -0.417 C  
ENDROOT
BRANCH  15  19
HETATM   19  N   UNL     1      -8.679  16.378  68.140  1.00  0.00    -0.187 N  
HETATM   20  H   UNL     1      -7.675  16.228  68.237  1.00  0.00     0.000 HD 
BRANCH  19  21
HETATM   21  C   UNL     1      -9.264  17.648  68.042  1.00  0.00    -0.271 C  
HETATM   22  O   UNL     1     -10.116  18.032  68.848  1.00  0.00    -0.375 OA 
BRANCH  21  23
HETATM   23  N   UNL     1      -8.859  18.485  67.023  1.00  0.00    -0.271 N  
BRANCH  23  24
HETATM   24  C   UNL     1      -9.283  19.864  66.824  1.00  0.00    -0.378 C  
HETATM   25  C   UNL     1     -10.522  19.952  65.945  1.00  0.00    -0.567 C  
ENDBRANCH  23  24
BRANCH  23  26
HETATM   26  C   UNL     1      -7.835  17.963  66.097  1.00  0.00    -0.222 C  
HETATM   27  C   UNL     1      -6.700  18.939  65.815  1.00  0.00    -0.303 C  
ENDBRANCH  23  26
ENDBRANCH  21  23
ENDBRANCH  19  21
ENDBRANCH  15  19
TORSDOF 5
ENDMDL
MODEL       20
REMARK 921   NORMALIZED FREE ENERGY PREDICTED BY IDOCK:   -6.34 KCAL/MOL
REMARK 922        TOTAL FREE ENERGY PREDICTED BY IDOCK:   -8.68 KCAL/MOL
REMARK 923 INTER-LIGAND FREE ENERGY PREDICTED BY IDOCK:   -8.34 KCAL/MOL
REMARK 924 INTRA-LIGAND FREE ENERGY PREDICTED BY IDOCK:   -0.34 KCAL/MOL
REMARK 927      BINDING AFFINITY PREDICTED BY RF-SCORE:    0.00 PKD
ROOT
HETATM    1  C   UNL     1      -9.395  10.477  67.101  1.00  0.00    -0.154 C  
HETATM    2  C   UNL     1      -8.573  10.616  65.811  1.00  0.00    -0.186 C  
HETATM    3  C   UNL     1      -9.508  10.722  64.680  1.00  0.00    -0.297 A  
HETATM    4  C   UNL     1      -9.517  10.318  63.366  1.00  0.00    -0.295 A  
HETATM    5  N   UNL     1     -10.533  11.009  62.742  1.00  0.00    -0.786 NA 
HETATM    6  C   UNL     1     -11.143  11.866  63.647  1.00  0.00    -0.440 A  
HETATM    7  H   UNL     1     -10.797  10.905  61.763  1.00  0.00     0.000 HD 
HETATM    8  C   UNL     1     -11.998  12.947  63.499  1.00  0.00    -0.629 A  
HETATM    9  C   UNL     1     -12.377  13.576  64.697  1.00  0.00    -0.419 A  
HETATM   10  C   UNL     1     -12.085  13.037  65.978  1.00  0.00    -0.493 A  
HETATM   11  C   UNL     1     -11.285  11.895  66.102  1.00  0.00    -0.387 A  
HETATM   12  C   UNL     1     -10.708  11.451  64.884  1.00  0.00    -0.350 A  
HETATM   13  C   UNL     1     -10.844  11.048  67.258  1.00  0.00    -0.335 C  
HETATM   14  C   UNL     1     -11.530  10.487  68.319  1.00  0.00    -0.272 C  
HETATM   15  C   UNL     1     -10.767   9.299  68.998  1.00  0.00    -0.167 C  
HETATM   16  N   UNL     1      -8.805  10.701  68.414  1.00  0.00    -0.138 NA 
HETATM   17  C   UNL     1      -9.260   9.670  69.335  1.00  0.00    -0.189 C  
HETATM   18  C   UNL     1      -7.569  11.402  68.594  1.00  0.00    -0.130 C  
ENDROOT
BRANCH  15  19
HETATM   19  N   UNL     1     -11.374   8.415  69.990  1.00  0.00    -0.452 N  
HETATM   20  H   UNL     1     -11.575   7.431  69.818  1.00  0.00     0.000 HD 
BRANCH  19  21
HETATM   21  C   UNL     1     -11.653   9.061  71.203  1.00  0.00    -0.306 C  
HETATM   22  O   UNL     1     -10.786   9.214  72.068  1.00  0.00    -0.352 OA 
BRANCH  21  23
HETATM   23  N   UNL     1     -12.927   9.544  71.416  1.00  0.00    -0.355 N  
BRANCH  23  24
HETATM   24  C   UNL     1     -14.171   8.830  71.163  1.00  0.00    -0.025 C  
HETATM   25  C   UNL     1     -14.115   7.399  71.675  1.00  0.00    -0.552 C  
ENDBRANCH  23  24
BRANCH  23  26
HETATM   26  C   UNL     1     -13.040  10.877  72.039  1.00  0.00    -0.356 C  
HETATM   27  C   UNL     1     -12.893  12.034  71.059  1.00  0.00    -0.279 C  
ENDBRANCH  23  26
ENDBRANCH  21  23
ENDBRANCH  19  21
ENDBRANCH  15  19
TORSDOF 5
ENDMDL
MODEL       21
REMARK 921   NORMALIZED FREE ENERGY PREDICTED BY IDOCK:   -6.34 KCAL/MOL
REMARK 922        TOTAL FREE ENERGY PREDICTED BY IDOCK:   -8.68 KCAL/MOL
REMARK 923 INTER-LIGAND FREE ENERGY PREDICTED BY IDOCK:   -8.34 KCAL/MOL
REMARK 924 INTRA-LIGAND FREE ENERGY PREDICTED BY IDOCK:   -0.34 KCAL/MOL
REMARK 927      BINDING AFFINITY PREDICTED BY RF-SCORE:    0.00 PKD
ROOT
HETATM    1  C   UNL     1      -9.714  11.488  66.032  1.00  0.00    -0.226 C  
HETATM    2  C   UNL     1     -10.055  11.460  64.534  1.00  0.00    -0.337 C  
HETATM    3  C   UNL     1     -11.079  12.485  64.278  1.00  0.00    -0.403 A  
HETATM    4  C   UNL     1     -12.154  12.616  63.430  1.00  0.00    -0.525 A  
HETATM    5  N   UNL     1     -12.515  13.945  63.445  1.00  0.00    -1.110 NA 
HETATM    6  C   UNL     1     -11.657  14.657  64.271  1.00  0.00    -0.213 A  
HETATM    7  H   UNL     1     -13.296  14.346  62.926  1.00  0.00     0.000 HD 
HETATM    8  C   UNL     1     -11.400  16.009  64.429  1.00  0.00    -0.253 A  
HETATM    9  C   UNL     1     -10.413  16.321  65.381  1.00  0.00    -0.365 A  
HETATM   10  C   UNL     1      -9.863  15.357  66.267  1.00  0.00    -0.320 A  
HETATM   11  C   UNL     1     -10.200  14.004  66.141  1.00  0.00    -0.308 A  
HETATM   12  C   UNL     1     -10.990  13.702  65.002  1.00  0.00    -0.350 A  
HETATM   13  C   UNL     1      -9.865  12.767  66.920  1.00  0.00    -0.236 C  
HETATM   14  C   UNL     1      -9.885  12.482  68.272  1.00  0.00    -0.227 C  
HETATM   15  C   UNL     1      -9.930  10.947  68.587  1.00  0.00    -0.189 C  
HETATM   16  N   UNL     1      -8.509  10.859  66.554  1.00  0.00    -0.153 NA 
HETATM   17  C   UNL     1      -8.827  10.140  67.779  1.00  0.00    -0.125 C  
HETATM   18  C   UNL     1      -7.400  10.506  65.720  1.00  0.00    -0.137 C  
ENDROOT
BRANCH  15  19
HETATM   19  N   UNL     1     -10.172  10.407  69.922  1.00  0.00    -0.415 N  
HETATM   20  H   UNL     1      -9.428  10.186  70.583  1.00  0.00     0.000 HD 
BRANCH  19  21
HETATM   21  C   UNL     1     -11.534  10.223  70.201  1.00  0.00    -0.309 C  
HETATM   22  O   UNL     1     -12.408  10.857  69.604  1.00  0.00    -0.328 OA 
BRANCH  21  23
HETATM   23  N   UNL     1     -11.892   9.299  71.160  1.00  0.00    -0.306 N  
BRANCH  23  24
HETATM   24  C   UNL     1     -11.262   8.005  71.385  1.00  0.00    -0.252 C  
HETATM   25  C   UNL     1     -10.427   7.998  72.657  1.00  0.00    -0.408 C  
ENDBRANCH  23  24
BRANCH  23  26
HETATM   26  C   UNL     1     -12.960   9.691  72.100  1.00  0.00    -0.406 C  
HETATM   27  C   UNL     1     -13.981   8.594  72.372  1.00  0.00    -0.435 C  
ENDBRANCH  23  26
ENDBRANCH  21  23
ENDBRANCH  19  21
ENDBRANCH  15  19
TORSDOF 5
ENDMDL
MODEL       22
REMARK 921   NORMALIZED FREE ENERGY PREDICTED BY IDOCK:   -6.29 KCAL/MOL
REMARK 922        TOTAL FREE ENERGY PREDICTED BY IDOCK:   -8.61 KCAL/MOL
REMARK 923 INTER-LIGAND FREE ENERGY PREDICTED BY IDOCK:   -7.97 KCAL/MOL
REMARK 924 INTRA-LIGAND FREE ENERGY PREDICTED BY IDOCK:   -0.64 KCAL/MOL
REMARK 927      BINDING AFFINITY PREDICTED BY RF-SCORE:    0.00 PKD
ROOT
HETATM    1  C   UNL     1     -10.895  12.233  65.552  1.00  0.00    -0.282 C  
HETATM    2  C   UNL     1     -10.241  10.851  65.404  1.00  0.00    -0.339 C  
HETATM    3  C   UNL     1      -9.652  10.482  66.701  1.00  0.00    -0.210 A  
HETATM    4  C   UNL     1      -8.546   9.780  67.119  1.00  0.00    -0.128 A  
HETATM    5  N   UNL     1      -8.730   9.503  68.456  1.00  0.00    -0.123 NA 
HETATM    6  C   UNL     1      -9.956   9.999  68.875  1.00  0.00    -0.192 A  
HETATM    7  H   UNL     1      -8.064   9.009  69.049  1.00  0.00     0.000 HD 
HETATM    8  C   UNL     1     -10.735   9.772  69.998  1.00  0.00    -0.326 A  
HETATM    9  C   UNL     1     -11.954  10.473  70.030  1.00  0.00    -0.367 A  
HETATM   10  C   UNL     1     -12.282  11.494  69.099  1.00  0.00    -0.221 A  
HETATM   11  C   UNL     1     -11.438  11.763  68.014  1.00  0.00    -0.388 A  
HETATM   12  C   UNL     1     -10.358  10.853  67.875  1.00  0.00    -0.216 A  
HETATM   13  C   UNL     1     -11.446  12.779  66.911  1.00  0.00    -0.396 C  
HETATM   14  C   UNL     1     -11.624  14.149  66.907  1.00  0.00    -0.410 C  
HETATM   15  C   UNL     1     -11.074  14.847  65.616  1.00  0.00    -0.348 C  
HETATM   16  N   UNL     1     -11.856  12.733  64.578  1.00  0.00    -0.356 NA 
HETATM   17  C   UNL     1     -11.575  14.131  64.290  1.00  0.00    -0.309 C  
HETATM   18  C   UNL     1     -12.529  11.876  63.649  1.00  0.00    -0.470 C  
ENDROOT
BRANCH  15  19
HETATM   19  N   UNL     1     -10.953  16.296  65.475  1.00  0.00    -0.209 N  
HETATM   20  H   UNL     1     -11.590  16.861  64.915  1.00  0.00     0.000 HD 
BRANCH  19  21
HETATM   21  C   UNL     1      -9.870  16.829  66.188  1.00  0.00    -0.309 C  
HETATM   22  O   UNL     1      -8.709  16.708  65.788  1.00  0.00    -0.482 OA 
BRANCH  21  23
HETATM   23  N   UNL     1     -10.123  17.515  67.358  1.00  0.00    -0.313 N  
BRANCH  23  24
HETATM   24  C   UNL     1     -10.764  18.818  67.468  1.00  0.00    -0.411 C  
HETATM   25  C   UNL     1     -10.528  19.670  66.230  1.00  0.00    -0.621 C  
ENDBRANCH  23  24
BRANCH  23  26
HETATM   26  C   UNL     1      -9.790  16.828  68.621  1.00  0.00    -0.261 C  
HETATM   27  C   UNL     1     -11.001  16.499  69.485  1.00  0.00    -0.289 C  
ENDBRANCH  23  26
ENDBRANCH  21  23
ENDBRANCH  19  21
ENDBRANCH  15  19
TORSDOF 5
ENDMDL
MODEL       23
REMARK 921   NORMALIZED FREE ENERGY PREDICTED BY IDOCK:   -6.25 KCAL/MOL
REMARK 922        TOTAL FREE ENERGY PREDICTED BY IDOCK:   -8.56 KCAL/MOL
REMARK 923 INTER-LIGAND FREE ENERGY PREDICTED BY IDOCK:   -7.99 KCAL/MOL
REMARK 924 INTRA-LIGAND FREE ENERGY PREDICTED BY IDOCK:   -0.57 KCAL/MOL
REMARK 927      BINDING AFFINITY PREDICTED BY RF-SCORE:    0.00 PKD
ROOT
HETATM    1  C   UNL     1     -11.005  12.888  68.321  1.00  0.00    -0.256 C  
HETATM    2  C   UNL     1     -11.930  11.704  68.643  1.00  0.00    -0.311 C  
HETATM    3  C   UNL     1     -12.267  11.762  70.074  1.00  0.00    -0.317 A  
HETATM    4  C   UNL     1     -12.511  10.845  71.068  1.00  0.00    -0.411 A  
HETATM    5  N   UNL     1     -13.096  11.529  72.110  1.00  0.00    -0.487 NA 
HETATM    6  C   UNL     1     -13.249  12.865  71.768  1.00  0.00    -0.384 A  
HETATM    7  H   UNL     1     -13.373  11.117  73.000  1.00  0.00     0.000 HD 
HETATM    8  C   UNL     1     -13.996  13.901  72.306  1.00  0.00    -0.663 A  
HETATM    9  C   UNL     1     -13.888  15.129  71.629  1.00  0.00    -0.597 A  
HETATM   10  C   UNL     1     -12.936  15.362  70.601  1.00  0.00    -0.450 A  
HETATM   11  C   UNL     1     -12.133  14.318  70.128  1.00  0.00    -0.403 A  
HETATM   12  C   UNL     1     -12.462  13.043  70.654  1.00  0.00    -0.347 A  
HETATM   13  C   UNL     1     -11.018  14.228  69.129  1.00  0.00    -0.286 C  
HETATM   14  C   UNL     1      -9.875  14.982  68.937  1.00  0.00    -0.233 C  
HETATM   15  C   UNL     1      -8.772  14.243  68.103  1.00  0.00    -0.174 C  
HETATM   16  N   UNL     1     -10.771  13.327  66.952  1.00  0.00    -0.270 NA 
HETATM   17  C   UNL     1      -9.356  13.612  66.767  1.00  0.00    -0.261 C  
HETATM   18  C   UNL     1     -11.629  12.958  65.867  1.00  0.00    -0.377 C  
ENDROOT
BRANCH  15  19
HETATM   19  N   UNL     1      -7.409  14.743  67.952  1.00  0.00    -0.134 N  
HETATM   20  H   UNL     1      -6.694  14.270  67.400  1.00  0.00     0.000 HD 
BRANCH  19  21
HETATM   21  C   UNL     1      -7.183  15.941  68.644  1.00  0.00    -0.139 C  
HETATM   22  O   UNL     1      -6.903  15.951  69.846  1.00  0.00    -0.146 OA 
BRANCH  21  23
HETATM   23  N   UNL     1      -7.265  17.130  67.950  1.00  0.00    -0.167 N  
BRANCH  23  24
HETATM   24  C   UNL     1      -7.498  18.448  68.526  1.00  0.00    -0.293 C  
HETATM   25  C   UNL     1      -8.983  18.752  68.658  1.00  0.00    -0.368 C  
ENDBRANCH  23  24
BRANCH  23  26
HETATM   26  C   UNL     1      -7.009  17.075  66.498  1.00  0.00    -0.256 C  
HETATM   27  C   UNL     1      -6.119  18.198  65.982  1.00  0.00    -0.256 C  
ENDBRANCH  23  26
ENDBRANCH  21  23
ENDBRANCH  19  21
ENDBRANCH  15  19
TORSDOF 5
ENDMDL
MODEL       24
REMARK 921   NORMALIZED FREE ENERGY PREDICTED BY IDOCK:   -6.25 KCAL/MOL
REMARK 922        TOTAL FREE ENERGY PREDICTED BY IDOCK:   -8.55 KCAL/MOL
REMARK 923 INTER-LIGAND FREE ENERGY PREDICTED BY IDOCK:   -7.99 KCAL/MOL
REMARK 924 INTRA-LIGAND FREE ENERGY PREDICTED BY IDOCK:   -0.57 KCAL/MOL
REMARK 927      BINDING AFFINITY PREDICTED BY RF-SCORE:    0.00 PKD
ROOT
HETATM    1  C   UNL     1     -10.317  13.373  64.938  1.00  0.00    -0.366 C  
HETATM    2  C   UNL     1     -10.490  12.348  63.807  1.00  0.00    -0.475 C  
HETATM    3  C   UNL     1      -9.790  11.113  64.195  1.00  0.00    -0.340 A  
HETATM    4  C   UNL     1      -9.093  10.126  63.540  1.00  0.00    -0.275 A  
HETATM    5  N   UNL     1      -8.969   9.073  64.418  1.00  0.00    -0.424 NA 
HETATM    6  C   UNL     1      -9.610   9.377  65.610  1.00  0.00    -0.274 A  
HETATM    7  H   UNL     1      -8.480   8.200  64.221  1.00  0.00     0.000 HD 
HETATM    8  C   UNL     1     -10.018   8.609  66.689  1.00  0.00    -0.357 A  
HETATM    9  C   UNL     1     -10.671   9.317  67.713  1.00  0.00    -0.270 A  
HETATM   10  C   UNL     1     -10.732  10.735  67.753  1.00  0.00    -0.296 A  
HETATM   11  C   UNL     1     -10.240  11.497  66.686  1.00  0.00    -0.254 A  
HETATM   12  C   UNL     1      -9.833  10.733  65.562  1.00  0.00    -0.309 A  
HETATM   13  C   UNL     1     -10.092  12.968  66.432  1.00  0.00    -0.279 C  
HETATM   14  C   UNL     1      -9.580  13.999  67.197  1.00  0.00    -0.245 C  
HETATM   15  C   UNL     1      -9.184  15.262  66.358  1.00  0.00    -0.307 C  
HETATM   16  N   UNL     1     -11.162  14.555  65.036  1.00  0.00    -0.362 NA 
HETATM   17  C   UNL     1     -10.345  15.711  65.371  1.00  0.00    -0.393 C  
HETATM   18  C   UNL     1     -12.411  14.669  64.345  1.00  0.00    -0.398 C  
ENDROOT
BRANCH  15  19
HETATM   19  N   UNL     1      -8.429  16.386  66.904  1.00  0.00    -0.200 N  
HETATM   20  H   UNL     1      -7.860  17.011  66.334  1.00  0.00     0.000 HD 
BRANCH  19  21
HETATM   21  C   UNL     1      -8.568  16.518  68.293  1.00  0.00    -0.200 C  
HETATM   22  O   UNL     1      -7.749  16.027  69.074  1.00  0.00    -0.189 OA 
BRANCH  21  23
HETATM   23  N   UNL     1      -9.644  17.227  68.785  1.00  0.00    -0.277 N  
BRANCH  23  24
HETATM   24  C   UNL     1     -10.663  16.723  69.696  1.00  0.00    -0.229 C  
HETATM   25  C   UNL     1     -11.663  15.827  68.982  1.00  0.00    -0.405 C  
ENDBRANCH  23  24
BRANCH  23  26
HETATM   26  C   UNL     1      -9.723  18.656  68.423  1.00  0.00    -0.367 C  
HETATM   27  C   UNL     1     -10.795  18.974  67.389  1.00  0.00    -0.496 C  
ENDBRANCH  23  26
ENDBRANCH  21  23
ENDBRANCH  19  21
ENDBRANCH  15  19
TORSDOF 5
ENDMDL
MODEL       25
REMARK 921   NORMALIZED FREE ENERGY PREDICTED BY IDOCK:   -6.18 KCAL/MOL
REMARK 922        TOTAL FREE ENERGY PREDICTED BY IDOCK:   -8.47 KCAL/MOL
REMARK 923 INTER-LIGAND FREE ENERGY PREDICTED BY IDOCK:   -7.94 KCAL/MOL
REMARK 924 INTRA-LIGAND FREE ENERGY PREDICTED BY IDOCK:   -0.54 KCAL/MOL
REMARK 927      BINDING AFFINITY PREDICTED BY RF-SCORE:    0.00 PKD
ROOT
HETATM    1  C   UNL     1      -9.978  10.108  65.717  1.00  0.00    -0.271 C  
HETATM    2  C   UNL     1     -10.026  10.669  64.287  1.00  0.00    -0.413 C  
HETATM    3  C   UNL     1     -11.187  11.567  64.185  1.00  0.00    -0.393 A  
HETATM    4  C   UNL     1     -12.091  11.904  63.206  1.00  0.00    -0.357 A  
HETATM    5  N   UNL     1     -12.733  13.046  63.630  1.00  0.00    -0.704 NA 
HETATM    6  C   UNL     1     -12.219  13.448  64.854  1.00  0.00    -0.408 A  
HETATM    7  H   UNL     1     -13.475  13.525  63.120  1.00  0.00     0.000 HD 
HETATM    8  C   UNL     1     -12.299  14.629  65.574  1.00  0.00    -0.172 A  
HETATM    9  C   UNL     1     -11.597  14.636  66.791  1.00  0.00    -0.370 A  
HETATM   10  C   UNL     1     -11.018  13.467  67.355  1.00  0.00    -0.286 A  
HETATM   11  C   UNL     1     -11.019  12.261  66.643  1.00  0.00    -0.321 A  
HETATM   12  C   UNL     1     -11.501  12.368  65.314  1.00  0.00    -0.389 A  
HETATM   13  C   UNL     1     -10.567  10.865  66.953  1.00  0.00    -0.312 C  
HETATM   14  C   UNL     1     -10.770  10.039  68.042  1.00  0.00    -0.303 C  
HETATM   15  C   UNL     1     -10.531   8.522  67.728  1.00  0.00    -0.223 C  
HETATM   16  N   UNL     1      -8.779   9.477  66.252  1.00  0.00    -0.140 NA 
HETATM   17  C   UNL     1      -9.148   8.276  66.986  1.00  0.00    -0.145 C  
HETATM   18  C   UNL     1      -7.487   9.651  65.661  1.00  0.00    -0.101 C  
ENDROOT
BRANCH  15  19
HETATM   19  N   UNL     1     -10.887   7.445  68.648  1.00  0.00    -0.412 N  
HETATM   20  H   UNL     1     -11.354   6.588  68.356  1.00  0.00     0.000 HD 
BRANCH  19  21
HETATM   21  C   UNL     1     -10.520   7.712  69.975  1.00  0.00    -0.229 C  
HETATM   22  O   UNL     1      -9.339   7.850  70.304  1.00  0.00    -0.159 OA 
BRANCH  21  23
HETATM   23  N   UNL     1     -11.515   7.836  70.923  1.00  0.00    -0.279 N  
BRANCH  23  24
HETATM   24  C   UNL     1     -12.389   6.771  71.396  1.00  0.00    -0.353 C  
HETATM   25  C   UNL     1     -11.655   5.806  72.315  1.00  0.00    -0.300 C  
ENDBRANCH  23  24
BRANCH  23  26
HETATM   26  C   UNL     1     -11.651   9.150  71.580  1.00  0.00    -0.379 C  
HETATM   27  C   UNL     1     -13.088   9.534  71.906  1.00  0.00    -0.517 C  
ENDBRANCH  23  26
ENDBRANCH  21  23
ENDBRANCH  19  21
ENDBRANCH  15  19
TORSDOF 5
ENDMDL
MODEL       26
REMARK 921   NORMALIZED FREE ENERGY PREDICTED BY IDOCK:   -6.14 KCAL/MOL
REMARK 922        TOTAL FREE ENERGY PREDICTED BY IDOCK:   -8.42 KCAL/MOL
REMARK 923 INTER-LIGAND FREE ENERGY PREDICTED BY IDOCK:   -8.27 KCAL/MOL
REMARK 924 INTRA-LIGAND FREE ENERGY PREDICTED BY IDOCK:   -0.15 KCAL/MOL
REMARK 927      BINDING AFFINITY PREDICTED BY RF-SCORE:    0.00 PKD
ROOT
HETATM    1  C   UNL     1      -9.749  10.816  67.384  1.00  0.00    -0.171 C  
HETATM    2  C   UNL     1      -8.965  10.794  66.062  1.00  0.00    -0.196 C  
HETATM    3  C   UNL     1      -9.922  10.974  64.959  1.00  0.00    -0.340 A  
HETATM    4  C   UNL     1     -10.033  10.522  63.665  1.00  0.00    -0.234 A  
HETATM    5  N   UNL     1     -10.974  11.313  63.045  1.00  0.00    -0.836 NA 
HETATM    6  C   UNL     1     -11.434  12.278  63.928  1.00  0.00    -0.435 A  
HETATM    7  H   UNL     1     -11.286  11.204  62.080  1.00  0.00     0.000 HD 
HETATM    8  C   UNL     1     -12.148  13.454  63.759  1.00  0.00    -0.516 A  
HETATM    9  C   UNL     1     -12.397  14.176  64.940  1.00  0.00    -0.446 A  
HETATM   10  C   UNL     1     -12.129  13.656  66.234  1.00  0.00    -0.477 A  
HETATM   11  C   UNL     1     -11.478  12.425  66.383  1.00  0.00    -0.427 A  
HETATM   12  C   UNL     1     -11.010  11.861  65.168  1.00  0.00    -0.365 A  
HETATM   13  C   UNL     1     -11.105  11.576  67.562  1.00  0.00    -0.329 C  
HETATM   14  C   UNL     1     -11.816  11.153  68.668  1.00  0.00    -0.357 C  
HETATM   15  C   UNL     1     -11.187   9.904  69.376  1.00  0.00    -0.153 C  
HETATM   16  N   UNL     1      -9.085  11.015  68.665  1.00  0.00    -0.172 NA 
HETATM   17  C   UNL     1      -9.633  10.090  69.646  1.00  0.00    -0.226 C  
HETATM   18  C   UNL     1      -7.764  11.557  68.772  1.00  0.00    -0.124 C  
ENDROOT
BRANCH  15  19
HETATM   19  N   UNL     1     -11.864   9.149  70.426  1.00  0.00    -0.466 N  
HETATM   20  H   UNL     1     -12.876   9.144  70.552  1.00  0.00     0.000 HD 
BRANCH  19  21
HETATM   21  C   UNL     1     -10.981   8.431  71.244  1.00  0.00    -0.252 C  
HETATM   22  O   UNL     1     -10.542   8.906  72.295  1.00  0.00    -0.320 OA 
BRANCH  21  23
HETATM   23  N   UNL     1     -10.612   7.159  70.860  1.00  0.00    -0.218 N  
BRANCH  23  24
HETATM   24  C   UNL     1      -9.446   6.423  71.331  1.00  0.00    -0.155 C  
HETATM   25  C   UNL     1      -9.837   5.110  71.992  1.00  0.00    -0.221 C  
ENDBRANCH  23  24
BRANCH  23  26
HETATM   26  C   UNL     1     -11.529   6.443  69.953  1.00  0.00    -0.415 C  
HETATM   27  C   UNL     1     -10.980   6.246  68.545  1.00  0.00    -0.421 C  
ENDBRANCH  23  26
ENDBRANCH  21  23
ENDBRANCH  19  21
ENDBRANCH  15  19
TORSDOF 5
ENDMDL
MODEL       27
REMARK 921   NORMALIZED FREE ENERGY PREDICTED BY IDOCK:   -6.14 KCAL/MOL
REMARK 922        TOTAL FREE ENERGY PREDICTED BY IDOCK:   -8.41 KCAL/MOL
REMARK 923 INTER-LIGAND FREE ENERGY PREDICTED BY IDOCK:   -7.70 KCAL/MOL
REMARK 924 INTRA-LIGAND FREE ENERGY PREDICTED BY IDOCK:   -0.71 KCAL/MOL
REMARK 927      BINDING AFFINITY PREDICTED BY RF-SCORE:    0.00 PKD
ROOT
HETATM    1  C   UNL     1      -9.999   9.807  65.599  1.00  0.00    -0.282 C  
HETATM    2  C   UNL     1      -9.964  10.718  64.363  1.00  0.00    -0.400 C  
HETATM    3  C   UNL     1     -11.103  11.646  64.445  1.00  0.00    -0.382 A  
HETATM    4  C   UNL     1     -11.950  12.250  63.546  1.00  0.00    -0.533 A  
HETATM    5  N   UNL     1     -12.593  13.264  64.222  1.00  0.00    -0.653 NA 
HETATM    6  C   UNL     1     -12.135  13.321  65.531  1.00  0.00    -0.435 A  
HETATM    7  H   UNL     1     -13.300  13.879  63.821  1.00  0.00     0.000 HD 
HETATM    8  C   UNL     1     -12.232  14.279  66.527  1.00  0.00    -0.419 A  
HETATM    9  C   UNL     1     -11.593  13.950  67.735  1.00  0.00    -0.381 A  
HETATM   10  C   UNL     1     -11.064  12.660  68.003  1.00  0.00    -0.288 A  
HETATM   11  C   UNL     1     -11.049  11.678  67.004  1.00  0.00    -0.359 A  
HETATM   12  C   UNL     1     -11.461  12.138  65.727  1.00  0.00    -0.414 A  
HETATM   13  C   UNL     1     -10.637  10.237  66.962  1.00  0.00    -0.302 C  
HETATM   14  C   UNL     1     -10.910   9.164  67.789  1.00  0.00    -0.159 C  
HETATM   15  C   UNL     1     -10.681   7.773  67.105  1.00  0.00    -0.267 C  
HETATM   16  N   UNL     1      -8.841   9.023  66.007  1.00  0.00    -0.163 NA 
HETATM   17  C   UNL     1      -9.267   7.685  66.388  1.00  0.00    -0.175 C  
HETATM   18  C   UNL     1      -7.517   9.305  65.539  1.00  0.00    -0.090 C  
ENDROOT
BRANCH  15  19
HETATM   19  N   UNL     1     -11.102   6.507  67.698  1.00  0.00    -0.524 N  
HETATM   20  H   UNL     1     -11.577   5.771  67.175  1.00  0.00     0.000 HD 
BRANCH  19  21
HETATM   21  C   UNL     1     -10.788   6.406  69.061  1.00  0.00    -0.327 C  
HETATM   22  O   UNL     1     -11.639   6.582  69.936  1.00  0.00    -0.409 OA 
BRANCH  21  23
HETATM   23  N   UNL     1      -9.494   6.087  69.418  1.00  0.00    -0.133 N  
BRANCH  23  24
HETATM   24  C   UNL     1      -8.651   6.828  70.346  1.00  0.00    -0.146 C  
HETATM   25  C   UNL     1      -7.973   8.011  69.672  1.00  0.00    -0.117 C  
ENDBRANCH  23  24
BRANCH  23  26
HETATM   26  C   UNL     1      -8.941   4.832  68.874  1.00  0.00    -0.108 C  
HETATM   27  C   UNL     1      -9.474   3.575  69.550  1.00  0.00    -0.236 C  
ENDBRANCH  23  26
ENDBRANCH  21  23
ENDBRANCH  19  21
ENDBRANCH  15  19
TORSDOF 5
ENDMDL
MODEL       28
REMARK 921   NORMALIZED FREE ENERGY PREDICTED BY IDOCK:   -6.12 KCAL/MOL
REMARK 922        TOTAL FREE ENERGY PREDICTED BY IDOCK:   -8.39 KCAL/MOL
REMARK 923 INTER-LIGAND FREE ENERGY PREDICTED BY IDOCK:   -7.85 KCAL/MOL
REMARK 924 INTRA-LIGAND FREE ENERGY PREDICTED BY IDOCK:   -0.54 KCAL/MOL
REMARK 927      BINDING AFFINITY PREDICTED BY RF-SCORE:    0.00 PKD
ROOT
HETATM    1  C   UNL     1     -12.432  10.364  71.668  1.00  0.00    -0.370 C  
HETATM    2  C   UNL     1     -13.398  11.529  71.934  1.00  0.00    -0.408 C  
HETATM    3  C   UNL     1     -12.832  12.743  71.324  1.00  0.00    -0.355 A  
HETATM    4  C   UNL     1     -12.821  14.084  71.624  1.00  0.00    -0.352 A  
HETATM    5  N   UNL     1     -12.405  14.744  70.489  1.00  0.00    -0.316 NA 
HETATM    6  C   UNL     1     -12.183  13.831  69.469  1.00  0.00    -0.293 A  
HETATM    7  H   UNL     1     -12.279  15.753  70.411  1.00  0.00     0.000 HD 
HETATM    8  C   UNL     1     -12.028  13.962  68.098  1.00  0.00    -0.385 A  
HETATM    9  C   UNL     1     -11.842  12.755  67.401  1.00  0.00    -0.404 A  
HETATM   10  C   UNL     1     -11.619  11.513  68.053  1.00  0.00    -0.370 A  
HETATM   11  C   UNL     1     -11.701  11.420  69.447  1.00  0.00    -0.406 A  
HETATM   12  C   UNL     1     -12.152  12.603  70.087  1.00  0.00    -0.368 A  
HETATM   13  C   UNL     1     -11.469  10.316  70.436  1.00  0.00    -0.415 C  
HETATM   14  C   UNL     1     -10.440   9.407  70.594  1.00  0.00    -0.354 C  
HETATM   15  C   UNL     1     -10.381   8.774  72.027  1.00  0.00    -0.340 C  
HETATM   16  N   UNL     1     -12.845   8.976  71.822  1.00  0.00    -0.350 NA 
HETATM   17  C   UNL     1     -11.796   8.228  72.498  1.00  0.00    -0.373 C  
HETATM   18  C   UNL     1     -14.221   8.582  71.866  1.00  0.00    -0.455 C  
ENDROOT
BRANCH  15  19
HETATM   19  N   UNL     1      -9.266   7.957  72.499  1.00  0.00    -0.170 N  
HETATM   20  H   UNL     1      -8.428   8.346  72.931  1.00  0.00     0.000 HD 
BRANCH  19  21
HETATM   21  C   UNL     1      -9.466   6.585  72.298  1.00  0.00    -0.143 C  
HETATM   22  O   UNL     1      -9.986   5.873  73.162  1.00  0.00    -0.169 OA 
BRANCH  21  23
HETATM   23  N   UNL     1      -9.080   6.031  71.095  1.00  0.00    -0.146 N  
BRANCH  23  24
HETATM   24  C   UNL     1      -9.902   5.193  70.232  1.00  0.00    -0.225 C  
HETATM   25  C   UNL     1     -11.016   5.988  69.569  1.00  0.00    -0.467 C  
ENDBRANCH  23  24
BRANCH  23  26
HETATM   26  C   UNL     1      -7.739   6.388  70.594  1.00  0.00    -0.105 C  
HETATM   27  C   UNL     1      -7.756   7.316  69.386  1.00  0.00    -0.107 C  
ENDBRANCH  23  26
ENDBRANCH  21  23
ENDBRANCH  19  21
ENDBRANCH  15  19
TORSDOF 5
ENDMDL
MODEL       29
REMARK 921   NORMALIZED FREE ENERGY PREDICTED BY IDOCK:   -6.08 KCAL/MOL
REMARK 922        TOTAL FREE ENERGY PREDICTED BY IDOCK:   -8.34 KCAL/MOL
REMARK 923 INTER-LIGAND FREE ENERGY PREDICTED BY IDOCK:   -7.71 KCAL/MOL
REMARK 924 INTRA-LIGAND FREE ENERGY PREDICTED BY IDOCK:   -0.63 KCAL/MOL
REMARK 927      BINDING AFFINITY PREDICTED BY RF-SCORE:    0.00 PKD
ROOT
HETATM    1  C   UNL     1     -10.259  10.669  65.226  1.00  0.00    -0.282 C  
HETATM    2  C   UNL     1     -10.602  11.165  63.813  1.00  0.00    -0.422 C  
HETATM    3  C   UNL     1     -11.336  12.434  63.938  1.00  0.00    -0.502 A  
HETATM    4  C   UNL     1     -12.346  13.061  63.249  1.00  0.00    -0.306 A  
HETATM    5  N   UNL     1     -12.361  14.373  63.667  1.00  0.00    -1.106 NA 
HETATM    6  C   UNL     1     -11.348  14.584  64.591  1.00  0.00    -0.370 A  
HETATM    7  H   UNL     1     -13.018  15.084  63.345  1.00  0.00     0.000 HD 
HETATM    8  C   UNL     1     -10.757  15.727  65.105  1.00  0.00    -0.455 A  
HETATM    9  C   UNL     1      -9.720  15.500  66.027  1.00  0.00    -0.378 A  
HETATM   10  C   UNL     1      -9.427  14.216  66.558  1.00  0.00    -0.303 A  
HETATM   11  C   UNL     1     -10.095  13.082  66.081  1.00  0.00    -0.287 A  
HETATM   12  C   UNL     1     -10.939  13.326  64.968  1.00  0.00    -0.328 A  
HETATM   13  C   UNL     1     -10.079  11.628  66.449  1.00  0.00    -0.246 C  
HETATM   14  C   UNL     1     -10.165  10.973  67.663  1.00  0.00    -0.211 C  
HETATM   15  C   UNL     1     -10.593   9.470  67.533  1.00  0.00    -0.275 C  
HETATM   16  N   UNL     1      -9.249   9.645  65.454  1.00  0.00    -0.220 NA 
HETATM   17  C   UNL     1      -9.732   8.696  66.446  1.00  0.00    -0.263 C  
HETATM   18  C   UNL     1      -8.268   9.297  64.471  1.00  0.00    -0.151 C  
ENDROOT
BRANCH  15  19
HETATM   19  N   UNL     1     -10.958   8.637  68.675  1.00  0.00    -0.439 N  
HETATM   20  H   UNL     1     -11.631   7.872  68.621  1.00  0.00     0.000 HD 
BRANCH  19  21
HETATM   21  C   UNL     1     -10.289   8.995  69.853  1.00  0.00    -0.207 C  
HETATM   22  O   UNL     1     -10.832   9.685  70.721  1.00  0.00    -0.282 OA 
BRANCH  21  23
HETATM   23  N   UNL     1      -8.998   8.548  70.042  1.00  0.00    -0.140 N  
BRANCH  23  24
HETATM   24  C   UNL     1      -8.518   7.190  69.827  1.00  0.00    -0.137 C  
HETATM   25  C   UNL     1      -9.255   6.186  70.701  1.00  0.00    -0.163 C  
ENDBRANCH  23  24
BRANCH  23  26
HETATM   26  C   UNL     1      -7.989   9.559  70.415  1.00  0.00    -0.178 C  
HETATM   27  C   UNL     1      -6.596   8.987  70.648  1.00  0.00    -0.060 C  
ENDBRANCH  23  26
ENDBRANCH  21  23
ENDBRANCH  19  21
ENDBRANCH  15  19
TORSDOF 5
ENDMDL
MODEL       30
REMARK 921   NORMALIZED FREE ENERGY PREDICTED BY IDOCK:   -6.07 KCAL/MOL
REMARK 922        TOTAL FREE ENERGY PREDICTED BY IDOCK:   -8.33 KCAL/MOL
REMARK 923 INTER-LIGAND FREE ENERGY PREDICTED BY IDOCK:   -7.95 KCAL/MOL
REMARK 924 INTRA-LIGAND FREE ENERGY PREDICTED BY IDOCK:   -0.38 KCAL/MOL
REMARK 927      BINDING AFFINITY PREDICTED BY RF-SCORE:    0.00 PKD
ROOT
HETATM    1  C   UNL     1     -10.284  15.652  67.695  1.00  0.00    -0.261 C  
HETATM    2  C   UNL     1      -9.403  15.700  68.953  1.00  0.00    -0.223 C  
HETATM    3  C   UNL     1      -8.245  16.562  68.670  1.00  0.00    -0.234 A  
HETATM    4  C   UNL     1      -6.921  16.590  69.040  1.00  0.00    -0.208 A  
HETATM    5  N   UNL     1      -6.438  17.835  68.706  1.00  0.00    -0.215 NA 
HETATM    6  C   UNL     1      -7.455  18.602  68.157  1.00  0.00    -0.268 A  
HETATM    7  H   UNL     1      -5.477  18.147  68.842  1.00  0.00     0.000 HD 
HETATM    8  C   UNL     1      -7.591  19.960  67.912  1.00  0.00    -0.336 A  
HETATM    9  C   UNL     1      -8.821  20.345  67.351  1.00  0.00    -0.430 A  
HETATM   10  C   UNL     1      -9.778  19.410  66.873  1.00  0.00    -0.431 A  
HETATM   11  C   UNL     1      -9.581  18.036  67.059  1.00  0.00    -0.287 A  
HETATM   12  C   UNL     1      -8.459  17.710  67.863  1.00  0.00    -0.233 A  
HETATM   13  C   UNL     1     -10.332  16.807  66.640  1.00  0.00    -0.297 C  
HETATM   14  C   UNL     1     -10.863  16.406  65.429  1.00  0.00    -0.249 C  
HETATM   15  C   UNL     1     -11.124  14.863  65.341  1.00  0.00    -0.364 C  
HETATM   16  N   UNL     1     -11.662  15.186  67.742  1.00  0.00    -0.299 NA 
HETATM   17  C   UNL     1     -11.923  14.320  66.602  1.00  0.00    -0.430 C  
HETATM   18  C   UNL     1     -12.403  15.092  68.964  1.00  0.00    -0.015 C  
ENDROOT
BRANCH  15  19
HETATM   19  N   UNL     1     -11.474  14.176  64.101  1.00  0.00    -0.624 N  
HETATM   20  H   UNL     1     -11.541  14.644  63.198  1.00  0.00     0.000 HD 
BRANCH  19  21
HETATM   21  C   UNL     1     -11.709  12.805  64.280  1.00  0.00    -0.381 C  
HETATM   22  O   UNL     1     -12.852  12.355  64.399  1.00  0.00    -0.683 OA 
BRANCH  21  23
HETATM   23  N   UNL     1     -10.629  11.948  64.308  1.00  0.00    -0.306 N  
BRANCH  23  24
HETATM   24  C   UNL     1      -9.689  11.715  63.220  1.00  0.00    -0.368 C  
HETATM   25  C   UNL     1      -9.509  10.231  62.938  1.00  0.00    -0.333 C  
ENDBRANCH  23  24
BRANCH  23  26
HETATM   26  C   UNL     1     -10.350  11.266  65.586  1.00  0.00    -0.256 C  
HETATM   27  C   UNL     1      -9.183  11.860  66.364  1.00  0.00    -0.218 C  
ENDBRANCH  23  26
ENDBRANCH  21  23
ENDBRANCH  19  21
ENDBRANCH  15  19
TORSDOF 5
ENDMDL
MODEL       31
REMARK 921   NORMALIZED FREE ENERGY PREDICTED BY IDOCK:   -6.05 KCAL/MOL
REMARK 922        TOTAL FREE ENERGY PREDICTED BY IDOCK:   -8.30 KCAL/MOL
REMARK 923 INTER-LIGAND FREE ENERGY PREDICTED BY IDOCK:   -7.73 KCAL/MOL
REMARK 924 INTRA-LIGAND FREE ENERGY PREDICTED BY IDOCK:   -0.57 KCAL/MOL
REMARK 927      BINDING AFFINITY PREDICTED BY RF-SCORE:    0.00 PKD
ROOT
HETATM    1  C   UNL     1     -10.978  13.450  66.499  1.00  0.00    -0.290 C  
HETATM    2  C   UNL     1     -11.528  12.020  66.379  1.00  0.00    -0.417 C  
HETATM    3  C   UNL     1     -11.383  11.363  67.688  1.00  0.00    -0.359 A  
HETATM    4  C   UNL     1     -11.126  10.086  68.127  1.00  0.00    -0.193 A  
HETATM    5  N   UNL     1     -11.446  10.051  69.466  1.00  0.00    -0.419 NA 
HETATM    6  C   UNL     1     -11.931  11.288  69.865  1.00  0.00    -0.365 A  
HETATM    7  H   UNL     1     -11.342   9.238  70.073  1.00  0.00     0.000 HD 
HETATM    8  C   UNL     1     -12.628  11.716  70.984  1.00  0.00    -0.431 A  
HETATM    9  C   UNL     1     -12.961  13.082  70.994  1.00  0.00    -0.196 A  
HETATM   10  C   UNL     1     -12.453  14.007  70.043  1.00  0.00    -0.339 A  
HETATM   11  C   UNL     1     -11.681  13.562  68.963  1.00  0.00    -0.370 A  
HETATM   12  C   UNL     1     -11.595  12.151  68.848  1.00  0.00    -0.377 A  
HETATM   13  C   UNL     1     -10.956  14.249  67.844  1.00  0.00    -0.278 C  
HETATM   14  C   UNL     1     -10.088  15.324  67.817  1.00  0.00    -0.230 C  
HETATM   15  C   UNL     1      -9.209  15.384  66.520  1.00  0.00    -0.292 C  
HETATM   16  N   UNL     1     -11.284  14.473  65.508  1.00  0.00    -0.325 NA 
HETATM   17  C   UNL     1     -10.079  15.229  65.201  1.00  0.00    -0.288 C  
HETATM   18  C   UNL     1     -12.373  14.353  64.586  1.00  0.00    -0.418 C  
ENDROOT
BRANCH  15  19
HETATM   19  N   UNL     1      -8.078  16.293  66.358  1.00  0.00    -0.309 N  
HETATM   20  H   UNL     1      -7.229  16.048  65.848  1.00  0.00     0.000 HD 
BRANCH  19  21
HETATM   21  C   UNL     1      -8.278  17.535  66.974  1.00  0.00    -0.218 C  
HETATM   22  O   UNL     1      -9.078  18.359  66.524  1.00  0.00    -0.287 OA 
BRANCH  21  23
HETATM   23  N   UNL     1      -7.568  17.826  68.120  1.00  0.00    -0.241 N  
BRANCH  23  24
HETATM   24  C   UNL     1      -6.482  17.034  68.683  1.00  0.00    -0.172 C  
HETATM   25  C   UNL     1      -7.003  15.891  69.540  1.00  0.00    -0.189 C  
ENDBRANCH  23  24
BRANCH  23  26
HETATM   26  C   UNL     1      -7.879  19.102  68.793  1.00  0.00    -0.348 C  
HETATM   27  C   UNL     1      -6.650  19.877  69.252  1.00  0.00    -0.378 C  
ENDBRANCH  23  26
ENDBRANCH  21  23
ENDBRANCH  19  21
ENDBRANCH  15  19
TORSDOF 5
ENDMDL
MODEL       32
REMARK 921   NORMALIZED FREE ENERGY PREDICTED BY IDOCK:   -6.04 KCAL/MOL
REMARK 922        TOTAL FREE ENERGY PREDICTED BY IDOCK:   -8.28 KCAL/MOL
REMARK 923 INTER-LIGAND FREE ENERGY PREDICTED BY IDOCK:   -7.62 KCAL/MOL
REMARK 924 INTRA-LIGAND FREE ENERGY PREDICTED BY IDOCK:   -0.66 KCAL/MOL
REMARK 927      BINDING AFFINITY PREDICTED BY RF-SCORE:    0.00 PKD
ROOT
HETATM    1  C   UNL     1      -7.959  15.749  67.027  1.00  0.00    -0.237 C  
HETATM    2  C   UNL     1      -6.846  16.808  67.041  1.00  0.00    -0.246 C  
HETATM    3  C   UNL     1      -7.360  18.021  66.386  1.00  0.00    -0.292 A  
HETATM    4  C   UNL     1      -6.831  19.017  65.599  1.00  0.00    -0.270 A  
HETATM    5  N   UNL     1      -7.749  20.043  65.582  1.00  0.00    -0.457 NA 
HETATM    6  C   UNL     1      -8.838  19.714  66.376  1.00  0.00    -0.376 A  
HETATM    7  H   UNL     1      -7.645  20.915  65.063  1.00  0.00     0.000 HD 
HETATM    8  C   UNL     1      -9.877  20.456  66.914  1.00  0.00    -0.572 A  
HETATM    9  C   UNL     1     -10.785  19.728  67.703  1.00  0.00    -0.460 A  
HETATM   10  C   UNL     1     -10.773  18.310  67.783  1.00  0.00    -0.358 A  
HETATM   11  C   UNL     1      -9.758  17.573  67.162  1.00  0.00    -0.279 A  
HETATM   12  C   UNL     1      -8.720  18.363  66.604  1.00  0.00    -0.295 A  
HETATM   13  C   UNL     1      -9.482  16.108  66.997  1.00  0.00    -0.233 C  
HETATM   14  C   UNL     1     -10.275  15.049  66.599  1.00  0.00    -0.271 C  
HETATM   15  C   UNL     1      -9.458  13.805  66.108  1.00  0.00    -0.159 C  
HETATM   16  N   UNL     1      -7.911  14.576  67.889  1.00  0.00    -0.133 NA 
HETATM   17  C   UNL     1      -8.315  13.399  67.134  1.00  0.00    -0.139 C  
HETATM   18  C   UNL     1      -7.059  14.498  69.038  1.00  0.00    -0.124 C  
ENDROOT
BRANCH  15  19
HETATM   19  N   UNL     1     -10.064  12.655  65.443  1.00  0.00    -0.324 N  
HETATM   20  H   UNL     1      -9.691  12.237  64.591  1.00  0.00     0.000 HD 
BRANCH  19  21
HETATM   21  C   UNL     1     -11.214  12.186  66.094  1.00  0.00    -0.338 C  
HETATM   22  O   UNL     1     -12.346  12.462  65.688  1.00  0.00    -0.639 OA 
BRANCH  21  23
HETATM   23  N   UNL     1     -11.061  11.386  67.208  1.00  0.00    -0.287 N  
BRANCH  23  24
HETATM   24  C   UNL     1     -11.810  11.494  68.453  1.00  0.00    -0.283 C  
HETATM   25  C   UNL     1     -11.470  12.770  69.207  1.00  0.00    -0.349 C  
ENDBRANCH  23  24
BRANCH  23  26
HETATM   26  C   UNL     1     -10.111  10.262  67.097  1.00  0.00    -0.210 C  
HETATM   27  C   UNL     1     -10.637   8.948  67.660  1.00  0.00    -0.292 C  
ENDBRANCH  23  26
ENDBRANCH  21  23
ENDBRANCH  19  21
ENDBRANCH  15  19
TORSDOF 5
ENDMDL
MODEL       33
REMARK 921   NORMALIZED FREE ENERGY PREDICTED BY IDOCK:   -6.03 KCAL/MOL
REMARK 922        TOTAL FREE ENERGY PREDICTED BY IDOCK:   -8.28 KCAL/MOL
REMARK 923 INTER-LIGAND FREE ENERGY PREDICTED BY IDOCK:   -7.58 KCAL/MOL
REMARK 924 INTRA-LIGAND FREE ENERGY PREDICTED BY IDOCK:   -0.69 KCAL/MOL
REMARK 927      BINDING AFFINITY PREDICTED BY RF-SCORE:    0.00 PKD
ROOT
HETATM    1  C   UNL     1      -7.578  15.574  67.720  1.00  0.00    -0.145 C  
HETATM    2  C   UNL     1      -6.493  16.589  67.328  1.00  0.00    -0.216 C  
HETATM    3  C   UNL     1      -7.131  17.666  66.554  1.00  0.00    -0.282 A  
HETATM    4  C   UNL     1      -6.765  18.478  65.507  1.00  0.00    -0.235 A  
HETATM    5  N   UNL     1      -7.682  19.504  65.457  1.00  0.00    -0.389 NA 
HETATM    6  C   UNL     1      -8.605  19.360  66.483  1.00  0.00    -0.343 A  
HETATM    7  H   UNL     1      -7.683  20.256  64.769  1.00  0.00     0.000 HD 
HETATM    8  C   UNL     1      -9.537  20.217  67.046  1.00  0.00    -0.572 A  
HETATM    9  C   UNL     1     -10.278  19.677  68.111  1.00  0.00    -0.580 A  
HETATM   10  C   UNL     1     -10.237  18.301  68.460  1.00  0.00    -0.402 A  
HETATM   11  C   UNL     1      -9.342  17.433  67.821  1.00  0.00    -0.255 A  
HETATM   12  C   UNL     1      -8.432  18.075  66.943  1.00  0.00    -0.262 A  
HETATM   13  C   UNL     1      -9.085  15.958  67.896  1.00  0.00    -0.190 C  
HETATM   14  C   UNL     1      -9.925  14.861  67.860  1.00  0.00    -0.219 C  
HETATM   15  C   UNL     1      -9.196  13.527  67.481  1.00  0.00    -0.219 C  
HETATM   16  N   UNL     1      -7.360  14.588  68.770  1.00  0.00    -0.123 NA 
HETATM   17  C   UNL     1      -7.881  13.298  68.342  1.00  0.00    -0.137 C  
HETATM   18  C   UNL     1      -6.314  14.712  69.739  1.00  0.00    -0.152 C  
ENDROOT
BRANCH  15  19
HETATM   19  N   UNL     1      -9.901  12.286  67.170  1.00  0.00    -0.201 N  
HETATM   20  H   UNL     1      -9.477  11.362  67.258  1.00  0.00     0.000 HD 
BRANCH  19  21
HETATM   21  C   UNL     1     -11.219  12.495  66.741  1.00  0.00    -0.296 C  
HETATM   22  O   UNL     1     -12.180  12.318  67.493  1.00  0.00    -0.457 OA 
BRANCH  21  23
HETATM   23  N   UNL     1     -11.431  12.922  65.447  1.00  0.00    -0.313 N  
BRANCH  23  24
HETATM   24  C   UNL     1     -10.911  12.297  64.238  1.00  0.00    -0.343 C  
HETATM   25  C   UNL     1     -12.013  12.022  63.226  1.00  0.00    -0.477 C  
ENDBRANCH  23  24
BRANCH  23  26
HETATM   26  C   UNL     1     -12.339  14.071  65.263  1.00  0.00    -0.465 C  
HETATM   27  C   UNL     1     -11.681  15.285  64.621  1.00  0.00    -0.308 C  
ENDBRANCH  23  26
ENDBRANCH  21  23
ENDBRANCH  19  21
ENDBRANCH  15  19
TORSDOF 5
ENDMDL
MODEL       34
REMARK 921   NORMALIZED FREE ENERGY PREDICTED BY IDOCK:   -6.02 KCAL/MOL
REMARK 922        TOTAL FREE ENERGY PREDICTED BY IDOCK:   -8.27 KCAL/MOL
REMARK 923 INTER-LIGAND FREE ENERGY PREDICTED BY IDOCK:   -7.91 KCAL/MOL
REMARK 924 INTRA-LIGAND FREE ENERGY PREDICTED BY IDOCK:   -0.36 KCAL/MOL
REMARK 927      BINDING AFFINITY PREDICTED BY RF-SCORE:    0.00 PKD
ROOT
HETATM    1  C   UNL     1     -12.198  14.044  70.692  1.00  0.00    -0.372 C  
HETATM    2  C   UNL     1     -11.423  15.359  70.512  1.00  0.00    -0.354 C  
HETATM    3  C   UNL     1     -10.307  15.110  69.586  1.00  0.00    -0.238 A  
HETATM    4  C   UNL     1      -9.021  15.575  69.443  1.00  0.00    -0.275 A  
HETATM    5  N   UNL     1      -8.598  15.203  68.186  1.00  0.00    -0.154 NA 
HETATM    6  C   UNL     1      -9.618  14.535  67.525  1.00  0.00    -0.210 A  
HETATM    7  H   UNL     1      -7.673  15.390  67.800  1.00  0.00     0.000 HD 
HETATM    8  C   UNL     1      -9.826  14.199  66.197  1.00  0.00    -0.326 A  
HETATM    9  C   UNL     1     -11.032  13.527  65.933  1.00  0.00    -0.284 A  
HETATM   10  C   UNL     1     -11.883  13.037  66.959  1.00  0.00    -0.437 A  
HETATM   11  C   UNL     1     -11.610  13.319  68.303  1.00  0.00    -0.369 A  
HETATM   12  C   UNL     1     -10.534  14.222  68.503  1.00  0.00    -0.253 A  
HETATM   13  C   UNL     1     -12.242  12.921  69.603  1.00  0.00    -0.203 C  
HETATM   14  C   UNL     1     -12.648  11.700  70.108  1.00  0.00    -0.106 C  
HETATM   15  C   UNL     1     -12.797  11.687  71.668  1.00  0.00    -0.349 C  
HETATM   16  N   UNL     1     -13.541  14.018  71.253  1.00  0.00    -0.257 NA 
HETATM   17  C   UNL     1     -13.653  12.916  72.196  1.00  0.00    -0.495 C  
HETATM   18  C   UNL     1     -14.367  15.185  71.331  1.00  0.00    -0.499 C  
ENDROOT
BRANCH  15  19
HETATM   19  N   UNL     1     -13.003  10.468  72.445  1.00  0.00    -0.365 N  
HETATM   20  H   UNL     1     -13.042  10.451  73.464  1.00  0.00     0.000 HD 
BRANCH  19  21
HETATM   21  C   UNL     1     -13.142   9.324  71.647  1.00  0.00    -0.382 C  
HETATM   22  O   UNL     1     -14.161   9.120  70.982  1.00  0.00    -0.127 OA 
BRANCH  21  23
HETATM   23  N   UNL     1     -12.102   8.420  71.602  1.00  0.00    -0.297 N  
BRANCH  23  24
HETATM   24  C   UNL     1     -10.714   8.688  71.953  1.00  0.00    -0.344 C  
HETATM   25  C   UNL     1      -9.956   9.336  70.804  1.00  0.00    -0.357 C  
ENDBRANCH  23  24
BRANCH  23  26
HETATM   26  C   UNL     1     -12.441   7.029  71.245  1.00  0.00    -0.386 C  
HETATM   27  C   UNL     1     -11.435   6.365  70.313  1.00  0.00    -0.468 C  
ENDBRANCH  23  26
ENDBRANCH  21  23
ENDBRANCH  19  21
ENDBRANCH  15  19
TORSDOF 5
ENDMDL
MODEL       35
REMARK 921   NORMALIZED FREE ENERGY PREDICTED BY IDOCK:   -5.98 KCAL/MOL
REMARK 922        TOTAL FREE ENERGY PREDICTED BY IDOCK:   -8.21 KCAL/MOL
REMARK 923 INTER-LIGAND FREE ENERGY PREDICTED BY IDOCK:   -7.86 KCAL/MOL
REMARK 924 INTRA-LIGAND FREE ENERGY PREDICTED BY IDOCK:   -0.35 KCAL/MOL
REMARK 927      BINDING AFFINITY PREDICTED BY RF-SCORE:    0.00 PKD
ROOT
HETATM    1  C   UNL     1     -10.955  11.822  65.201  1.00  0.00    -0.294 C  
HETATM    2  C   UNL     1     -10.018  11.277  64.112  1.00  0.00    -0.350 C  
HETATM    3  C   UNL     1      -8.935  10.530  64.770  1.00  0.00    -0.227 A  
HETATM    4  C   UNL     1      -7.599  10.313  64.530  1.00  0.00    -0.095 A  
HETATM    5  N   UNL     1      -7.216   9.257  65.327  1.00  0.00    -0.089 NA 
HETATM    6  C   UNL     1      -8.308   8.790  66.045  1.00  0.00    -0.126 A  
HETATM    7  H   UNL     1      -6.272   8.876  65.383  1.00  0.00     0.000 HD 
HETATM    8  C   UNL     1      -8.545   7.624  66.756  1.00  0.00    -0.129 A  
HETATM    9  C   UNL     1      -9.824   7.526  67.331  1.00  0.00    -0.221 A  
HETATM   10  C   UNL     1     -10.740   8.611  67.367  1.00  0.00    -0.212 A  
HETATM   11  C   UNL     1     -10.444   9.811  66.708  1.00  0.00    -0.259 A  
HETATM   12  C   UNL     1      -9.264   9.770  65.922  1.00  0.00    -0.236 A  
HETATM   13  C   UNL     1     -11.133  11.138  66.597  1.00  0.00    -0.255 C  
HETATM   14  C   UNL     1     -11.695  11.979  67.539  1.00  0.00    -0.351 C  
HETATM   15  C   UNL     1     -11.858  13.456  67.040  1.00  0.00    -0.394 C  
HETATM   16  N   UNL     1     -12.296  12.297  64.890  1.00  0.00    -0.477 NA 
HETATM   17  C   UNL     1     -12.556  13.532  65.615  1.00  0.00    -0.459 C  
HETATM   18  C   UNL     1     -12.967  11.967  63.668  1.00  0.00    -0.212 C  
ENDROOT
BRANCH  15  19
HETATM   19  N   UNL     1     -12.224  14.565  67.917  1.00  0.00    -0.622 N  
HETATM   20  H   UNL     1     -12.867  15.308  67.645  1.00  0.00     0.000 HD 
BRANCH  19  21
HETATM   21  C   UNL     1     -11.601  14.502  69.171  1.00  0.00    -0.298 C  
HETATM   22  O   UNL     1     -10.391  14.702  69.303  1.00  0.00    -0.227 OA 
BRANCH  21  23
HETATM   23  N   UNL     1     -12.374  14.224  70.279  1.00  0.00    -0.338 N  
BRANCH  23  24
HETATM   24  C   UNL     1     -12.574  12.912  70.881  1.00  0.00    -0.270 C  
HETATM   25  C   UNL     1     -13.467  12.985  72.110  1.00  0.00    -0.638 C  
ENDBRANCH  23  24
BRANCH  23  26
HETATM   26  C   UNL     1     -12.989  15.373  70.971  1.00  0.00    -0.492 C  
HETATM   27  C   UNL     1     -12.057  16.081  71.946  1.00  0.00    -0.590 C  
ENDBRANCH  23  26
ENDBRANCH  21  23
ENDBRANCH  19  21
ENDBRANCH  15  19
TORSDOF 5
ENDMDL
MODEL       36
REMARK 921   NORMALIZED FREE ENERGY PREDICTED BY IDOCK:   -5.90 KCAL/MOL
REMARK 922        TOTAL FREE ENERGY PREDICTED BY IDOCK:   -8.11 KCAL/MOL
REMARK 923 INTER-LIGAND FREE ENERGY PREDICTED BY IDOCK:   -7.49 KCAL/MOL
REMARK 924 INTRA-LIGAND FREE ENERGY PREDICTED BY IDOCK:   -0.62 KCAL/MOL
REMARK 927      BINDING AFFINITY PREDICTED BY RF-SCORE:    0.00 PKD
ROOT
HETATM    1  C   UNL     1     -10.987  12.781  67.069  1.00  0.00    -0.263 C  
HETATM    2  C   UNL     1     -10.481  11.365  66.755  1.00  0.00    -0.284 C  
HETATM    3  C   UNL     1      -9.985  10.768  68.005  1.00  0.00    -0.183 A  
HETATM    4  C   UNL     1      -8.978   9.898  68.351  1.00  0.00    -0.120 A  
HETATM    5  N   UNL     1      -9.239   9.475  69.635  1.00  0.00    -0.185 NA 
HETATM    6  C   UNL     1     -10.419  10.047  70.089  1.00  0.00    -0.284 A  
HETATM    7  H   UNL     1      -8.653   8.836  70.172  1.00  0.00     0.000 HD 
HETATM    8  C   UNL     1     -11.259   9.767  71.154  1.00  0.00    -0.444 A  
HETATM    9  C   UNL     1     -12.394  10.591  71.251  1.00  0.00    -0.502 A  
HETATM   10  C   UNL     1     -12.575  11.753  70.455  1.00  0.00    -0.234 A  
HETATM   11  C   UNL     1     -11.668  12.062  69.435  1.00  0.00    -0.402 A  
HETATM   12  C   UNL     1     -10.688  11.063  69.201  1.00  0.00    -0.274 A  
HETATM   13  C   UNL     1     -11.524  13.206  68.476  1.00  0.00    -0.338 C  
HETATM   14  C   UNL     1     -11.553  14.577  68.648  1.00  0.00    -0.346 C  
HETATM   15  C   UNL     1     -10.882  15.369  67.473  1.00  0.00    -0.305 C  
HETATM   16  N   UNL     1     -11.851  13.507  66.149  1.00  0.00    -0.369 NA 
HETATM   17  C   UNL     1     -11.409  14.890  66.053  1.00  0.00    -0.306 C  
HETATM   18  C   UNL     1     -12.579  12.858  65.100  1.00  0.00    -0.471 C  
ENDROOT
BRANCH  15  19
HETATM   19  N   UNL     1     -10.599  16.800  67.527  1.00  0.00    -0.324 N  
HETATM   20  H   UNL     1     -11.210  17.478  67.983  1.00  0.00     0.000 HD 
BRANCH  19  21
HETATM   21  C   UNL     1      -9.402  17.148  66.887  1.00  0.00    -0.249 C  
HETATM   22  O   UNL     1      -9.391  17.613  65.744  1.00  0.00    -0.511 OA 
BRANCH  21  23
HETATM   23  N   UNL     1      -8.214  16.974  67.567  1.00  0.00    -0.179 N  
BRANCH  23  24
HETATM   24  C   UNL     1      -7.718  17.805  68.656  1.00  0.00    -0.283 C  
HETATM   25  C   UNL     1      -7.306  19.186  68.169  1.00  0.00    -0.304 C  
ENDBRANCH  23  24
BRANCH  23  26
HETATM   26  C   UNL     1      -7.411  15.787  67.217  1.00  0.00    -0.217 C  
HETATM   27  C   UNL     1      -7.301  14.761  68.337  1.00  0.00    -0.116 C  
ENDBRANCH  23  26
ENDBRANCH  21  23
ENDBRANCH  19  21
ENDBRANCH  15  19
TORSDOF 5
ENDMDL
MODEL       37
REMARK 921   NORMALIZED FREE ENERGY PREDICTED BY IDOCK:   -5.87 KCAL/MOL
REMARK 922        TOTAL FREE ENERGY PREDICTED BY IDOCK:   -8.06 KCAL/MOL
REMARK 923 INTER-LIGAND FREE ENERGY PREDICTED BY IDOCK:   -7.48 KCAL/MOL
REMARK 924 INTRA-LIGAND FREE ENERGY PREDICTED BY IDOCK:   -0.58 KCAL/MOL
REMARK 927      BINDING AFFINITY PREDICTED BY RF-SCORE:    0.00 PKD
ROOT
HETATM    1  C   UNL     1     -11.808  13.972  69.930  1.00  0.00    -0.329 C  
HETATM    2  C   UNL     1     -11.276  15.413  69.909  1.00  0.00    -0.310 C  
HETATM    3  C   UNL     1     -10.415  15.567  68.726  1.00  0.00    -0.234 A  
HETATM    4  C   UNL     1      -9.278  16.276  68.419  1.00  0.00    -0.203 A  
HETATM    5  N   UNL     1      -9.151  16.255  67.048  1.00  0.00    -0.201 NA 
HETATM    6  C   UNL     1     -10.216  15.564  66.488  1.00  0.00    -0.283 A  
HETATM    7  H   UNL     1      -8.389  16.683  66.523  1.00  0.00     0.000 HD 
HETATM    8  C   UNL     1     -10.716  15.479  65.198  1.00  0.00    -0.460 A  
HETATM    9  C   UNL     1     -11.856  14.669  65.052  1.00  0.00    -0.377 A  
HETATM   10  C   UNL     1     -12.345  13.831  66.090  1.00  0.00    -0.496 A  
HETATM   11  C   UNL     1     -11.771  13.874  67.367  1.00  0.00    -0.422 A  
HETATM   12  C   UNL     1     -10.802  14.896  67.537  1.00  0.00    -0.292 A  
HETATM   13  C   UNL     1     -11.991  13.109  68.637  1.00  0.00    -0.319 C  
HETATM   14  C   UNL     1     -12.097  11.757  68.905  1.00  0.00    -0.238 C  
HETATM   15  C   UNL     1     -11.836  11.395  70.407  1.00  0.00    -0.335 C  
HETATM   16  N   UNL     1     -12.947  13.587  70.752  1.00  0.00    -0.162 NA 
HETATM   17  C   UNL     1     -12.673  12.312  71.397  1.00  0.00    -0.248 C  
HETATM   18  C   UNL     1     -13.863  14.544  71.295  1.00  0.00    -0.315 C  
ENDROOT
BRANCH  15  19
HETATM   19  N   UNL     1     -11.680  10.025  70.888  1.00  0.00    -0.344 N  
HETATM   20  H   UNL     1     -12.323   9.583  71.545  1.00  0.00     0.000 HD 
BRANCH  19  21
HETATM   21  C   UNL     1     -10.555   9.380  70.356  1.00  0.00    -0.261 C  
HETATM   22  O   UNL     1      -9.453   9.933  70.310  1.00  0.00    -0.232 OA 
BRANCH  21  23
HETATM   23  N   UNL     1     -10.694   8.090  69.887  1.00  0.00    -0.247 N  
BRANCH  23  24
HETATM   24  C   UNL     1     -11.477   7.029  70.507  1.00  0.00    -0.319 C  
HETATM   25  C   UNL     1     -10.988   5.650  70.090  1.00  0.00    -0.303 C  
ENDBRANCH  23  24
BRANCH  23  26
HETATM   26  C   UNL     1     -10.059   7.778  68.592  1.00  0.00    -0.199 C  
HETATM   27  C   UNL     1     -10.526   8.664  67.444  1.00  0.00    -0.351 C  
ENDBRANCH  23  26
ENDBRANCH  21  23
ENDBRANCH  19  21
ENDBRANCH  15  19
TORSDOF 5
ENDMDL
MODEL       38
REMARK 921   NORMALIZED FREE ENERGY PREDICTED BY IDOCK:   -5.85 KCAL/MOL
REMARK 922        TOTAL FREE ENERGY PREDICTED BY IDOCK:   -8.04 KCAL/MOL
REMARK 923 INTER-LIGAND FREE ENERGY PREDICTED BY IDOCK:   -7.62 KCAL/MOL
REMARK 924 INTRA-LIGAND FREE ENERGY PREDICTED BY IDOCK:   -0.43 KCAL/MOL
REMARK 927      BINDING AFFINITY PREDICTED BY RF-SCORE:    0.00 PKD
ROOT
HETATM    1  C   UNL     1     -11.224  13.247  69.013  1.00  0.00    -0.270 C  
HETATM    2  C   UNL     1     -10.647  14.669  69.082  1.00  0.00    -0.247 C  
HETATM    3  C   UNL     1     -10.117  15.014  67.754  1.00  0.00    -0.234 A  
HETATM    4  C   UNL     1      -9.065  15.758  67.274  1.00  0.00    -0.207 A  
HETATM    5  N   UNL     1      -9.300  15.965  65.933  1.00  0.00    -0.338 NA 
HETATM    6  C   UNL     1     -10.507  15.383  65.572  1.00  0.00    -0.380 A  
HETATM    7  H   UNL     1      -8.680  16.470  65.300  1.00  0.00     0.000 HD 
HETATM    8  C   UNL     1     -11.329  15.515  64.464  1.00  0.00    -0.322 A  
HETATM    9  C   UNL     1     -12.505  14.746  64.498  1.00  0.00    -0.272 A  
HETATM   10  C   UNL     1     -12.748  13.750  65.481  1.00  0.00    -0.530 A  
HETATM   11  C   UNL     1     -11.860  13.578  66.550  1.00  0.00    -0.441 A  
HETATM   12  C   UNL     1     -10.831  14.552  66.619  1.00  0.00    -0.311 A  
HETATM   13  C   UNL     1     -11.779  12.612  67.695  1.00  0.00    -0.420 C  
HETATM   14  C   UNL     1     -11.878  11.236  67.763  1.00  0.00    -0.164 C  
HETATM   15  C   UNL     1     -11.252  10.627  69.064  1.00  0.00    -0.265 C  
HETATM   16  N   UNL     1     -12.127  12.737  70.035  1.00  0.00    -0.318 NA 
HETATM   17  C   UNL     1     -11.758  11.371  70.374  1.00  0.00    -0.268 C  
HETATM   18  C   UNL     1     -12.823  13.594  70.947  1.00  0.00    -0.251 C  
ENDROOT
BRANCH  15  19
HETATM   19  N   UNL     1     -11.044   9.195  69.263  1.00  0.00    -0.440 N  
HETATM   20  H   UNL     1     -11.468   8.478  68.675  1.00  0.00     0.000 HD 
BRANCH  19  21
HETATM   21  C   UNL     1     -10.200   8.908  70.345  1.00  0.00    -0.200 C  
HETATM   22  O   UNL     1      -9.067   9.389  70.427  1.00  0.00    -0.223 OA 
BRANCH  21  23
HETATM   23  N   UNL     1     -10.666   8.078  71.343  1.00  0.00    -0.225 N  
BRANCH  23  24
HETATM   24  C   UNL     1     -10.397   8.212  72.769  1.00  0.00    -0.313 C  
HETATM   25  C   UNL     1      -9.670   6.996  73.323  1.00  0.00    -0.231 C  
ENDBRANCH  23  24
BRANCH  23  26
HETATM   26  C   UNL     1     -11.591   7.002  70.939  1.00  0.00    -0.328 C  
HETATM   27  C   UNL     1     -13.025   7.209  71.410  1.00  0.00    -0.419 C  
ENDBRANCH  23  26
ENDBRANCH  21  23
ENDBRANCH  19  21
ENDBRANCH  15  19
TORSDOF 5
ENDMDL
MODEL       39
REMARK 921   NORMALIZED FREE ENERGY PREDICTED BY IDOCK:   -5.78 KCAL/MOL
REMARK 922        TOTAL FREE ENERGY PREDICTED BY IDOCK:   -7.95 KCAL/MOL
REMARK 923 INTER-LIGAND FREE ENERGY PREDICTED BY IDOCK:   -8.27 KCAL/MOL
REMARK 924 INTRA-LIGAND FREE ENERGY PREDICTED BY IDOCK:    0.32 KCAL/MOL
REMARK 927      BINDING AFFINITY PREDICTED BY RF-SCORE:    0.00 PKD
ROOT
HETATM    1  C   UNL     1     -10.225  14.857  66.303  1.00  0.00    -0.294 C  
HETATM    2  C   UNL     1     -10.719  16.050  65.471  1.00  0.00    -0.374 C  
HETATM    3  C   UNL     1     -10.183  17.282  66.073  1.00  0.00    -0.314 A  
HETATM    4  C   UNL     1     -10.622  18.576  66.227  1.00  0.00    -0.330 A  
HETATM    5  N   UNL     1      -9.525  19.330  66.580  1.00  0.00    -0.342 NA 
HETATM    6  C   UNL     1      -8.394  18.526  66.620  1.00  0.00    -0.272 A  
HETATM    7  H   UNL     1      -9.541  20.329  66.782  1.00  0.00     0.000 HD 
HETATM    8  C   UNL     1      -7.037  18.802  66.646  1.00  0.00    -0.231 A  
HETATM    9  C   UNL     1      -6.198  17.674  66.658  1.00  0.00    -0.221 A  
HETATM   10  C   UNL     1      -6.686  16.352  66.841  1.00  0.00    -0.205 A  
HETATM   11  C   UNL     1      -8.063  16.105  66.893  1.00  0.00    -0.275 A  
HETATM   12  C   UNL     1      -8.871  17.236  66.610  1.00  0.00    -0.280 A  
HETATM   13  C   UNL     1      -8.897  14.881  67.130  1.00  0.00    -0.235 C  
HETATM   14  C   UNL     1      -8.843  13.888  68.089  1.00  0.00    -0.184 C  
HETATM   15  C   UNL     1     -10.184  13.091  68.240  1.00  0.00    -0.246 C  
HETATM   16  N   UNL     1     -10.275  13.494  65.793  1.00  0.00    -0.292 NA 
HETATM   17  C   UNL     1     -10.747  12.599  66.838  1.00  0.00    -0.242 C  
HETATM   18  C   UNL     1     -10.427  13.198  64.400  1.00  0.00    -0.407 C  
ENDROOT
BRANCH  15  19
HETATM   19  N   UNL     1     -10.442  12.147  69.324  1.00  0.00    -0.430 N  
HETATM   20  H   UNL     1      -9.721  11.816  69.964  1.00  0.00     0.000 HD 
BRANCH  19  21
HETATM   21  C   UNL     1     -11.782  11.743  69.394  1.00  0.00    -0.341 C  
HETATM   22  O   UNL     1     -12.350  11.216  68.433  1.00  0.00    -0.556 OA 
BRANCH  21  23
HETATM   23  N   UNL     1     -12.468  11.932  70.576  1.00  0.00    -0.258 N  
BRANCH  23  24
HETATM   24  C   UNL     1     -12.950  10.885  71.466  1.00  0.00    -0.451 C  
HETATM   25  C   UNL     1     -12.000   9.698  71.508  1.00  0.00    -0.485 C  
ENDBRANCH  23  24
BRANCH  23  26
HETATM   26  C   UNL     1     -12.658  13.325  71.023  1.00  0.00    -0.324 C  
HETATM   27  C   UNL     1     -13.526  13.464  72.267  1.00  0.00    -0.683 C  
ENDBRANCH  23  26
ENDBRANCH  21  23
ENDBRANCH  19  21
ENDBRANCH  15  19
TORSDOF 5
ENDMDL
MODEL       40
REMARK 921   NORMALIZED FREE ENERGY PREDICTED BY IDOCK:   -5.76 KCAL/MOL
REMARK 922        TOTAL FREE ENERGY PREDICTED BY IDOCK:   -7.92 KCAL/MOL
REMARK 923 INTER-LIGAND FREE ENERGY PREDICTED BY IDOCK:   -7.16 KCAL/MOL
REMARK 924 INTRA-LIGAND FREE ENERGY PREDICTED BY IDOCK:   -0.77 KCAL/MOL
REMARK 927      BINDING AFFINITY PREDICTED BY RF-SCORE:    0.00 PKD
ROOT
HETATM    1  C   UNL     1     -10.460  15.417  68.461  1.00  0.00    -0.234 C  
HETATM    2  C   UNL     1      -9.434  15.996  69.447  1.00  0.00    -0.226 C  
HETATM    3  C   UNL     1      -8.426  16.741  68.676  1.00  0.00    -0.259 A  
HETATM    4  C   UNL     1      -7.077  16.980  68.787  1.00  0.00    -0.219 A  
HETATM    5  N   UNL     1      -6.784  18.023  67.936  1.00  0.00    -0.188 NA 
HETATM    6  C   UNL     1      -7.943  18.461  67.313  1.00  0.00    -0.236 A  
HETATM    7  H   UNL     1      -5.854  18.413  67.786  1.00  0.00     0.000 HD 
HETATM    8  C   UNL     1      -8.261  19.608  66.602  1.00  0.00    -0.342 A  
HETATM    9  C   UNL     1      -9.589  19.679  66.147  1.00  0.00    -0.464 A  
HETATM   10  C   UNL     1     -10.489  18.582  66.218  1.00  0.00    -0.441 A  
HETATM   11  C   UNL     1     -10.118  17.401  66.871  1.00  0.00    -0.314 A  
HETATM   12  C   UNL     1      -8.871  17.472  67.544  1.00  0.00    -0.229 A  
HETATM   13  C   UNL     1     -10.775  16.068  67.073  1.00  0.00    -0.277 C  
HETATM   14  C   UNL     1     -11.410  15.200  66.205  1.00  0.00    -0.219 C  
HETATM   15  C   UNL     1     -11.506  13.733  66.747  1.00  0.00    -0.348 C  
HETATM   16  N   UNL     1     -11.760  14.933  68.905  1.00  0.00    -0.308 NA 
HETATM   17  C   UNL     1     -12.068  13.680  68.232  1.00  0.00    -0.271 C  
HETATM   18  C   UNL     1     -12.320  15.282  70.176  1.00  0.00    -0.353 C  
ENDROOT
BRANCH  15  19
HETATM   19  N   UNL     1     -11.936  12.601  65.931  1.00  0.00    -0.443 N  
HETATM   20  H   UNL     1     -12.910  12.423  65.684  1.00  0.00     0.000 HD 
BRANCH  19  21
HETATM   21  C   UNL     1     -10.874  11.783  65.523  1.00  0.00    -0.297 C  
HETATM   22  O   UNL     1     -10.626  11.592  64.329  1.00  0.00    -0.298 OA 
BRANCH  21  23
HETATM   23  N   UNL     1     -10.084  11.194  66.489  1.00  0.00    -0.216 N  
BRANCH  23  24
HETATM   24  C   UNL     1      -8.701  11.534  66.793  1.00  0.00    -0.178 C  
HETATM   25  C   UNL     1      -8.538  12.000  68.232  1.00  0.00    -0.174 C  
ENDBRANCH  23  24
BRANCH  23  26
HETATM   26  C   UNL     1     -10.726  10.184  67.351  1.00  0.00    -0.277 C  
HETATM   27  C   UNL     1     -10.209   8.767  67.137  1.00  0.00    -0.346 C  
ENDBRANCH  23  26
ENDBRANCH  21  23
ENDBRANCH  19  21
ENDBRANCH  15  19
TORSDOF 5
ENDMDL
MODEL       41
REMARK 921   NORMALIZED FREE ENERGY PREDICTED BY IDOCK:   -5.71 KCAL/MOL
REMARK 922        TOTAL FREE ENERGY PREDICTED BY IDOCK:   -7.86 KCAL/MOL
REMARK 923 INTER-LIGAND FREE ENERGY PREDICTED BY IDOCK:   -7.27 KCAL/MOL
REMARK 924 INTRA-LIGAND FREE ENERGY PREDICTED BY IDOCK:   -0.59 KCAL/MOL
REMARK 927      BINDING AFFINITY PREDICTED BY RF-SCORE:    0.00 PKD
ROOT
HETATM    1  C   UNL     1     -10.840  11.934  65.063  1.00  0.00    -0.300 C  
HETATM    2  C   UNL     1      -9.922  11.297  64.009  1.00  0.00    -0.362 C  
HETATM    3  C   UNL     1      -8.840  10.588  64.711  1.00  0.00    -0.211 A  
HETATM    4  C   UNL     1      -7.509  10.336  64.475  1.00  0.00    -0.088 A  
HETATM    5  N   UNL     1      -7.131   9.338  65.346  1.00  0.00    -0.084 NA 
HETATM    6  C   UNL     1      -8.220   8.940  66.108  1.00  0.00    -0.116 A  
HETATM    7  H   UNL     1      -6.190   8.951  65.420  1.00  0.00     0.000 HD 
HETATM    8  C   UNL     1      -8.463   7.835  66.908  1.00  0.00    -0.125 A  
HETATM    9  C   UNL     1      -9.737   7.796  67.501  1.00  0.00    -0.201 A  
HETATM   10  C   UNL     1     -10.639   8.893  67.464  1.00  0.00    -0.307 A  
HETATM   11  C   UNL     1     -10.336  10.036  66.714  1.00  0.00    -0.283 A  
HETATM   12  C   UNL     1      -9.166   9.921  65.921  1.00  0.00    -0.223 A  
HETATM   13  C   UNL     1     -11.010  11.360  66.509  1.00  0.00    -0.328 C  
HETATM   14  C   UNL     1     -11.552  12.276  67.390  1.00  0.00    -0.425 C  
HETATM   15  C   UNL     1     -11.703  13.713  66.783  1.00  0.00    -0.392 C  
HETATM   16  N   UNL     1     -12.179  12.401  64.731  1.00  0.00    -0.435 NA 
HETATM   17  C   UNL     1     -12.415  13.690  65.363  1.00  0.00    -0.499 C  
HETATM   18  C   UNL     1     -12.867  11.989  63.545  1.00  0.00    -0.341 C  
ENDROOT
BRANCH  15  19
HETATM   19  N   UNL     1     -12.046  14.890  67.577  1.00  0.00    -0.467 N  
HETATM   20  H   UNL     1     -12.994  15.259  67.654  1.00  0.00     0.000 HD 
BRANCH  19  21
HETATM   21  C   UNL     1     -10.939  15.459  68.222  1.00  0.00    -0.288 C  
HETATM   22  O   UNL     1     -10.601  15.110  69.356  1.00  0.00    -0.235 OA 
BRANCH  21  23
HETATM   23  N   UNL     1     -10.211  16.422  67.556  1.00  0.00    -0.267 N  
BRANCH  23  24
HETATM   24  C   UNL     1      -9.163  16.181  66.573  1.00  0.00    -0.272 C  
HETATM   25  C   UNL     1      -8.429  14.876  66.839  1.00  0.00    -0.255 C  
ENDBRANCH  23  24
BRANCH  23  26
HETATM   26  C   UNL     1     -10.584  17.829  67.799  1.00  0.00    -0.386 C  
HETATM   27  C   UNL     1      -9.615  18.581  68.702  1.00  0.00    -0.382 C  
ENDBRANCH  23  26
ENDBRANCH  21  23
ENDBRANCH  19  21
ENDBRANCH  15  19
TORSDOF 5
ENDMDL
MODEL       42
REMARK 921   NORMALIZED FREE ENERGY PREDICTED BY IDOCK:   -5.71 KCAL/MOL
REMARK 922        TOTAL FREE ENERGY PREDICTED BY IDOCK:   -7.86 KCAL/MOL
REMARK 923 INTER-LIGAND FREE ENERGY PREDICTED BY IDOCK:   -7.45 KCAL/MOL
REMARK 924 INTRA-LIGAND FREE ENERGY PREDICTED BY IDOCK:   -0.41 KCAL/MOL
REMARK 927      BINDING AFFINITY PREDICTED BY RF-SCORE:    0.00 PKD
ROOT
HETATM    1  C   UNL     1      -9.799  10.514  68.465  1.00  0.00    -0.168 C  
HETATM    2  C   UNL     1      -9.331   9.109  68.874  1.00  0.00    -0.146 C  
HETATM    3  C   UNL     1      -9.598   8.937  70.311  1.00  0.00    -0.212 A  
HETATM    4  C   UNL     1      -8.991   8.282  71.355  1.00  0.00    -0.166 A  
HETATM    5  N   UNL     1      -9.908   8.229  72.382  1.00  0.00    -0.278 NA 
HETATM    6  C   UNL     1     -11.097   8.819  71.980  1.00  0.00    -0.371 A  
HETATM    7  H   UNL     1      -9.737   7.818  73.299  1.00  0.00     0.000 HD 
HETATM    8  C   UNL     1     -12.385   8.797  72.491  1.00  0.00    -0.358 A  
HETATM    9  C   UNL     1     -13.333   9.527  71.753  1.00  0.00    -0.501 A  
HETATM   10  C   UNL     1     -12.978  10.393  70.684  1.00  0.00    -0.357 A  
HETATM   11  C   UNL     1     -11.654  10.461  70.236  1.00  0.00    -0.410 A  
HETATM   12  C   UNL     1     -10.785   9.512  70.834  1.00  0.00    -0.403 A  
HETATM   13  C   UNL     1     -10.940  11.286  69.207  1.00  0.00    -0.297 C  
HETATM   14  C   UNL     1     -10.932  12.642  68.941  1.00  0.00    -0.273 C  
HETATM   15  C   UNL     1      -9.688  13.108  68.108  1.00  0.00    -0.228 C  
HETATM   16  N   UNL     1     -10.004  10.877  67.069  1.00  0.00    -0.187 NA 
HETATM   17  C   UNL     1      -9.455  12.202  66.825  1.00  0.00    -0.212 C  
HETATM   18  C   UNL     1     -10.147   9.900  66.032  1.00  0.00    -0.244 C  
ENDROOT
BRANCH  15  19
HETATM   19  N   UNL     1      -9.347  14.511  67.889  1.00  0.00    -0.196 N  
HETATM   20  H   UNL     1      -8.390  14.862  67.876  1.00  0.00     0.000 HD 
BRANCH  19  21
HETATM   21  C   UNL     1     -10.472  15.326  67.698  1.00  0.00    -0.263 C  
HETATM   22  O   UNL     1     -11.368  15.017  66.908  1.00  0.00    -0.341 OA 
BRANCH  21  23
HETATM   23  N   UNL     1     -10.573  16.493  68.427  1.00  0.00    -0.305 N  
BRANCH  23  24
HETATM   24  C   UNL     1     -10.520  17.847  67.895  1.00  0.00    -0.396 C  
HETATM   25  C   UNL     1      -9.882  18.816  68.879  1.00  0.00    -0.415 C  
ENDBRANCH  23  24
BRANCH  23  26
HETATM   26  C   UNL     1     -10.847  16.356  69.871  1.00  0.00    -0.333 C  
HETATM   27  C   UNL     1     -12.190  15.711  70.189  1.00  0.00    -0.387 C  
ENDBRANCH  23  26
ENDBRANCH  21  23
ENDBRANCH  19  21
ENDBRANCH  15  19
TORSDOF 5
ENDMDL
MODEL       43
REMARK 921   NORMALIZED FREE ENERGY PREDICTED BY IDOCK:   -5.68 KCAL/MOL
REMARK 922        TOTAL FREE ENERGY PREDICTED BY IDOCK:   -7.83 KCAL/MOL
REMARK 923 INTER-LIGAND FREE ENERGY PREDICTED BY IDOCK:   -7.29 KCAL/MOL
REMARK 924 INTRA-LIGAND FREE ENERGY PREDICTED BY IDOCK:   -0.54 KCAL/MOL
REMARK 927      BINDING AFFINITY PREDICTED BY RF-SCORE:    0.00 PKD
ROOT
HETATM    1  C   UNL     1      -9.680   9.524  69.331  1.00  0.00    -0.183 C  
HETATM    2  C   UNL     1      -8.357   8.770  69.532  1.00  0.00    -0.119 C  
HETATM    3  C   UNL     1      -8.057   8.747  70.972  1.00  0.00    -0.186 A  
HETATM    4  C   UNL     1      -6.919   8.785  71.743  1.00  0.00    -0.056 A  
HETATM    5  N   UNL     1      -7.284   8.397  73.013  1.00  0.00    -0.252 NA 
HETATM    6  C   UNL     1      -8.636   8.087  73.040  1.00  0.00    -0.204 A  
HETATM    7  H   UNL     1      -6.655   8.346  73.814  1.00  0.00     0.000 HD 
HETATM    8  C   UNL     1      -9.435   7.410  73.948  1.00  0.00    -0.312 A  
HETATM    9  C   UNL     1     -10.786   7.289  73.580  1.00  0.00    -0.290 A  
HETATM   10  C   UNL     1     -11.349   7.978  72.473  1.00  0.00    -0.469 A  
HETATM   11  C   UNL     1     -10.535   8.726  71.613  1.00  0.00    -0.387 A  
HETATM   12  C   UNL     1      -9.145   8.601  71.870  1.00  0.00    -0.326 A  
HETATM   13  C   UNL     1     -10.796   9.601  70.424  1.00  0.00    -0.353 C  
HETATM   14  C   UNL     1     -11.699  10.624  70.200  1.00  0.00    -0.417 C  
HETATM   15  C   UNL     1     -11.294  11.565  69.014  1.00  0.00    -0.276 C  
HETATM   16  N   UNL     1     -10.436   9.428  68.089  1.00  0.00    -0.214 NA 
HETATM   17  C   UNL     1     -10.914  10.748  67.706  1.00  0.00    -0.297 C  
HETATM   18  C   UNL     1     -10.223   8.380  67.137  1.00  0.00    -0.292 C  
ENDROOT
BRANCH  15  19
HETATM   19  N   UNL     1     -11.967  12.828  68.724  1.00  0.00    -0.289 N  
HETATM   20  H   UNL     1     -12.964  12.982  68.873  1.00  0.00     0.000 HD 
BRANCH  19  21
HETATM   21  C   UNL     1     -11.101  13.809  68.221  1.00  0.00    -0.255 C  
HETATM   22  O   UNL     1     -10.304  14.405  68.951  1.00  0.00    -0.236 OA 
BRANCH  21  23
HETATM   23  N   UNL     1     -11.140  14.096  66.872  1.00  0.00    -0.301 N  
BRANCH  23  24
HETATM   24  C   UNL     1     -12.339  14.299  66.071  1.00  0.00    -0.395 C  
HETATM   25  C   UNL     1     -12.656  13.084  65.212  1.00  0.00    -0.516 C  
ENDBRANCH  23  24
BRANCH  23  26
HETATM   26  C   UNL     1      -9.845  14.299  66.195  1.00  0.00    -0.316 C  
HETATM   27  C   UNL     1      -9.665  15.692  65.606  1.00  0.00    -0.348 C  
ENDBRANCH  23  26
ENDBRANCH  21  23
ENDBRANCH  19  21
ENDBRANCH  15  19
TORSDOF 5
ENDMDL
MODEL       44
REMARK 921   NORMALIZED FREE ENERGY PREDICTED BY IDOCK:   -5.66 KCAL/MOL
REMARK 922        TOTAL FREE ENERGY PREDICTED BY IDOCK:   -7.80 KCAL/MOL
REMARK 923 INTER-LIGAND FREE ENERGY PREDICTED BY IDOCK:   -7.12 KCAL/MOL
REMARK 924 INTRA-LIGAND FREE ENERGY PREDICTED BY IDOCK:   -0.68 KCAL/MOL
REMARK 927      BINDING AFFINITY PREDICTED BY RF-SCORE:    0.00 PKD
ROOT
HETATM    1  C   UNL     1      -9.495  10.674  68.712  1.00  0.00    -0.183 C  
HETATM    2  C   UNL     1      -8.881   9.962  69.927  1.00  0.00    -0.222 C  
HETATM    3  C   UNL     1      -9.753   8.831  70.284  1.00  0.00    -0.198 A  
HETATM    4  C   UNL     1     -10.126   8.203  71.449  1.00  0.00    -0.198 A  
HETATM    5  N   UNL     1     -10.702   7.005  71.090  1.00  0.00    -0.228 NA 
HETATM    6  C   UNL     1     -10.666   6.860  69.711  1.00  0.00    -0.244 A  
HETATM    7  H   UNL     1     -11.096   6.326  71.741  1.00  0.00     0.000 HD 
HETATM    8  C   UNL     1     -10.847   5.776  68.867  1.00  0.00    -0.305 A  
HETATM    9  C   UNL     1     -10.699   6.054  67.497  1.00  0.00    -0.383 A  
HETATM   10  C   UNL     1     -10.579   7.374  66.986  1.00  0.00    -0.414 A  
HETATM   11  C   UNL     1     -10.479   8.465  67.857  1.00  0.00    -0.255 A  
HETATM   12  C   UNL     1     -10.366   8.112  69.227  1.00  0.00    -0.222 A  
HETATM   13  C   UNL     1     -10.407   9.951  67.666  1.00  0.00    -0.275 C  
HETATM   14  C   UNL     1     -11.152  10.831  66.904  1.00  0.00    -0.204 C  
HETATM   15  C   UNL     1     -11.042  12.319  67.382  1.00  0.00    -0.282 C  
HETATM   16  N   UNL     1      -8.723  11.601  67.897  1.00  0.00    -0.147 NA 
HETATM   17  C   UNL     1      -9.533  12.770  67.588  1.00  0.00    -0.190 C  
HETATM   18  C   UNL     1      -7.292  11.642  67.922  1.00  0.00    -0.096 C  
ENDROOT
BRANCH  15  19
HETATM   19  N   UNL     1     -11.896  13.391  66.877  1.00  0.00    -0.390 N  
HETATM   20  H   UNL     1     -12.225  14.166  67.452  1.00  0.00     0.000 HD 
BRANCH  19  21
HETATM   21  C   UNL     1     -12.218  13.244  65.520  1.00  0.00    -0.457 C  
HETATM   22  O   UNL     1     -13.267  12.705  65.159  1.00  0.00    -0.646 OA 
BRANCH  21  23
HETATM   23  N   UNL     1     -11.338  13.732  64.576  1.00  0.00    -0.375 N  
BRANCH  23  24
HETATM   24  C   UNL     1     -10.492  14.909  64.717  1.00  0.00    -0.264 C  
HETATM   25  C   UNL     1     -11.272  16.195  64.489  1.00  0.00    -0.275 C  
ENDBRANCH  23  24
BRANCH  23  26
HETATM   26  C   UNL     1     -11.177  12.940  63.342  1.00  0.00    -0.184 C  
HETATM   27  C   UNL     1     -10.220  11.762  63.482  1.00  0.00    -0.483 C  
ENDBRANCH  23  26
ENDBRANCH  21  23
ENDBRANCH  19  21
ENDBRANCH  15  19
TORSDOF 5
ENDMDL
MODEL       45
REMARK 921   NORMALIZED FREE ENERGY PREDICTED BY IDOCK:   -5.65 KCAL/MOL
REMARK 922        TOTAL FREE ENERGY PREDICTED BY IDOCK:   -7.78 KCAL/MOL
REMARK 923 INTER-LIGAND FREE ENERGY PREDICTED BY IDOCK:   -7.15 KCAL/MOL
REMARK 924 INTRA-LIGAND FREE ENERGY PREDICTED BY IDOCK:   -0.64 KCAL/MOL
REMARK 927      BINDING AFFINITY PREDICTED BY RF-SCORE:    0.00 PKD
ROOT
HETATM    1  C   UNL     1      -7.082  16.348  67.602  1.00  0.00    -0.135 C  
HETATM    2  C   UNL     1      -6.146  17.542  67.357  1.00  0.00    -0.158 C  
HETATM    3  C   UNL     1      -6.899  18.572  66.623  1.00  0.00    -0.221 A  
HETATM    4  C   UNL     1      -6.605  19.513  65.664  1.00  0.00    -0.254 A  
HETATM    5  N   UNL     1      -7.665  20.391  65.629  1.00  0.00    -0.529 NA 
HETATM    6  C   UNL     1      -8.610  20.028  66.578  1.00  0.00    -0.309 A  
HETATM    7  H   UNL     1      -7.745  21.189  64.998  1.00  0.00     0.000 HD 
HETATM    8  C   UNL     1      -9.692  20.687  67.138  1.00  0.00    -0.530 A  
HETATM    9  C   UNL     1     -10.398  19.957  68.110  1.00  0.00    -0.533 A  
HETATM   10  C   UNL     1     -10.165  18.578  68.360  1.00  0.00    -0.409 A  
HETATM   11  C   UNL     1      -9.115  17.909  67.720  1.00  0.00    -0.258 A  
HETATM   12  C   UNL     1      -8.267  18.750  66.954  1.00  0.00    -0.272 A  
HETATM   13  C   UNL     1      -8.638  16.487  67.704  1.00  0.00    -0.189 C  
HETATM   14  C   UNL     1      -9.296  15.285  67.533  1.00  0.00    -0.204 C  
HETATM   15  C   UNL     1      -8.351  14.109  67.106  1.00  0.00    -0.169 C  
HETATM   16  N   UNL     1      -6.774  15.323  68.589  1.00  0.00    -0.099 NA 
HETATM   17  C   UNL     1      -7.066  14.010  68.034  1.00  0.00    -0.145 C  
HETATM   18  C   UNL     1      -5.813  15.521  69.632  1.00  0.00    -0.128 C  
ENDROOT
BRANCH  15  19
HETATM   19  N   UNL     1      -8.839  12.807  66.661  1.00  0.00    -0.389 N  
HETATM   20  H   UNL     1      -8.588  12.390  65.764  1.00  0.00     0.000 HD 
BRANCH  19  21
HETATM   21  C   UNL     1      -9.686  12.189  67.591  1.00  0.00    -0.188 C  
HETATM   22  O   UNL     1      -9.240  11.566  68.558  1.00  0.00    -0.183 OA 
BRANCH  21  23
HETATM   23  N   UNL     1     -11.050  12.301  67.418  1.00  0.00    -0.266 N  
BRANCH  23  24
HETATM   24  C   UNL     1     -11.759  12.299  66.146  1.00  0.00    -0.376 C  
HETATM   25  C   UNL     1     -12.269  13.685  65.782  1.00  0.00    -0.503 C  
ENDBRANCH  23  24
BRANCH  23  26
HETATM   26  C   UNL     1     -11.876  12.342  68.640  1.00  0.00    -0.302 C  
HETATM   27  C   UNL     1     -11.976  13.723  69.276  1.00  0.00    -0.399 C  
ENDBRANCH  23  26
ENDBRANCH  21  23
ENDBRANCH  19  21
ENDBRANCH  15  19
TORSDOF 5
ENDMDL
MODEL       46
REMARK 921   NORMALIZED FREE ENERGY PREDICTED BY IDOCK:   -5.64 KCAL/MOL
REMARK 922        TOTAL FREE ENERGY PREDICTED BY IDOCK:   -7.77 KCAL/MOL
REMARK 923 INTER-LIGAND FREE ENERGY PREDICTED BY IDOCK:   -7.29 KCAL/MOL
REMARK 924 INTRA-LIGAND FREE ENERGY PREDICTED BY IDOCK:   -0.47 KCAL/MOL
REMARK 927      BINDING AFFINITY PREDICTED BY RF-SCORE:    0.00 PKD
ROOT
HETATM    1  C   UNL     1     -10.115  10.434  69.045  1.00  0.00    -0.213 C  
HETATM    2  C   UNL     1      -9.545   9.073  69.472  1.00  0.00    -0.165 C  
HETATM    3  C   UNL     1      -9.964   8.816  70.859  1.00  0.00    -0.279 A  
HETATM    4  C   UNL     1      -9.418   8.189  71.955  1.00  0.00    -0.197 A  
HETATM    5  N   UNL     1     -10.441   7.996  72.856  1.00  0.00    -0.349 NA 
HETATM    6  C   UNL     1     -11.632   8.469  72.325  1.00  0.00    -0.374 A  
HETATM    7  H   UNL     1     -10.338   7.570  73.777  1.00  0.00     0.000 HD 
HETATM    8  C   UNL     1     -12.961   8.288  72.670  1.00  0.00    -0.071 A  
HETATM    9  C   UNL     1     -13.889   8.939  71.838  1.00  0.00    -0.492 A  
HETATM   10  C   UNL     1     -13.507   9.880  70.845  1.00  0.00    -0.181 A  
HETATM   11  C   UNL     1     -12.153  10.109  70.568  1.00  0.00    -0.380 A  
HETATM   12  C   UNL     1     -11.263   9.237  71.245  1.00  0.00    -0.425 A  
HETATM   13  C   UNL     1     -11.417  11.047  69.658  1.00  0.00    -0.375 C  
HETATM   14  C   UNL     1     -11.530  12.406  69.431  1.00  0.00    -0.336 C  
HETATM   15  C   UNL     1     -10.255  13.037  68.773  1.00  0.00    -0.089 C  
HETATM   16  N   UNL     1     -10.189  10.828  67.644  1.00  0.00    -0.182 NA 
HETATM   17  C   UNL     1      -9.767  12.213  67.505  1.00  0.00    -0.185 C  
HETATM   18  C   UNL     1     -10.094   9.883  66.572  1.00  0.00    -0.232 C  
ENDROOT
BRANCH  15  19
HETATM   19  N   UNL     1     -10.050  14.476  68.635  1.00  0.00    -0.239 N  
HETATM   20  H   UNL     1      -9.218  14.960  68.970  1.00  0.00     0.000 HD 
BRANCH  19  21
HETATM   21  C   UNL     1     -11.115  15.123  67.993  1.00  0.00    -0.308 C  
HETATM   22  O   UNL     1     -11.918  15.823  68.618  1.00  0.00    -0.344 OA 
BRANCH  21  23
HETATM   23  N   UNL     1     -11.251  14.979  66.628  1.00  0.00    -0.332 N  
BRANCH  23  24
HETATM   24  C   UNL     1     -12.338  14.297  65.939  1.00  0.00    -0.403 C  
HETATM   25  C   UNL     1     -12.058  14.147  64.452  1.00  0.00    -0.486 C  
ENDBRANCH  23  24
BRANCH  23  26
HETATM   26  C   UNL     1     -10.245  15.650  65.783  1.00  0.00    -0.367 C  
HETATM   27  C   UNL     1     -10.271  17.170  65.876  1.00  0.00    -0.290 C  
ENDBRANCH  23  26
ENDBRANCH  21  23
ENDBRANCH  19  21
ENDBRANCH  15  19
TORSDOF 5
ENDMDL
MODEL       47
REMARK 921   NORMALIZED FREE ENERGY PREDICTED BY IDOCK:   -5.62 KCAL/MOL
REMARK 922        TOTAL FREE ENERGY PREDICTED BY IDOCK:   -7.75 KCAL/MOL
REMARK 923 INTER-LIGAND FREE ENERGY PREDICTED BY IDOCK:   -7.35 KCAL/MOL
REMARK 924 INTRA-LIGAND FREE ENERGY PREDICTED BY IDOCK:   -0.40 KCAL/MOL
REMARK 927      BINDING AFFINITY PREDICTED BY RF-SCORE:    0.00 PKD
ROOT
HETATM    1  C   UNL     1      -9.952  16.898  66.400  1.00  0.00    -0.309 C  
HETATM    2  C   UNL     1     -10.498  18.294  66.059  1.00  0.00    -0.380 C  
HETATM    3  C   UNL     1      -9.550  19.295  66.574  1.00  0.00    -0.420 A  
HETATM    4  C   UNL     1      -9.643  20.559  67.107  1.00  0.00    -0.429 A  
HETATM    5  N   UNL     1      -8.376  21.096  67.085  1.00  0.00    -0.552 NA 
HETATM    6  C   UNL     1      -7.491  20.192  66.515  1.00  0.00    -0.277 A  
HETATM    7  H   UNL     1      -8.125  22.020  67.436  1.00  0.00     0.000 HD 
HETATM    8  C   UNL     1      -6.205  20.313  66.014  1.00  0.00    -0.230 A  
HETATM    9  C   UNL     1      -5.655  19.130  65.489  1.00  0.00    -0.200 A  
HETATM   10  C   UNL     1      -6.271  17.859  65.640  1.00  0.00    -0.210 A  
HETATM   11  C   UNL     1      -7.539  17.751  66.224  1.00  0.00    -0.322 A  
HETATM   12  C   UNL     1      -8.166  18.994  66.496  1.00  0.00    -0.312 A  
HETATM   13  C   UNL     1      -8.428  16.598  66.585  1.00  0.00    -0.294 C  
HETATM   14  C   UNL     1      -8.192  15.413  67.257  1.00  0.00    -0.222 C  
HETATM   15  C   UNL     1      -9.492  14.746  67.823  1.00  0.00    -0.204 C  
HETATM   16  N   UNL     1     -10.451  15.699  65.742  1.00  0.00    -0.343 NA 
HETATM   17  C   UNL     1     -10.638  14.645  66.728  1.00  0.00    -0.288 C  
HETATM   18  C   UNL     1     -11.186  15.743  64.514  1.00  0.00    -0.322 C  
ENDROOT
BRANCH  15  19
HETATM   19  N   UNL     1      -9.479  13.614  68.745  1.00  0.00    -0.403 N  
HETATM   20  H   UNL     1      -9.669  13.699  69.743  1.00  0.00     0.000 HD 
BRANCH  19  21
HETATM   21  C   UNL     1      -9.177  12.397  68.117  1.00  0.00    -0.205 C  
HETATM   22  O   UNL     1      -8.027  12.116  67.769  1.00  0.00    -0.130 OA 
BRANCH  21  23
HETATM   23  N   UNL     1     -10.198  11.495  67.900  1.00  0.00    -0.180 N  
BRANCH  23  24
HETATM   24  C   UNL     1     -10.574  10.914  66.619  1.00  0.00    -0.249 C  
HETATM   25  C   UNL     1      -9.973   9.530  66.429  1.00  0.00    -0.339 C  
ENDBRANCH  23  24
BRANCH  23  26
HETATM   26  C   UNL     1     -10.922  11.008  69.090  1.00  0.00    -0.237 C  
HETATM   27  C   UNL     1     -10.103  10.079  69.977  1.00  0.00    -0.289 C  
ENDBRANCH  23  26
ENDBRANCH  21  23
ENDBRANCH  19  21
ENDBRANCH  15  19
TORSDOF 5
ENDMDL
MODEL       48
REMARK 921   NORMALIZED FREE ENERGY PREDICTED BY IDOCK:   -5.61 KCAL/MOL
REMARK 922        TOTAL FREE ENERGY PREDICTED BY IDOCK:   -7.74 KCAL/MOL
REMARK 923 INTER-LIGAND FREE ENERGY PREDICTED BY IDOCK:   -6.79 KCAL/MOL
REMARK 924 INTRA-LIGAND FREE ENERGY PREDICTED BY IDOCK:   -0.94 KCAL/MOL
REMARK 927      BINDING AFFINITY PREDICTED BY RF-SCORE:    0.00 PKD
ROOT
HETATM    1  C   UNL     1     -11.062  13.236  68.878  1.00  0.00    -0.261 C  
HETATM    2  C   UNL     1     -10.483  14.651  69.035  1.00  0.00    -0.248 C  
HETATM    3  C   UNL     1      -9.943  15.073  67.734  1.00  0.00    -0.229 A  
HETATM    4  C   UNL     1      -8.887  15.842  67.306  1.00  0.00    -0.196 A  
HETATM    5  N   UNL     1      -9.112  16.128  65.978  1.00  0.00    -0.357 NA 
HETATM    6  C   UNL     1     -10.316  15.570  65.574  1.00  0.00    -0.394 A  
HETATM    7  H   UNL     1      -8.487  16.669  65.381  1.00  0.00     0.000 HD 
HETATM    8  C   UNL     1     -11.130  15.770  64.470  1.00  0.00    -0.293 A  
HETATM    9  C   UNL     1     -12.307  15.002  64.450  1.00  0.00    -0.283 A  
HETATM   10  C   UNL     1     -12.559  13.950  65.371  1.00  0.00    -0.538 A  
HETATM   11  C   UNL     1     -11.679  13.713  66.434  1.00  0.00    -0.403 A  
HETATM   12  C   UNL     1     -10.650  14.679  66.568  1.00  0.00    -0.300 A  
HETATM   13  C   UNL     1     -11.608  12.681  67.520  1.00  0.00    -0.418 C  
HETATM   14  C   UNL     1     -11.709  11.303  67.506  1.00  0.00    -0.166 C  
HETATM   15  C   UNL     1     -11.094  10.617  68.774  1.00  0.00    -0.265 C  
HETATM   16  N   UNL     1     -11.974  12.668  69.861  1.00  0.00    -0.323 NA 
HETATM   17  C   UNL     1     -11.608  11.283  70.121  1.00  0.00    -0.305 C  
HETATM   18  C   UNL     1     -12.675  13.471  70.817  1.00  0.00    -0.245 C  
ENDROOT
BRANCH  15  19
HETATM   19  N   UNL     1     -10.889   9.176  68.889  1.00  0.00    -0.408 N  
HETATM   20  H   UNL     1     -11.154   8.635  69.711  1.00  0.00     0.000 HD 
BRANCH  19  21
HETATM   21  C   UNL     1     -10.290   8.614  67.753  1.00  0.00    -0.242 C  
HETATM   22  O   UNL     1     -10.906   7.844  67.011  1.00  0.00    -0.305 OA 
BRANCH  21  23
HETATM   23  N   UNL     1      -8.985   8.949  67.460  1.00  0.00    -0.133 N  
BRANCH  23  24
HETATM   24  C   UNL     1      -7.822   8.690  68.298  1.00  0.00    -0.102 C  
HETATM   25  C   UNL     1      -6.802   7.810  67.592  1.00  0.00    -0.069 C  
ENDBRANCH  23  24
BRANCH  23  26
HETATM   26  C   UNL     1      -8.730   9.551  66.137  1.00  0.00    -0.145 C  
HETATM   27  C   UNL     1      -8.357  11.026  66.188  1.00  0.00    -0.163 C  
ENDBRANCH  23  26
ENDBRANCH  21  23
ENDBRANCH  19  21
ENDBRANCH  15  19
TORSDOF 5
ENDMDL
MODEL       49
REMARK 921   NORMALIZED FREE ENERGY PREDICTED BY IDOCK:   -5.54 KCAL/MOL
REMARK 922        TOTAL FREE ENERGY PREDICTED BY IDOCK:   -7.64 KCAL/MOL
REMARK 923 INTER-LIGAND FREE ENERGY PREDICTED BY IDOCK:   -7.30 KCAL/MOL
REMARK 924 INTRA-LIGAND FREE ENERGY PREDICTED BY IDOCK:   -0.34 KCAL/MOL
REMARK 927      BINDING AFFINITY PREDICTED BY RF-SCORE:    0.00 PKD
ROOT
HETATM    1  C   UNL     1     -10.791  11.889  64.684  1.00  0.00    -0.311 C  
HETATM    2  C   UNL     1     -10.076  11.044  63.619  1.00  0.00    -0.428 C  
HETATM    3  C   UNL     1      -9.005  10.283  64.281  1.00  0.00    -0.261 A  
HETATM    4  C   UNL     1      -7.746   9.849  63.938  1.00  0.00    -0.140 A  
HETATM    5  N   UNL     1      -7.380   8.905  64.871  1.00  0.00    -0.091 NA 
HETATM    6  C   UNL     1      -8.410   8.720  65.782  1.00  0.00    -0.134 A  
HETATM    7  H   UNL     1      -6.485   8.417  64.890  1.00  0.00     0.000 HD 
HETATM    8  C   UNL     1      -8.678   7.738  66.721  1.00  0.00    -0.143 A  
HETATM    9  C   UNL     1      -9.871   7.913  67.444  1.00  0.00    -0.237 A  
HETATM   10  C   UNL     1     -10.647   9.101  67.378  1.00  0.00    -0.315 A  
HETATM   11  C   UNL     1     -10.310  10.118  66.476  1.00  0.00    -0.270 A  
HETATM   12  C   UNL     1      -9.259   9.784  65.584  1.00  0.00    -0.252 A  
HETATM   13  C   UNL     1     -10.854  11.487  66.195  1.00  0.00    -0.330 C  
HETATM   14  C   UNL     1     -11.188  12.545  67.019  1.00  0.00    -0.353 C  
HETATM   15  C   UNL     1     -11.250  13.922  66.273  1.00  0.00    -0.309 C  
HETATM   16  N   UNL     1     -12.100  12.479  64.442  1.00  0.00    -0.399 NA 
HETATM   17  C   UNL     1     -12.120  13.844  64.947  1.00  0.00    -0.414 C  
HETATM   18  C   UNL     1     -12.962  12.037  63.388  1.00  0.00    -0.140 C  
ENDROOT
BRANCH  15  19
HETATM   19  N   UNL     1     -11.368  15.205  66.961  1.00  0.00    -0.316 N  
HETATM   20  H   UNL     1     -12.067  15.396  67.679  1.00  0.00     0.000 HD 
BRANCH  19  21
HETATM   21  C   UNL     1     -10.423  16.147  66.534  1.00  0.00    -0.297 C  
HETATM   22  O   UNL     1     -10.034  16.189  65.363  1.00  0.00    -0.482 OA 
BRANCH  21  23
HETATM   23  N   UNL     1      -9.932  17.054  67.450  1.00  0.00    -0.270 N  
BRANCH  23  24
HETATM   24  C   UNL     1      -9.581  18.442  67.184  1.00  0.00    -0.295 C  
HETATM   25  C   UNL     1     -10.785  19.363  67.311  1.00  0.00    -0.603 C  
ENDBRANCH  23  24
BRANCH  23  26
HETATM   26  C   UNL     1      -9.834  16.600  68.851  1.00  0.00    -0.261 C  
HETATM   27  C   UNL     1      -8.548  15.848  69.170  1.00  0.00    -0.252 C  
ENDBRANCH  23  26
ENDBRANCH  21  23
ENDBRANCH  19  21
ENDBRANCH  15  19
TORSDOF 5
ENDMDL
MODEL       50
REMARK 921   NORMALIZED FREE ENERGY PREDICTED BY IDOCK:   -5.50 KCAL/MOL
REMARK 922        TOTAL FREE ENERGY PREDICTED BY IDOCK:   -7.59 KCAL/MOL
REMARK 923 INTER-LIGAND FREE ENERGY PREDICTED BY IDOCK:   -6.93 KCAL/MOL
REMARK 924 INTRA-LIGAND FREE ENERGY PREDICTED BY IDOCK:   -0.66 KCAL/MOL
REMARK 927      BINDING AFFINITY PREDICTED BY RF-SCORE:    0.00 PKD
ROOT
HETATM    1  C   UNL     1     -12.175  10.292  71.491  1.00  0.00    -0.353 C  
HETATM    2  C   UNL     1     -13.192  11.411  71.762  1.00  0.00    -0.472 C  
HETATM    3  C   UNL     1     -12.696  12.644  71.130  1.00  0.00    -0.347 A  
HETATM    4  C   UNL     1     -12.746  13.988  71.415  1.00  0.00    -0.364 A  
HETATM    5  N   UNL     1     -12.383  14.654  70.266  1.00  0.00    -0.334 NA 
HETATM    6  C   UNL     1     -12.134  13.742  69.251  1.00  0.00    -0.329 A  
HETATM    7  H   UNL     1     -12.308  15.667  70.175  1.00  0.00     0.000 HD 
HETATM    8  C   UNL     1     -12.009  13.864  67.877  1.00  0.00    -0.393 A  
HETATM    9  C   UNL     1     -11.776  12.660  67.189  1.00  0.00    -0.438 A  
HETATM   10  C   UNL     1     -11.481  11.438  67.850  1.00  0.00    -0.361 A  
HETATM   11  C   UNL     1     -11.534  11.357  69.247  1.00  0.00    -0.370 A  
HETATM   12  C   UNL     1     -12.032  12.524  69.882  1.00  0.00    -0.371 A  
HETATM   13  C   UNL     1     -11.231  10.277  70.243  1.00  0.00    -0.395 C  
HETATM   14  C   UNL     1     -10.156   9.421  70.392  1.00  0.00    -0.310 C  
HETATM   15  C   UNL     1     -10.041   8.808  71.830  1.00  0.00    -0.339 C  
HETATM   16  N   UNL     1     -12.516   8.887  71.667  1.00  0.00    -0.326 NA 
HETATM   17  C   UNL     1     -11.420   8.199  72.332  1.00  0.00    -0.397 C  
HETATM   18  C   UNL     1     -13.870   8.426  71.739  1.00  0.00    -0.408 C  
ENDROOT
BRANCH  15  19
HETATM   19  N   UNL     1      -8.880   8.053  72.292  1.00  0.00    -0.148 N  
HETATM   20  H   UNL     1      -8.643   7.931  73.276  1.00  0.00     0.000 HD 
BRANCH  19  21
HETATM   21  C   UNL     1      -8.123   7.512  71.242  1.00  0.00    -0.096 C  
HETATM   22  O   UNL     1      -8.498   6.513  70.623  1.00  0.00    -0.131 OA 
BRANCH  21  23
HETATM   23  N   UNL     1      -6.941   8.131  70.894  1.00  0.00    -0.041 N  
BRANCH  23  24
HETATM   24  C   UNL     1      -6.630   8.725  69.600  1.00  0.00    -0.039 C  
HETATM   25  C   UNL     1      -6.618  10.244  69.665  1.00  0.00    -0.077 C  
ENDBRANCH  23  24
BRANCH  23  26
HETATM   26  C   UNL     1      -5.927   8.280  71.956  1.00  0.00    -0.049 C  
HETATM   27  C   UNL     1      -5.312   6.965  72.415  1.00  0.00    -0.037 C  
ENDBRANCH  23  26
ENDBRANCH  21  23
ENDBRANCH  19  21
ENDBRANCH  15  19
TORSDOF 5
ENDMDL
MODEL       51
REMARK 921   NORMALIZED FREE ENERGY PREDICTED BY IDOCK:   -5.48 KCAL/MOL
REMARK 922        TOTAL FREE ENERGY PREDICTED BY IDOCK:   -7.57 KCAL/MOL
REMARK 923 INTER-LIGAND FREE ENERGY PREDICTED BY IDOCK:   -6.96 KCAL/MOL
REMARK 924 INTRA-LIGAND FREE ENERGY PREDICTED BY IDOCK:   -0.61 KCAL/MOL
REMARK 927      BINDING AFFINITY PREDICTED BY RF-SCORE:    0.00 PKD
ROOT
HETATM    1  C   UNL     1     -11.279  11.861  69.203  1.00  0.00    -0.255 C  
HETATM    2  C   UNL     1     -11.673  13.307  69.540  1.00  0.00    -0.384 C  
HETATM    3  C   UNL     1     -11.177  14.180  68.464  1.00  0.00    -0.285 A  
HETATM    4  C   UNL     1     -10.686  15.461  68.380  1.00  0.00    -0.256 A  
HETATM    5  N   UNL     1     -10.706  15.811  67.048  1.00  0.00    -0.317 NA 
HETATM    6  C   UNL     1     -11.233  14.770  66.297  1.00  0.00    -0.343 A  
HETATM    7  H   UNL     1     -10.381  16.700  66.671  1.00  0.00     0.000 HD 
HETATM    8  C   UNL     1     -11.718  14.689  65.001  1.00  0.00    -0.385 A  
HETATM    9  C   UNL     1     -12.197  13.423  64.622  1.00  0.00    -0.456 A  
HETATM   10  C   UNL     1     -12.015  12.259  65.415  1.00  0.00    -0.395 A  
HETATM   11  C   UNL     1     -11.446  12.353  66.692  1.00  0.00    -0.429 A  
HETATM   12  C   UNL     1     -11.224  13.681  67.137  1.00  0.00    -0.327 A  
HETATM   13  C   UNL     1     -11.062  11.351  67.740  1.00  0.00    -0.323 C  
HETATM   14  C   UNL     1     -10.349  10.169  67.683  1.00  0.00    -0.265 C  
HETATM   15  C   UNL     1      -9.781   9.714  69.071  1.00  0.00    -0.169 C  
HETATM   16  N   UNL     1     -11.906  10.723  69.863  1.00  0.00    -0.306 NA 
HETATM   17  C   UNL     1     -10.890   9.740  70.208  1.00  0.00    -0.301 C  
HETATM   18  C   UNL     1     -13.145  10.830  70.571  1.00  0.00    -0.071 C  
ENDROOT
BRANCH  15  19
HETATM   19  N   UNL     1      -8.823   8.623  69.230  1.00  0.00    -0.136 N  
HETATM   20  H   UNL     1      -8.134   8.585  69.980  1.00  0.00     0.000 HD 
BRANCH  19  21
HETATM   21  C   UNL     1      -8.949   7.634  68.245  1.00  0.00    -0.127 C  
HETATM   22  O   UNL     1      -8.161   7.559  67.298  1.00  0.00    -0.113 OA 
BRANCH  21  23
HETATM   23  N   UNL     1      -9.975   6.719  68.355  1.00  0.00    -0.147 N  
BRANCH  23  24
HETATM   24  C   UNL     1     -10.455   6.109  69.589  1.00  0.00    -0.252 C  
HETATM   25  C   UNL     1      -9.434   5.146  70.176  1.00  0.00    -0.229 C  
ENDBRANCH  23  24
BRANCH  23  26
HETATM   26  C   UNL     1     -10.713   6.390  67.120  1.00  0.00    -0.361 C  
HETATM   27  C   UNL     1     -10.372   5.023  66.540  1.00  0.00    -0.325 C  
ENDBRANCH  23  26
ENDBRANCH  21  23
ENDBRANCH  19  21
ENDBRANCH  15  19
TORSDOF 5
ENDMDL
MODEL       52
REMARK 921   NORMALIZED FREE ENERGY PREDICTED BY IDOCK:   -5.43 KCAL/MOL
REMARK 922        TOTAL FREE ENERGY PREDICTED BY IDOCK:   -7.50 KCAL/MOL
REMARK 923 INTER-LIGAND FREE ENERGY PREDICTED BY IDOCK:   -7.52 KCAL/MOL
REMARK 924 INTRA-LIGAND FREE ENERGY PREDICTED BY IDOCK:    0.02 KCAL/MOL
REMARK 927      BINDING AFFINITY PREDICTED BY RF-SCORE:    0.00 PKD
ROOT
HETATM    1  C   UNL     1     -12.047  12.662  69.640  1.00  0.00    -0.213 C  
HETATM    2  C   UNL     1     -12.374  12.271  71.089  1.00  0.00    -0.251 C  
HETATM    3  C   UNL     1     -12.591  10.817  71.134  1.00  0.00    -0.532 A  
HETATM    4  C   UNL     1     -13.396   9.961  71.848  1.00  0.00    -0.424 A  
HETATM    5  N   UNL     1     -12.894   8.692  71.664  1.00  0.00    -0.333 NA 
HETATM    6  C   UNL     1     -11.762   8.746  70.864  1.00  0.00    -0.258 A  
HETATM    7  H   UNL     1     -13.295   7.841  72.056  1.00  0.00     0.000 HD 
HETATM    8  C   UNL     1     -10.746   7.842  70.599  1.00  0.00    -0.233 A  
HETATM    9  C   UNL     1      -9.745   8.307  69.728  1.00  0.00    -0.180 A  
HETATM   10  C   UNL     1      -9.856   9.525  69.004  1.00  0.00    -0.178 A  
HETATM   11  C   UNL     1     -10.936  10.387  69.229  1.00  0.00    -0.287 A  
HETATM   12  C   UNL     1     -11.777  10.003  70.305  1.00  0.00    -0.327 A  
HETATM   13  C   UNL     1     -11.385  11.681  68.617  1.00  0.00    -0.326 C  
HETATM   14  C   UNL     1     -11.538  12.088  67.306  1.00  0.00    -0.383 C  
HETATM   15  C   UNL     1     -12.481  13.329  67.143  1.00  0.00     0.108 C  
HETATM   16  N   UNL     1     -11.442  13.945  69.311  1.00  0.00    -0.281 NA 
HETATM   17  C   UNL     1     -12.096  14.506  68.138  1.00  0.00    -0.197 C  
HETATM   18  C   UNL     1     -10.782  14.759  70.286  1.00  0.00     0.029 C  
ENDROOT
BRANCH  15  19
HETATM   19  N   UNL     1     -12.965  13.807  65.851  1.00  0.00    -0.389 N  
HETATM   20  H   UNL     1     -13.667  14.540  65.749  1.00  0.00     0.000 HD 
BRANCH  19  21
HETATM   21  C   UNL     1     -12.367  13.154  64.764  1.00  0.00    -0.423 C  
HETATM   22  O   UNL     1     -12.993  12.352  64.067  1.00  0.00    -0.748 OA 
BRANCH  21  23
HETATM   23  N   UNL     1     -11.050  13.436  64.468  1.00  0.00    -0.363 N  
BRANCH  23  24
HETATM   24  C   UNL     1     -10.288  14.584  64.943  1.00  0.00    -0.371 C  
HETATM   25  C   UNL     1     -10.947  15.898  64.554  1.00  0.00    -0.199 C  
ENDBRANCH  23  24
BRANCH  23  26
HETATM   26  C   UNL     1     -10.317  12.439  63.664  1.00  0.00    -0.403 C  
HETATM   27  C   UNL     1      -9.926  11.186  64.437  1.00  0.00    -0.354 C  
ENDBRANCH  23  26
ENDBRANCH  21  23
ENDBRANCH  19  21
ENDBRANCH  15  19
TORSDOF 5
ENDMDL
MODEL       53
REMARK 921   NORMALIZED FREE ENERGY PREDICTED BY IDOCK:   -5.33 KCAL/MOL
REMARK 922        TOTAL FREE ENERGY PREDICTED BY IDOCK:   -7.37 KCAL/MOL
REMARK 923 INTER-LIGAND FREE ENERGY PREDICTED BY IDOCK:   -7.09 KCAL/MOL
REMARK 924 INTRA-LIGAND FREE ENERGY PREDICTED BY IDOCK:   -0.28 KCAL/MOL
REMARK 927      BINDING AFFINITY PREDICTED BY RF-SCORE:    0.00 PKD
ROOT
HETATM    1  C   UNL     1     -10.516  15.920  67.337  1.00  0.00    -0.306 C  
HETATM    2  C   UNL     1     -10.395  17.413  66.995  1.00  0.00    -0.318 C  
HETATM    3  C   UNL     1      -9.394  18.010  67.894  1.00  0.00    -0.264 A  
HETATM    4  C   UNL     1      -9.219  19.229  68.505  1.00  0.00    -0.382 A  
HETATM    5  N   UNL     1      -7.917  19.269  68.952  1.00  0.00    -0.345 NA 
HETATM    6  C   UNL     1      -7.263  18.097  68.600  1.00  0.00    -0.281 A  
HETATM    7  H   UNL     1      -7.496  20.044  69.465  1.00  0.00     0.000 HD 
HETATM    8  C   UNL     1      -5.926  17.735  68.555  1.00  0.00    -0.178 A  
HETATM    9  C   UNL     1      -5.676  16.426  68.107  1.00  0.00    -0.113 A  
HETATM   10  C   UNL     1      -6.706  15.468  67.911  1.00  0.00    -0.172 A  
HETATM   11  C   UNL     1      -8.051  15.836  68.041  1.00  0.00    -0.143 A  
HETATM   12  C   UNL     1      -8.261  17.226  68.232  1.00  0.00    -0.237 A  
HETATM   13  C   UNL     1      -9.350  15.089  67.968  1.00  0.00    -0.185 C  
HETATM   14  C   UNL     1      -9.781  13.910  68.544  1.00  0.00    -0.202 C  
HETATM   15  C   UNL     1     -11.342  13.769  68.586  1.00  0.00    -0.287 C  
HETATM   16  N   UNL     1     -11.145  14.975  66.426  1.00  0.00    -0.337 NA 
HETATM   17  C   UNL     1     -12.007  14.074  67.176  1.00  0.00    -0.430 C  
HETATM   18  C   UNL     1     -11.355  15.264  65.039  1.00  0.00    -0.358 C  
ENDROOT
BRANCH  15  19
HETATM   19  N   UNL     1     -12.035  12.723  69.332  1.00  0.00    -0.291 N  
HETATM   20  H   UNL     1     -12.711  12.913  70.071  1.00  0.00     0.000 HD 
BRANCH  19  21
HETATM   21  C   UNL     1     -11.676  11.429  68.927  1.00  0.00    -0.343 C  
HETATM   22  O   UNL     1     -11.990  10.988  67.819  1.00  0.00    -0.609 OA 
BRANCH  21  23
HETATM   23  N   UNL     1     -10.941  10.647  69.793  1.00  0.00    -0.273 N  
BRANCH  23  24
HETATM   24  C   UNL     1      -9.522  10.337  69.679  1.00  0.00    -0.151 C  
HETATM   25  C   UNL     1      -9.086   9.300  70.703  1.00  0.00    -0.309 C  
ENDBRANCH  23  24
BRANCH  23  26
HETATM   26  C   UNL     1     -11.637  10.144  70.994  1.00  0.00    -0.376 C  
HETATM   27  C   UNL     1     -13.106   9.814  70.766  1.00  0.00    -0.196 C  
ENDBRANCH  23  26
ENDBRANCH  21  23
ENDBRANCH  19  21
ENDBRANCH  15  19
TORSDOF 5
ENDMDL
MODEL       54
REMARK 921   NORMALIZED FREE ENERGY PREDICTED BY IDOCK:   -5.32 KCAL/MOL
REMARK 922        TOTAL FREE ENERGY PREDICTED BY IDOCK:   -7.36 KCAL/MOL
REMARK 923 INTER-LIGAND FREE ENERGY PREDICTED BY IDOCK:   -6.82 KCAL/MOL
REMARK 924 INTRA-LIGAND FREE ENERGY PREDICTED BY IDOCK:   -0.54 KCAL/MOL
REMARK 927      BINDING AFFINITY PREDICTED BY RF-SCORE:    0.00 PKD
ROOT
HETATM    1  C   UNL     1      -8.685   9.463  66.315  1.00  0.00    -0.140 C  
HETATM    2  C   UNL     1      -8.167  10.140  65.036  1.00  0.00    -0.152 C  
HETATM    3  C   UNL     1      -9.328  10.565  64.239  1.00  0.00    -0.310 A  
HETATM    4  C   UNL     1      -9.620  10.671  62.900  1.00  0.00    -0.327 A  
HETATM    5  N   UNL     1     -10.755  11.444  62.798  1.00  0.00    -0.627 NA 
HETATM    6  C   UNL     1     -11.162  11.851  64.060  1.00  0.00    -0.396 A  
HETATM    7  H   UNL     1     -11.226  11.682  61.925  1.00  0.00     0.000 HD 
HETATM    8  C   UNL     1     -12.041  12.826  64.504  1.00  0.00    -0.478 A  
HETATM    9  C   UNL     1     -12.156  12.936  65.901  1.00  0.00    -0.503 A  
HETATM   10  C   UNL     1     -11.585  11.995  66.798  1.00  0.00    -0.391 A  
HETATM   11  C   UNL     1     -10.764  10.966  66.320  1.00  0.00    -0.241 A  
HETATM   12  C   UNL     1     -10.463  11.054  64.937  1.00  0.00    -0.371 A  
HETATM   13  C   UNL     1     -10.070   9.800  66.960  1.00  0.00    -0.277 C  
HETATM   14  C   UNL     1     -10.501   8.830  67.844  1.00  0.00    -0.275 C  
HETATM   15  C   UNL     1      -9.595   7.551  67.859  1.00  0.00    -0.143 C  
HETATM   16  N   UNL     1      -7.824   9.246  67.469  1.00  0.00    -0.096 NA 
HETATM   17  C   UNL     1      -8.055   7.912  68.004  1.00  0.00    -0.126 C  
HETATM   18  C   UNL     1      -6.588   9.944  67.651  1.00  0.00    -0.068 C  
ENDROOT
BRANCH  15  19
HETATM   19  N   UNL     1      -9.960   6.314  68.544  1.00  0.00    -0.138 N  
HETATM   20  H   UNL     1      -9.751   5.386  68.178  1.00  0.00     0.000 HD 
BRANCH  19  21
HETATM   21  C   UNL     1     -10.629   6.534  69.756  1.00  0.00    -0.235 C  
HETATM   22  O   UNL     1     -11.847   6.369  69.863  1.00  0.00    -0.384 OA 
BRANCH  21  23
HETATM   23  N   UNL     1      -9.893   6.932  70.853  1.00  0.00    -0.185 N  
BRANCH  23  24
HETATM   24  C   UNL     1      -8.721   6.255  71.394  1.00  0.00    -0.135 C  
HETATM   25  C   UNL     1      -9.107   5.096  72.299  1.00  0.00    -0.144 C  
ENDBRANCH  23  24
BRANCH  23  26
HETATM   26  C   UNL     1     -10.277   8.207  71.488  1.00  0.00    -0.206 C  
HETATM   27  C   UNL     1     -11.308   8.060  72.600  1.00  0.00    -0.469 C  
ENDBRANCH  23  26
ENDBRANCH  21  23
ENDBRANCH  19  21
ENDBRANCH  15  19
TORSDOF 5
ENDMDL
MODEL       55
REMARK 921   NORMALIZED FREE ENERGY PREDICTED BY IDOCK:   -5.29 KCAL/MOL
REMARK 922        TOTAL FREE ENERGY PREDICTED BY IDOCK:   -7.32 KCAL/MOL
REMARK 923 INTER-LIGAND FREE ENERGY PREDICTED BY IDOCK:   -6.69 KCAL/MOL
REMARK 924 INTRA-LIGAND FREE ENERGY PREDICTED BY IDOCK:   -0.63 KCAL/MOL
REMARK 927      BINDING AFFINITY PREDICTED BY RF-SCORE:    0.00 PKD
ROOT
HETATM    1  C   UNL     1      -8.845  10.522  68.330  1.00  0.00    -0.140 C  
HETATM    2  C   UNL     1      -8.488  10.030  69.741  1.00  0.00    -0.189 C  
HETATM    3  C   UNL     1      -9.620   9.242  70.252  1.00  0.00    -0.276 A  
HETATM    4  C   UNL     1     -10.199   9.028  71.481  1.00  0.00    -0.344 A  
HETATM    5  N   UNL     1     -11.018   7.929  71.351  1.00  0.00    -0.229 NA 
HETATM    6  C   UNL     1     -10.937   7.431  70.059  1.00  0.00    -0.248 A  
HETATM    7  H   UNL     1     -11.599   7.539  72.094  1.00  0.00     0.000 HD 
HETATM    8  C   UNL     1     -11.318   6.231  69.480  1.00  0.00    -0.475 A  
HETATM    9  C   UNL     1     -11.028   6.111  68.110  1.00  0.00    -0.398 A  
HETATM   10  C   UNL     1     -10.572   7.199  67.319  1.00  0.00    -0.398 A  
HETATM   11  C   UNL     1     -10.269   8.430  67.913  1.00  0.00    -0.273 A  
HETATM   12  C   UNL     1     -10.323   8.424  69.331  1.00  0.00    -0.217 A  
HETATM   13  C   UNL     1      -9.838   9.767  67.387  1.00  0.00    -0.219 C  
HETATM   14  C   UNL     1     -10.309  10.560  66.358  1.00  0.00    -0.283 C  
HETATM   15  C   UNL     1      -9.880  12.062  66.479  1.00  0.00    -0.209 C  
HETATM   16  N   UNL     1      -7.830  11.023  67.414  1.00  0.00    -0.115 NA 
HETATM   17  C   UNL     1      -8.322  12.218  66.747  1.00  0.00    -0.087 C  
HETATM   18  C   UNL     1      -6.433  10.762  67.594  1.00  0.00    -0.056 C  
ENDROOT
BRANCH  15  19
HETATM   19  N   UNL     1     -10.427  13.125  65.641  1.00  0.00    -0.277 N  
HETATM   20  H   UNL     1     -10.188  13.244  64.657  1.00  0.00     0.000 HD 
BRANCH  19  21
HETATM   21  C   UNL     1     -11.314  13.965  66.328  1.00  0.00    -0.324 C  
HETATM   22  O   UNL     1     -12.524  13.968  66.083  1.00  0.00    -0.467 OA 
BRANCH  21  23
HETATM   23  N   UNL     1     -10.813  14.794  67.310  1.00  0.00    -0.301 N  
BRANCH  23  24
HETATM   24  C   UNL     1     -11.025  14.654  68.744  1.00  0.00    -0.258 C  
HETATM   25  C   UNL     1     -11.762  15.851  69.325  1.00  0.00    -0.360 C  
ENDBRANCH  23  24
BRANCH  23  26
HETATM   26  C   UNL     1      -9.907  15.874  66.874  1.00  0.00    -0.243 C  
HETATM   27  C   UNL     1     -10.490  16.771  65.789  1.00  0.00    -0.305 C  
ENDBRANCH  23  26
ENDBRANCH  21  23
ENDBRANCH  19  21
ENDBRANCH  15  19
TORSDOF 5
ENDMDL
MODEL       56
REMARK 921   NORMALIZED FREE ENERGY PREDICTED BY IDOCK:   -5.29 KCAL/MOL
REMARK 922        TOTAL FREE ENERGY PREDICTED BY IDOCK:   -7.32 KCAL/MOL
REMARK 923 INTER-LIGAND FREE ENERGY PREDICTED BY IDOCK:   -6.80 KCAL/MOL
REMARK 924 INTRA-LIGAND FREE ENERGY PREDICTED BY IDOCK:   -0.52 KCAL/MOL
REMARK 927      BINDING AFFINITY PREDICTED BY RF-SCORE:    0.00 PKD
ROOT
HETATM    1  C   UNL     1     -11.451  10.725  69.175  1.00  0.00    -0.298 C  
HETATM    2  C   UNL     1     -12.510  10.884  70.277  1.00  0.00    -0.383 C  
HETATM    3  C   UNL     1     -12.568   9.627  71.041  1.00  0.00    -0.367 A  
HETATM    4  C   UNL     1     -13.547   8.908  71.685  1.00  0.00    -0.383 A  
HETATM    5  N   UNL     1     -12.907   7.993  72.490  1.00  0.00    -0.566 NA 
HETATM    6  C   UNL     1     -11.533   8.150  72.381  1.00  0.00    -0.397 A  
HETATM    7  H   UNL     1     -13.374   7.302  73.078  1.00  0.00     0.000 HD 
HETATM    8  C   UNL     1     -10.465   7.702  73.142  1.00  0.00    -0.433 A  
HETATM    9  C   UNL     1      -9.198   8.113  72.693  1.00  0.00    -0.332 A  
HETATM   10  C   UNL     1      -8.994   8.761  71.446  1.00  0.00    -0.307 A  
HETATM   11  C   UNL     1     -10.086   9.133  70.653  1.00  0.00    -0.307 A  
HETATM   12  C   UNL     1     -11.349   8.937  71.268  1.00  0.00    -0.371 A  
HETATM   13  C   UNL     1     -10.228   9.756  69.296  1.00  0.00    -0.216 C  
HETATM   14  C   UNL     1      -9.641   9.479  68.076  1.00  0.00    -0.155 C  
HETATM   15  C   UNL     1     -10.436  10.053  66.854  1.00  0.00    -0.218 C  
HETATM   16  N   UNL     1     -10.897  11.875  68.474  1.00  0.00    -0.211 NA 
HETATM   17  C   UNL     1     -10.812  11.583  67.051  1.00  0.00    -0.273 C  
HETATM   18  C   UNL     1     -11.002  13.210  68.981  1.00  0.00    -0.197 C  
ENDROOT
BRANCH  15  19
HETATM   19  N   UNL     1     -10.136   9.710  65.467  1.00  0.00    -0.332 N  
HETATM   20  H   UNL     1     -10.851   9.598  64.748  1.00  0.00     0.000 HD 
BRANCH  19  21
HETATM   21  C   UNL     1      -8.764   9.551  65.225  1.00  0.00    -0.166 C  
HETATM   22  O   UNL     1      -7.973  10.490  65.346  1.00  0.00    -0.152 OA 
BRANCH  21  23
HETATM   23  N   UNL     1      -8.299   8.306  64.856  1.00  0.00    -0.156 N  
BRANCH  23  24
HETATM   24  C   UNL     1      -8.530   7.056  65.567  1.00  0.00    -0.114 C  
HETATM   25  C   UNL     1      -8.024   5.857  64.781  1.00  0.00    -0.126 C  
ENDBRANCH  23  24
BRANCH  23  26
HETATM   26  C   UNL     1      -7.570   8.218  63.576  1.00  0.00    -0.134 C  
HETATM   27  C   UNL     1      -8.384   8.662  62.367  1.00  0.00    -0.200 C  
ENDBRANCH  23  26
ENDBRANCH  21  23
ENDBRANCH  19  21
ENDBRANCH  15  19
TORSDOF 5
ENDMDL
MODEL       57
REMARK 921   NORMALIZED FREE ENERGY PREDICTED BY IDOCK:   -5.28 KCAL/MOL
REMARK 922        TOTAL FREE ENERGY PREDICTED BY IDOCK:   -7.31 KCAL/MOL
REMARK 923 INTER-LIGAND FREE ENERGY PREDICTED BY IDOCK:   -6.56 KCAL/MOL
REMARK 924 INTRA-LIGAND FREE ENERGY PREDICTED BY IDOCK:   -0.75 KCAL/MOL
REMARK 927      BINDING AFFINITY PREDICTED BY RF-SCORE:    0.00 PKD
ROOT
HETATM    1  C   UNL     1     -11.088  12.744  66.228  1.00  0.00    -0.288 C  
HETATM    2  C   UNL     1     -12.034  13.749  66.904  1.00  0.00    -0.460 C  
HETATM    3  C   UNL     1     -11.425  14.165  68.178  1.00  0.00    -0.340 A  
HETATM    4  C   UNL     1     -11.888  14.516  69.424  1.00  0.00    -0.325 A  
HETATM    5  N   UNL     1     -10.841  15.121  70.083  1.00  0.00    -0.367 NA 
HETATM    6  C   UNL     1      -9.733  15.181  69.251  1.00  0.00    -0.225 A  
HETATM    7  H   UNL     1     -10.876  15.472  71.040  1.00  0.00     0.000 HD 
HETATM    8  C   UNL     1      -8.549  15.900  69.300  1.00  0.00    -0.247 A  
HETATM    9  C   UNL     1      -7.676  15.687  68.220  1.00  0.00    -0.130 A  
HETATM   10  C   UNL     1      -7.878  14.665  67.254  1.00  0.00    -0.213 A  
HETATM   11  C   UNL     1      -9.047  13.894  67.271  1.00  0.00    -0.230 A  
HETATM   12  C   UNL     1     -10.016  14.323  68.214  1.00  0.00    -0.239 A  
HETATM   13  C   UNL     1      -9.542  12.729  66.466  1.00  0.00    -0.257 C  
HETATM   14  C   UNL     1      -8.952  11.538  66.089  1.00  0.00    -0.201 C  
HETATM   15  C   UNL     1      -9.983  10.431  65.681  1.00  0.00    -0.272 C  
HETATM   16  N   UNL     1     -11.211  12.407  64.816  1.00  0.00    -0.301 NA 
HETATM   17  C   UNL     1     -11.059  10.970  64.644  1.00  0.00     0.030 C  
HETATM   18  C   UNL     1     -11.941  13.220  63.891  1.00  0.00    -0.483 C  
ENDROOT
BRANCH  15  19
HETATM   19  N   UNL     1      -9.617   9.036  65.454  1.00  0.00    -0.460 N  
HETATM   20  H   UNL     1      -9.630   8.593  64.535  1.00  0.00     0.000 HD 
BRANCH  19  21
HETATM   21  C   UNL     1      -9.248   8.367  66.629  1.00  0.00    -0.180 C  
HETATM   22  O   UNL     1      -8.079   8.348  67.023  1.00  0.00    -0.102 OA 
BRANCH  21  23
HETATM   23  N   UNL     1     -10.227   7.729  67.362  1.00  0.00    -0.225 N  
BRANCH  23  24
HETATM   24  C   UNL     1     -11.136   6.701  66.872  1.00  0.00    -0.249 C  
HETATM   25  C   UNL     1     -10.437   5.360  66.712  1.00  0.00    -0.347 C  
ENDBRANCH  23  24
BRANCH  23  26
HETATM   26  C   UNL     1     -10.306   8.057  68.799  1.00  0.00    -0.206 C  
HETATM   27  C   UNL     1     -10.651   9.514  69.083  1.00  0.00    -0.237 C  
ENDBRANCH  23  26
ENDBRANCH  21  23
ENDBRANCH  19  21
ENDBRANCH  15  19
TORSDOF 5
ENDMDL
MODEL       58
REMARK 921   NORMALIZED FREE ENERGY PREDICTED BY IDOCK:   -5.28 KCAL/MOL
REMARK 922        TOTAL FREE ENERGY PREDICTED BY IDOCK:   -7.30 KCAL/MOL
REMARK 923 INTER-LIGAND FREE ENERGY PREDICTED BY IDOCK:   -6.96 KCAL/MOL
REMARK 924 INTRA-LIGAND FREE ENERGY PREDICTED BY IDOCK:   -0.34 KCAL/MOL
REMARK 927      BINDING AFFINITY PREDICTED BY RF-SCORE:    0.00 PKD
ROOT
HETATM    1  C   UNL     1      -8.240  15.219  67.326  1.00  0.00    -0.204 C  
HETATM    2  C   UNL     1      -6.993  16.114  67.264  1.00  0.00    -0.234 C  
HETATM    3  C   UNL     1      -7.336  17.326  66.503  1.00  0.00    -0.312 A  
HETATM    4  C   UNL     1      -6.677  18.171  65.642  1.00  0.00    -0.230 A  
HETATM    5  N   UNL     1      -7.446  19.307  65.528  1.00  0.00    -0.437 NA 
HETATM    6  C   UNL     1      -8.570  19.197  66.334  1.00  0.00    -0.328 A  
HETATM    7  H   UNL     1      -7.224  20.109  64.939  1.00  0.00     0.000 HD 
HETATM    8  C   UNL     1      -9.498  20.116  66.796  1.00  0.00    -0.533 A  
HETATM    9  C   UNL     1     -10.497  19.587  67.633  1.00  0.00    -0.593 A  
HETATM   10  C   UNL     1     -10.679  18.193  67.831  1.00  0.00    -0.331 A  
HETATM   11  C   UNL     1      -9.773  17.275  67.286  1.00  0.00    -0.262 A  
HETATM   12  C   UNL     1      -8.637  17.866  66.676  1.00  0.00    -0.283 A  
HETATM   13  C   UNL     1      -9.699  15.777  67.247  1.00  0.00    -0.223 C  
HETATM   14  C   UNL     1     -10.629  14.806  66.930  1.00  0.00    -0.294 C  
HETATM   15  C   UNL     1      -9.989  13.425  66.555  1.00  0.00    -0.286 C  
HETATM   16  N   UNL     1      -8.352  14.127  68.283  1.00  0.00    -0.150 NA 
HETATM   17  C   UNL     1      -8.911  12.957  67.624  1.00  0.00    -0.192 C  
HETATM   18  C   UNL     1      -7.519  14.032  69.444  1.00  0.00     0.134 C  
ENDROOT
BRANCH  15  19
HETATM   19  N   UNL     1     -10.746  12.317  65.981  1.00  0.00    -0.254 N  
HETATM   20  H   UNL     1     -11.351  11.706  66.529  1.00  0.00     0.000 HD 
BRANCH  19  21
HETATM   21  C   UNL     1     -10.555  12.178  64.599  1.00  0.00    -0.300 C  
HETATM   22  O   UNL     1     -10.965  13.025  63.801  1.00  0.00    -0.392 OA 
BRANCH  21  23
HETATM   23  N   UNL     1      -9.878  11.070  64.134  1.00  0.00    -0.279 N  
BRANCH  23  24
HETATM   24  C   UNL     1      -9.111  10.987  62.898  1.00  0.00    -0.317 C  
HETATM   25  C   UNL     1      -9.074   9.568  62.352  1.00  0.00    -0.257 C  
ENDBRANCH  23  24
BRANCH  23  26
HETATM   26  C   UNL     1      -9.858   9.883  65.011  1.00  0.00    -0.252 C  
HETATM   27  C   UNL     1      -8.654   9.820  65.942  1.00  0.00    -0.149 C  
ENDBRANCH  23  26
ENDBRANCH  21  23
ENDBRANCH  19  21
ENDBRANCH  15  19
TORSDOF 5
ENDMDL
MODEL       59
REMARK 921   NORMALIZED FREE ENERGY PREDICTED BY IDOCK:   -5.24 KCAL/MOL
REMARK 922        TOTAL FREE ENERGY PREDICTED BY IDOCK:   -7.26 KCAL/MOL
REMARK 923 INTER-LIGAND FREE ENERGY PREDICTED BY IDOCK:   -6.60 KCAL/MOL
REMARK 924 INTRA-LIGAND FREE ENERGY PREDICTED BY IDOCK:   -0.66 KCAL/MOL
REMARK 927      BINDING AFFINITY PREDICTED BY RF-SCORE:    0.00 PKD
ROOT
HETATM    1  C   UNL     1      -8.579   7.284  68.496  1.00  0.00    -0.124 C  
HETATM    2  C   UNL     1      -7.650   7.016  69.691  1.00  0.00    -0.104 C  
HETATM    3  C   UNL     1      -8.182   7.740  70.856  1.00  0.00    -0.107 A  
HETATM    4  C   UNL     1      -7.647   8.379  71.950  1.00  0.00    -0.115 A  
HETATM    5  N   UNL     1      -8.675   8.568  72.846  1.00  0.00    -0.376 NA 
HETATM    6  C   UNL     1      -9.847   8.026  72.338  1.00  0.00    -0.247 A  
HETATM    7  H   UNL     1      -8.588   9.036  73.747  1.00  0.00     0.000 HD 
HETATM    8  C   UNL     1     -11.067   7.703  72.910  1.00  0.00    -0.448 A  
HETATM    9  C   UNL     1     -12.007   7.137  72.031  1.00  0.00    -0.332 A  
HETATM   10  C   UNL     1     -11.816   7.085  70.625  1.00  0.00    -0.377 A  
HETATM   11  C   UNL     1     -10.602   7.494  70.059  1.00  0.00    -0.242 A  
HETATM   12  C   UNL     1      -9.592   7.806  71.004  1.00  0.00    -0.170 A  
HETATM   13  C   UNL     1     -10.097   7.627  68.653  1.00  0.00    -0.201 C  
HETATM   14  C   UNL     1     -10.637   8.203  67.519  1.00  0.00    -0.291 C  
HETATM   15  C   UNL     1      -9.572   8.536  66.419  1.00  0.00    -0.245 C  
HETATM   16  N   UNL     1      -8.546   6.455  67.299  1.00  0.00    -0.111 NA 
HETATM   17  C   UNL     1      -8.618   7.302  66.118  1.00  0.00    -0.149 C  
HETATM   18  C   UNL     1      -7.945   5.155  67.278  1.00  0.00    -0.100 C  
ENDROOT
BRANCH  15  19
HETATM   19  N   UNL     1      -9.863   9.337  65.233  1.00  0.00    -0.424 N  
HETATM   20  H   UNL     1     -10.226   8.944  64.364  1.00  0.00     0.000 HD 
BRANCH  19  21
HETATM   21  C   UNL     1      -9.594  10.701  65.411  1.00  0.00    -0.230 C  
HETATM   22  O   UNL     1      -8.497  11.096  65.816  1.00  0.00    -0.158 OA 
BRANCH  21  23
HETATM   23  N   UNL     1     -10.582  11.615  65.110  1.00  0.00    -0.280 N  
BRANCH  23  24
HETATM   24  C   UNL     1     -11.265  12.487  66.056  1.00  0.00    -0.315 C  
HETATM   25  C   UNL     1     -11.459  11.813  67.406  1.00  0.00    -0.375 C  
ENDBRANCH  23  24
BRANCH  23  26
HETATM   26  C   UNL     1     -10.921  11.785  63.684  1.00  0.00    -0.439 C  
HETATM   27  C   UNL     1     -12.403  12.023  63.423  1.00  0.00    -0.635 C  
ENDBRANCH  23  26
ENDBRANCH  21  23
ENDBRANCH  19  21
ENDBRANCH  15  19
TORSDOF 5
ENDMDL
MODEL       60
REMARK 921   NORMALIZED FREE ENERGY PREDICTED BY IDOCK:   -5.21 KCAL/MOL
REMARK 922        TOTAL FREE ENERGY PREDICTED BY IDOCK:   -7.22 KCAL/MOL
REMARK 923 INTER-LIGAND FREE ENERGY PREDICTED BY IDOCK:   -6.34 KCAL/MOL
REMARK 924 INTRA-LIGAND FREE ENERGY PREDICTED BY IDOCK:   -0.88 KCAL/MOL
REMARK 927      BINDING AFFINITY PREDICTED BY RF-SCORE:    0.00 PKD
ROOT
HETATM    1  C   UNL     1      -9.968  17.928  66.458  1.00  0.00    -0.357 C  
HETATM    2  C   UNL     1     -10.428  16.993  65.329  1.00  0.00    -0.056 C  
HETATM    3  C   UNL     1     -10.355  15.608  65.822  1.00  0.00    -0.386 A  
HETATM    4  C   UNL     1     -10.066  14.380  65.277  1.00  0.00    -0.356 A  
HETATM    5  N   UNL     1     -10.492  13.431  66.179  1.00  0.00    -0.290 NA 
HETATM    6  C   UNL     1     -11.075  14.052  67.275  1.00  0.00    -0.302 A  
HETATM    7  H   UNL     1     -10.394  12.423  66.060  1.00  0.00     0.000 HD 
HETATM    8  C   UNL     1     -11.883  13.595  68.303  1.00  0.00    -0.404 A  
HETATM    9  C   UNL     1     -12.290  14.577  69.224  1.00  0.00    -0.185 A  
HETATM   10  C   UNL     1     -11.757  15.893  69.234  1.00  0.00    -0.360 A  
HETATM   11  C   UNL     1     -10.876  16.310  68.228  1.00  0.00    -0.340 A  
HETATM   12  C   UNL     1     -10.704  15.373  67.177  1.00  0.00    -0.314 A  
HETATM   13  C   UNL     1     -10.100  17.568  67.974  1.00  0.00    -0.332 C  
HETATM   14  C   UNL     1      -9.292  18.345  68.783  1.00  0.00    -0.301 C  
HETATM   15  C   UNL     1      -8.315  19.272  67.983  1.00  0.00    -0.315 C  
HETATM   16  N   UNL     1     -10.247  19.357  66.429  1.00  0.00    -0.425 NA 
HETATM   17  C   UNL     1      -9.064  20.093  66.849  1.00  0.00    -0.356 C  
HETATM   18  C   UNL     1     -11.249  19.930  65.581  1.00  0.00     0.329 C  
ENDROOT
BRANCH  15  19
HETATM   19  N   UNL     1      -7.225  20.019  68.606  1.00  0.00    -0.276 N  
HETATM   20  H   UNL     1      -7.371  20.808  69.235  1.00  0.00     0.000 HD 
BRANCH  19  21
HETATM   21  C   UNL     1      -5.957  19.539  68.249  1.00  0.00    -0.217 C  
HETATM   22  O   UNL     1      -5.133  20.254  67.672  1.00  0.00    -0.175 OA 
BRANCH  21  23
HETATM   23  N   UNL     1      -5.628  18.239  68.571  1.00  0.00    -0.174 N  
BRANCH  23  24
HETATM   24  C   UNL     1      -5.745  17.622  69.885  1.00  0.00    -0.247 C  
HETATM   25  C   UNL     1      -6.204  16.175  69.790  1.00  0.00    -0.184 C  
ENDBRANCH  23  24
BRANCH  23  26
HETATM   26  C   UNL     1      -5.197  17.365  67.462  1.00  0.00    -0.118 C  
HETATM   27  C   UNL     1      -6.242  17.192  66.367  1.00  0.00    -0.202 C  
ENDBRANCH  23  26
ENDBRANCH  21  23
ENDBRANCH  19  21
ENDBRANCH  15  19
TORSDOF 5
ENDMDL
MODEL       61
REMARK 921   NORMALIZED FREE ENERGY PREDICTED BY IDOCK:   -5.21 KCAL/MOL
REMARK 922        TOTAL FREE ENERGY PREDICTED BY IDOCK:   -7.22 KCAL/MOL
REMARK 923 INTER-LIGAND FREE ENERGY PREDICTED BY IDOCK:   -6.62 KCAL/MOL
REMARK 924 INTRA-LIGAND FREE ENERGY PREDICTED BY IDOCK:   -0.60 KCAL/MOL
REMARK 927      BINDING AFFINITY PREDICTED BY RF-SCORE:    0.00 PKD
ROOT
HETATM    1  C   UNL     1      -9.297  10.398  64.751  1.00  0.00    -0.251 C  
HETATM    2  C   UNL     1     -10.018  10.775  63.448  1.00  0.00    -0.385 C  
HETATM    3  C   UNL     1     -11.163  11.633  63.789  1.00  0.00    -0.498 A  
HETATM    4  C   UNL     1     -12.431  11.829  63.294  1.00  0.00    -0.290 A  
HETATM    5  N   UNL     1     -12.896  13.005  63.841  1.00  0.00    -0.618 NA 
HETATM    6  C   UNL     1     -11.920  13.565  64.652  1.00  0.00    -0.400 A  
HETATM    7  H   UNL     1     -13.820  13.403  63.675  1.00  0.00     0.000 HD 
HETATM    8  C   UNL     1     -11.756  14.825  65.204  1.00  0.00    -0.337 A  
HETATM    9  C   UNL     1     -10.586  14.996  65.965  1.00  0.00    -0.329 A  
HETATM   10  C   UNL     1      -9.735  13.917  66.324  1.00  0.00    -0.304 A  
HETATM   11  C   UNL     1      -9.967  12.632  65.819  1.00  0.00    -0.266 A  
HETATM   12  C   UNL     1     -10.998  12.563  64.847  1.00  0.00    -0.335 A  
HETATM   13  C   UNL     1      -9.325  11.294  66.034  1.00  0.00    -0.234 C  
HETATM   14  C   UNL     1      -8.962  10.607  67.177  1.00  0.00    -0.143 C  
HETATM   15  C   UNL     1      -8.779   9.067  66.949  1.00  0.00    -0.123 C  
HETATM   16  N   UNL     1      -7.944   9.860  64.750  1.00  0.00    -0.137 NA 
HETATM   17  C   UNL     1      -7.860   8.754  65.692  1.00  0.00    -0.097 C  
HETATM   18  C   UNL     1      -7.067   9.980  63.625  1.00  0.00    -0.126 C  
ENDROOT
BRANCH  15  19
HETATM   19  N   UNL     1      -8.610   8.107  68.036  1.00  0.00    -0.129 N  
HETATM   20  H   UNL     1      -7.722   7.655  68.254  1.00  0.00     0.000 HD 
BRANCH  19  21
HETATM   21  C   UNL     1      -9.793   7.872  68.751  1.00  0.00    -0.167 C  
HETATM   22  O   UNL     1     -10.844   7.571  68.180  1.00  0.00    -0.129 OA 
BRANCH  21  23
HETATM   23  N   UNL     1      -9.764   7.968  70.127  1.00  0.00    -0.175 N  
BRANCH  23  24
HETATM   24  C   UNL     1      -9.958   9.182  70.908  1.00  0.00    -0.288 C  
HETATM   25  C   UNL     1     -10.807  10.202  70.164  1.00  0.00    -0.368 C  
ENDBRANCH  23  24
BRANCH  23  26
HETATM   26  C   UNL     1      -9.604   6.710  70.881  1.00  0.00    -0.175 C  
HETATM   27  C   UNL     1     -10.907   6.154  71.442  1.00  0.00    -0.319 C  
ENDBRANCH  23  26
ENDBRANCH  21  23
ENDBRANCH  19  21
ENDBRANCH  15  19
TORSDOF 5
ENDMDL
MODEL       62
REMARK 921   NORMALIZED FREE ENERGY PREDICTED BY IDOCK:   -5.14 KCAL/MOL
REMARK 922        TOTAL FREE ENERGY PREDICTED BY IDOCK:   -7.13 KCAL/MOL
REMARK 923 INTER-LIGAND FREE ENERGY PREDICTED BY IDOCK:   -6.85 KCAL/MOL
REMARK 924 INTRA-LIGAND FREE ENERGY PREDICTED BY IDOCK:   -0.28 KCAL/MOL
REMARK 927      BINDING AFFINITY PREDICTED BY RF-SCORE:    0.00 PKD
ROOT
HETATM    1  C   UNL     1      -9.808   9.854  65.401  1.00  0.00    -0.313 C  
HETATM    2  C   UNL     1      -9.937  10.740  64.152  1.00  0.00    -0.405 C  
HETATM    3  C   UNL     1     -11.156  11.553  64.292  1.00  0.00    -0.385 A  
HETATM    4  C   UNL     1     -12.111  12.053  63.439  1.00  0.00    -0.493 A  
HETATM    5  N   UNL     1     -12.811  13.010  64.139  1.00  0.00    -0.668 NA 
HETATM    6  C   UNL     1     -12.284  13.137  65.416  1.00  0.00    -0.461 A  
HETATM    7  H   UNL     1     -13.598  13.545  63.774  1.00  0.00     0.000 HD 
HETATM    8  C   UNL     1     -12.418  14.100  66.404  1.00  0.00    -0.353 A  
HETATM    9  C   UNL     1     -11.678  13.860  67.575  1.00  0.00    -0.416 A  
HETATM   10  C   UNL     1     -11.008  12.633  67.827  1.00  0.00    -0.266 A  
HETATM   11  C   UNL     1     -10.955  11.639  66.842  1.00  0.00    -0.342 A  
HETATM   12  C   UNL     1     -11.485  12.031  65.586  1.00  0.00    -0.372 A  
HETATM   13  C   UNL     1     -10.404  10.244  66.793  1.00  0.00    -0.288 C  
HETATM   14  C   UNL     1     -10.518   9.166  67.650  1.00  0.00    -0.323 C  
HETATM   15  C   UNL     1     -10.193   7.791  66.972  1.00  0.00    -0.305 C  
HETATM   16  N   UNL     1      -8.555   9.197  65.747  1.00  0.00    -0.144 NA 
HETATM   17  C   UNL     1      -8.822   7.830  66.170  1.00  0.00    -0.162 C  
HETATM   18  C   UNL     1      -7.296   9.599  65.196  1.00  0.00    -0.115 C  
ENDROOT
BRANCH  15  19
HETATM   19  N   UNL     1     -10.450   6.501  67.605  1.00  0.00    -0.198 N  
HETATM   20  H   UNL     1     -10.686   6.396  68.592  1.00  0.00     0.000 HD 
BRANCH  19  21
HETATM   21  C   UNL     1     -10.338   5.421  66.718  1.00  0.00    -0.272 C  
HETATM   22  O   UNL     1     -11.190   5.205  65.852  1.00  0.00    -0.031 OA 
BRANCH  21  23
HETATM   23  N   UNL     1      -9.237   4.597  66.817  1.00  0.00    -0.120 N  
BRANCH  23  24
HETATM   24  C   UNL     1      -8.742   3.964  68.032  1.00  0.00    -0.102 C  
HETATM   25  C   UNL     1      -7.226   4.030  68.126  1.00  0.00    -0.059 C  
ENDBRANCH  23  24
BRANCH  23  26
HETATM   26  C   UNL     1      -8.544   4.255  65.560  1.00  0.00    -0.119 C  
HETATM   27  C   UNL     1      -9.006   2.946  64.933  1.00  0.00    -0.133 C  
ENDBRANCH  23  26
ENDBRANCH  21  23
ENDBRANCH  19  21
ENDBRANCH  15  19
TORSDOF 5
ENDMDL
MODEL       63
REMARK 921   NORMALIZED FREE ENERGY PREDICTED BY IDOCK:   -5.14 KCAL/MOL
REMARK 922        TOTAL FREE ENERGY PREDICTED BY IDOCK:   -7.13 KCAL/MOL
REMARK 923 INTER-LIGAND FREE ENERGY PREDICTED BY IDOCK:   -6.51 KCAL/MOL
REMARK 924 INTRA-LIGAND FREE ENERGY PREDICTED BY IDOCK:   -0.62 KCAL/MOL
REMARK 927      BINDING AFFINITY PREDICTED BY RF-SCORE:    0.00 PKD
ROOT
HETATM    1  C   UNL     1     -10.007  12.010  68.217  1.00  0.00    -0.203 C  
HETATM    2  C   UNL     1      -8.953  12.967  67.640  1.00  0.00    -0.192 C  
HETATM    3  C   UNL     1      -7.846  12.159  67.104  1.00  0.00    -0.160 A  
HETATM    4  C   UNL     1      -6.482  12.299  67.000  1.00  0.00    -0.048 A  
HETATM    5  N   UNL     1      -6.049  11.348  66.104  1.00  0.00    -0.369 NA 
HETATM    6  C   UNL     1      -7.133  10.630  65.620  1.00  0.00    -0.076 A  
HETATM    7  H   UNL     1      -5.077  11.194  65.836  1.00  0.00     0.000 HD 
HETATM    8  C   UNL     1      -7.299   9.780  64.537  1.00  0.00    -0.135 A  
HETATM    9  C   UNL     1      -8.596   9.264  64.378  1.00  0.00    -0.216 A  
HETATM   10  C   UNL     1      -9.615   9.421  65.355  1.00  0.00    -0.296 A  
HETATM   11  C   UNL     1      -9.398  10.220  66.484  1.00  0.00    -0.200 A  
HETATM   12  C   UNL     1      -8.172  10.933  66.468  1.00  0.00    -0.157 A  
HETATM   13  C   UNL     1     -10.206  10.545  67.705  1.00  0.00    -0.223 C  
HETATM   14  C   UNL     1     -10.908   9.756  68.596  1.00  0.00    -0.223 C  
HETATM   15  C   UNL     1     -11.184  10.457  69.970  1.00  0.00    -0.316 C  
HETATM   16  N   UNL     1     -11.366  12.450  68.503  1.00  0.00    -0.268 NA 
HETATM   17  C   UNL     1     -11.793  11.913  69.786  1.00  0.00    -0.340 C  
HETATM   18  C   UNL     1     -11.921  13.648  67.948  1.00  0.00    -0.347 C  
ENDROOT
BRANCH  15  19
HETATM   19  N   UNL     1     -11.714   9.758  71.138  1.00  0.00    -0.354 N  
HETATM   20  H   UNL     1     -12.634   9.945  71.535  1.00  0.00     0.000 HD 
BRANCH  19  21
HETATM   21  C   UNL     1     -10.827   8.804  71.656  1.00  0.00    -0.329 C  
HETATM   22  O   UNL     1      -9.663   9.093  71.947  1.00  0.00    -0.282 OA 
BRANCH  21  23
HETATM   23  N   UNL     1     -11.283   7.518  71.854  1.00  0.00    -0.241 N  
BRANCH  23  24
HETATM   24  C   UNL     1     -12.067   6.728  70.914  1.00  0.00    -0.367 C  
HETATM   25  C   UNL     1     -11.265   6.370  69.672  1.00  0.00    -0.483 C  
ENDBRANCH  23  24
BRANCH  23  26
HETATM   26  C   UNL     1     -10.867   6.846  73.101  1.00  0.00    -0.296 C  
HETATM   27  C   UNL     1     -11.085   5.339  73.096  1.00  0.00    -0.384 C  
ENDBRANCH  23  26
ENDBRANCH  21  23
ENDBRANCH  19  21
ENDBRANCH  15  19
TORSDOF 5
ENDMDL
MODEL       64
REMARK 921   NORMALIZED FREE ENERGY PREDICTED BY IDOCK:   -5.14 KCAL/MOL
REMARK 922        TOTAL FREE ENERGY PREDICTED BY IDOCK:   -7.12 KCAL/MOL
REMARK 923 INTER-LIGAND FREE ENERGY PREDICTED BY IDOCK:   -6.66 KCAL/MOL
REMARK 924 INTRA-LIGAND FREE ENERGY PREDICTED BY IDOCK:   -0.46 KCAL/MOL
REMARK 927      BINDING AFFINITY PREDICTED BY RF-SCORE:    0.00 PKD
ROOT
HETATM    1  C   UNL     1     -10.777   7.386  69.704  1.00  0.00    -0.235 C  
HETATM    2  C   UNL     1     -11.033   6.023  69.041  1.00  0.00    -0.409 C  
HETATM    3  C   UNL     1     -10.439   6.050  67.695  1.00  0.00    -0.297 A  
HETATM    4  C   UNL     1     -10.745   5.505  66.471  1.00  0.00    -0.240 A  
HETATM    5  N   UNL     1      -9.620   5.628  65.686  1.00  0.00    -0.366 NA 
HETATM    6  C   UNL     1      -8.599   6.218  66.416  1.00  0.00    -0.133 A  
HETATM    7  H   UNL     1      -9.549   5.330  64.713  1.00  0.00     0.000 HD 
HETATM    8  C   UNL     1      -7.231   6.324  66.218  1.00  0.00    -0.069 A  
HETATM    9  C   UNL     1      -6.532   6.998  67.234  1.00  0.00    -0.053 A  
HETATM   10  C   UNL     1      -7.181   7.702  68.283  1.00  0.00    -0.093 A  
HETATM   11  C   UNL     1      -8.574   7.648  68.417  1.00  0.00    -0.124 A  
HETATM   12  C   UNL     1      -9.212   6.743  67.530  1.00  0.00    -0.122 A  
HETATM   13  C   UNL     1      -9.561   8.300  69.339  1.00  0.00    -0.171 C  
HETATM   14  C   UNL     1      -9.732   9.609  69.747  1.00  0.00    -0.247 C  
HETATM   15  C   UNL     1     -11.162   9.905  70.317  1.00  0.00    -0.301 C  
HETATM   16  N   UNL     1     -10.918   7.577  71.141  1.00  0.00    -0.243 NA 
HETATM   17  C   UNL     1     -11.607   8.832  71.400  1.00  0.00    -0.299 C  
HETATM   18  C   UNL     1     -10.937   6.484  72.066  1.00  0.00    -0.247 C  
ENDROOT
BRANCH  15  19
HETATM   19  N   UNL     1     -11.649  11.250  70.608  1.00  0.00    -0.425 N  
HETATM   20  H   UNL     1     -11.728  11.627  71.553  1.00  0.00     0.000 HD 
BRANCH  19  21
HETATM   21  C   UNL     1     -11.996  11.970  69.457  1.00  0.00    -0.283 C  
HETATM   22  O   UNL     1     -12.271  11.402  68.397  1.00  0.00    -0.571 OA 
BRANCH  21  23
HETATM   23  N   UNL     1     -12.043  13.347  69.528  1.00  0.00    -0.304 N  
BRANCH  23  24
HETATM   24  C   UNL     1     -11.622  14.277  68.489  1.00  0.00    -0.320 C  
HETATM   25  C   UNL     1     -10.140  14.139  68.174  1.00  0.00    -0.239 C  
ENDBRANCH  23  24
BRANCH  23  26
HETATM   26  C   UNL     1     -12.654  13.933  70.737  1.00  0.00    -0.354 C  
HETATM   27  C   UNL     1     -12.709  15.455  70.728  1.00  0.00    -0.516 C  
ENDBRANCH  23  26
ENDBRANCH  21  23
ENDBRANCH  19  21
ENDBRANCH  15  19
TORSDOF 5
ENDMDL
MODEL       65
REMARK 921   NORMALIZED FREE ENERGY PREDICTED BY IDOCK:   -5.13 KCAL/MOL
REMARK 922        TOTAL FREE ENERGY PREDICTED BY IDOCK:   -7.12 KCAL/MOL
REMARK 923 INTER-LIGAND FREE ENERGY PREDICTED BY IDOCK:   -7.22 KCAL/MOL
REMARK 924 INTRA-LIGAND FREE ENERGY PREDICTED BY IDOCK:    0.10 KCAL/MOL
REMARK 927      BINDING AFFINITY PREDICTED BY RF-SCORE:    0.00 PKD
ROOT
HETATM    1  C   UNL     1     -10.335  15.080  66.358  1.00  0.00    -0.287 C  
HETATM    2  C   UNL     1     -10.645  16.241  65.400  1.00  0.00    -0.371 C  
HETATM    3  C   UNL     1     -10.054  17.467  65.958  1.00  0.00    -0.273 A  
HETATM    4  C   UNL     1     -10.384  18.801  65.978  1.00  0.00    -0.422 A  
HETATM    5  N   UNL     1      -9.257  19.486  66.375  1.00  0.00    -0.358 NA 
HETATM    6  C   UNL     1      -8.212  18.596  66.577  1.00  0.00    -0.286 A  
HETATM    7  H   UNL     1      -9.200  20.497  66.503  1.00  0.00     0.000 HD 
HETATM    8  C   UNL     1      -6.842  18.758  66.708  1.00  0.00    -0.210 A  
HETATM    9  C   UNL     1      -6.114  17.568  66.879  1.00  0.00    -0.204 A  
HETATM   10  C   UNL     1      -6.734  16.311  67.110  1.00  0.00    -0.237 A  
HETATM   11  C   UNL     1      -8.127  16.185  67.053  1.00  0.00    -0.245 A  
HETATM   12  C   UNL     1      -8.802  17.354  66.616  1.00  0.00    -0.278 A  
HETATM   13  C   UNL     1      -9.086  15.059  67.299  1.00  0.00    -0.213 C  
HETATM   14  C   UNL     1      -9.205  14.144  68.328  1.00  0.00    -0.198 C  
HETATM   15  C   UNL     1     -10.621  13.477  68.412  1.00  0.00    -0.248 C  
HETATM   16  N   UNL     1     -10.465  13.690  65.944  1.00  0.00    -0.290 NA 
HETATM   17  C   UNL     1     -11.104  12.924  67.003  1.00  0.00    -0.275 C  
HETATM   18  C   UNL     1     -10.524  13.298  64.568  1.00  0.00    -0.415 C  
ENDROOT
BRANCH  15  19
HETATM   19  N   UNL     1     -11.055  12.648  69.532  1.00  0.00    -0.460 N  
HETATM   20  H   UNL     1     -11.162  13.000  70.484  1.00  0.00     0.000 HD 
BRANCH  19  21
HETATM   21  C   UNL     1     -11.310  11.319  69.166  1.00  0.00    -0.282 C  
HETATM   22  O   UNL     1     -12.336  11.001  68.559  1.00  0.00    -0.536 OA 
BRANCH  21  23
HETATM   23  N   UNL     1     -10.376  10.356  69.486  1.00  0.00    -0.233 N  
BRANCH  23  24
HETATM   24  C   UNL     1     -10.642   9.090  70.157  1.00  0.00    -0.224 C  
HETATM   25  C   UNL     1      -9.820   8.941  71.428  1.00  0.00    -0.376 C  
ENDBRANCH  23  24
BRANCH  23  26
HETATM   26  C   UNL     1      -8.992  10.590  69.032  1.00  0.00    -0.176 C  
HETATM   27  C   UNL     1      -8.701  10.065  67.632  1.00  0.00    -0.121 C  
ENDBRANCH  23  26
ENDBRANCH  21  23
ENDBRANCH  19  21
ENDBRANCH  15  19
TORSDOF 5
ENDMDL
MODEL       66
REMARK 921   NORMALIZED FREE ENERGY PREDICTED BY IDOCK:   -5.08 KCAL/MOL
REMARK 922        TOTAL FREE ENERGY PREDICTED BY IDOCK:   -7.05 KCAL/MOL
REMARK 923 INTER-LIGAND FREE ENERGY PREDICTED BY IDOCK:   -6.02 KCAL/MOL
REMARK 924 INTRA-LIGAND FREE ENERGY PREDICTED BY IDOCK:   -1.02 KCAL/MOL
REMARK 927      BINDING AFFINITY PREDICTED BY RF-SCORE:    0.00 PKD
ROOT
HETATM    1  C   UNL     1     -10.262  11.515  67.695  1.00  0.00    -0.184 C  
HETATM    2  C   UNL     1      -9.939  12.824  68.431  1.00  0.00    -0.210 C  
HETATM    3  C   UNL     1      -9.592  13.841  67.425  1.00  0.00    -0.229 A  
HETATM    4  C   UNL     1      -8.731  14.912  67.361  1.00  0.00    -0.194 A  
HETATM    5  N   UNL     1      -9.112  15.666  66.274  1.00  0.00    -0.317 NA 
HETATM    6  C   UNL     1     -10.224  15.095  65.671  1.00  0.00    -0.361 A  
HETATM    7  H   UNL     1      -8.646  16.517  65.958  1.00  0.00     0.000 HD 
HETATM    8  C   UNL     1     -11.147  15.564  64.750  1.00  0.00    -0.421 A  
HETATM    9  C   UNL     1     -12.163  14.654  64.408  1.00  0.00    -0.473 A  
HETATM   10  C   UNL     1     -12.144  13.290  64.805  1.00  0.00    -0.456 A  
HETATM   11  C   UNL     1     -11.152  12.818  65.673  1.00  0.00    -0.311 A  
HETATM   12  C   UNL     1     -10.308  13.829  66.201  1.00  0.00    -0.301 A  
HETATM   13  C   UNL     1     -10.806  11.469  66.229  1.00  0.00    -0.333 C  
HETATM   14  C   UNL     1     -10.657  10.228  65.639  1.00  0.00    -0.044 C  
HETATM   15  C   UNL     1      -9.826   9.220  66.506  1.00  0.00    -0.263 C  
HETATM   16  N   UNL     1     -10.972  10.424  68.349  1.00  0.00    -0.247 NA 
HETATM   17  C   UNL     1     -10.341   9.158  68.007  1.00  0.00    -0.222 C  
HETATM   18  C   UNL     1     -11.727  10.607  69.551  1.00  0.00    -0.284 C  
ENDROOT
BRANCH  15  19
HETATM   19  N   UNL     1      -9.354   7.931  66.008  1.00  0.00    -0.383 N  
HETATM   20  H   UNL     1      -9.977   7.176  65.723  1.00  0.00     0.000 HD 
BRANCH  19  21
HETATM   21  C   UNL     1      -7.956   7.839  65.962  1.00  0.00    -0.108 C  
HETATM   22  O   UNL     1      -7.322   7.198  66.805  1.00  0.00    -0.080 OA 
BRANCH  21  23
HETATM   23  N   UNL     1      -7.285   8.472  64.937  1.00  0.00    -0.083 N  
BRANCH  23  24
HETATM   24  C   UNL     1      -6.173   9.402  65.081  1.00  0.00    -0.070 C  
HETATM   25  C   UNL     1      -6.568  10.634  65.881  1.00  0.00    -0.118 C  
ENDBRANCH  23  24
BRANCH  23  26
HETATM   26  C   UNL     1      -7.674   8.109  63.560  1.00  0.00    -0.143 C  
HETATM   27  C   UNL     1      -8.292   9.255  62.768  1.00  0.00    -0.188 C  
ENDBRANCH  23  26
ENDBRANCH  21  23
ENDBRANCH  19  21
ENDBRANCH  15  19
TORSDOF 5
ENDMDL
MODEL       67
REMARK 921   NORMALIZED FREE ENERGY PREDICTED BY IDOCK:   -5.06 KCAL/MOL
REMARK 922        TOTAL FREE ENERGY PREDICTED BY IDOCK:   -7.02 KCAL/MOL
REMARK 923 INTER-LIGAND FREE ENERGY PREDICTED BY IDOCK:   -6.83 KCAL/MOL
REMARK 924 INTRA-LIGAND FREE ENERGY PREDICTED BY IDOCK:   -0.19 KCAL/MOL
REMARK 927      BINDING AFFINITY PREDICTED BY RF-SCORE:    0.00 PKD
ROOT
HETATM    1  C   UNL     1      -9.515   9.689  70.334  1.00  0.00    -0.222 C  
HETATM    2  C   UNL     1      -8.345   9.032  71.082  1.00  0.00    -0.212 C  
HETATM    3  C   UNL     1      -8.876   8.407  72.304  1.00  0.00    -0.289 A  
HETATM    4  C   UNL     1      -8.418   8.195  73.583  1.00  0.00    -0.243 A  
HETATM    5  N   UNL     1      -9.254   7.264  74.158  1.00  0.00    -0.307 NA 
HETATM    6  C   UNL     1     -10.216   6.866  73.242  1.00  0.00    -0.258 A  
HETATM    7  H   UNL     1      -9.177   6.919  75.115  1.00  0.00     0.000 HD 
HETATM    8  C   UNL     1     -11.099   5.799  73.198  1.00  0.00    -0.288 A  
HETATM    9  C   UNL     1     -11.911   5.742  72.052  1.00  0.00    -0.024 A  
HETATM   10  C   UNL     1     -11.984   6.798  71.105  1.00  0.00    -0.421 A  
HETATM   11  C   UNL     1     -11.138   7.908  71.214  1.00  0.00    -0.278 A  
HETATM   12  C   UNL     1     -10.155   7.796  72.230  1.00  0.00    -0.277 A  
HETATM   13  C   UNL     1     -10.994   9.191  70.450  1.00  0.00    -0.290 C  
HETATM   14  C   UNL     1     -11.913  10.133  70.027  1.00  0.00    -0.210 C  
HETATM   15  C   UNL     1     -11.274  11.527  69.701  1.00  0.00    -0.204 C  
HETATM   16  N   UNL     1      -9.405  10.084  68.936  1.00  0.00    -0.164 NA 
HETATM   17  C   UNL     1     -10.008  11.396  68.752  1.00  0.00    -0.177 C  
HETATM   18  C   UNL     1      -8.383   9.578  68.071  1.00  0.00    -0.118 C  
ENDROOT
BRANCH  15  19
HETATM   19  N   UNL     1     -12.059  12.731  69.446  1.00  0.00    -0.241 N  
HETATM   20  H   UNL     1     -12.287  13.066  68.510  1.00  0.00     0.000 HD 
BRANCH  19  21
HETATM   21  C   UNL     1     -12.468  13.380  70.620  1.00  0.00    -0.311 C  
HETATM   22  O   UNL     1     -12.682  12.756  71.663  1.00  0.00    -0.283 OA 
BRANCH  21  23
HETATM   23  N   UNL     1     -12.615  14.751  70.600  1.00  0.00    -0.335 N  
BRANCH  23  24
HETATM   24  C   UNL     1     -12.136  15.652  69.560  1.00  0.00    -0.286 C  
HETATM   25  C   UNL     1     -10.752  16.196  69.880  1.00  0.00    -0.328 C  
ENDBRANCH  23  24
BRANCH  23  26
HETATM   26  C   UNL     1     -13.407  15.353  71.690  1.00  0.00    -0.490 C  
HETATM   27  C   UNL     1     -12.572  15.826  72.873  1.00  0.00    -0.571 C  
ENDBRANCH  23  26
ENDBRANCH  21  23
ENDBRANCH  19  21
ENDBRANCH  15  19
TORSDOF 5
ENDMDL
MODEL       68
REMARK 921   NORMALIZED FREE ENERGY PREDICTED BY IDOCK:   -5.05 KCAL/MOL
REMARK 922        TOTAL FREE ENERGY PREDICTED BY IDOCK:   -7.01 KCAL/MOL
REMARK 923 INTER-LIGAND FREE ENERGY PREDICTED BY IDOCK:   -6.41 KCAL/MOL
REMARK 924 INTRA-LIGAND FREE ENERGY PREDICTED BY IDOCK:   -0.61 KCAL/MOL
REMARK 927      BINDING AFFINITY PREDICTED BY RF-SCORE:    0.00 PKD
ROOT
HETATM    1  C   UNL     1      -9.668  12.418  68.194  1.00  0.00    -0.214 C  
HETATM    2  C   UNL     1      -9.523  13.917  68.500  1.00  0.00    -0.174 C  
HETATM    3  C   UNL     1     -10.861  14.458  68.789  1.00  0.00    -0.261 A  
HETATM    4  C   UNL     1     -11.508  15.652  68.580  1.00  0.00    -0.375 A  
HETATM    5  N   UNL     1     -12.632  15.642  69.377  1.00  0.00    -0.526 NA 
HETATM    6  C   UNL     1     -12.680  14.464  70.107  1.00  0.00    -0.207 A  
HETATM    7  H   UNL     1     -13.325  16.389  69.422  1.00  0.00     0.000 HD 
HETATM    8  C   UNL     1     -13.410  14.067  71.217  1.00  0.00    -0.342 A  
HETATM    9  C   UNL     1     -13.138  12.765  71.675  1.00  0.00    -0.428 A  
HETATM   10  C   UNL     1     -12.339  11.843  70.949  1.00  0.00    -0.400 A  
HETATM   11  C   UNL     1     -11.674  12.243  69.783  1.00  0.00    -0.368 A  
HETATM   12  C   UNL     1     -11.764  13.632  69.508  1.00  0.00    -0.380 A  
HETATM   13  C   UNL     1     -10.826  11.536  68.768  1.00  0.00    -0.258 C  
HETATM   14  C   UNL     1     -10.994  10.352  68.076  1.00  0.00    -0.347 C  
HETATM   15  C   UNL     1     -10.111  10.254  66.784  1.00  0.00    -0.216 C  
HETATM   16  N   UNL     1      -8.523  11.518  68.212  1.00  0.00    -0.153 NA 
HETATM   17  C   UNL     1      -8.592  10.620  67.070  1.00  0.00    -0.128 C  
HETATM   18  C   UNL     1      -7.288  11.856  68.853  1.00  0.00    -0.080 C  
ENDROOT
BRANCH  15  19
HETATM   19  N   UNL     1     -10.268   9.205  65.781  1.00  0.00    -0.283 N  
HETATM   20  H   UNL     1     -10.964   9.239  65.036  1.00  0.00     0.000 HD 
BRANCH  19  21
HETATM   21  C   UNL     1      -9.365   8.145  65.947  1.00  0.00    -0.056 C  
HETATM   22  O   UNL     1      -8.373   8.022  65.224  1.00  0.00    -0.144 OA 
BRANCH  21  23
HETATM   23  N   UNL     1      -9.596   7.233  66.955  1.00  0.00    -0.156 N  
BRANCH  23  24
HETATM   24  C   UNL     1      -8.745   7.001  68.115  1.00  0.00    -0.127 C  
HETATM   25  C   UNL     1      -9.463   7.328  69.416  1.00  0.00    -0.154 C  
ENDBRANCH  23  24
BRANCH  23  26
HETATM   26  C   UNL     1     -10.864   6.481  66.899  1.00  0.00    -0.357 C  
HETATM   27  C   UNL     1     -10.744   5.112  66.243  1.00  0.00    -0.272 C  
ENDBRANCH  23  26
ENDBRANCH  21  23
ENDBRANCH  19  21
ENDBRANCH  15  19
TORSDOF 5
ENDMDL
MODEL       69
REMARK 921   NORMALIZED FREE ENERGY PREDICTED BY IDOCK:   -5.05 KCAL/MOL
REMARK 922        TOTAL FREE ENERGY PREDICTED BY IDOCK:   -7.00 KCAL/MOL
REMARK 923 INTER-LIGAND FREE ENERGY PREDICTED BY IDOCK:   -6.84 KCAL/MOL
REMARK 924 INTRA-LIGAND FREE ENERGY PREDICTED BY IDOCK:   -0.17 KCAL/MOL
REMARK 927      BINDING AFFINITY PREDICTED BY RF-SCORE:    0.00 PKD
ROOT
HETATM    1  C   UNL     1      -9.811  12.781  68.228  1.00  0.00    -0.224 C  
HETATM    2  C   UNL     1      -9.780  14.190  68.838  1.00  0.00    -0.084 C  
HETATM    3  C   UNL     1     -11.138  14.520  69.300  1.00  0.00    -0.296 A  
HETATM    4  C   UNL     1     -11.903  15.659  69.381  1.00  0.00    -0.375 A  
HETATM    5  N   UNL     1     -12.965  15.370  70.210  1.00  0.00    -0.671 NA 
HETATM    6  C   UNL     1     -12.857  14.067  70.674  1.00  0.00    -0.253 A  
HETATM    7  H   UNL     1     -13.717  16.016  70.446  1.00  0.00     0.000 HD 
HETATM    8  C   UNL     1     -13.471  13.376  71.707  1.00  0.00    -0.452 A  
HETATM    9  C   UNL     1     -13.053  12.043  71.864  1.00  0.00    -0.475 A  
HETATM   10  C   UNL     1     -12.225  11.377  70.921  1.00  0.00    -0.447 A  
HETATM   11  C   UNL     1     -11.680  12.076  69.837  1.00  0.00    -0.374 A  
HETATM   12  C   UNL     1     -11.912  13.476  69.868  1.00  0.00    -0.416 A  
HETATM   13  C   UNL     1     -10.843  11.685  68.656  1.00  0.00    -0.253 C  
HETATM   14  C   UNL     1     -10.950  10.660  67.735  1.00  0.00    -0.364 C  
HETATM   15  C   UNL     1     -10.152  10.922  66.412  1.00  0.00    -0.231 C  
HETATM   16  N   UNL     1      -8.591  12.018  67.999  1.00  0.00    -0.162 NA 
HETATM   17  C   UNL     1      -8.656  11.374  66.696  1.00  0.00    -0.170 C  
HETATM   18  C   UNL     1      -7.350  12.340  68.637  1.00  0.00    -0.106 C  
ENDROOT
BRANCH  15  19
HETATM   19  N   UNL     1     -10.283  10.093  65.217  1.00  0.00    -0.267 N  
HETATM   20  H   UNL     1     -10.971   9.347  65.123  1.00  0.00     0.000 HD 
BRANCH  19  21
HETATM   21  C   UNL     1      -9.365  10.429  64.212  1.00  0.00    -0.277 C  
HETATM   22  O   UNL     1      -9.560  11.378  63.448  1.00  0.00    -0.296 OA 
BRANCH  21  23
HETATM   23  N   UNL     1      -8.211   9.682  64.095  1.00  0.00    -0.145 N  
BRANCH  23  24
HETATM   24  C   UNL     1      -8.012   8.325  64.586  1.00  0.00    -0.145 C  
HETATM   25  C   UNL     1      -7.629   7.370  63.465  1.00  0.00    -0.121 C  
ENDBRANCH  23  24
BRANCH  23  26
HETATM   26  C   UNL     1      -7.103  10.281  63.327  1.00  0.00    -0.099 C  
HETATM   27  C   UNL     1      -5.785  10.348  64.089  1.00  0.00    -0.133 C  
ENDBRANCH  23  26
ENDBRANCH  21  23
ENDBRANCH  19  21
ENDBRANCH  15  19
TORSDOF 5
ENDMDL
MODEL       70
REMARK 921   NORMALIZED FREE ENERGY PREDICTED BY IDOCK:   -5.00 KCAL/MOL
REMARK 922        TOTAL FREE ENERGY PREDICTED BY IDOCK:   -6.95 KCAL/MOL
REMARK 923 INTER-LIGAND FREE ENERGY PREDICTED BY IDOCK:   -6.58 KCAL/MOL
REMARK 924 INTRA-LIGAND FREE ENERGY PREDICTED BY IDOCK:   -0.37 KCAL/MOL
REMARK 927      BINDING AFFINITY PREDICTED BY RF-SCORE:    0.00 PKD
ROOT
HETATM    1  C   UNL     1     -11.647   8.522  70.670  1.00  0.00    -0.194 C  
HETATM    2  C   UNL     1     -11.896   7.009  70.771  1.00  0.00    -0.401 C  
HETATM    3  C   UNL     1     -10.719   6.313  70.227  1.00  0.00    -0.339 A  
HETATM    4  C   UNL     1     -10.496   5.151  69.527  1.00  0.00    -0.163 A  
HETATM    5  N   UNL     1      -9.145   4.891  69.605  1.00  0.00    -0.102 NA 
HETATM    6  C   UNL     1      -8.522   5.864  70.372  1.00  0.00    -0.131 A  
HETATM    7  H   UNL     1      -8.674   4.102  69.163  1.00  0.00     0.000 HD 
HETATM    8  C   UNL     1      -7.278   5.940  70.979  1.00  0.00    -0.074 A  
HETATM    9  C   UNL     1      -7.039   7.119  71.705  1.00  0.00    -0.068 A  
HETATM   10  C   UNL     1      -7.907   8.243  71.660  1.00  0.00    -0.139 A  
HETATM   11  C   UNL     1      -9.124   8.172  70.972  1.00  0.00    -0.176 A  
HETATM   12  C   UNL     1      -9.443   6.880  70.481  1.00  0.00    -0.169 A  
HETATM   13  C   UNL     1     -10.217   9.156  70.678  1.00  0.00    -0.306 C  
HETATM   14  C   UNL     1     -10.201  10.450  70.194  1.00  0.00    -0.050 C  
HETATM   15  C   UNL     1     -11.573  10.909  69.592  1.00  0.00    -0.322 C  
HETATM   16  N   UNL     1     -12.441   9.480  71.426  1.00  0.00    -0.341 NA 
HETATM   17  C   UNL     1     -12.786  10.608  70.573  1.00  0.00    -0.313 C  
HETATM   18  C   UNL     1     -13.232   9.103  72.559  1.00  0.00    -0.397 C  
ENDROOT
BRANCH  15  19
HETATM   19  N   UNL     1     -11.745  12.144  68.832  1.00  0.00    -0.311 N  
HETATM   20  H   UNL     1     -11.973  13.041  69.260  1.00  0.00     0.000 HD 
BRANCH  19  21
HETATM   21  C   UNL     1     -11.564  11.969  67.452  1.00  0.00    -0.318 C  
HETATM   22  O   UNL     1     -11.085  10.931  66.989  1.00  0.00    -0.272 OA 
BRANCH  21  23
HETATM   23  N   UNL     1     -11.948  12.985  66.602  1.00  0.00    -0.403 N  
BRANCH  23  24
HETATM   24  C   UNL     1     -11.889  14.413  66.886  1.00  0.00    -0.410 C  
HETATM   25  C   UNL     1     -10.458  14.893  67.068  1.00  0.00    -0.272 C  
ENDBRANCH  23  24
BRANCH  23  26
HETATM   26  C   UNL     1     -12.381  12.594  65.247  1.00  0.00    -0.466 C  
HETATM   27  C   UNL     1     -11.367  12.915  64.156  1.00  0.00    -0.442 C  
ENDBRANCH  23  26
ENDBRANCH  21  23
ENDBRANCH  19  21
ENDBRANCH  15  19
TORSDOF 5
ENDMDL
MODEL       71
REMARK 921   NORMALIZED FREE ENERGY PREDICTED BY IDOCK:   -4.97 KCAL/MOL
REMARK 922        TOTAL FREE ENERGY PREDICTED BY IDOCK:   -6.90 KCAL/MOL
REMARK 923 INTER-LIGAND FREE ENERGY PREDICTED BY IDOCK:   -6.28 KCAL/MOL
REMARK 924 INTRA-LIGAND FREE ENERGY PREDICTED BY IDOCK:   -0.62 KCAL/MOL
REMARK 927      BINDING AFFINITY PREDICTED BY RF-SCORE:    0.00 PKD
ROOT
HETATM    1  C   UNL     1     -10.523   8.847  68.817  1.00  0.00    -0.200 C  
HETATM    2  C   UNL     1     -10.620   7.314  68.801  1.00  0.00    -0.202 C  
HETATM    3  C   UNL     1     -10.242   6.844  67.459  1.00  0.00    -0.249 A  
HETATM    4  C   UNL     1     -10.619   5.812  66.632  1.00  0.00    -0.280 A  
HETATM    5  N   UNL     1      -9.661   5.719  65.647  1.00  0.00    -0.364 NA 
HETATM    6  C   UNL     1      -8.670   6.665  65.864  1.00  0.00    -0.137 A  
HETATM    7  H   UNL     1      -9.679   5.055  64.874  1.00  0.00     0.000 HD 
HETATM    8  C   UNL     1      -7.388   6.826  65.362  1.00  0.00    -0.080 A  
HETATM    9  C   UNL     1      -6.683   7.931  65.869  1.00  0.00    -0.049 A  
HETATM   10  C   UNL     1      -7.291   8.932  66.673  1.00  0.00    -0.085 A  
HETATM   11  C   UNL     1      -8.616   8.789  67.102  1.00  0.00    -0.119 A  
HETATM   12  C   UNL     1      -9.200   7.535  66.788  1.00  0.00    -0.192 A  
HETATM   13  C   UNL     1      -9.561   9.654  67.883  1.00  0.00    -0.159 C  
HETATM   14  C   UNL     1      -9.906  10.988  67.779  1.00  0.00    -0.190 C  
HETATM   15  C   UNL     1     -11.268  11.336  68.472  1.00  0.00    -0.252 C  
HETATM   16  N   UNL     1     -10.487   9.600  70.063  1.00  0.00    -0.240 NA 
HETATM   17  C   UNL     1     -11.348  10.768  69.952  1.00  0.00    -0.311 C  
HETATM   18  C   UNL     1     -10.172   8.993  71.321  1.00  0.00    -0.314 C  
ENDROOT
BRANCH  15  19
HETATM   19  N   UNL     1     -11.945  12.621  68.314  1.00  0.00    -0.290 N  
HETATM   20  H   UNL     1     -12.470  13.075  69.061  1.00  0.00     0.000 HD 
BRANCH  19  21
HETATM   21  C   UNL     1     -11.798  13.165  67.030  1.00  0.00    -0.379 C  
HETATM   22  O   UNL     1     -12.396  12.699  66.058  1.00  0.00    -0.587 OA 
BRANCH  21  23
HETATM   23  N   UNL     1     -10.973  14.258  66.867  1.00  0.00    -0.299 N  
BRANCH  23  24
HETATM   24  C   UNL     1     -10.222  14.597  65.666  1.00  0.00    -0.359 C  
HETATM   25  C   UNL     1     -10.900  15.702  64.870  1.00  0.00    -0.438 C  
ENDBRANCH  23  24
BRANCH  23  26
HETATM   26  C   UNL     1     -10.910  15.220  67.984  1.00  0.00    -0.288 C  
HETATM   27  C   UNL     1      -9.576  15.229  68.720  1.00  0.00    -0.214 C  
ENDBRANCH  23  26
ENDBRANCH  21  23
ENDBRANCH  19  21
ENDBRANCH  15  19
TORSDOF 5
ENDMDL
MODEL       72
REMARK 921   NORMALIZED FREE ENERGY PREDICTED BY IDOCK:   -4.96 KCAL/MOL
REMARK 922        TOTAL FREE ENERGY PREDICTED BY IDOCK:   -6.90 KCAL/MOL
REMARK 923 INTER-LIGAND FREE ENERGY PREDICTED BY IDOCK:   -6.34 KCAL/MOL
REMARK 924 INTRA-LIGAND FREE ENERGY PREDICTED BY IDOCK:   -0.56 KCAL/MOL
REMARK 927      BINDING AFFINITY PREDICTED BY RF-SCORE:    0.00 PKD
ROOT
HETATM    1  C   UNL     1      -9.945  10.625  67.611  1.00  0.00    -0.169 C  
HETATM    2  C   UNL     1     -10.131   9.111  67.796  1.00  0.00    -0.253 C  
HETATM    3  C   UNL     1     -10.230   8.833  69.237  1.00  0.00    -0.215 A  
HETATM    4  C   UNL     1      -9.849   7.810  70.073  1.00  0.00    -0.181 A  
HETATM    5  N   UNL     1     -10.520   7.994  71.262  1.00  0.00    -0.199 NA 
HETATM    6  C   UNL     1     -11.342   9.107  71.170  1.00  0.00    -0.322 A  
HETATM    7  H   UNL     1     -10.426   7.401  72.086  1.00  0.00     0.000 HD 
HETATM    8  C   UNL     1     -12.399   9.570  71.938  1.00  0.00    -0.450 A  
HETATM    9  C   UNL     1     -12.996  10.757  71.478  1.00  0.00    -0.562 A  
HETATM   10  C   UNL     1     -12.443  11.545  70.434  1.00  0.00    -0.324 A  
HETATM   11  C   UNL     1     -11.323  11.096  69.723  1.00  0.00    -0.354 A  
HETATM   12  C   UNL     1     -10.918   9.775  70.045  1.00  0.00    -0.319 A  
HETATM   13  C   UNL     1     -10.469  11.682  68.638  1.00  0.00    -0.234 C  
HETATM   14  C   UNL     1      -9.870  12.918  68.489  1.00  0.00    -0.147 C  
HETATM   15  C   UNL     1      -8.692  12.921  67.455  1.00  0.00    -0.197 C  
HETATM   16  N   UNL     1     -10.163  11.272  66.325  1.00  0.00    -0.229 NA 
HETATM   17  C   UNL     1      -9.103  12.239  66.081  1.00  0.00    -0.074 C  
HETATM   18  C   UNL     1     -10.898  10.652  65.265  1.00  0.00     0.090 C  
ENDROOT
BRANCH  15  19
HETATM   19  N   UNL     1      -7.774  14.044  67.285  1.00  0.00    -0.332 N  
HETATM   20  H   UNL     1      -6.986  14.033  66.637  1.00  0.00     0.000 HD 
BRANCH  19  21
HETATM   21  C   UNL     1      -8.086  15.138  68.103  1.00  0.00    -0.137 C  
HETATM   22  O   UNL     1      -7.640  15.237  69.250  1.00  0.00    -0.179 OA 
BRANCH  21  23
HETATM   23  N   UNL     1      -8.902  16.129  67.598  1.00  0.00    -0.185 N  
BRANCH  23  24
HETATM   24  C   UNL     1      -9.520  17.206  68.360  1.00  0.00    -0.276 C  
HETATM   25  C   UNL     1     -10.657  16.697  69.234  1.00  0.00    -0.343 C  
ENDBRANCH  23  24
BRANCH  23  26
HETATM   26  C   UNL     1      -9.098  16.152  66.136  1.00  0.00    -0.347 C  
HETATM   27  C   UNL     1     -10.444  15.601  65.683  1.00  0.00    -0.402 C  
ENDBRANCH  23  26
ENDBRANCH  21  23
ENDBRANCH  19  21
ENDBRANCH  15  19
TORSDOF 5
ENDMDL
MODEL       73
REMARK 921   NORMALIZED FREE ENERGY PREDICTED BY IDOCK:   -4.96 KCAL/MOL
REMARK 922        TOTAL FREE ENERGY PREDICTED BY IDOCK:   -6.89 KCAL/MOL
REMARK 923 INTER-LIGAND FREE ENERGY PREDICTED BY IDOCK:   -6.37 KCAL/MOL
REMARK 924 INTRA-LIGAND FREE ENERGY PREDICTED BY IDOCK:   -0.52 KCAL/MOL
REMARK 927      BINDING AFFINITY PREDICTED BY RF-SCORE:    0.00 PKD
ROOT
HETATM    1  C   UNL     1      -8.357  10.058  68.333  1.00  0.00    -0.111 C  
HETATM    2  C   UNL     1      -8.040   9.599  69.764  1.00  0.00    -0.160 C  
HETATM    3  C   UNL     1      -9.260   9.013  70.339  1.00  0.00    -0.243 A  
HETATM    4  C   UNL     1      -9.833   8.954  71.588  1.00  0.00    -0.317 A  
HETATM    5  N   UNL     1     -10.804   7.979  71.536  1.00  0.00    -0.228 NA 
HETATM    6  C   UNL     1     -10.827   7.403  70.274  1.00  0.00    -0.245 A  
HETATM    7  H   UNL     1     -11.416   7.719  72.310  1.00  0.00     0.000 HD 
HETATM    8  C   UNL     1     -11.390   6.240  69.773  1.00  0.00    -0.506 A  
HETATM    9  C   UNL     1     -11.154   6.003  68.408  1.00  0.00    -0.271 A  
HETATM   10  C   UNL     1     -10.567   6.968  67.547  1.00  0.00    -0.351 A  
HETATM   11  C   UNL     1     -10.076   8.174  68.063  1.00  0.00    -0.241 A  
HETATM   12  C   UNL     1     -10.095   8.254  69.479  1.00  0.00    -0.197 A  
HETATM   13  C   UNL     1      -9.471   9.402  67.451  1.00  0.00    -0.163 C  
HETATM   14  C   UNL     1      -9.850  10.196  66.385  1.00  0.00    -0.279 C  
HETATM   15  C   UNL     1      -9.207  11.625  66.411  1.00  0.00    -0.212 C  
HETATM   16  N   UNL     1      -7.304  10.355  67.372  1.00  0.00    -0.092 NA 
HETATM   17  C   UNL     1      -7.637  11.570  66.644  1.00  0.00    -0.088 C  
HETATM   18  C   UNL     1      -5.955   9.906  67.544  1.00  0.00    -0.054 C  
ENDROOT
BRANCH  15  19
HETATM   19  N   UNL     1      -9.617  12.708  65.521  1.00  0.00    -0.454 N  
HETATM   20  H   UNL     1      -9.021  13.086  64.785  1.00  0.00     0.000 HD 
BRANCH  19  21
HETATM   21  C   UNL     1     -10.913  13.172  65.781  1.00  0.00    -0.277 C  
HETATM   22  O   UNL     1     -11.414  13.097  66.906  1.00  0.00    -0.309 OA 
BRANCH  21  23
HETATM   23  N   UNL     1     -11.632  13.739  64.749  1.00  0.00    -0.347 N  
BRANCH  23  24
HETATM   24  C   UNL     1     -11.899  13.130  63.452  1.00  0.00    -0.427 C  
HETATM   25  C   UNL     1     -12.481  11.732  63.594  1.00  0.00    -0.482 C  
ENDBRANCH  23  24
BRANCH  23  26
HETATM   26  C   UNL     1     -12.260  15.048  65.011  1.00  0.00    -0.080 C  
HETATM   27  C   UNL     1     -11.381  16.240  64.655  1.00  0.00    -0.237 C  
ENDBRANCH  23  26
ENDBRANCH  21  23
ENDBRANCH  19  21
ENDBRANCH  15  19
TORSDOF 5
ENDMDL
MODEL       74
REMARK 921   NORMALIZED FREE ENERGY PREDICTED BY IDOCK:   -4.96 KCAL/MOL
REMARK 922        TOTAL FREE ENERGY PREDICTED BY IDOCK:   -6.89 KCAL/MOL
REMARK 923 INTER-LIGAND FREE ENERGY PREDICTED BY IDOCK:   -6.29 KCAL/MOL
REMARK 924 INTRA-LIGAND FREE ENERGY PREDICTED BY IDOCK:   -0.60 KCAL/MOL
REMARK 927      BINDING AFFINITY PREDICTED BY RF-SCORE:    0.00 PKD
ROOT
HETATM    1  C   UNL     1     -10.523   8.842  68.569  1.00  0.00    -0.182 C  
HETATM    2  C   UNL     1     -10.575   7.311  68.682  1.00  0.00    -0.194 C  
HETATM    3  C   UNL     1     -10.264   6.743  67.361  1.00  0.00    -0.254 A  
HETATM    4  C   UNL     1     -10.659   5.638  66.644  1.00  0.00    -0.295 A  
HETATM    5  N   UNL     1      -9.760   5.489  65.612  1.00  0.00    -0.366 NA 
HETATM    6  C   UNL     1      -8.786   6.474  65.690  1.00  0.00    -0.091 A  
HETATM    7  H   UNL     1      -9.804   4.764  64.896  1.00  0.00     0.000 HD 
HETATM    8  C   UNL     1      -7.542   6.625  65.099  1.00  0.00    -0.090 A  
HETATM    9  C   UNL     1      -6.841   7.785  65.471  1.00  0.00    -0.052 A  
HETATM   10  C   UNL     1      -7.429   8.833  66.229  1.00  0.00    -0.087 A  
HETATM   11  C   UNL     1      -8.721   8.692  66.750  1.00  0.00    -0.135 A  
HETATM   12  C   UNL     1      -9.285   7.402  66.573  1.00  0.00    -0.206 A  
HETATM   13  C   UNL     1      -9.643   9.594  67.516  1.00  0.00    -0.180 C  
HETATM   14  C   UNL     1     -10.033  10.906  67.328  1.00  0.00    -0.216 C  
HETATM   15  C   UNL     1     -11.361  11.276  68.074  1.00  0.00    -0.304 C  
HETATM   16  N   UNL     1     -10.434   9.695  69.747  1.00  0.00    -0.221 NA 
HETATM   17  C   UNL     1     -11.335  10.828  69.597  1.00  0.00    -0.294 C  
HETATM   18  C   UNL     1     -10.026   9.200  71.027  1.00  0.00    -0.297 C  
ENDROOT
BRANCH  15  19
HETATM   19  N   UNL     1     -12.084  12.526  67.857  1.00  0.00    -0.205 N  
HETATM   20  H   UNL     1     -13.096  12.613  67.947  1.00  0.00     0.000 HD 
BRANCH  19  21
HETATM   21  C   UNL     1     -11.244  13.593  67.511  1.00  0.00    -0.294 C  
HETATM   22  O   UNL     1     -10.504  14.130  68.340  1.00  0.00    -0.240 OA 
BRANCH  21  23
HETATM   23  N   UNL     1     -11.243  14.037  66.204  1.00  0.00    -0.313 N  
BRANCH  23  24
HETATM   24  C   UNL     1     -10.145  14.711  65.526  1.00  0.00    -0.377 C  
HETATM   25  C   UNL     1     -10.290  16.224  65.584  1.00  0.00    -0.385 C  
ENDBRANCH  23  24
BRANCH  23  26
HETATM   26  C   UNL     1     -12.434  13.723  65.392  1.00  0.00    -0.500 C  
HETATM   27  C   UNL     1     -12.114  13.228  63.987  1.00  0.00    -0.508 C  
ENDBRANCH  23  26
ENDBRANCH  21  23
ENDBRANCH  19  21
ENDBRANCH  15  19
TORSDOF 5
ENDMDL
MODEL       75
REMARK 921   NORMALIZED FREE ENERGY PREDICTED BY IDOCK:   -4.95 KCAL/MOL
REMARK 922        TOTAL FREE ENERGY PREDICTED BY IDOCK:   -6.88 KCAL/MOL
REMARK 923 INTER-LIGAND FREE ENERGY PREDICTED BY IDOCK:   -5.92 KCAL/MOL
REMARK 924 INTRA-LIGAND FREE ENERGY PREDICTED BY IDOCK:   -0.95 KCAL/MOL
REMARK 927      BINDING AFFINITY PREDICTED BY RF-SCORE:    0.00 PKD
ROOT
HETATM    1  C   UNL     1     -10.884   7.263  70.207  1.00  0.00    -0.245 C  
HETATM    2  C   UNL     1     -12.360   6.944  70.491  1.00  0.00    -0.177 C  
HETATM    3  C   UNL     1     -12.852   7.904  71.492  1.00  0.00    -0.340 A  
HETATM    4  C   UNL     1     -13.751   7.872  72.531  1.00  0.00     0.226 A  
HETATM    5  N   UNL     1     -14.011   9.179  72.876  1.00  0.00    -1.053 NA 
HETATM    6  C   UNL     1     -13.305  10.035  72.043  1.00  0.00    -0.409 A  
HETATM    7  H   UNL     1     -14.629   9.474  73.632  1.00  0.00     0.000 HD 
HETATM    8  C   UNL     1     -13.403  11.391  71.775  1.00  0.00    -0.368 A  
HETATM    9  C   UNL     1     -12.492  11.879  70.823  1.00  0.00    -0.384 A  
HETATM   10  C   UNL     1     -11.413  11.104  70.319  1.00  0.00    -0.329 A  
HETATM   11  C   UNL     1     -11.286   9.754  70.667  1.00  0.00    -0.401 A  
HETATM   12  C   UNL     1     -12.376   9.239  71.415  1.00  0.00    -0.421 A  
HETATM   13  C   UNL     1     -10.269   8.691  70.377  1.00  0.00    -0.218 C  
HETATM   14  C   UNL     1      -8.889   8.676  70.453  1.00  0.00    -0.170 C  
HETATM   15  C   UNL     1      -8.283   7.232  70.528  1.00  0.00    -0.124 C  
HETATM   16  N   UNL     1     -10.201   6.743  69.031  1.00  0.00    -0.170 NA 
HETATM   17  C   UNL     1      -8.873   6.278  69.405  1.00  0.00    -0.127 C  
HETATM   18  C   UNL     1     -10.904   6.229  67.895  1.00  0.00    -0.333 C  
ENDROOT
BRANCH  15  19
HETATM   19  N   UNL     1      -6.879   6.964  70.829  1.00  0.00    -0.057 N  
HETATM   20  H   UNL     1      -6.176   6.782  70.113  1.00  0.00     0.000 HD 
BRANCH  19  21
HETATM   21  C   UNL     1      -6.598   6.982  72.202  1.00  0.00    -0.056 C  
HETATM   22  O   UNL     1      -5.609   7.566  72.653  1.00  0.00    -0.037 OA 
BRANCH  21  23
HETATM   23  N   UNL     1      -7.464   6.338  73.062  1.00  0.00    -0.095 N  
BRANCH  23  24
HETATM   24  C   UNL     1      -7.671   4.899  73.157  1.00  0.00    -0.093 C  
HETATM   25  C   UNL     1      -7.127   4.336  74.461  1.00  0.00    -0.070 C  
ENDBRANCH  23  24
BRANCH  23  26
HETATM   26  C   UNL     1      -8.188   7.180  74.034  1.00  0.00    -0.136 C  
HETATM   27  C   UNL     1      -9.701   7.169  73.859  1.00  0.00    -0.334 C  
ENDBRANCH  23  26
ENDBRANCH  21  23
ENDBRANCH  19  21
ENDBRANCH  15  19
TORSDOF 5
ENDMDL
MODEL       76
REMARK 921   NORMALIZED FREE ENERGY PREDICTED BY IDOCK:   -4.87 KCAL/MOL
REMARK 922        TOTAL FREE ENERGY PREDICTED BY IDOCK:   -6.77 KCAL/MOL
REMARK 923 INTER-LIGAND FREE ENERGY PREDICTED BY IDOCK:   -6.11 KCAL/MOL
REMARK 924 INTRA-LIGAND FREE ENERGY PREDICTED BY IDOCK:   -0.66 KCAL/MOL
REMARK 927      BINDING AFFINITY PREDICTED BY RF-SCORE:    0.00 PKD
ROOT
HETATM    1  C   UNL     1      -8.261   9.481  68.688  1.00  0.00    -0.112 C  
HETATM    2  C   UNL     1      -7.526   8.439  69.546  1.00  0.00    -0.088 C  
HETATM    3  C   UNL     1      -7.992   8.578  70.934  1.00  0.00    -0.120 A  
HETATM    4  C   UNL     1      -7.433   8.433  72.182  1.00  0.00    -0.112 A  
HETATM    5  N   UNL     1      -8.474   8.378  73.082  1.00  0.00    -0.362 NA 
HETATM    6  C   UNL     1      -9.684   8.458  72.409  1.00  0.00    -0.306 A  
HETATM    7  H   UNL     1      -8.370   8.293  74.093  1.00  0.00     0.000 HD 
HETATM    8  C   UNL     1     -10.992   8.186  72.776  1.00  0.00    -0.401 A  
HETATM    9  C   UNL     1     -11.948   8.378  71.763  1.00  0.00    -0.380 A  
HETATM   10  C   UNL     1     -11.645   8.999  70.522  1.00  0.00    -0.209 A  
HETATM   11  C   UNL     1     -10.324   9.341  70.204  1.00  0.00    -0.258 A  
HETATM   12  C   UNL     1      -9.362   8.887  71.142  1.00  0.00    -0.326 A  
HETATM   13  C   UNL     1      -9.676  10.042  69.048  1.00  0.00    -0.204 C  
HETATM   14  C   UNL     1      -9.972  11.219  68.387  1.00  0.00    -0.201 C  
HETATM   15  C   UNL     1      -8.763  11.801  67.576  1.00  0.00    -0.159 C  
HETATM   16  N   UNL     1      -8.299   9.387  67.235  1.00  0.00    -0.124 NA 
HETATM   17  C   UNL     1      -8.077  10.703  66.655  1.00  0.00    -0.136 C  
HETATM   18  C   UNL     1      -7.996   8.176  66.532  1.00  0.00    -0.101 C  
ENDROOT
BRANCH  15  19
HETATM   19  N   UNL     1      -8.763  13.133  66.977  1.00  0.00    -0.290 N  
HETATM   20  H   UNL     1      -7.951  13.749  66.976  1.00  0.00     0.000 HD 
BRANCH  19  21
HETATM   21  C   UNL     1      -9.996  13.477  66.404  1.00  0.00    -0.295 C  
HETATM   22  O   UNL     1     -10.391  12.955  65.358  1.00  0.00    -0.288 OA 
BRANCH  21  23
HETATM   23  N   UNL     1     -10.782  14.413  67.042  1.00  0.00    -0.282 N  
BRANCH  23  24
HETATM   24  C   UNL     1     -12.028  14.150  67.750  1.00  0.00    -0.354 C  
HETATM   25  C   UNL     1     -11.891  14.400  69.244  1.00  0.00    -0.365 C  
ENDBRANCH  23  24
BRANCH  23  26
HETATM   26  C   UNL     1     -10.272  15.797  67.085  1.00  0.00    -0.279 C  
HETATM   27  C   UNL     1     -10.376  16.537  65.757  1.00  0.00    -0.359 C  
ENDBRANCH  23  26
ENDBRANCH  21  23
ENDBRANCH  19  21
ENDBRANCH  15  19
TORSDOF 5
ENDMDL
MODEL       77
REMARK 921   NORMALIZED FREE ENERGY PREDICTED BY IDOCK:   -4.85 KCAL/MOL
REMARK 922        TOTAL FREE ENERGY PREDICTED BY IDOCK:   -6.76 KCAL/MOL
REMARK 923 INTER-LIGAND FREE ENERGY PREDICTED BY IDOCK:   -5.93 KCAL/MOL
REMARK 924 INTRA-LIGAND FREE ENERGY PREDICTED BY IDOCK:   -0.82 KCAL/MOL
REMARK 927      BINDING AFFINITY PREDICTED BY RF-SCORE:    0.00 PKD
ROOT
HETATM    1  C   UNL     1      -9.240   7.718  70.392  1.00  0.00    -0.156 C  
HETATM    2  C   UNL     1      -8.879   9.209  70.311  1.00  0.00    -0.238 C  
HETATM    3  C   UNL     1     -10.100   9.959  69.978  1.00  0.00    -0.308 A  
HETATM    4  C   UNL     1     -10.398  11.086  69.249  1.00  0.00    -0.154 A  
HETATM    5  N   UNL     1     -11.679  11.458  69.594  1.00  0.00    -0.314 NA 
HETATM    6  C   UNL     1     -12.177  10.592  70.556  1.00  0.00    -0.358 A  
HETATM    7  H   UNL     1     -12.184  12.251  69.200  1.00  0.00     0.000 HD 
HETATM    8  C   UNL     1     -13.259  10.658  71.420  1.00  0.00    -0.420 A  
HETATM    9  C   UNL     1     -13.406   9.552  72.276  1.00  0.00    -0.526 A  
HETATM   10  C   UNL     1     -12.643   8.362  72.139  1.00  0.00    -0.412 A  
HETATM   11  C   UNL     1     -11.606   8.289  71.201  1.00  0.00    -0.310 A  
HETATM   12  C   UNL     1     -11.322   9.515  70.547  1.00  0.00    -0.343 A  
HETATM   13  C   UNL     1     -10.670   7.203  70.761  1.00  0.00    -0.251 C  
HETATM   14  C   UNL     1     -10.875   5.885  70.401  1.00  0.00    -0.378 C  
HETATM   15  C   UNL     1      -9.702   5.277  69.558  1.00  0.00    -0.178 C  
HETATM   16  N   UNL     1      -8.361   6.752  71.036  1.00  0.00    -0.126 NA 
HETATM   17  C   UNL     1      -8.286   5.546  70.225  1.00  0.00    -0.103 C  
HETATM   18  C   UNL     1      -7.317   7.139  71.937  1.00  0.00    -0.081 C  
ENDROOT
BRANCH  15  19
HETATM   19  N   UNL     1      -9.782   3.985  68.883  1.00  0.00    -0.134 N  
HETATM   20  H   UNL     1     -10.262   3.174  69.275  1.00  0.00     0.000 HD 
BRANCH  19  21
HETATM   21  C   UNL     1      -9.130   3.971  67.642  1.00  0.00    -0.145 C  
HETATM   22  O   UNL     1      -8.346   3.071  67.332  1.00  0.00    -0.081 OA 
BRANCH  21  23
HETATM   23  N   UNL     1      -9.392   4.989  66.748  1.00  0.00    -0.129 N  
BRANCH  23  24
HETATM   24  C   UNL     1      -8.508   6.101  66.427  1.00  0.00    -0.123 C  
HETATM   25  C   UNL     1      -9.185   7.444  66.653  1.00  0.00    -0.196 C  
ENDBRANCH  23  24
BRANCH  23  26
HETATM   26  C   UNL     1     -10.650   4.897  65.982  1.00  0.00    -0.261 C  
HETATM   27  C   UNL     1     -10.536   4.087  64.697  1.00  0.00    -0.208 C  
ENDBRANCH  23  26
ENDBRANCH  21  23
ENDBRANCH  19  21
ENDBRANCH  15  19
TORSDOF 5
ENDMDL
MODEL       78
REMARK 921   NORMALIZED FREE ENERGY PREDICTED BY IDOCK:   -4.85 KCAL/MOL
REMARK 922        TOTAL FREE ENERGY PREDICTED BY IDOCK:   -6.74 KCAL/MOL
REMARK 923 INTER-LIGAND FREE ENERGY PREDICTED BY IDOCK:   -6.01 KCAL/MOL
REMARK 924 INTRA-LIGAND FREE ENERGY PREDICTED BY IDOCK:   -0.74 KCAL/MOL
REMARK 927      BINDING AFFINITY PREDICTED BY RF-SCORE:    0.00 PKD
ROOT
HETATM    1  C   UNL     1     -10.708  11.974  68.123  1.00  0.00    -0.216 C  
HETATM    2  C   UNL     1     -11.379  13.354  68.205  1.00  0.00    -0.330 C  
HETATM    3  C   UNL     1     -11.159  14.047  66.926  1.00  0.00    -0.310 A  
HETATM    4  C   UNL     1     -10.962  15.349  66.531  1.00  0.00    -0.271 A  
HETATM    5  N   UNL     1     -11.151  15.386  65.168  1.00  0.00    -0.393 NA 
HETATM    6  C   UNL     1     -11.494  14.124  64.706  1.00  0.00    -0.383 A  
HETATM    7  H   UNL     1     -11.052  16.217  64.585  1.00  0.00     0.000 HD 
HETATM    8  C   UNL     1     -12.041  13.666  63.518  1.00  0.00    -0.341 A  
HETATM    9  C   UNL     1     -12.261  12.279  63.457  1.00  0.00    -0.669 A  
HETATM   10  C   UNL     1     -11.777  11.377  64.442  1.00  0.00     0.002 A  
HETATM   11  C   UNL     1     -11.154  11.858  65.600  1.00  0.00    -0.362 A  
HETATM   12  C   UNL     1     -11.192  13.269  65.740  1.00  0.00    -0.313 A  
HETATM   13  C   UNL     1     -10.490  11.207  66.776  1.00  0.00    -0.297 C  
HETATM   14  C   UNL     1      -9.546  10.203  66.877  1.00  0.00    -0.219 C  
HETATM   15  C   UNL     1      -8.796  10.185  68.253  1.00  0.00    -0.124 C  
HETATM   16  N   UNL     1     -11.027  10.910  69.065  1.00  0.00    -0.217 NA 
HETATM   17  C   UNL     1      -9.802  10.244  69.481  1.00  0.00    -0.220 C  
HETATM   18  C   UNL     1     -12.207  10.926  69.875  1.00  0.00    -0.336 C  
ENDROOT
BRANCH  15  19
HETATM   19  N   UNL     1      -7.618   9.365  68.516  1.00  0.00    -0.081 N  
HETATM   20  H   UNL     1      -6.800   9.701  69.025  1.00  0.00     0.000 HD 
BRANCH  19  21
HETATM   21  C   UNL     1      -7.725   8.067  67.997  1.00  0.00    -0.118 C  
HETATM   22  O   UNL     1      -7.374   7.800  66.845  1.00  0.00    -0.086 OA 
BRANCH  21  23
HETATM   23  N   UNL     1      -8.223   7.070  68.810  1.00  0.00    -0.121 N  
BRANCH  23  24
HETATM   24  C   UNL     1      -9.271   6.120  68.462  1.00  0.00    -0.115 C  
HETATM   25  C   UNL     1     -10.616   6.806  68.277  1.00  0.00    -0.276 C  
ENDBRANCH  23  24
BRANCH  23  26
HETATM   26  C   UNL     1      -7.575   6.894  70.124  1.00  0.00    -0.099 C  
HETATM   27  C   UNL     1      -8.479   7.214  71.308  1.00  0.00    -0.113 C  
ENDBRANCH  23  26
ENDBRANCH  21  23
ENDBRANCH  19  21
ENDBRANCH  15  19
TORSDOF 5
ENDMDL
MODEL       79
REMARK 921   NORMALIZED FREE ENERGY PREDICTED BY IDOCK:   -4.83 KCAL/MOL
REMARK 922        TOTAL FREE ENERGY PREDICTED BY IDOCK:   -6.72 KCAL/MOL
REMARK 923 INTER-LIGAND FREE ENERGY PREDICTED BY IDOCK:   -6.21 KCAL/MOL
REMARK 924 INTRA-LIGAND FREE ENERGY PREDICTED BY IDOCK:   -0.52 KCAL/MOL
REMARK 927      BINDING AFFINITY PREDICTED BY RF-SCORE:    0.00 PKD
ROOT
HETATM    1  C   UNL     1      -8.602  12.038  68.089  1.00  0.00    -0.173 C  
HETATM    2  C   UNL     1      -8.204  11.176  69.297  1.00  0.00     0.075 C  
HETATM    3  C   UNL     1      -9.211  10.114  69.454  1.00  0.00    -0.229 A  
HETATM    4  C   UNL     1      -9.777   9.439  70.509  1.00  0.00    -0.271 A  
HETATM    5  N   UNL     1     -10.411   8.335  69.984  1.00  0.00    -0.226 NA 
HETATM    6  C   UNL     1     -10.224   8.294  68.610  1.00  0.00    -0.204 A  
HETATM    7  H   UNL     1     -10.940   7.651  70.524  1.00  0.00     0.000 HD 
HETATM    8  C   UNL     1     -10.400   7.302  67.659  1.00  0.00    -0.290 A  
HETATM    9  C   UNL     1     -10.063   7.669  66.344  1.00  0.00    -0.097 A  
HETATM   10  C   UNL     1      -9.765   9.005  65.968  1.00  0.00    -0.339 A  
HETATM   11  C   UNL     1      -9.672  10.011  66.938  1.00  0.00    -0.237 A  
HETATM   12  C   UNL     1      -9.756   9.544  68.274  1.00  0.00    -0.163 A  
HETATM   13  C   UNL     1      -9.443  11.492  66.888  1.00  0.00    -0.194 C  
HETATM   14  C   UNL     1     -10.009  12.498  66.128  1.00  0.00    -0.267 C  
HETATM   15  C   UNL     1      -9.823  13.927  66.744  1.00  0.00    -0.274 C  
HETATM   16  N   UNL     1      -7.657  12.943  67.450  1.00  0.00    -0.162 NA 
HETATM   17  C   UNL     1      -8.315  14.208  67.157  1.00  0.00    -0.169 C  
HETATM   18  C   UNL     1      -6.241  12.839  67.639  1.00  0.00    -0.153 C  
ENDROOT
BRANCH  15  19
HETATM   19  N   UNL     1     -10.510  15.115  66.243  1.00  0.00    -0.296 N  
HETATM   20  H   UNL     1     -10.717  15.270  65.257  1.00  0.00     0.000 HD 
BRANCH  19  21
HETATM   21  C   UNL     1     -10.854  16.019  67.258  1.00  0.00    -0.255 C  
HETATM   22  O   UNL     1     -11.542  15.677  68.223  1.00  0.00    -0.362 OA 
BRANCH  21  23
HETATM   23  N   UNL     1     -10.394  17.316  67.170  1.00  0.00    -0.322 N  
BRANCH  23  24
HETATM   24  C   UNL     1     -10.476  18.180  66.000  1.00  0.00    -0.335 C  
HETATM   25  C   UNL     1     -10.494  19.652  66.386  1.00  0.00    -0.618 C  
ENDBRANCH  23  24
BRANCH  23  26
HETATM   26  C   UNL     1      -9.843  17.914  68.402  1.00  0.00    -0.355 C  
HETATM   27  C   UNL     1      -8.346  17.699  68.579  1.00  0.00    -0.291 C  
ENDBRANCH  23  26
ENDBRANCH  21  23
ENDBRANCH  19  21
ENDBRANCH  15  19
TORSDOF 5
ENDMDL
MODEL       80
REMARK 921   NORMALIZED FREE ENERGY PREDICTED BY IDOCK:   -4.81 KCAL/MOL
REMARK 922        TOTAL FREE ENERGY PREDICTED BY IDOCK:   -6.70 KCAL/MOL
REMARK 923 INTER-LIGAND FREE ENERGY PREDICTED BY IDOCK:   -5.98 KCAL/MOL
REMARK 924 INTRA-LIGAND FREE ENERGY PREDICTED BY IDOCK:   -0.72 KCAL/MOL
REMARK 927      BINDING AFFINITY PREDICTED BY RF-SCORE:    0.00 PKD
ROOT
HETATM    1  C   UNL     1     -11.508   8.495  72.374  1.00  0.00    -0.349 C  
HETATM    2  C   UNL     1     -12.894   9.148  72.262  1.00  0.00    -0.472 C  
HETATM    3  C   UNL     1     -12.711  10.539  71.818  1.00  0.00    -0.508 A  
HETATM    4  C   UNL     1     -13.341  11.739  72.048  1.00  0.00    -0.312 A  
HETATM    5  N   UNL     1     -12.898  12.615  71.082  1.00  0.00    -0.287 NA 
HETATM    6  C   UNL     1     -12.016  11.967  70.229  1.00  0.00    -0.314 A  
HETATM    7  H   UNL     1     -13.175  13.593  71.006  1.00  0.00     0.000 HD 
HETATM    8  C   UNL     1     -11.508  12.279  68.978  1.00  0.00    -0.349 A  
HETATM    9  C   UNL     1     -10.639  11.318  68.431  1.00  0.00    -0.226 A  
HETATM   10  C   UNL     1     -10.146  10.212  69.172  1.00  0.00    -0.226 A  
HETATM   11  C   UNL     1     -10.615   9.961  70.468  1.00  0.00    -0.359 A  
HETATM   12  C   UNL     1     -11.683  10.800  70.875  1.00  0.00    -0.334 A  
HETATM   13  C   UNL     1     -10.276   8.952  71.524  1.00  0.00    -0.398 C  
HETATM   14  C   UNL     1      -9.073   8.516  72.046  1.00  0.00    -0.317 C  
HETATM   15  C   UNL     1      -9.212   7.825  73.446  1.00  0.00    -0.284 C  
HETATM   16  N   UNL     1     -11.346   7.049  72.445  1.00  0.00    -0.264 NA 
HETATM   17  C   UNL     1     -10.352   6.720  73.455  1.00  0.00    -0.316 C  
HETATM   18  C   UNL     1     -12.380   6.138  72.057  1.00  0.00    -0.054 C  
ENDROOT
BRANCH  15  19
HETATM   19  N   UNL     1      -8.071   7.479  74.289  1.00  0.00    -0.167 N  
HETATM   20  H   UNL     1      -8.076   7.566  75.305  1.00  0.00     0.000 HD 
BRANCH  19  21
HETATM   21  C   UNL     1      -6.968   7.016  73.558  1.00  0.00    -0.073 C  
HETATM   22  O   UNL     1      -6.010   7.748  73.298  1.00  0.00    -0.057 OA 
BRANCH  21  23
HETATM   23  N   UNL     1      -6.960   5.702  73.136  1.00  0.00    -0.079 N  
BRANCH  23  24
HETATM   24  C   UNL     1      -6.530   5.221  71.830  1.00  0.00    -0.039 C  
HETATM   25  C   UNL     1      -7.631   5.354  70.789  1.00  0.00    -0.088 C  
ENDBRANCH  23  24
BRANCH  23  26
HETATM   26  C   UNL     1      -7.344   4.680  74.128  1.00  0.00    -0.078 C  
HETATM   27  C   UNL     1      -6.772   3.296  73.845  1.00  0.00    -0.035 C  
ENDBRANCH  23  26
ENDBRANCH  21  23
ENDBRANCH  19  21
ENDBRANCH  15  19
TORSDOF 5
ENDMDL
MODEL       81
REMARK 921   NORMALIZED FREE ENERGY PREDICTED BY IDOCK:   -4.78 KCAL/MOL
REMARK 922        TOTAL FREE ENERGY PREDICTED BY IDOCK:   -6.66 KCAL/MOL
REMARK 923 INTER-LIGAND FREE ENERGY PREDICTED BY IDOCK:   -5.89 KCAL/MOL
REMARK 924 INTRA-LIGAND FREE ENERGY PREDICTED BY IDOCK:   -0.77 KCAL/MOL
REMARK 927      BINDING AFFINITY PREDICTED BY RF-SCORE:    0.00 PKD
ROOT
HETATM    1  C   UNL     1     -10.299  11.372  66.993  1.00  0.00    -0.223 C  
HETATM    2  C   UNL     1     -11.436  12.277  66.496  1.00  0.00    -0.438 C  
HETATM    3  C   UNL     1     -11.467  13.480  67.343  1.00  0.00    -0.366 A  
HETATM    4  C   UNL     1     -12.441  14.324  67.823  1.00  0.00     0.209 A  
HETATM    5  N   UNL     1     -11.801  15.452  68.284  1.00  0.00    -0.485 NA 
HETATM    6  C   UNL     1     -10.435  15.339  68.070  1.00  0.00    -0.248 A  
HETATM    7  H   UNL     1     -12.262  16.252  68.718  1.00  0.00     0.000 HD 
HETATM    8  C   UNL     1      -9.394  16.254  68.086  1.00  0.00    -0.210 A  
HETATM    9  C   UNL     1      -8.128  15.723  67.784  1.00  0.00    -0.156 A  
HETATM   10  C   UNL     1      -7.882  14.329  67.674  1.00  0.00    -0.191 A  
HETATM   11  C   UNL     1      -8.940  13.414  67.742  1.00  0.00    -0.205 A  
HETATM   12  C   UNL     1     -10.226  14.011  67.781  1.00  0.00    -0.240 A  
HETATM   13  C   UNL     1      -9.029  11.917  67.727  1.00  0.00    -0.173 C  
HETATM   14  C   UNL     1      -8.346  10.935  68.419  1.00  0.00    -0.136 C  
HETATM   15  C   UNL     1      -9.092   9.557  68.450  1.00  0.00    -0.127 C  
HETATM   16  N   UNL     1      -9.772  10.287  66.177  1.00  0.00    -0.199 NA 
HETATM   17  C   UNL     1      -9.574   9.106  67.005  1.00  0.00    -0.170 C  
HETATM   18  C   UNL     1      -9.992  10.207  64.765  1.00  0.00    -0.264 C  
ENDROOT
BRANCH  15  19
HETATM   19  N   UNL     1      -8.680   8.438  69.292  1.00  0.00    -0.137 N  
HETATM   20  H   UNL     1      -8.229   7.598  68.929  1.00  0.00     0.000 HD 
BRANCH  19  21
HETATM   21  C   UNL     1      -8.968   8.636  70.649  1.00  0.00    -0.171 C  
HETATM   22  O   UNL     1      -8.186   9.231  71.396  1.00  0.00    -0.330 OA 
BRANCH  21  23
HETATM   23  N   UNL     1     -10.163   8.162  71.147  1.00  0.00    -0.192 N  
BRANCH  23  24
HETATM   24  C   UNL     1     -10.600   6.772  71.156  1.00  0.00    -0.224 C  
HETATM   25  C   UNL     1     -11.693   6.517  70.129  1.00  0.00    -0.419 C  
ENDBRANCH  23  24
BRANCH  23  26
HETATM   26  C   UNL     1     -11.047   9.141  71.808  1.00  0.00    -0.367 C  
HETATM   27  C   UNL     1     -11.515  10.268  70.897  1.00  0.00    -0.425 C  
ENDBRANCH  23  26
ENDBRANCH  21  23
ENDBRANCH  19  21
ENDBRANCH  15  19
TORSDOF 5
ENDMDL
MODEL       82
REMARK 921   NORMALIZED FREE ENERGY PREDICTED BY IDOCK:   -4.77 KCAL/MOL
REMARK 922        TOTAL FREE ENERGY PREDICTED BY IDOCK:   -6.64 KCAL/MOL
REMARK 923 INTER-LIGAND FREE ENERGY PREDICTED BY IDOCK:   -6.38 KCAL/MOL
REMARK 924 INTRA-LIGAND FREE ENERGY PREDICTED BY IDOCK:   -0.26 KCAL/MOL
REMARK 927      BINDING AFFINITY PREDICTED BY RF-SCORE:    0.00 PKD
ROOT
HETATM    1  C   UNL     1      -8.677  17.964  68.022  1.00  0.00    -0.256 C  
HETATM    2  C   UNL     1      -8.473  19.088  69.049  1.00  0.00    -0.205 C  
HETATM    3  C   UNL     1      -7.105  19.607  68.894  1.00  0.00    -0.388 A  
HETATM    4  C   UNL     1      -6.142  20.118  69.732  1.00  0.00    -0.357 A  
HETATM    5  N   UNL     1      -5.203  20.733  68.935  1.00  0.00    -0.286 NA 
HETATM    6  C   UNL     1      -5.583  20.641  67.604  1.00  0.00    -0.222 A  
HETATM    7  H   UNL     1      -4.356  21.189  69.273  1.00  0.00     0.000 HD 
HETATM    8  C   UNL     1      -5.171  21.295  66.454  1.00  0.00    -0.271 A  
HETATM    9  C   UNL     1      -5.843  20.916  65.278  1.00  0.00    -0.273 A  
HETATM   10  C   UNL     1      -6.729  19.807  65.219  1.00  0.00    -0.317 A  
HETATM   11  C   UNL     1      -7.069  19.108  66.383  1.00  0.00    -0.240 A  
HETATM   12  C   UNL     1      -6.577  19.690  67.580  1.00  0.00    -0.235 A  
HETATM   13  C   UNL     1      -7.898  17.891  66.667  1.00  0.00    -0.272 C  
HETATM   14  C   UNL     1      -7.938  16.635  66.091  1.00  0.00    -0.237 C  
HETATM   15  C   UNL     1      -8.596  15.548  67.008  1.00  0.00    -0.233 C  
HETATM   16  N   UNL     1     -10.006  17.481  67.669  1.00  0.00    -0.297 NA 
HETATM   17  C   UNL     1      -9.992  16.028  67.596  1.00  0.00    -0.239 C  
HETATM   18  C   UNL     1     -11.196  18.226  67.949  1.00  0.00     0.379 C  
ENDROOT
BRANCH  15  19
HETATM   19  N   UNL     1      -8.560  14.118  66.714  1.00  0.00    -0.425 N  
HETATM   20  H   UNL     1      -7.794  13.506  66.995  1.00  0.00     0.000 HD 
BRANCH  19  21
HETATM   21  C   UNL     1      -9.685  13.674  66.006  1.00  0.00    -0.222 C  
HETATM   22  O   UNL     1     -10.081  14.254  64.991  1.00  0.00    -0.389 OA 
BRANCH  21  23
HETATM   23  N   UNL     1     -10.348  12.552  66.456  1.00  0.00    -0.234 N  
BRANCH  23  24
HETATM   24  C   UNL     1     -10.929  11.505  65.626  1.00  0.00    -0.236 C  
HETATM   25  C   UNL     1      -9.896  10.882  64.700  1.00  0.00    -0.350 C  
ENDBRANCH  23  24
BRANCH  23  26
HETATM   26  C   UNL     1     -10.402  12.349  67.917  1.00  0.00    -0.210 C  
HETATM   27  C   UNL     1     -11.813  12.191  68.469  1.00  0.00    -0.365 C  
ENDBRANCH  23  26
ENDBRANCH  21  23
ENDBRANCH  19  21
ENDBRANCH  15  19
TORSDOF 5
ENDMDL
MODEL       83
REMARK 921   NORMALIZED FREE ENERGY PREDICTED BY IDOCK:   -4.75 KCAL/MOL
REMARK 922        TOTAL FREE ENERGY PREDICTED BY IDOCK:   -6.62 KCAL/MOL
REMARK 923 INTER-LIGAND FREE ENERGY PREDICTED BY IDOCK:   -6.44 KCAL/MOL
REMARK 924 INTRA-LIGAND FREE ENERGY PREDICTED BY IDOCK:   -0.18 KCAL/MOL
REMARK 927      BINDING AFFINITY PREDICTED BY RF-SCORE:    0.00 PKD
ROOT
HETATM    1  C   UNL     1      -8.093  16.086  67.359  1.00  0.00    -0.164 C  
HETATM    2  C   UNL     1      -6.564  16.218  67.293  1.00  0.00    -0.228 C  
HETATM    3  C   UNL     1      -6.239  17.347  66.407  1.00  0.00    -0.258 A  
HETATM    4  C   UNL     1      -5.236  17.644  65.515  1.00  0.00     0.032 A  
HETATM    5  N   UNL     1      -5.322  18.994  65.252  1.00  0.00    -0.161 NA 
HETATM    6  C   UNL     1      -6.352  19.553  65.994  1.00  0.00    -0.194 A  
HETATM    7  H   UNL     1      -4.719  19.504  64.608  1.00  0.00     0.000 HD 
HETATM    8  C   UNL     1      -6.688  20.859  66.313  1.00  0.00    -0.235 A  
HETATM    9  C   UNL     1      -7.823  21.000  67.131  1.00  0.00    -0.111 A  
HETATM   10  C   UNL     1      -8.689  19.918  67.443  1.00  0.00    -0.401 A  
HETATM   11  C   UNL     1      -8.371  18.616  67.039  1.00  0.00    -0.274 A  
HETATM   12  C   UNL     1      -7.087  18.484  66.450  1.00  0.00    -0.265 A  
HETATM   13  C   UNL     1      -9.067  17.291  67.140  1.00  0.00    -0.234 C  
HETATM   14  C   UNL     1     -10.359  16.893  66.856  1.00  0.00    -0.304 C  
HETATM   15  C   UNL     1     -10.505  15.346  66.647  1.00  0.00    -0.293 C  
HETATM   16  N   UNL     1      -8.751  15.311  68.402  1.00  0.00    -0.164 NA 
HETATM   17  C   UNL     1      -9.822  14.518  67.818  1.00  0.00    -0.220 C  
HETATM   18  C   UNL     1      -8.090  14.936  69.616  1.00  0.00     0.018 C  
ENDROOT
BRANCH  15  19
HETATM   19  N   UNL     1     -11.716  14.715  66.130  1.00  0.00    -0.348 N  
HETATM   20  H   UNL     1     -12.547  15.237  65.851  1.00  0.00     0.000 HD 
BRANCH  19  21
HETATM   21  C   UNL     1     -11.619  13.319  66.056  1.00  0.00    -0.349 C  
HETATM   22  O   UNL     1     -12.117  12.589  66.917  1.00  0.00    -0.537 OA 
BRANCH  21  23
HETATM   23  N   UNL     1     -10.961  12.758  64.981  1.00  0.00    -0.281 N  
BRANCH  23  24
HETATM   24  C   UNL     1     -11.381  12.822  63.587  1.00  0.00    -0.453 C  
HETATM   25  C   UNL     1     -12.617  11.973  63.331  1.00  0.00    -0.592 C  
ENDBRANCH  23  24
BRANCH  23  26
HETATM   26  C   UNL     1      -9.666  12.106  65.257  1.00  0.00    -0.141 C  
HETATM   27  C   UNL     1      -9.784  10.644  65.670  1.00  0.00    -0.283 C  
ENDBRANCH  23  26
ENDBRANCH  21  23
ENDBRANCH  19  21
ENDBRANCH  15  19
TORSDOF 5
ENDMDL
MODEL       84
REMARK 921   NORMALIZED FREE ENERGY PREDICTED BY IDOCK:   -4.74 KCAL/MOL
REMARK 922        TOTAL FREE ENERGY PREDICTED BY IDOCK:   -6.61 KCAL/MOL
REMARK 923 INTER-LIGAND FREE ENERGY PREDICTED BY IDOCK:   -6.06 KCAL/MOL
REMARK 924 INTRA-LIGAND FREE ENERGY PREDICTED BY IDOCK:   -0.55 KCAL/MOL
REMARK 927      BINDING AFFINITY PREDICTED BY RF-SCORE:    0.00 PKD
ROOT
HETATM    1  C   UNL     1     -10.215   7.995  67.902  1.00  0.00    -0.212 C  
HETATM    2  C   UNL     1     -10.406   8.873  66.656  1.00  0.00    -0.294 C  
HETATM    3  C   UNL     1      -9.722  10.155  66.890  1.00  0.00    -0.233 A  
HETATM    4  C   UNL     1      -9.937  11.466  66.537  1.00  0.00    -0.211 A  
HETATM    5  N   UNL     1      -8.763  12.144  66.783  1.00  0.00    -0.225 NA 
HETATM    6  C   UNL     1      -7.803  11.263  67.260  1.00  0.00    -0.141 A  
HETATM    7  H   UNL     1      -8.622  13.143  66.637  1.00  0.00     0.000 HD 
HETATM    8  C   UNL     1      -6.427  11.348  67.400  1.00  0.00    -0.083 A  
HETATM    9  C   UNL     1      -5.807  10.195  67.914  1.00  0.00    -0.041 A  
HETATM   10  C   UNL     1      -6.537   9.100  68.448  1.00  0.00    -0.059 A  
HETATM   11  C   UNL     1      -7.934   9.072  68.368  1.00  0.00    -0.104 A  
HETATM   12  C   UNL     1      -8.497  10.128  67.606  1.00  0.00    -0.118 A  
HETATM   13  C   UNL     1      -8.991   8.132  68.867  1.00  0.00    -0.141 C  
HETATM   14  C   UNL     1      -9.208   7.542  70.097  1.00  0.00    -0.154 C  
HETATM   15  C   UNL     1     -10.678   7.035  70.297  1.00  0.00    -0.241 C  
HETATM   16  N   UNL     1     -10.456   6.559  67.871  1.00  0.00    -0.195 NA 
HETATM   17  C   UNL     1     -11.180   6.160  69.069  1.00  0.00    -0.304 C  
HETATM   18  C   UNL     1     -10.522   5.814  66.650  1.00  0.00    -0.268 C  
ENDROOT
BRANCH  15  19
HETATM   19  N   UNL     1     -11.203   6.576  71.580  1.00  0.00    -0.263 N  
HETATM   20  H   UNL     1     -11.361   5.594  71.804  1.00  0.00     0.000 HD 
BRANCH  19  21
HETATM   21  C   UNL     1     -11.469   7.625  72.471  1.00  0.00    -0.352 C  
HETATM   22  O   UNL     1     -11.010   7.632  73.616  1.00  0.00    -0.301 OA 
BRANCH  21  23
HETATM   23  N   UNL     1     -12.252   8.676  72.040  1.00  0.00    -0.347 N  
BRANCH  23  24
HETATM   24  C   UNL     1     -13.699   8.781  72.173  1.00  0.00    -0.447 C  
HETATM   25  C   UNL     1     -14.408   7.564  71.598  1.00  0.00    -0.621 C  
ENDBRANCH  23  24
BRANCH  23  26
HETATM   26  C   UNL     1     -11.550   9.840  71.467  1.00  0.00    -0.353 C  
HETATM   27  C   UNL     1     -12.235  10.437  70.244  1.00  0.00    -0.349 C  
ENDBRANCH  23  26
ENDBRANCH  21  23
ENDBRANCH  19  21
ENDBRANCH  15  19
TORSDOF 5
ENDMDL
MODEL       85
REMARK 921   NORMALIZED FREE ENERGY PREDICTED BY IDOCK:   -4.72 KCAL/MOL
REMARK 922        TOTAL FREE ENERGY PREDICTED BY IDOCK:   -6.58 KCAL/MOL
REMARK 923 INTER-LIGAND FREE ENERGY PREDICTED BY IDOCK:   -5.94 KCAL/MOL
REMARK 924 INTRA-LIGAND FREE ENERGY PREDICTED BY IDOCK:   -0.64 KCAL/MOL
REMARK 927      BINDING AFFINITY PREDICTED BY RF-SCORE:    0.00 PKD
ROOT
HETATM    1  C   UNL     1      -9.795   9.873  68.346  1.00  0.00    -0.151 C  
HETATM    2  C   UNL     1      -8.555   9.166  68.916  1.00  0.00    -0.131 C  
HETATM    3  C   UNL     1      -8.696   9.102  70.379  1.00  0.00    -0.245 A  
HETATM    4  C   UNL     1      -7.843   9.157  71.456  1.00  0.00     0.134 A  
HETATM    5  N   UNL     1      -8.550   8.707  72.549  1.00  0.00    -0.406 NA 
HETATM    6  C   UNL     1      -9.831   8.341  72.163  1.00  0.00    -0.272 A  
HETATM    7  H   UNL     1      -8.186   8.652  73.500  1.00  0.00     0.000 HD 
HETATM    8  C   UNL     1     -10.829   7.598  72.774  1.00  0.00    -0.416 A  
HETATM    9  C   UNL     1     -12.001   7.435  72.016  1.00  0.00    -0.333 A  
HETATM   10  C   UNL     1     -12.243   8.142  70.808  1.00  0.00    -0.011 A  
HETATM   11  C   UNL     1     -11.249   8.954  70.249  1.00  0.00    -0.219 A  
HETATM   12  C   UNL     1      -9.994   8.877  70.907  1.00  0.00    -0.304 A  
HETATM   13  C   UNL     1     -11.188   9.863  69.058  1.00  0.00    -0.131 C  
HETATM   14  C   UNL     1     -12.033  10.855  68.598  1.00  0.00    -0.185 C  
HETATM   15  C   UNL     1     -11.342  11.856  67.610  1.00  0.00    -0.304 C  
HETATM   16  N   UNL     1     -10.141   9.792  66.934  1.00  0.00    -0.212 NA 
HETATM   17  C   UNL     1     -10.549  11.105  66.457  1.00  0.00    -0.262 C  
HETATM   18  C   UNL     1      -9.601   8.791  66.064  1.00  0.00    -0.226 C  
ENDROOT
BRANCH  15  19
HETATM   19  N   UNL     1     -11.961  13.101  67.163  1.00  0.00    -0.365 N  
HETATM   20  H   UNL     1     -12.940  13.175  66.888  1.00  0.00     0.000 HD 
BRANCH  19  21
HETATM   21  C   UNL     1     -11.070  14.183  67.149  1.00  0.00    -0.307 C  
HETATM   22  O   UNL     1     -10.608  14.628  66.095  1.00  0.00    -0.296 OA 
BRANCH  21  23
HETATM   23  N   UNL     1     -10.721  14.766  68.349  1.00  0.00    -0.237 N  
BRANCH  23  24
HETATM   24  C   UNL     1      -9.399  14.749  68.961  1.00  0.00    -0.160 C  
HETATM   25  C   UNL     1      -8.546  13.608  68.430  1.00  0.00    -0.151 C  
ENDBRANCH  23  24
BRANCH  23  26
HETATM   26  C   UNL     1     -11.763  15.552  69.038  1.00  0.00    -0.377 C  
HETATM   27  C   UNL     1     -11.969  15.165  70.497  1.00  0.00    -0.371 C  
ENDBRANCH  23  26
ENDBRANCH  21  23
ENDBRANCH  19  21
ENDBRANCH  15  19
TORSDOF 5
ENDMDL
MODEL       86
REMARK 921   NORMALIZED FREE ENERGY PREDICTED BY IDOCK:   -4.71 KCAL/MOL
REMARK 922        TOTAL FREE ENERGY PREDICTED BY IDOCK:   -6.58 KCAL/MOL
REMARK 923 INTER-LIGAND FREE ENERGY PREDICTED BY IDOCK:   -6.63 KCAL/MOL
REMARK 924 INTRA-LIGAND FREE ENERGY PREDICTED BY IDOCK:    0.05 KCAL/MOL
REMARK 927      BINDING AFFINITY PREDICTED BY RF-SCORE:    0.00 PKD
ROOT
HETATM    1  C   UNL     1      -9.939  16.389  67.044  1.00  0.00    -0.261 C  
HETATM    2  C   UNL     1     -10.971  15.451  66.398  1.00  0.00    -0.277 C  
HETATM    3  C   UNL     1     -11.165  14.298  67.292  1.00  0.00    -0.330 A  
HETATM    4  C   UNL     1     -11.428  12.958  67.132  1.00  0.00    -0.336 A  
HETATM    5  N   UNL     1     -11.824  12.478  68.360  1.00  0.00    -0.327 NA 
HETATM    6  C   UNL     1     -11.840  13.512  69.286  1.00  0.00    -0.341 A  
HETATM    7  H   UNL     1     -12.068  11.509  68.560  1.00  0.00     0.000 HD 
HETATM    8  C   UNL     1     -12.399  13.645  70.547  1.00  0.00    -0.425 A  
HETATM    9  C   UNL     1     -12.202  14.896  71.158  1.00  0.00    -0.380 A  
HETATM   10  C   UNL     1     -11.327  15.883  70.631  1.00  0.00    -0.421 A  
HETATM   11  C   UNL     1     -10.708  15.692  69.390  1.00  0.00    -0.252 A  
HETATM   12  C   UNL     1     -11.144  14.537  68.691  1.00  0.00    -0.272 A  
HETATM   13  C   UNL     1      -9.709  16.474  68.589  1.00  0.00    -0.247 C  
HETATM   14  C   UNL     1      -8.505  17.064  68.921  1.00  0.00    -0.193 C  
HETATM   15  C   UNL     1      -7.584  17.345  67.684  1.00  0.00    -0.188 C  
HETATM   16  N   UNL     1      -9.779  17.768  66.606  1.00  0.00    -0.300 NA 
HETATM   17  C   UNL     1      -8.363  18.090  66.518  1.00  0.00    -0.268 C  
HETATM   18  C   UNL     1     -10.773  18.453  65.836  1.00  0.00    -0.178 C  
ENDROOT
BRANCH  15  19
HETATM   19  N   UNL     1      -6.189  17.759  67.798  1.00  0.00    -0.165 N  
HETATM   20  H   UNL     1      -5.582  17.919  66.994  1.00  0.00     0.000 HD 
BRANCH  19  21
HETATM   21  C   UNL     1      -5.768  17.914  69.126  1.00  0.00    -0.206 C  
HETATM   22  O   UNL     1      -5.705  16.955  69.900  1.00  0.00    -0.201 OA 
BRANCH  21  23
HETATM   23  N   UNL     1      -5.403  19.171  69.561  1.00  0.00    -0.190 N  
BRANCH  23  24
HETATM   24  C   UNL     1      -5.174  20.339  68.721  1.00  0.00    -0.215 C  
HETATM   25  C   UNL     1      -6.472  20.884  68.146  1.00  0.00    -0.305 C  
ENDBRANCH  23  24
BRANCH  23  26
HETATM   26  C   UNL     1      -5.321  19.374  71.021  1.00  0.00    -0.263 C  
HETATM   27  C   UNL     1      -6.275  20.435  71.553  1.00  0.00    -0.086 C  
ENDBRANCH  23  26
ENDBRANCH  21  23
ENDBRANCH  19  21
ENDBRANCH  15  19
TORSDOF 5
ENDMDL
MODEL       87
REMARK 921   NORMALIZED FREE ENERGY PREDICTED BY IDOCK:   -4.70 KCAL/MOL
REMARK 922        TOTAL FREE ENERGY PREDICTED BY IDOCK:   -6.55 KCAL/MOL
REMARK 923 INTER-LIGAND FREE ENERGY PREDICTED BY IDOCK:   -6.59 KCAL/MOL
REMARK 924 INTRA-LIGAND FREE ENERGY PREDICTED BY IDOCK:    0.03 KCAL/MOL
REMARK 927      BINDING AFFINITY PREDICTED BY RF-SCORE:    0.00 PKD
ROOT
HETATM    1  C   UNL     1     -10.239   9.909  68.282  1.00  0.00    -0.176 C  
HETATM    2  C   UNL     1      -9.862  10.366  66.865  1.00  0.00    -0.236 C  
HETATM    3  C   UNL     1     -10.839  11.380  66.435  1.00  0.00    -0.323 A  
HETATM    4  C   UNL     1     -11.424  11.744  65.246  1.00  0.00    -0.186 A  
HETATM    5  N   UNL     1     -12.000  12.979  65.445  1.00  0.00    -0.387 NA 
HETATM    6  C   UNL     1     -11.756  13.408  66.742  1.00  0.00    -0.385 A  
HETATM    7  H   UNL     1     -12.527  13.500  64.745  1.00  0.00     0.000 HD 
HETATM    8  C   UNL     1     -11.860  14.640  67.367  1.00  0.00    -0.374 A  
HETATM    9  C   UNL     1     -11.483  14.656  68.721  1.00  0.00    -0.322 A  
HETATM   10  C   UNL     1     -11.214  13.474  69.461  1.00  0.00    -0.194 A  
HETATM   11  C   UNL     1     -11.194  12.227  68.824  1.00  0.00    -0.312 A  
HETATM   12  C   UNL     1     -11.317  12.291  67.412  1.00  0.00    -0.389 A  
HETATM   13  C   UNL     1     -11.012  10.816  69.296  1.00  0.00    -0.292 C  
HETATM   14  C   UNL     1     -11.580  10.099  70.333  1.00  0.00    -0.396 C  
HETATM   15  C   UNL     1     -11.467   8.546  70.154  1.00  0.00     0.003 C  
HETATM   16  N   UNL     1      -9.299   9.188  69.129  1.00  0.00    -0.150 NA 
HETATM   17  C   UNL     1      -9.987   8.092  69.796  1.00  0.00    -0.191 C  
HETATM   18  C   UNL     1      -7.890   9.171  68.877  1.00  0.00    -0.094 C  
ENDROOT
BRANCH  15  19
HETATM   19  N   UNL     1     -12.172   7.586  70.998  1.00  0.00    -0.445 N  
HETATM   20  H   UNL     1     -12.922   6.983  70.659  1.00  0.00     0.000 HD 
BRANCH  19  21
HETATM   21  C   UNL     1     -11.712   7.577  72.323  1.00  0.00    -0.304 C  
HETATM   22  O   UNL     1     -12.014   8.471  73.118  1.00  0.00    -0.064 OA 
BRANCH  21  23
HETATM   23  N   UNL     1     -10.916   6.530  72.739  1.00  0.00    -0.246 N  
BRANCH  23  24
HETATM   24  C   UNL     1     -11.370   5.191  73.089  1.00  0.00    -0.313 C  
HETATM   25  C   UNL     1     -10.613   4.633  74.285  1.00  0.00    -0.328 C  
ENDBRANCH  23  24
BRANCH  23  26
HETATM   26  C   UNL     1      -9.459   6.762  72.749  1.00  0.00    -0.141 C  
HETATM   27  C   UNL     1      -9.021   7.909  73.651  1.00  0.00    -0.337 C  
ENDBRANCH  23  26
ENDBRANCH  21  23
ENDBRANCH  19  21
ENDBRANCH  15  19
TORSDOF 5
ENDMDL
MODEL       88
REMARK 921   NORMALIZED FREE ENERGY PREDICTED BY IDOCK:   -4.69 KCAL/MOL
REMARK 922        TOTAL FREE ENERGY PREDICTED BY IDOCK:   -6.54 KCAL/MOL
REMARK 923 INTER-LIGAND FREE ENERGY PREDICTED BY IDOCK:   -6.31 KCAL/MOL
REMARK 924 INTRA-LIGAND FREE ENERGY PREDICTED BY IDOCK:   -0.23 KCAL/MOL
REMARK 927      BINDING AFFINITY PREDICTED BY RF-SCORE:    0.00 PKD
ROOT
HETATM    1  C   UNL     1      -9.652  15.550  67.644  1.00  0.00    -0.210 C  
HETATM    2  C   UNL     1     -10.966  15.093  66.993  1.00  0.00    -0.322 C  
HETATM    3  C   UNL     1     -10.640  14.124  65.934  1.00  0.00    -0.301 A  
HETATM    4  C   UNL     1     -11.157  13.796  64.703  1.00  0.00    -0.388 A  
HETATM    5  N   UNL     1     -10.609  12.583  64.349  1.00  0.00    -0.327 NA 
HETATM    6  C   UNL     1      -9.774  12.131  65.361  1.00  0.00    -0.162 A  
HETATM    7  H   UNL     1     -10.789  12.091  63.475  1.00  0.00     0.000 HD 
HETATM    8  C   UNL     1      -9.208  10.898  65.642  1.00  0.00    -0.227 A  
HETATM    9  C   UNL     1      -8.423  10.853  66.807  1.00  0.00    -0.139 A  
HETATM   10  C   UNL     1      -8.056  12.016  67.536  1.00  0.00    -0.159 A  
HETATM   11  C   UNL     1      -8.577  13.267  67.185  1.00  0.00    -0.197 A  
HETATM   12  C   UNL     1      -9.570  13.223  66.172  1.00  0.00    -0.211 A  
HETATM   13  C   UNL     1      -8.362  14.666  67.682  1.00  0.00    -0.186 C  
HETATM   14  C   UNL     1      -7.219  15.394  67.950  1.00  0.00    -0.160 C  
HETATM   15  C   UNL     1      -7.457  16.943  67.979  1.00  0.00    -0.173 C  
HETATM   16  N   UNL     1      -9.632  16.225  68.935  1.00  0.00    -0.233 NA 
HETATM   17  C   UNL     1      -8.698  17.340  68.887  1.00  0.00    -0.172 C  
HETATM   18  C   UNL     1     -10.739  16.186  69.842  1.00  0.00    -0.328 C  
ENDROOT
BRANCH  15  19
HETATM   19  N   UNL     1      -6.375  17.922  68.028  1.00  0.00    -0.175 N  
HETATM   20  H   UNL     1      -5.390  17.669  68.089  1.00  0.00     0.000 HD 
BRANCH  19  21
HETATM   21  C   UNL     1      -6.831  19.247  67.981  1.00  0.00    -0.238 C  
HETATM   22  O   UNL     1      -6.946  19.928  69.003  1.00  0.00    -0.325 OA 
BRANCH  21  23
HETATM   23  N   UNL     1      -7.141  19.796  66.754  1.00  0.00    -0.214 N  
BRANCH  23  24
HETATM   24  C   UNL     1      -8.439  19.747  66.094  1.00  0.00    -0.341 C  
HETATM   25  C   UNL     1      -9.538  20.334  66.966  1.00  0.00    -0.572 C  
ENDBRANCH  23  24
BRANCH  23  26
HETATM   26  C   UNL     1      -6.084  20.579  66.086  1.00  0.00    -0.207 C  
HETATM   27  C   UNL     1      -6.269  20.712  64.580  1.00  0.00    -0.342 C  
ENDBRANCH  23  26
ENDBRANCH  21  23
ENDBRANCH  19  21
ENDBRANCH  15  19
TORSDOF 5
ENDMDL
MODEL       89
REMARK 921   NORMALIZED FREE ENERGY PREDICTED BY IDOCK:   -4.66 KCAL/MOL
REMARK 922        TOTAL FREE ENERGY PREDICTED BY IDOCK:   -6.51 KCAL/MOL
REMARK 923 INTER-LIGAND FREE ENERGY PREDICTED BY IDOCK:   -5.85 KCAL/MOL
REMARK 924 INTRA-LIGAND FREE ENERGY PREDICTED BY IDOCK:   -0.66 KCAL/MOL
REMARK 927      BINDING AFFINITY PREDICTED BY RF-SCORE:    0.00 PKD
ROOT
HETATM    1  C   UNL     1      -9.172   9.185  66.677  1.00  0.00    -0.164 C  
HETATM    2  C   UNL     1      -8.172   8.946  65.536  1.00  0.00    -0.130 C  
HETATM    3  C   UNL     1      -7.602   7.599  65.699  1.00  0.00    -0.090 A  
HETATM    4  C   UNL     1      -6.385   7.007  65.460  1.00  0.00    -0.043 A  
HETATM    5  N   UNL     1      -6.585   5.646  65.511  1.00  0.00    -0.040 NA 
HETATM    6  C   UNL     1      -7.925   5.376  65.751  1.00  0.00    -0.106 A  
HETATM    7  H   UNL     1      -5.858   4.941  65.391  1.00  0.00     0.000 HD 
HETATM    8  C   UNL     1      -8.697   4.232  65.631  1.00  0.00    -0.120 A  
HETATM    9  C   UNL     1     -10.055   4.391  65.959  1.00  0.00    -0.260 A  
HETATM   10  C   UNL     1     -10.570   5.567  66.566  1.00  0.00    -0.343 A  
HETATM   11  C   UNL     1      -9.749   6.686  66.753  1.00  0.00    -0.217 A  
HETATM   12  C   UNL     1      -8.463   6.572  66.166  1.00  0.00    -0.137 A  
HETATM   13  C   UNL     1      -9.941   8.027  67.397  1.00  0.00    -0.270 C  
HETATM   14  C   UNL     1     -10.469   8.410  68.615  1.00  0.00    -0.197 C  
HETATM   15  C   UNL     1     -10.028   9.845  69.065  1.00  0.00    -0.187 C  
HETATM   16  N   UNL     1     -10.157  10.255  66.621  1.00  0.00    -0.215 NA 
HETATM   17  C   UNL     1     -10.229  10.920  67.914  1.00  0.00    -0.179 C  
HETATM   18  C   UNL     1     -10.516  10.909  65.399  1.00  0.00    -0.223 C  
ENDROOT
BRANCH  15  19
HETATM   19  N   UNL     1     -10.278  10.381  70.400  1.00  0.00    -0.353 N  
HETATM   20  H   UNL     1     -10.472  11.365  70.583  1.00  0.00     0.000 HD 
BRANCH  19  21
HETATM   21  C   UNL     1     -10.223   9.404  71.404  1.00  0.00    -0.227 C  
HETATM   22  O   UNL     1      -9.152   9.044  71.899  1.00  0.00    -0.365 OA 
BRANCH  21  23
HETATM   23  N   UNL     1     -11.404   8.849  71.850  1.00  0.00    -0.360 N  
BRANCH  23  24
HETATM   24  C   UNL     1     -11.563   7.533  72.453  1.00  0.00    -0.309 C  
HETATM   25  C   UNL     1     -11.532   6.427  71.409  1.00  0.00    -0.363 C  
ENDBRANCH  23  24
BRANCH  23  26
HETATM   26  C   UNL     1     -12.607   9.702  71.790  1.00  0.00    -0.409 C  
HETATM   27  C   UNL     1     -13.841   9.081  72.433  1.00  0.00    -0.540 C  
ENDBRANCH  23  26
ENDBRANCH  21  23
ENDBRANCH  19  21
ENDBRANCH  15  19
TORSDOF 5
ENDMDL
MODEL       90
REMARK 921   NORMALIZED FREE ENERGY PREDICTED BY IDOCK:   -4.66 KCAL/MOL
REMARK 922        TOTAL FREE ENERGY PREDICTED BY IDOCK:   -6.50 KCAL/MOL
REMARK 923 INTER-LIGAND FREE ENERGY PREDICTED BY IDOCK:   -5.95 KCAL/MOL
REMARK 924 INTRA-LIGAND FREE ENERGY PREDICTED BY IDOCK:   -0.55 KCAL/MOL
REMARK 927      BINDING AFFINITY PREDICTED BY RF-SCORE:    0.00 PKD
ROOT
HETATM    1  C   UNL     1      -9.392  10.991  66.988  1.00  0.00    -0.172 C  
HETATM    2  C   UNL     1      -8.976  12.221  66.167  1.00  0.00    -0.009 C  
HETATM    3  C   UNL     1     -10.128  13.134  66.093  1.00  0.00    -0.291 A  
HETATM    4  C   UNL     1     -10.633  14.012  65.163  1.00  0.00    -0.386 A  
HETATM    5  N   UNL     1     -11.543  14.810  65.820  1.00  0.00    -0.327 NA 
HETATM    6  C   UNL     1     -11.592  14.462  67.162  1.00  0.00    -0.386 A  
HETATM    7  H   UNL     1     -12.098  15.547  65.385  1.00  0.00     0.000 HD 
HETATM    8  C   UNL     1     -12.105  15.091  68.285  1.00  0.00    -0.110 A  
HETATM    9  C   UNL     1     -11.923  14.396  69.494  1.00  0.00    -0.376 A  
HETATM   10  C   UNL     1     -11.440  13.061  69.552  1.00  0.00    -0.289 A  
HETATM   11  C   UNL     1     -11.001  12.415  68.389  1.00  0.00    -0.272 A  
HETATM   12  C   UNL     1     -10.955  13.246  67.241  1.00  0.00    -0.284 A  
HETATM   13  C   UNL     1     -10.505  11.032  68.087  1.00  0.00    -0.216 C  
HETATM   14  C   UNL     1     -10.985   9.778  68.413  1.00  0.00    -0.200 C  
HETATM   15  C   UNL     1     -10.432   8.638  67.489  1.00  0.00    -0.266 C  
HETATM   16  N   UNL     1      -8.408  10.073  67.544  1.00  0.00    -0.118 NA 
HETATM   17  C   UNL     1      -8.852   8.702  67.342  1.00  0.00    -0.134 C  
HETATM   18  C   UNL     1      -7.027  10.420  67.693  1.00  0.00    -0.083 C  
ENDROOT
BRANCH  15  19
HETATM   19  N   UNL     1     -10.953   7.274  67.497  1.00  0.00    -0.537 N  
HETATM   20  H   UNL     1     -11.775   6.983  66.969  1.00  0.00     0.000 HD 
BRANCH  19  21
HETATM   21  C   UNL     1     -10.205   6.405  68.304  1.00  0.00    -0.171 C  
HETATM   22  O   UNL     1      -9.384   5.620  67.823  1.00  0.00    -0.110 OA 
BRANCH  21  23
HETATM   23  N   UNL     1     -10.391   6.450  69.670  1.00  0.00    -0.190 N  
BRANCH  23  24
HETATM   24  C   UNL     1     -11.672   6.473  70.364  1.00  0.00    -0.375 C  
HETATM   25  C   UNL     1     -11.750   7.612  71.368  1.00  0.00    -0.310 C  
ENDBRANCH  23  24
BRANCH  23  26
HETATM   26  C   UNL     1      -9.180   6.383  70.512  1.00  0.00    -0.158 C  
HETATM   27  C   UNL     1      -9.048   5.089  71.305  1.00  0.00    -0.176 C  
ENDBRANCH  23  26
ENDBRANCH  21  23
ENDBRANCH  19  21
ENDBRANCH  15  19
TORSDOF 5
ENDMDL
MODEL       91
REMARK 921   NORMALIZED FREE ENERGY PREDICTED BY IDOCK:   -4.64 KCAL/MOL
REMARK 922        TOTAL FREE ENERGY PREDICTED BY IDOCK:   -6.48 KCAL/MOL
REMARK 923 INTER-LIGAND FREE ENERGY PREDICTED BY IDOCK:   -6.08 KCAL/MOL
REMARK 924 INTRA-LIGAND FREE ENERGY PREDICTED BY IDOCK:   -0.40 KCAL/MOL
REMARK 927      BINDING AFFINITY PREDICTED BY RF-SCORE:    0.00 PKD
ROOT
HETATM    1  C   UNL     1     -10.289  12.462  67.884  1.00  0.00    -0.210 C  
HETATM    2  C   UNL     1     -10.482  13.877  68.451  1.00  0.00    -0.250 C  
HETATM    3  C   UNL     1     -10.215  14.843  67.373  1.00  0.00    -0.234 A  
HETATM    4  C   UNL     1      -9.673  16.104  67.291  1.00  0.00    -0.233 A  
HETATM    5  N   UNL     1     -10.006  16.601  66.050  1.00  0.00    -0.392 NA 
HETATM    6  C   UNL     1     -10.778  15.675  65.364  1.00  0.00    -0.408 A  
HETATM    7  H   UNL     1      -9.725  17.513  65.690  1.00  0.00     0.000 HD 
HETATM    8  C   UNL     1     -11.580  15.761  64.237  1.00  0.00    -0.192 A  
HETATM    9  C   UNL     1     -12.227  14.567  63.873  1.00  0.00    -0.126 A  
HETATM   10  C   UNL     1     -11.931  13.314  64.474  1.00  0.00    -0.449 A  
HETATM   11  C   UNL     1     -11.053  13.240  65.562  1.00  0.00    -0.299 A  
HETATM   12  C   UNL     1     -10.633  14.499  66.062  1.00  0.00    -0.311 A  
HETATM   13  C   UNL     1     -10.486  12.112  66.372  1.00  0.00    -0.261 C  
HETATM   14  C   UNL     1      -9.896  10.914  66.017  1.00  0.00    -0.280 C  
HETATM   15  C   UNL     1      -9.028  10.282  67.159  1.00  0.00    -0.135 C  
HETATM   16  N   UNL     1     -10.806  11.286  68.569  1.00  0.00    -0.190 NA 
HETATM   17  C   UNL     1      -9.807  10.228  68.542  1.00  0.00    -0.164 C  
HETATM   18  C   UNL     1     -11.815  11.365  69.582  1.00  0.00    -0.362 C  
ENDROOT
BRANCH  15  19
HETATM   19  N   UNL     1      -8.140   9.141  66.957  1.00  0.00    -0.109 N  
HETATM   20  H   UNL     1      -7.225   9.054  67.400  1.00  0.00     0.000 HD 
BRANCH  19  21
HETATM   21  C   UNL     1      -8.674   8.176  66.091  1.00  0.00    -0.156 C  
HETATM   22  O   UNL     1      -8.557   8.271  64.866  1.00  0.00    -0.145 OA 
BRANCH  21  23
HETATM   23  N   UNL     1      -9.331   7.092  66.634  1.00  0.00    -0.161 N  
BRANCH  23  24
HETATM   24  C   UNL     1     -10.735   7.042  67.019  1.00  0.00    -0.353 C  
HETATM   25  C   UNL     1     -10.933   6.309  68.337  1.00  0.00    -0.409 C  
ENDBRANCH  23  24
BRANCH  23  26
HETATM   26  C   UNL     1      -8.562   5.839  66.760  1.00  0.00    -0.112 C  
HETATM   27  C   UNL     1      -8.718   4.895  65.574  1.00  0.00    -0.139 C  
ENDBRANCH  23  26
ENDBRANCH  21  23
ENDBRANCH  19  21
ENDBRANCH  15  19
TORSDOF 5
ENDMDL
MODEL       92
REMARK 921   NORMALIZED FREE ENERGY PREDICTED BY IDOCK:   -4.61 KCAL/MOL
REMARK 922        TOTAL FREE ENERGY PREDICTED BY IDOCK:   -6.44 KCAL/MOL
REMARK 923 INTER-LIGAND FREE ENERGY PREDICTED BY IDOCK:   -5.79 KCAL/MOL
REMARK 924 INTRA-LIGAND FREE ENERGY PREDICTED BY IDOCK:   -0.66 KCAL/MOL
REMARK 927      BINDING AFFINITY PREDICTED BY RF-SCORE:    0.00 PKD
ROOT
HETATM    1  C   UNL     1     -11.058  11.633  68.852  1.00  0.00    -0.232 C  
HETATM    2  C   UNL     1     -11.162  13.097  69.306  1.00  0.00    -0.266 C  
HETATM    3  C   UNL     1     -10.699  13.953  68.202  1.00  0.00    -0.260 A  
HETATM    4  C   UNL     1     -10.029  15.149  68.095  1.00  0.00    -0.221 A  
HETATM    5  N   UNL     1     -10.191  15.584  66.798  1.00  0.00    -0.273 NA 
HETATM    6  C   UNL     1     -10.983  14.686  66.097  1.00  0.00    -0.329 A  
HETATM    7  H   UNL     1      -9.788  16.437  66.412  1.00  0.00     0.000 HD 
HETATM    8  C   UNL     1     -11.663  14.764  64.892  1.00  0.00    -0.390 A  
HETATM    9  C   UNL     1     -12.388  13.612  64.540  1.00  0.00    -0.402 A  
HETATM   10  C   UNL     1     -12.277  12.384  65.246  1.00  0.00    -0.418 A  
HETATM   11  C   UNL     1     -11.517  12.308  66.420  1.00  0.00    -0.434 A  
HETATM   12  C   UNL     1     -11.023  13.556  66.879  1.00  0.00    -0.296 A  
HETATM   13  C   UNL     1     -11.145  11.194  67.353  1.00  0.00    -0.370 C  
HETATM   14  C   UNL     1     -10.646   9.923  67.136  1.00  0.00    -0.295 C  
HETATM   15  C   UNL     1      -9.957   9.299  68.397  1.00  0.00    -0.176 C  
HETATM   16  N   UNL     1     -11.752  10.563  69.554  1.00  0.00    -0.259 NA 
HETATM   17  C   UNL     1     -10.866   9.417  69.695  1.00  0.00    -0.228 C  
HETATM   18  C   UNL     1     -12.840  10.808  70.453  1.00  0.00    -0.213 C  
ENDROOT
BRANCH  15  19
HETATM   19  N   UNL     1      -9.172   8.068  68.358  1.00  0.00    -0.135 N  
HETATM   20  H   UNL     1      -9.311   7.335  67.663  1.00  0.00     0.000 HD 
BRANCH  19  21
HETATM   21  C   UNL     1      -8.209   7.998  69.374  1.00  0.00    -0.122 C  
HETATM   22  O   UNL     1      -8.274   7.152  70.270  1.00  0.00    -0.126 OA 
BRANCH  21  23
HETATM   23  N   UNL     1      -7.160   8.893  69.353  1.00  0.00    -0.056 N  
BRANCH  23  24
HETATM   24  C   UNL     1      -6.221   9.091  68.257  1.00  0.00    -0.054 C  
HETATM   25  C   UNL     1      -5.550   7.789  67.847  1.00  0.00    -0.032 C  
ENDBRANCH  23  24
BRANCH  23  26
HETATM   26  C   UNL     1      -7.027   9.794  70.514  1.00  0.00    -0.126 C  
HETATM   27  C   UNL     1      -5.652   9.763  71.169  1.00  0.00    -0.074 C  
ENDBRANCH  23  26
ENDBRANCH  21  23
ENDBRANCH  19  21
ENDBRANCH  15  19
TORSDOF 5
ENDMDL
MODEL       93
REMARK 921   NORMALIZED FREE ENERGY PREDICTED BY IDOCK:   -4.61 KCAL/MOL
REMARK 922        TOTAL FREE ENERGY PREDICTED BY IDOCK:   -6.44 KCAL/MOL
REMARK 923 INTER-LIGAND FREE ENERGY PREDICTED BY IDOCK:   -5.99 KCAL/MOL
REMARK 924 INTRA-LIGAND FREE ENERGY PREDICTED BY IDOCK:   -0.45 KCAL/MOL
REMARK 927      BINDING AFFINITY PREDICTED BY RF-SCORE:    0.00 PKD
ROOT
HETATM    1  C   UNL     1      -9.347  10.132  65.715  1.00  0.00    -0.188 C  
HETATM    2  C   UNL     1      -8.233   9.382  64.970  1.00  0.00    -0.139 C  
HETATM    3  C   UNL     1      -7.802   8.252  65.808  1.00  0.00    -0.098 A  
HETATM    4  C   UNL     1      -6.617   7.598  66.050  1.00  0.00    -0.046 A  
HETATM    5  N   UNL     1      -6.934   6.415  66.680  1.00  0.00    -0.066 NA 
HETATM    6  C   UNL     1      -8.311   6.306  66.810  1.00  0.00    -0.110 A  
HETATM    7  H   UNL     1      -6.258   5.723  67.003  1.00  0.00     0.000 HD 
HETATM    8  C   UNL     1      -9.153   5.246  67.105  1.00  0.00    -0.112 A  
HETATM    9  C   UNL     1     -10.524   5.558  67.116  1.00  0.00    -0.321 A  
HETATM   10  C   UNL     1     -11.013   6.889  67.041  1.00  0.00    -0.404 A  
HETATM   11  C   UNL     1     -10.133   7.957  66.823  1.00  0.00    -0.352 A  
HETATM   12  C   UNL     1      -8.796   7.567  66.553  1.00  0.00    -0.167 A  
HETATM   13  C   UNL     1     -10.295   9.446  66.754  1.00  0.00    -0.303 C  
HETATM   14  C   UNL     1     -10.941  10.353  67.573  1.00  0.00    -0.358 C  
HETATM   15  C   UNL     1     -10.443  11.828  67.387  1.00  0.00    -0.211 C  
HETATM   16  N   UNL     1     -10.226  11.072  65.033  1.00  0.00    -0.280 NA 
HETATM   17  C   UNL     1     -10.407  12.257  65.858  1.00  0.00    -0.252 C  
HETATM   18  C   UNL     1     -10.371  11.098  63.608  1.00  0.00    -0.389 C  
ENDROOT
BRANCH  15  19
HETATM   19  N   UNL     1     -10.816  12.921  68.280  1.00  0.00    -0.233 N  
HETATM   20  H   UNL     1     -11.709  12.966  68.771  1.00  0.00     0.000 HD 
BRANCH  19  21
HETATM   21  C   UNL     1      -9.821  13.902  68.393  1.00  0.00    -0.229 C  
HETATM   22  O   UNL     1      -8.631  13.604  68.524  1.00  0.00    -0.165 OA 
BRANCH  21  23
HETATM   23  N   UNL     1     -10.193  15.229  68.340  1.00  0.00    -0.220 N  
BRANCH  23  24
HETATM   24  C   UNL     1     -10.547  15.976  67.140  1.00  0.00    -0.305 C  
HETATM   25  C   UNL     1      -9.548  15.743  66.016  1.00  0.00    -0.388 C  
ENDBRANCH  23  24
BRANCH  23  26
HETATM   26  C   UNL     1     -10.328  15.937  69.627  1.00  0.00    -0.299 C  
HETATM   27  C   UNL     1     -11.593  15.584  70.399  1.00  0.00    -0.359 C  
ENDBRANCH  23  26
ENDBRANCH  21  23
ENDBRANCH  19  21
ENDBRANCH  15  19
TORSDOF 5
ENDMDL
MODEL       94
REMARK 921   NORMALIZED FREE ENERGY PREDICTED BY IDOCK:   -4.59 KCAL/MOL
REMARK 922        TOTAL FREE ENERGY PREDICTED BY IDOCK:   -6.42 KCAL/MOL
REMARK 923 INTER-LIGAND FREE ENERGY PREDICTED BY IDOCK:   -5.65 KCAL/MOL
REMARK 924 INTRA-LIGAND FREE ENERGY PREDICTED BY IDOCK:   -0.77 KCAL/MOL
REMARK 927      BINDING AFFINITY PREDICTED BY RF-SCORE:    0.00 PKD
ROOT
HETATM    1  C   UNL     1     -10.749   8.780  69.226  1.00  0.00    -0.151 C  
HETATM    2  C   UNL     1     -10.820   7.245  69.246  1.00  0.00    -0.177 C  
HETATM    3  C   UNL     1      -9.897   6.730  68.223  1.00  0.00    -0.144 A  
HETATM    4  C   UNL     1      -9.873   5.654  67.368  1.00  0.00    -0.143 A  
HETATM    5  N   UNL     1      -8.583   5.546  66.896  1.00  0.00    -0.110 NA 
HETATM    6  C   UNL     1      -7.789   6.527  67.472  1.00  0.00    -0.113 A  
HETATM    7  H   UNL     1      -8.261   4.849  66.225  1.00  0.00     0.000 HD 
HETATM    8  C   UNL     1      -6.417   6.702  67.564  1.00  0.00    -0.045 A  
HETATM    9  C   UNL     1      -6.007   7.846  68.270  1.00  0.00    -0.040 A  
HETATM   10  C   UNL     1      -6.909   8.863  68.682  1.00  0.00    -0.063 A  
HETATM   11  C   UNL     1      -8.289   8.701  68.506  1.00  0.00    -0.123 A  
HETATM   12  C   UNL     1      -8.671   7.420  68.033  1.00  0.00    -0.124 A  
HETATM   13  C   UNL     1      -9.483   9.572  68.759  1.00  0.00    -0.147 C  
HETATM   14  C   UNL     1      -9.759  10.890  68.450  1.00  0.00    -0.179 C  
HETATM   15  C   UNL     1     -11.289  11.231  68.470  1.00  0.00    -0.276 C  
HETATM   16  N   UNL     1     -11.259   9.584  70.327  1.00  0.00    -0.255 NA 
HETATM   17  C   UNL     1     -11.996  10.722  69.799  1.00  0.00    -0.325 C  
HETATM   18  C   UNL     1     -11.514   9.039  71.627  1.00  0.00    -0.361 C  
ENDROOT
BRANCH  15  19
HETATM   19  N   UNL     1     -11.839  12.488  67.973  1.00  0.00    -0.351 N  
HETATM   20  H   UNL     1     -12.674  12.929  68.360  1.00  0.00     0.000 HD 
BRANCH  19  21
HETATM   21  C   UNL     1     -11.103  13.028  66.909  1.00  0.00    -0.277 C  
HETATM   22  O   UNL     1     -10.284  13.934  67.083  1.00  0.00    -0.254 OA 
BRANCH  21  23
HETATM   23  N   UNL     1     -11.298  12.514  65.644  1.00  0.00    -0.320 N  
BRANCH  23  24
HETATM   24  C   UNL     1     -12.536  12.564  64.877  1.00  0.00    -0.450 C  
HETATM   25  C   UNL     1     -12.284  12.932  63.423  1.00  0.00    -0.574 C  
ENDBRANCH  23  24
BRANCH  23  26
HETATM   26  C   UNL     1     -10.120  11.935  64.969  1.00  0.00    -0.264 C  
HETATM   27  C   UNL     1     -10.140  10.415  64.884  1.00  0.00    -0.382 C  
ENDBRANCH  23  26
ENDBRANCH  21  23
ENDBRANCH  19  21
ENDBRANCH  15  19
TORSDOF 5
ENDMDL
MODEL       95
REMARK 921   NORMALIZED FREE ENERGY PREDICTED BY IDOCK:   -4.57 KCAL/MOL
REMARK 922        TOTAL FREE ENERGY PREDICTED BY IDOCK:   -6.39 KCAL/MOL
REMARK 923 INTER-LIGAND FREE ENERGY PREDICTED BY IDOCK:   -5.47 KCAL/MOL
REMARK 924 INTRA-LIGAND FREE ENERGY PREDICTED BY IDOCK:   -0.92 KCAL/MOL
REMARK 927      BINDING AFFINITY PREDICTED BY RF-SCORE:    0.00 PKD
ROOT
HETATM    1  C   UNL     1     -10.873   8.030  70.301  1.00  0.00    -0.241 C  
HETATM    2  C   UNL     1     -11.254   6.550  70.147  1.00  0.00    -0.437 C  
HETATM    3  C   UNL     1     -10.224   5.894  69.327  1.00  0.00    -0.275 A  
HETATM    4  C   UNL     1     -10.201   4.882  68.397  1.00  0.00    -0.028 A  
HETATM    5  N   UNL     1      -8.883   4.514  68.239  1.00  0.00    -0.103 NA 
HETATM    6  C   UNL     1      -8.080   5.266  69.084  1.00  0.00    -0.089 A  
HETATM    7  H   UNL     1      -8.548   3.797  67.596  1.00  0.00     0.000 HD 
HETATM    8  C   UNL     1      -6.772   5.128  69.518  1.00  0.00    -0.051 A  
HETATM    9  C   UNL     1      -6.333   6.118  70.415  1.00  0.00    -0.036 A  
HETATM   10  C   UNL     1      -7.086   7.288  70.702  1.00  0.00    -0.065 A  
HETATM   11  C   UNL     1      -8.378   7.445  70.185  1.00  0.00    -0.136 A  
HETATM   12  C   UNL     1      -8.878   6.304  69.507  1.00  0.00    -0.135 A  
HETATM   13  C   UNL     1      -9.396   8.545  70.234  1.00  0.00    -0.171 C  
HETATM   14  C   UNL     1      -9.312   9.905  70.004  1.00  0.00    -0.232 C  
HETATM   15  C   UNL     1     -10.694  10.573  69.693  1.00  0.00    -0.259 C  
HETATM   16  N   UNL     1     -11.473   8.874  71.325  1.00  0.00    -0.278 NA 
HETATM   17  C   UNL     1     -11.805  10.171  70.755  1.00  0.00    -0.351 C  
HETATM   18  C   UNL     1     -12.156   8.336  72.464  1.00  0.00    -0.337 C  
ENDROOT
BRANCH  15  19
HETATM   19  N   UNL     1     -10.834  11.944  69.210  1.00  0.00    -0.425 N  
HETATM   20  H   UNL     1     -11.482  12.620  69.614  1.00  0.00     0.000 HD 
BRANCH  19  21
HETATM   21  C   UNL     1      -9.985  12.236  68.133  1.00  0.00    -0.210 C  
HETATM   22  O   UNL     1      -9.002  12.970  68.265  1.00  0.00    -0.194 OA 
BRANCH  21  23
HETATM   23  N   UNL     1     -10.259  11.672  66.905  1.00  0.00    -0.211 N  
BRANCH  23  24
HETATM   24  C   UNL     1      -9.477  10.639  66.240  1.00  0.00    -0.177 C  
HETATM   25  C   UNL     1     -10.099   9.261  66.413  1.00  0.00    -0.337 C  
ENDBRANCH  23  24
BRANCH  23  26
HETATM   26  C   UNL     1     -11.507  12.094  66.240  1.00  0.00    -0.374 C  
HETATM   27  C   UNL     1     -11.356  13.332  65.365  1.00  0.00    -0.317 C  
ENDBRANCH  23  26
ENDBRANCH  21  23
ENDBRANCH  19  21
ENDBRANCH  15  19
TORSDOF 5
ENDMDL
MODEL       96
REMARK 921   NORMALIZED FREE ENERGY PREDICTED BY IDOCK:   -4.57 KCAL/MOL
REMARK 922        TOTAL FREE ENERGY PREDICTED BY IDOCK:   -6.39 KCAL/MOL
REMARK 923 INTER-LIGAND FREE ENERGY PREDICTED BY IDOCK:   -5.96 KCAL/MOL
REMARK 924 INTRA-LIGAND FREE ENERGY PREDICTED BY IDOCK:   -0.43 KCAL/MOL
REMARK 927      BINDING AFFINITY PREDICTED BY RF-SCORE:    0.00 PKD
ROOT
HETATM    1  C   UNL     1      -8.938   8.852  65.699  1.00  0.00    -0.201 C  
HETATM    2  C   UNL     1      -8.536   9.782  64.543  1.00  0.00    -0.199 C  
HETATM    3  C   UNL     1      -9.725  10.549  64.137  1.00  0.00    -0.388 A  
HETATM    4  C   UNL     1     -10.220  11.051  62.957  1.00  0.00    -0.178 A  
HETATM    5  N   UNL     1     -11.202  11.957  63.288  1.00  0.00    -0.678 NA 
HETATM    6  C   UNL     1     -11.309  12.051  64.668  1.00  0.00    -0.318 A  
HETATM    7  H   UNL     1     -11.767  12.480  62.619  1.00  0.00     0.000 HD 
HETATM    8  C   UNL     1     -11.915  12.970  65.511  1.00  0.00    -0.470 A  
HETATM    9  C   UNL     1     -11.767  12.708  66.884  1.00  0.00    -0.453 A  
HETATM   10  C   UNL     1     -11.224  11.495  67.384  1.00  0.00    -0.367 A  
HETATM   11  C   UNL     1     -10.690  10.542  66.508  1.00  0.00    -0.191 A  
HETATM   12  C   UNL     1     -10.620  10.966  65.156  1.00  0.00    -0.268 A  
HETATM   13  C   UNL     1     -10.112   9.169  66.684  1.00  0.00    -0.343 C  
HETATM   14  C   UNL     1     -10.547   8.056  67.376  1.00  0.00    -0.337 C  
HETATM   15  C   UNL     1      -9.889   6.719  66.888  1.00  0.00    -0.175 C  
HETATM   16  N   UNL     1      -7.943   8.223  66.556  1.00  0.00    -0.099 NA 
HETATM   17  C   UNL     1      -8.308   6.834  66.788  1.00  0.00    -0.115 C  
HETATM   18  C   UNL     1      -6.591   8.687  66.637  1.00  0.00    -0.060 C  
ENDROOT
BRANCH  15  19
HETATM   19  N   UNL     1     -10.342   5.398  67.313  1.00  0.00    -0.218 N  
HETATM   20  H   UNL     1     -10.993   5.247  68.084  1.00  0.00     0.000 HD 
BRANCH  19  21
HETATM   21  C   UNL     1      -9.791   4.357  66.552  1.00  0.00    -0.229 C  
HETATM   22  O   UNL     1     -10.044   4.230  65.351  1.00  0.00    -0.214 OA 
BRANCH  21  23
HETATM   23  N   UNL     1      -8.935   3.469  67.170  1.00  0.00    -0.136 N  
BRANCH  23  24
HETATM   24  C   UNL     1      -7.989   2.583  66.506  1.00  0.00    -0.081 C  
HETATM   25  C   UNL     1      -6.716   3.314  66.107  1.00  0.00    -0.048 C  
ENDBRANCH  23  24
BRANCH  23  26
HETATM   26  C   UNL     1      -8.916   3.478  68.646  1.00  0.00    -0.130 C  
HETATM   27  C   UNL     1      -8.105   2.345  69.262  1.00  0.00    -0.060 C  
ENDBRANCH  23  26
ENDBRANCH  21  23
ENDBRANCH  19  21
ENDBRANCH  15  19
TORSDOF 5
ENDMDL
MODEL       97
REMARK 921   NORMALIZED FREE ENERGY PREDICTED BY IDOCK:   -4.52 KCAL/MOL
REMARK 922        TOTAL FREE ENERGY PREDICTED BY IDOCK:   -6.32 KCAL/MOL
REMARK 923 INTER-LIGAND FREE ENERGY PREDICTED BY IDOCK:   -5.74 KCAL/MOL
REMARK 924 INTRA-LIGAND FREE ENERGY PREDICTED BY IDOCK:   -0.59 KCAL/MOL
REMARK 927      BINDING AFFINITY PREDICTED BY RF-SCORE:    0.00 PKD
ROOT
HETATM    1  C   UNL     1     -11.726   8.269  70.851  1.00  0.00    -0.239 C  
HETATM    2  C   UNL     1     -11.840   6.753  71.074  1.00  0.00    -0.427 C  
HETATM    3  C   UNL     1     -10.592   6.126  70.611  1.00  0.00    -0.307 A  
HETATM    4  C   UNL     1     -10.247   4.936  70.015  1.00  0.00    -0.243 A  
HETATM    5  N   UNL     1      -8.881   4.809  70.138  1.00  0.00    -0.092 NA 
HETATM    6  C   UNL     1      -8.368   5.894  70.833  1.00  0.00    -0.126 A  
HETATM    7  H   UNL     1      -8.330   4.033  69.773  1.00  0.00     0.000 HD 
HETATM    8  C   UNL     1      -7.152   6.133  71.453  1.00  0.00    -0.078 A  
HETATM    9  C   UNL     1      -7.038   7.385  72.083  1.00  0.00    -0.067 A  
HETATM   10  C   UNL     1      -8.002   8.416  71.929  1.00  0.00    -0.180 A  
HETATM   11  C   UNL     1      -9.190   8.178  71.227  1.00  0.00    -0.193 A  
HETATM   12  C   UNL     1      -9.379   6.826  70.840  1.00  0.00    -0.157 A  
HETATM   13  C   UNL     1     -10.359   9.030  70.832  1.00  0.00    -0.323 C  
HETATM   14  C   UNL     1     -10.447  10.276  70.241  1.00  0.00    -0.207 C  
HETATM   15  C   UNL     1     -11.840  10.557  69.579  1.00  0.00    -0.215 C  
HETATM   16  N   UNL     1     -12.622   9.209  71.510  1.00  0.00    -0.328 NA 
HETATM   17  C   UNL     1     -13.045  10.227  70.559  1.00  0.00    -0.138 C  
HETATM   18  C   UNL     1     -13.404   8.855  72.656  1.00  0.00    -0.318 C  
ENDROOT
BRANCH  15  19
HETATM   19  N   UNL     1     -12.102  11.705  68.714  1.00  0.00    -0.257 N  
HETATM   20  H   UNL     1     -12.656  11.650  67.860  1.00  0.00     0.000 HD 
BRANCH  19  21
HETATM   21  C   UNL     1     -11.515  12.889  69.180  1.00  0.00    -0.306 C  
HETATM   22  O   UNL     1     -11.830  13.384  70.266  1.00  0.00    -0.308 OA 
BRANCH  21  23
HETATM   23  N   UNL     1     -10.553  13.499  68.403  1.00  0.00    -0.242 N  
BRANCH  23  24
HETATM   24  C   UNL     1     -10.039  13.012  67.130  1.00  0.00    -0.244 C  
HETATM   25  C   UNL     1      -8.840  12.095  67.320  1.00  0.00    -0.186 C  
ENDBRANCH  23  24
BRANCH  23  26
HETATM   26  C   UNL     1     -10.058  14.812  68.861  1.00  0.00    -0.237 C  
HETATM   27  C   UNL     1     -10.796  15.999  68.255  1.00  0.00    -0.319 C  
ENDBRANCH  23  26
ENDBRANCH  21  23
ENDBRANCH  19  21
ENDBRANCH  15  19
TORSDOF 5
ENDMDL
MODEL       98
REMARK 921   NORMALIZED FREE ENERGY PREDICTED BY IDOCK:   -4.52 KCAL/MOL
REMARK 922        TOTAL FREE ENERGY PREDICTED BY IDOCK:   -6.32 KCAL/MOL
REMARK 923 INTER-LIGAND FREE ENERGY PREDICTED BY IDOCK:   -5.72 KCAL/MOL
REMARK 924 INTRA-LIGAND FREE ENERGY PREDICTED BY IDOCK:   -0.60 KCAL/MOL
REMARK 927      BINDING AFFINITY PREDICTED BY RF-SCORE:    0.00 PKD
ROOT
HETATM    1  C   UNL     1     -10.213   7.058  68.973  1.00  0.00    -0.187 C  
HETATM    2  C   UNL     1     -11.345   6.351  69.735  1.00  0.00    -0.494 C  
HETATM    3  C   UNL     1     -11.635   7.128  70.950  1.00  0.00    -0.350 A  
HETATM    4  C   UNL     1     -12.033   6.840  72.234  1.00  0.00    -0.210 A  
HETATM    5  N   UNL     1     -12.451   8.024  72.799  1.00  0.00    -0.597 NA 
HETATM    6  C   UNL     1     -12.347   9.050  71.871  1.00  0.00    -0.384 A  
HETATM    7  H   UNL     1     -12.786   8.131  73.756  1.00  0.00     0.000 HD 
HETATM    8  C   UNL     1     -12.866  10.334  71.816  1.00  0.00    -0.565 A  
HETATM    9  C   UNL     1     -12.534  11.063  70.660  1.00  0.00    -0.465 A  
HETATM   10  C   UNL     1     -11.576  10.614  69.713  1.00  0.00    -0.385 A  
HETATM   11  C   UNL     1     -11.002   9.342  69.833  1.00  0.00    -0.251 A  
HETATM   12  C   UNL     1     -11.564   8.542  70.861  1.00  0.00    -0.295 A  
HETATM   13  C   UNL     1      -9.947   8.597  69.072  1.00  0.00    -0.197 C  
HETATM   14  C   UNL     1      -8.683   8.952  68.639  1.00  0.00    -0.134 C  
HETATM   15  C   UNL     1      -7.764   7.723  68.321  1.00  0.00    -0.119 C  
HETATM   16  N   UNL     1      -9.926   6.758  67.577  1.00  0.00    -0.133 NA 
HETATM   17  C   UNL     1      -8.486   6.661  67.387  1.00  0.00    -0.120 C  
HETATM   18  C   UNL     1     -10.862   6.091  66.724  1.00  0.00    -0.279 C  
ENDROOT
BRANCH  15  19
HETATM   19  N   UNL     1      -6.332   7.837  68.058  1.00  0.00    -0.049 N  
HETATM   20  H   UNL     1      -5.648   7.142  68.355  1.00  0.00     0.000 HD 
BRANCH  19  21
HETATM   21  C   UNL     1      -5.994   9.001  67.353  1.00  0.00    -0.050 C  
HETATM   22  O   UNL     1      -5.677  10.041  67.937  1.00  0.00    -0.039 OA 
BRANCH  21  23
HETATM   23  N   UNL     1      -6.006   8.966  65.975  1.00  0.00    -0.051 N  
BRANCH  23  24
HETATM   24  C   UNL     1      -5.519   7.878  65.138  1.00  0.00    -0.033 C  
HETATM   25  C   UNL     1      -5.688   8.186  63.658  1.00  0.00    -0.065 C  
ENDBRANCH  23  24
BRANCH  23  26
HETATM   26  C   UNL     1      -6.651  10.100  65.284  1.00  0.00    -0.119 C  
HETATM   27  C   UNL     1      -8.170  10.111  65.395  1.00  0.00    -0.151 C  
ENDBRANCH  23  26
ENDBRANCH  21  23
ENDBRANCH  19  21
ENDBRANCH  15  19
TORSDOF 5
ENDMDL
MODEL       99
REMARK 921   NORMALIZED FREE ENERGY PREDICTED BY IDOCK:   -4.50 KCAL/MOL
REMARK 922        TOTAL FREE ENERGY PREDICTED BY IDOCK:   -6.30 KCAL/MOL
REMARK 923 INTER-LIGAND FREE ENERGY PREDICTED BY IDOCK:   -5.92 KCAL/MOL
REMARK 924 INTRA-LIGAND FREE ENERGY PREDICTED BY IDOCK:   -0.38 KCAL/MOL
REMARK 927      BINDING AFFINITY PREDICTED BY RF-SCORE:    0.00 PKD
ROOT
HETATM    1  C   UNL     1      -8.940   9.387  67.921  1.00  0.00    -0.123 C  
HETATM    2  C   UNL     1      -9.540   8.199  68.688  1.00  0.00    -0.151 C  
HETATM    3  C   UNL     1     -10.055   7.231  67.707  1.00  0.00    -0.225 A  
HETATM    4  C   UNL     1     -11.110   6.352  67.648  1.00  0.00    -0.289 A  
HETATM    5  N   UNL     1     -10.858   5.494  66.601  1.00  0.00    -0.531 NA 
HETATM    6  C   UNL     1      -9.638   5.807  66.020  1.00  0.00    -0.050 A  
HETATM    7  H   UNL     1     -11.476   4.741  66.298  1.00  0.00     0.000 HD 
HETATM    8  C   UNL     1      -8.801   5.127  65.149  1.00  0.00    -0.146 A  
HETATM    9  C   UNL     1      -7.614   5.802  64.813  1.00  0.00    -0.086 A  
HETATM   10  C   UNL     1      -7.371   7.157  65.161  1.00  0.00    -0.081 A  
HETATM   11  C   UNL     1      -8.272   7.852  65.978  1.00  0.00    -0.122 A  
HETATM   12  C   UNL     1      -9.316   7.052  66.508  1.00  0.00    -0.201 A  
HETATM   13  C   UNL     1      -8.356   9.264  66.474  1.00  0.00    -0.126 C  
HETATM   14  C   UNL     1      -8.238  10.485  65.838  1.00  0.00    -0.152 C  
HETATM   15  C   UNL     1      -8.874  11.672  66.639  1.00  0.00    -0.187 C  
HETATM   16  N   UNL     1      -8.045  10.340  68.562  1.00  0.00    -0.104 NA 
HETATM   17  C   UNL     1      -8.400  11.691  68.155  1.00  0.00    -0.154 C  
HETATM   18  C   UNL     1      -7.376  10.059  69.796  1.00  0.00    -0.141 C  
ENDROOT
BRANCH  15  19
HETATM   19  N   UNL     1      -9.064  13.009  66.082  1.00  0.00    -0.457 N  
HETATM   20  H   UNL     1      -8.310  13.559  65.671  1.00  0.00     0.000 HD 
BRANCH  19  21
HETATM   21  C   UNL     1     -10.389  13.457  66.170  1.00  0.00    -0.295 C  
HETATM   22  O   UNL     1     -10.841  13.938  67.213  1.00  0.00    -0.281 OA 
BRANCH  21  23
HETATM   23  N   UNL     1     -11.193  13.366  65.053  1.00  0.00    -0.308 N  
BRANCH  23  24
HETATM   24  C   UNL     1     -11.286  12.226  64.151  1.00  0.00    -0.376 C  
HETATM   25  C   UNL     1     -12.600  12.219  63.385  1.00  0.00    -0.545 C  
ENDBRANCH  23  24
BRANCH  23  26
HETATM   26  C   UNL     1     -12.107  14.496  64.794  1.00  0.00    -0.445 C  
HETATM   27  C   UNL     1     -11.403  15.834  64.612  1.00  0.00    -0.343 C  
ENDBRANCH  23  26
ENDBRANCH  21  23
ENDBRANCH  19  21
ENDBRANCH  15  19
TORSDOF 5
ENDMDL
MODEL      100
REMARK 921   NORMALIZED FREE ENERGY PREDICTED BY IDOCK:   -4.44 KCAL/MOL
REMARK 922        TOTAL FREE ENERGY PREDICTED BY IDOCK:   -6.22 KCAL/MOL
REMARK 923 INTER-LIGAND FREE ENERGY PREDICTED BY IDOCK:   -5.74 KCAL/MOL
REMARK 924 INTRA-LIGAND FREE ENERGY PREDICTED BY IDOCK:   -0.48 KCAL/MOL
REMARK 927      BINDING AFFINITY PREDICTED BY RF-SCORE:    0.00 PKD
ROOT
HETATM    1  C   UNL     1     -11.378   8.832  70.980  1.00  0.00    -0.278 C  
HETATM    2  C   UNL     1     -12.038   7.659  71.722  1.00  0.00    -0.337 C  
HETATM    3  C   UNL     1     -11.040   6.588  71.867  1.00  0.00    -0.300 A  
HETATM    4  C   UNL     1     -11.061   5.214  71.876  1.00  0.00     0.033 A  
HETATM    5  N   UNL     1      -9.851   4.798  72.383  1.00  0.00    -0.155 NA 
HETATM    6  C   UNL     1      -9.079   5.900  72.721  1.00  0.00    -0.129 A  
HETATM    7  H   UNL     1      -9.564   3.825  72.492  1.00  0.00     0.000 HD 
HETATM    8  C   UNL     1      -7.939   6.057  73.494  1.00  0.00    -0.103 A  
HETATM    9  C   UNL     1      -7.473   7.378  73.609  1.00  0.00    -0.118 A  
HETATM   10  C   UNL     1      -7.992   8.450  72.835  1.00  0.00    -0.153 A  
HETATM   11  C   UNL     1      -9.097   8.250  71.997  1.00  0.00    -0.267 A  
HETATM   12  C   UNL     1      -9.696   6.969  72.116  1.00  0.00    -0.161 A  
HETATM   13  C   UNL     1      -9.840   9.115  71.024  1.00  0.00    -0.366 C  
HETATM   14  C   UNL     1      -9.418   9.947  70.004  1.00  0.00    -0.246 C  
HETATM   15  C   UNL     1     -10.536  10.264  68.953  1.00  0.00    -0.219 C  
HETATM   16  N   UNL     1     -11.964  10.165  70.980  1.00  0.00    -0.348 NA 
HETATM   17  C   UNL     1     -11.889  10.730  69.642  1.00  0.00    -0.320 C  
HETATM   18  C   UNL     1     -12.951  10.573  71.934  1.00  0.00    -0.447 C  
ENDROOT
BRANCH  15  19
HETATM   19  N   UNL     1     -10.279  10.936  67.682  1.00  0.00    -0.178 N  
HETATM   20  H   UNL     1     -10.186  11.948  67.590  1.00  0.00     0.000 HD 
BRANCH  19  21
HETATM   21  C   UNL     1     -10.172  10.049  66.602  1.00  0.00    -0.223 C  
HETATM   22  O   UNL     1     -10.622   8.901  66.661  1.00  0.00    -0.216 OA 
BRANCH  21  23
HETATM   23  N   UNL     1      -9.560  10.486  65.446  1.00  0.00    -0.217 N  
BRANCH  23  24
HETATM   24  C   UNL     1      -8.135  10.420  65.150  1.00  0.00    -0.145 C  
HETATM   25  C   UNL     1      -7.751   9.090  64.520  1.00  0.00    -0.116 C  
ENDBRANCH  23  24
BRANCH  23  26
HETATM   26  C   UNL     1     -10.440  10.991  64.374  1.00  0.00    -0.354 C  
HETATM   27  C   UNL     1     -10.633  12.502  64.391  1.00  0.00    -0.376 C  
ENDBRANCH  23  26
ENDBRANCH  21  23
ENDBRANCH  19  21
ENDBRANCH  15  19
TORSDOF 5
ENDMDL
MODEL      101
REMARK 921   NORMALIZED FREE ENERGY PREDICTED BY IDOCK:   -4.41 KCAL/MOL
REMARK 922        TOTAL FREE ENERGY PREDICTED BY IDOCK:   -6.18 KCAL/MOL
REMARK 923 INTER-LIGAND FREE ENERGY PREDICTED BY IDOCK:   -5.76 KCAL/MOL
REMARK 924 INTRA-LIGAND FREE ENERGY PREDICTED BY IDOCK:   -0.42 KCAL/MOL
REMARK 927      BINDING AFFINITY PREDICTED BY RF-SCORE:    0.00 PKD
ROOT
HETATM    1  C   UNL     1      -8.752   9.007  70.358  1.00  0.00    -0.199 C  
HETATM    2  C   UNL     1      -7.679   8.725  71.420  1.00  0.00    -0.148 C  
HETATM    3  C   UNL     1      -8.349   8.205  72.623  1.00  0.00    -0.236 A  
HETATM    4  C   UNL     1      -8.149   8.294  73.980  1.00  0.00    -0.210 A  
HETATM    5  N   UNL     1      -8.923   7.315  74.563  1.00  0.00    -0.380 NA 
HETATM    6  C   UNL     1      -9.585   6.592  73.581  1.00  0.00    -0.185 A  
HETATM    7  H   UNL     1      -8.998   7.147  75.566  1.00  0.00     0.000 HD 
HETATM    8  C   UNL     1     -10.248   5.375  73.586  1.00  0.00    -0.237 A  
HETATM    9  C   UNL     1     -10.773   4.977  72.344  1.00  0.00    -0.262 A  
HETATM   10  C   UNL     1     -10.814   5.834  71.213  1.00  0.00    -0.313 A  
HETATM   11  C   UNL     1     -10.207   7.095  71.256  1.00  0.00    -0.199 A  
HETATM   12  C   UNL     1      -9.462   7.345  72.437  1.00  0.00    -0.189 A  
HETATM   13  C   UNL     1     -10.117   8.245  70.297  1.00  0.00    -0.195 C  
HETATM   14  C   UNL     1     -11.067   8.903  69.539  1.00  0.00    -0.015 C  
HETATM   15  C   UNL     1     -10.613  10.328  69.070  1.00  0.00    -0.224 C  
HETATM   16  N   UNL     1      -8.410   9.191  68.954  1.00  0.00    -0.122 NA 
HETATM   17  C   UNL     1      -9.168  10.309  68.411  1.00  0.00    -0.136 C  
HETATM   18  C   UNL     1      -7.156   8.773  68.405  1.00  0.00    -0.077 C  
ENDROOT
BRANCH  15  19
HETATM   19  N   UNL     1     -11.514  11.294  68.446  1.00  0.00    -0.283 N  
HETATM   20  H   UNL     1     -11.960  11.144  67.541  1.00  0.00     0.000 HD 
BRANCH  19  21
HETATM   21  C   UNL     1     -11.703  12.448  69.220  1.00  0.00    -0.329 C  
HETATM   22  O   UNL     1     -11.914  12.386  70.434  1.00  0.00    -0.344 OA 
BRANCH  21  23
HETATM   23  N   UNL     1     -11.634  13.678  68.599  1.00  0.00    -0.305 N  
BRANCH  23  24
HETATM   24  C   UNL     1     -12.155  14.934  69.120  1.00  0.00    -0.231 C  
HETATM   25  C   UNL     1     -11.181  15.593  70.084  1.00  0.00    -0.346 C  
ENDBRANCH  23  24
BRANCH  23  26
HETATM   26  C   UNL     1     -10.890  13.743  67.326  1.00  0.00    -0.285 C  
HETATM   27  C   UNL     1     -11.171  14.995  66.507  1.00  0.00    -0.312 C  
ENDBRANCH  23  26
ENDBRANCH  21  23
ENDBRANCH  19  21
ENDBRANCH  15  19
TORSDOF 5
ENDMDL
MODEL      102
REMARK 921   NORMALIZED FREE ENERGY PREDICTED BY IDOCK:   -4.40 KCAL/MOL
REMARK 922        TOTAL FREE ENERGY PREDICTED BY IDOCK:   -6.17 KCAL/MOL
REMARK 923 INTER-LIGAND FREE ENERGY PREDICTED BY IDOCK:   -5.63 KCAL/MOL
REMARK 924 INTRA-LIGAND FREE ENERGY PREDICTED BY IDOCK:   -0.55 KCAL/MOL
REMARK 927      BINDING AFFINITY PREDICTED BY RF-SCORE:    0.00 PKD
ROOT
HETATM    1  C   UNL     1      -6.931  15.637  68.193  1.00  0.00    -0.120 C  
HETATM    2  C   UNL     1      -5.922  15.907  69.320  1.00  0.00    -0.128 C  
HETATM    3  C   UNL     1      -5.939  14.755  70.236  1.00  0.00    -0.160 A  
HETATM    4  C   UNL     1      -5.783  14.568  71.589  1.00  0.00    -0.045 A  
HETATM    5  N   UNL     1      -5.578  13.221  71.786  1.00  0.00    -0.449 NA 
HETATM    6  C   UNL     1      -5.574  12.563  70.565  1.00  0.00    -0.172 A  
HETATM    7  H   UNL     1      -5.449  12.774  72.694  1.00  0.00     0.000 HD 
HETATM    8  C   UNL     1      -5.154  11.302  70.170  1.00  0.00    -0.066 A  
HETATM    9  C   UNL     1      -5.305  11.025  68.800  1.00  0.00    -0.040 A  
HETATM   10  C   UNL     1      -6.018  11.876  67.914  1.00  0.00    -0.054 A  
HETATM   11  C   UNL     1      -6.505  13.112  68.357  1.00  0.00    -0.086 A  
HETATM   12  C   UNL     1      -6.100  13.464  69.670  1.00  0.00    -0.123 A  
HETATM   13  C   UNL     1      -7.328  14.197  67.727  1.00  0.00    -0.177 C  
HETATM   14  C   UNL     1      -8.504  14.173  67.002  1.00  0.00    -0.178 C  
HETATM   15  C   UNL     1      -9.246  15.553  66.967  1.00  0.00    -0.225 C  
HETATM   16  N   UNL     1      -6.911  16.395  66.950  1.00  0.00    -0.218 NA 
HETATM   17  C   UNL     1      -8.272  16.744  66.571  1.00  0.00    -0.290 C  
HETATM   18  C   UNL     1      -5.776  17.162  66.532  1.00  0.00    -0.167 C  
ENDROOT
BRANCH  15  19
HETATM   19  N   UNL     1     -10.601  15.725  66.451  1.00  0.00    -0.309 N  
HETATM   20  H   UNL     1     -10.920  16.572  65.981  1.00  0.00     0.000 HD 
BRANCH  19  21
HETATM   21  C   UNL     1     -11.418  14.607  66.670  1.00  0.00    -0.357 C  
HETATM   22  O   UNL     1     -12.139  14.518  67.667  1.00  0.00    -0.343 OA 
BRANCH  21  23
HETATM   23  N   UNL     1     -11.417  13.595  65.733  1.00  0.00    -0.310 N  
BRANCH  23  24
HETATM   24  C   UNL     1     -10.957  13.700  64.355  1.00  0.00    -0.366 C  
HETATM   25  C   UNL     1     -11.950  13.085  63.380  1.00  0.00    -0.592 C  
ENDBRANCH  23  24
BRANCH  23  26
HETATM   26  C   UNL     1     -11.843  12.259  66.192  1.00  0.00    -0.329 C  
HETATM   27  C   UNL     1     -10.692  11.291  66.433  1.00  0.00    -0.320 C  
ENDBRANCH  23  26
ENDBRANCH  21  23
ENDBRANCH  19  21
ENDBRANCH  15  19
TORSDOF 5
ENDMDL
MODEL      103
REMARK 921   NORMALIZED FREE ENERGY PREDICTED BY IDOCK:   -4.38 KCAL/MOL
REMARK 922        TOTAL FREE ENERGY PREDICTED BY IDOCK:   -6.15 KCAL/MOL
REMARK 923 INTER-LIGAND FREE ENERGY PREDICTED BY IDOCK:   -5.53 KCAL/MOL
REMARK 924 INTRA-LIGAND FREE ENERGY PREDICTED BY IDOCK:   -0.62 KCAL/MOL
REMARK 927      BINDING AFFINITY PREDICTED BY RF-SCORE:    0.00 PKD
ROOT
HETATM    1  C   UNL     1      -8.907   7.405  71.560  1.00  0.00    -0.124 C  
HETATM    2  C   UNL     1      -8.363   8.805  71.235  1.00  0.00    -0.225 C  
HETATM    3  C   UNL     1      -9.379   9.521  70.448  1.00  0.00    -0.311 A  
HETATM    4  C   UNL     1      -9.368  10.447  69.432  1.00  0.00    -0.167 A  
HETATM    5  N   UNL     1     -10.640  10.970  69.353  1.00  0.00    -0.358 NA 
HETATM    6  C   UNL     1     -11.443  10.402  70.332  1.00  0.00    -0.337 A  
HETATM    7  H   UNL     1     -10.945  11.669  68.677  1.00  0.00     0.000 HD 
HETATM    8  C   UNL     1     -12.676  10.746  70.862  1.00  0.00    -0.478 A  
HETATM    9  C   UNL     1     -13.144   9.900  71.883  1.00  0.00    -0.559 A  
HETATM   10  C   UNL     1     -12.517   8.669  72.213  1.00  0.00    -0.460 A  
HETATM   11  C   UNL     1     -11.310   8.302  71.604  1.00  0.00    -0.329 A  
HETATM   12  C   UNL     1     -10.742   9.307  70.781  1.00  0.00    -0.350 A  
HETATM   13  C   UNL     1     -10.435   7.085  71.669  1.00  0.00    -0.219 C  
HETATM   14  C   UNL     1     -10.709   5.734  71.577  1.00  0.00    -0.319 C  
HETATM   15  C   UNL     1      -9.455   4.866  71.213  1.00  0.00    -0.156 C  
HETATM   16  N   UNL     1      -8.318   6.578  72.604  1.00  0.00    -0.117 NA 
HETATM   17  C   UNL     1      -8.206   5.206  72.132  1.00  0.00    -0.114 C  
HETATM   18  C   UNL     1      -7.467   7.113  73.624  1.00  0.00    -0.082 C  
ENDROOT
BRANCH  15  19
HETATM   19  N   UNL     1      -9.533   3.453  70.851  1.00  0.00    -0.154 N  
HETATM   20  H   UNL     1     -10.277   2.832  71.168  1.00  0.00     0.000 HD 
BRANCH  19  21
HETATM   21  C   UNL     1      -8.480   3.039  70.023  1.00  0.00    -0.050 C  
HETATM   22  O   UNL     1      -7.603   2.272  70.428  1.00  0.00    -0.042 OA 
BRANCH  21  23
HETATM   23  N   UNL     1      -8.443   3.497  68.722  1.00  0.00    -0.076 N  
BRANCH  23  24
HETATM   24  C   UNL     1      -9.276   3.029  67.623  1.00  0.00    -0.197 C  
HETATM   25  C   UNL     1      -9.386   1.512  67.603  1.00  0.00    -0.133 C  
ENDBRANCH  23  24
BRANCH  23  26
HETATM   26  C   UNL     1      -7.535   4.624  68.436  1.00  0.00    -0.065 C  
HETATM   27  C   UNL     1      -8.244   5.890  67.973  1.00  0.00    -0.105 C  
ENDBRANCH  23  26
ENDBRANCH  21  23
ENDBRANCH  19  21
ENDBRANCH  15  19
TORSDOF 5
ENDMDL
MODEL      104
REMARK 921   NORMALIZED FREE ENERGY PREDICTED BY IDOCK:   -4.36 KCAL/MOL
REMARK 922        TOTAL FREE ENERGY PREDICTED BY IDOCK:   -6.12 KCAL/MOL
REMARK 923 INTER-LIGAND FREE ENERGY PREDICTED BY IDOCK:   -6.07 KCAL/MOL
REMARK 924 INTRA-LIGAND FREE ENERGY PREDICTED BY IDOCK:   -0.05 KCAL/MOL
REMARK 927      BINDING AFFINITY PREDICTED BY RF-SCORE:    0.00 PKD
ROOT
HETATM    1  C   UNL     1     -10.912  11.429  68.949  1.00  0.00    -0.226 C  
HETATM    2  C   UNL     1     -11.477  12.818  68.618  1.00  0.00    -0.341 C  
HETATM    3  C   UNL     1     -10.764  13.335  67.439  1.00  0.00    -0.266 A  
HETATM    4  C   UNL     1     -10.355  14.571  66.997  1.00  0.00    -0.263 A  
HETATM    5  N   UNL     1     -10.032  14.432  65.665  1.00  0.00    -0.408 NA 
HETATM    6  C   UNL     1     -10.263  13.126  65.259  1.00  0.00    -0.286 A  
HETATM    7  H   UNL     1      -9.676  15.178  65.068  1.00  0.00     0.000 HD 
HETATM    8  C   UNL     1     -10.368  12.525  64.014  1.00  0.00    -0.429 A  
HETATM    9  C   UNL     1     -10.640  11.146  64.038  1.00  0.00    -0.436 A  
HETATM   10  C   UNL     1     -10.605  10.373  65.228  1.00  0.00    -0.064 A  
HETATM   11  C   UNL     1     -10.416  10.991  66.470  1.00  0.00    -0.309 A  
HETATM   12  C   UNL     1     -10.413  12.409  66.423  1.00  0.00    -0.267 A  
HETATM   13  C   UNL     1     -10.268  10.489  67.876  1.00  0.00    -0.213 C  
HETATM   14  C   UNL     1      -9.491   9.491  68.433  1.00  0.00    -0.144 C  
HETATM   15  C   UNL     1      -9.296   9.641  69.981  1.00  0.00    -0.241 C  
HETATM   16  N   UNL     1     -11.618  10.502  69.823  1.00  0.00    -0.278 NA 
HETATM   17  C   UNL     1     -10.673   9.877  70.736  1.00  0.00    -0.280 C  
HETATM   18  C   UNL     1     -13.009  10.644  70.133  1.00  0.00     0.013 C  
ENDROOT
BRANCH  15  19
HETATM   19  N   UNL     1      -8.348   8.843  70.753  1.00  0.00    -0.157 N  
HETATM   20  H   UNL     1      -7.637   9.247  71.361  1.00  0.00     0.000 HD 
BRANCH  19  21
HETATM   21  C   UNL     1      -8.517   7.463  70.572  1.00  0.00    -0.137 C  
HETATM   22  O   UNL     1      -7.875   6.838  69.723  1.00  0.00    -0.110 OA 
BRANCH  21  23
HETATM   23  N   UNL     1      -9.415   6.796  71.379  1.00  0.00    -0.161 N  
BRANCH  23  24
HETATM   24  C   UNL     1      -9.221   6.453  72.782  1.00  0.00    -0.137 C  
HETATM   25  C   UNL     1     -10.545   6.316  73.517  1.00  0.00    -0.288 C  
ENDBRANCH  23  24
BRANCH  23  26
HETATM   26  C   UNL     1     -10.730   6.474  70.791  1.00  0.00    -0.241 C  
HETATM   27  C   UNL     1     -10.662   5.988  69.349  1.00  0.00    -0.403 C  
ENDBRANCH  23  26
ENDBRANCH  21  23
ENDBRANCH  19  21
ENDBRANCH  15  19
TORSDOF 5
ENDMDL
MODEL      105
REMARK 921   NORMALIZED FREE ENERGY PREDICTED BY IDOCK:   -4.32 KCAL/MOL
REMARK 922        TOTAL FREE ENERGY PREDICTED BY IDOCK:   -6.06 KCAL/MOL
REMARK 923 INTER-LIGAND FREE ENERGY PREDICTED BY IDOCK:   -5.83 KCAL/MOL
REMARK 924 INTRA-LIGAND FREE ENERGY PREDICTED BY IDOCK:   -0.23 KCAL/MOL
REMARK 927      BINDING AFFINITY PREDICTED BY RF-SCORE:    0.00 PKD
ROOT
HETATM    1  C   UNL     1      -8.447   9.039  64.872  1.00  0.00    -0.178 C  
HETATM    2  C   UNL     1      -7.490   7.862  64.634  1.00  0.00    -0.101 C  
HETATM    3  C   UNL     1      -7.371   7.107  65.892  1.00  0.00    -0.075 A  
HETATM    4  C   UNL     1      -6.378   6.400  66.528  1.00  0.00    -0.042 A  
HETATM    5  N   UNL     1      -6.987   5.651  67.511  1.00  0.00    -0.064 NA 
HETATM    6  C   UNL     1      -8.359   5.859  67.478  1.00  0.00    -0.105 A  
HETATM    7  H   UNL     1      -6.503   5.037  68.165  1.00  0.00     0.000 HD 
HETATM    8  C   UNL     1      -9.433   5.181  68.033  1.00  0.00    -0.156 A  
HETATM    9  C   UNL     1     -10.697   5.718  67.732  1.00  0.00    -0.306 A  
HETATM   10  C   UNL     1     -10.870   6.971  67.086  1.00  0.00    -0.427 A  
HETATM   11  C   UNL     1      -9.762   7.679  66.604  1.00  0.00    -0.283 A  
HETATM   12  C   UNL     1      -8.534   6.975  66.694  1.00  0.00    -0.121 A  
HETATM   13  C   UNL     1      -9.581   9.016  65.950  1.00  0.00    -0.317 C  
HETATM   14  C   UNL     1     -10.052  10.278  66.261  1.00  0.00    -0.300 C  
HETATM   15  C   UNL     1      -9.227  11.434  65.598  1.00  0.00    -0.193 C  
HETATM   16  N   UNL     1      -9.053   9.768  63.766  1.00  0.00    -0.248 NA 
HETATM   17  C   UNL     1      -9.009  11.197  64.042  1.00  0.00     0.024 C  
HETATM   18  C   UNL     1      -9.108   9.244  62.435  1.00  0.00    -0.120 C  
ENDROOT
BRANCH  15  19
HETATM   19  N   UNL     1      -9.395  12.842  65.944  1.00  0.00    -0.462 N  
HETATM   20  H   UNL     1      -8.785  13.338  66.595  1.00  0.00     0.000 HD 
BRANCH  19  21
HETATM   21  C   UNL     1     -10.480  13.444  65.292  1.00  0.00    -0.324 C  
HETATM   22  O   UNL     1     -10.318  14.206  64.335  1.00  0.00    -0.290 OA 
BRANCH  21  23
HETATM   23  N   UNL     1     -11.756  13.157  65.731  1.00  0.00    -0.355 N  
BRANCH  23  24
HETATM   24  C   UNL     1     -12.791  12.468  64.972  1.00  0.00    -0.040 C  
HETATM   25  C   UNL     1     -12.353  12.188  63.543  1.00  0.00    -0.682 C  
ENDBRANCH  23  24
BRANCH  23  26
HETATM   26  C   UNL     1     -12.075  13.505  67.129  1.00  0.00    -0.340 C  
HETATM   27  C   UNL     1     -11.753  14.947  67.497  1.00  0.00    -0.328 C  
ENDBRANCH  23  26
ENDBRANCH  21  23
ENDBRANCH  19  21
ENDBRANCH  15  19
TORSDOF 5
ENDMDL
MODEL      106
REMARK 921   NORMALIZED FREE ENERGY PREDICTED BY IDOCK:   -4.25 KCAL/MOL
REMARK 922        TOTAL FREE ENERGY PREDICTED BY IDOCK:   -5.97 KCAL/MOL
REMARK 923 INTER-LIGAND FREE ENERGY PREDICTED BY IDOCK:   -5.23 KCAL/MOL
REMARK 924 INTRA-LIGAND FREE ENERGY PREDICTED BY IDOCK:   -0.74 KCAL/MOL
REMARK 927      BINDING AFFINITY PREDICTED BY RF-SCORE:    0.00 PKD
ROOT
HETATM    1  C   UNL     1      -9.097   5.035  69.376  1.00  0.00    -0.103 C  
HETATM    2  C   UNL     1      -7.838   4.435  70.020  1.00  0.00    -0.053 C  
HETATM    3  C   UNL     1      -7.675   5.035  71.354  1.00  0.00    -0.100 A  
HETATM    4  C   UNL     1      -6.614   5.395  72.151  1.00  0.00    -0.056 A  
HETATM    5  N   UNL     1      -7.116   5.595  73.418  1.00  0.00    -0.085 NA 
HETATM    6  C   UNL     1      -8.478   5.334  73.431  1.00  0.00    -0.113 A  
HETATM    7  H   UNL     1      -6.568   5.892  74.225  1.00  0.00     0.000 HD 
HETATM    8  C   UNL     1      -9.392   5.118  74.451  1.00  0.00    -0.128 A  
HETATM    9  C   UNL     1     -10.707   4.857  74.029  1.00  0.00    -0.354 A  
HETATM   10  C   UNL     1     -11.129   5.004  72.681  1.00  0.00    -0.265 A  
HETATM   11  C   UNL     1     -10.200   5.304  71.676  1.00  0.00    -0.274 A  
HETATM   12  C   UNL     1      -8.849   5.295  72.107  1.00  0.00    -0.135 A  
HETATM   13  C   UNL     1     -10.305   5.582  70.206  1.00  0.00    -0.349 C  
HETATM   14  C   UNL     1     -11.130   6.412  69.471  1.00  0.00    -0.460 C  
HETATM   15  C   UNL     1     -10.569   6.748  68.046  1.00  0.00    -0.231 C  
HETATM   16  N   UNL     1      -9.736   4.417  68.223  1.00  0.00    -0.135 NA 
HETATM   17  C   UNL     1     -10.109   5.444  67.263  1.00  0.00    -0.193 C  
HETATM   18  C   UNL     1      -9.488   3.059  67.840  1.00  0.00    -0.155 C  
ENDROOT
BRANCH  15  19
HETATM   19  N   UNL     1     -11.148   7.766  67.173  1.00  0.00    -0.417 N  
HETATM   20  H   UNL     1     -12.107   7.732  66.828  1.00  0.00     0.000 HD 
BRANCH  19  21
HETATM   21  C   UNL     1     -10.249   8.795  66.859  1.00  0.00    -0.287 C  
HETATM   22  O   UNL     1      -9.505   8.726  65.877  1.00  0.00    -0.235 OA 
BRANCH  21  23
HETATM   23  N   UNL     1     -10.215   9.912  67.666  1.00  0.00    -0.194 N  
BRANCH  23  24
HETATM   24  C   UNL     1     -11.356  10.525  68.334  1.00  0.00    -0.262 C  
HETATM   25  C   UNL     1     -11.303  10.322  69.841  1.00  0.00    -0.354 C  
ENDBRANCH  23  24
BRANCH  23  26
HETATM   26  C   UNL     1      -8.888  10.492  67.949  1.00  0.00    -0.133 C  
HETATM   27  C   UNL     1      -8.823  12.004  67.776  1.00  0.00    -0.165 C  
ENDBRANCH  23  26
ENDBRANCH  21  23
ENDBRANCH  19  21
ENDBRANCH  15  19
TORSDOF 5
ENDMDL
MODEL      107
REMARK 921   NORMALIZED FREE ENERGY PREDICTED BY IDOCK:   -4.25 KCAL/MOL
REMARK 922        TOTAL FREE ENERGY PREDICTED BY IDOCK:   -5.97 KCAL/MOL
REMARK 923 INTER-LIGAND FREE ENERGY PREDICTED BY IDOCK:   -5.03 KCAL/MOL
REMARK 924 INTRA-LIGAND FREE ENERGY PREDICTED BY IDOCK:   -0.94 KCAL/MOL
REMARK 927      BINDING AFFINITY PREDICTED BY RF-SCORE:    0.00 PKD
ROOT
HETATM    1  C   UNL     1      -9.071   5.752  68.245  1.00  0.00    -0.117 C  
HETATM    2  C   UNL     1      -8.343   4.896  69.292  1.00  0.00    -0.085 C  
HETATM    3  C   UNL     1      -8.473   5.560  70.598  1.00  0.00    -0.121 A  
HETATM    4  C   UNL     1      -7.690   5.692  71.721  1.00  0.00    -0.101 A  
HETATM    5  N   UNL     1      -8.509   6.151  72.728  1.00  0.00    -0.124 NA 
HETATM    6  C   UNL     1      -9.808   6.280  72.257  1.00  0.00    -0.161 A  
HETATM    7  H   UNL     1      -8.206   6.365  73.678  1.00  0.00     0.000 HD 
HETATM    8  C   UNL     1     -11.033   6.430  72.886  1.00  0.00    -0.281 A  
HETATM    9  C   UNL     1     -12.142   6.502  72.024  1.00  0.00    -0.358 A  
HETATM   10  C   UNL     1     -12.017   6.622  70.615  1.00  0.00    -0.404 A  
HETATM   11  C   UNL     1     -10.759   6.548  70.005  1.00  0.00    -0.302 A  
HETATM   12  C   UNL     1      -9.701   6.210  70.887  1.00  0.00    -0.203 A  
HETATM   13  C   UNL     1     -10.271   6.694  68.594  1.00  0.00    -0.184 C  
HETATM   14  C   UNL     1     -10.513   7.640  67.617  1.00  0.00    -0.313 C  
HETATM   15  C   UNL     1      -9.430   7.660  66.484  1.00  0.00    -0.190 C  
HETATM   16  N   UNL     1      -9.434   5.220  66.938  1.00  0.00    -0.129 NA 
HETATM   17  C   UNL     1      -9.138   6.208  65.911  1.00  0.00    -0.085 C  
HETATM   18  C   UNL     1      -9.482   3.816  66.664  1.00  0.00    -0.192 C  
ENDROOT
BRANCH  15  19
HETATM   19  N   UNL     1      -9.350   8.704  65.466  1.00  0.00    -0.436 N  
HETATM   20  H   UNL     1      -9.847   8.662  64.577  1.00  0.00     0.000 HD 
BRANCH  19  21
HETATM   21  C   UNL     1      -8.519   9.771  65.837  1.00  0.00    -0.128 C  
HETATM   22  O   UNL     1      -7.324   9.797  65.530  1.00  0.00    -0.102 OA 
BRANCH  21  23
HETATM   23  N   UNL     1      -9.066  10.817  66.551  1.00  0.00    -0.162 N  
BRANCH  23  24
HETATM   24  C   UNL     1     -10.348  11.458  66.291  1.00  0.00    -0.243 C  
HETATM   25  C   UNL     1     -11.263  11.403  67.505  1.00  0.00    -0.356 C  
ENDBRANCH  23  24
BRANCH  23  26
HETATM   26  C   UNL     1      -8.323  11.274  67.741  1.00  0.00    -0.125 C  
HETATM   27  C   UNL     1      -8.249  10.243  68.860  1.00  0.00    -0.130 C  
ENDBRANCH  23  26
ENDBRANCH  21  23
ENDBRANCH  19  21
ENDBRANCH  15  19
TORSDOF 5
ENDMDL
MODEL      108
REMARK 921   NORMALIZED FREE ENERGY PREDICTED BY IDOCK:   -4.14 KCAL/MOL
REMARK 922        TOTAL FREE ENERGY PREDICTED BY IDOCK:   -5.83 KCAL/MOL
REMARK 923 INTER-LIGAND FREE ENERGY PREDICTED BY IDOCK:   -5.21 KCAL/MOL
REMARK 924 INTRA-LIGAND FREE ENERGY PREDICTED BY IDOCK:   -0.62 KCAL/MOL
REMARK 927      BINDING AFFINITY PREDICTED BY RF-SCORE:    0.00 PKD
ROOT
HETATM    1  C   UNL     1     -10.577   9.075  69.088  1.00  0.00    -0.203 C  
HETATM    2  C   UNL     1     -10.979   9.850  67.823  1.00  0.00    -0.278 C  
HETATM    3  C   UNL     1     -10.511  11.238  67.968  1.00  0.00    -0.215 A  
HETATM    4  C   UNL     1     -10.964  12.477  67.581  1.00  0.00    -0.242 A  
HETATM    5  N   UNL     1      -9.911  13.352  67.731  1.00  0.00    -0.227 NA 
HETATM    6  C   UNL     1      -8.791  12.668  68.182  1.00  0.00    -0.194 A  
HETATM    7  H   UNL     1      -9.949  14.353  67.540  1.00  0.00     0.000 HD 
HETATM    8  C   UNL     1      -7.444  12.988  68.236  1.00  0.00    -0.128 A  
HETATM    9  C   UNL     1      -6.612  11.981  68.755  1.00  0.00    -0.082 A  
HETATM   10  C   UNL     1      -7.115  10.804  69.371  1.00  0.00    -0.122 A  
HETATM   11  C   UNL     1      -8.490  10.539  69.376  1.00  0.00    -0.106 A  
HETATM   12  C   UNL     1      -9.264  11.450  68.610  1.00  0.00    -0.149 A  
HETATM   13  C   UNL     1      -9.344   9.460  69.972  1.00  0.00    -0.253 C  
HETATM   14  C   UNL     1      -9.393   8.900  71.234  1.00  0.00    -0.336 C  
HETATM   15  C   UNL     1     -10.743   8.164  71.539  1.00  0.00    -0.233 C  
HETATM   16  N   UNL     1     -10.572   7.619  69.124  1.00  0.00    -0.211 NA 
HETATM   17  C   UNL     1     -11.153   7.161  70.377  1.00  0.00    -0.280 C  
HETATM   18  C   UNL     1     -10.574   6.818  67.937  1.00  0.00    -0.242 C  
ENDROOT
BRANCH  15  19
HETATM   19  N   UNL     1     -11.114   7.684  72.867  1.00  0.00    -0.394 N  
HETATM   20  H   UNL     1     -12.028   7.849  73.290  1.00  0.00     0.000 HD 
BRANCH  19  21
HETATM   21  C   UNL     1     -10.086   6.973  73.502  1.00  0.00    -0.310 C  
HETATM   22  O   UNL     1      -9.450   7.458  74.442  1.00  0.00    -0.148 OA 
BRANCH  21  23
HETATM   23  N   UNL     1      -9.799   5.697  73.067  1.00  0.00    -0.165 N  
BRANCH  23  24
HETATM   24  C   UNL     1      -8.473   5.159  72.795  1.00  0.00    -0.113 C  
HETATM   25  C   UNL     1      -8.072   5.352  71.340  1.00  0.00    -0.116 C  
ENDBRANCH  23  24
BRANCH  23  26
HETATM   26  C   UNL     1     -10.934   4.761  72.945  1.00  0.00    -0.238 C  
HETATM   27  C   UNL     1     -10.993   3.711  74.047  1.00  0.00    -0.223 C  
ENDBRANCH  23  26
ENDBRANCH  21  23
ENDBRANCH  19  21
ENDBRANCH  15  19
TORSDOF 5
ENDMDL
MODEL      109
REMARK 921   NORMALIZED FREE ENERGY PREDICTED BY IDOCK:   -4.14 KCAL/MOL
REMARK 922        TOTAL FREE ENERGY PREDICTED BY IDOCK:   -5.83 KCAL/MOL
REMARK 923 INTER-LIGAND FREE ENERGY PREDICTED BY IDOCK:   -5.16 KCAL/MOL
REMARK 924 INTRA-LIGAND FREE ENERGY PREDICTED BY IDOCK:   -0.67 KCAL/MOL
REMARK 927      BINDING AFFINITY PREDICTED BY RF-SCORE:    0.00 PKD
ROOT
HETATM    1  C   UNL     1      -8.113   9.825  67.526  1.00  0.00    -0.114 C  
HETATM    2  C   UNL     1      -6.949   9.656  66.536  1.00  0.00    -0.085 C  
HETATM    3  C   UNL     1      -7.507   9.249  65.237  1.00  0.00    -0.098 A  
HETATM    4  C   UNL     1      -7.103   8.443  64.199  1.00  0.00    -0.083 A  
HETATM    5  N   UNL     1      -7.917   8.735  63.127  1.00  0.00    -0.151 NA 
HETATM    6  C   UNL     1      -8.809   9.739  63.473  1.00  0.00    -0.241 A  
HETATM    7  H   UNL     1      -7.870   8.281  62.215  1.00  0.00     0.000 HD 
HETATM    8  C   UNL     1      -9.631  10.574  62.731  1.00  0.00    -0.323 A  
HETATM    9  C   UNL     1     -10.380  11.495  63.483  1.00  0.00    -0.484 A  
HETATM   10  C   UNL     1     -10.461  11.451  64.900  1.00  0.00    -0.363 A  
HETATM   11  C   UNL     1      -9.681  10.543  65.627  1.00  0.00    -0.289 A  
HETATM   12  C   UNL     1      -8.746   9.818  64.844  1.00  0.00    -0.207 A  
HETATM   13  C   UNL     1      -9.567  10.194  67.081  1.00  0.00    -0.202 C  
HETATM   14  C   UNL     1     -10.512   9.914  68.050  1.00  0.00    -0.266 C  
HETATM   15  C   UNL     1      -9.932   9.138  69.282  1.00  0.00    -0.187 C  
HETATM   16  N   UNL     1      -7.953  10.548  68.779  1.00  0.00    -0.118 NA 
HETATM   17  C   UNL     1      -8.614   9.818  69.851  1.00  0.00    -0.218 C  
HETATM   18  C   UNL     1      -6.863  11.445  69.019  1.00  0.00    -0.102 C  
ENDROOT
BRANCH  15  19
HETATM   19  N   UNL     1     -10.766   8.546  70.324  1.00  0.00    -0.228 N  
HETATM   20  H   UNL     1     -11.260   9.094  71.028  1.00  0.00     0.000 HD 
BRANCH  19  21
HETATM   21  C   UNL     1     -10.818   7.146  70.257  1.00  0.00    -0.249 C  
HETATM   22  O   UNL     1     -11.755   6.559  69.710  1.00  0.00    -0.382 OA 
BRANCH  21  23
HETATM   23  N   UNL     1      -9.783   6.420  70.808  1.00  0.00    -0.179 N  
BRANCH  23  24
HETATM   24  C   UNL     1      -9.434   6.357  72.221  1.00  0.00    -0.148 C  
HETATM   25  C   UNL     1      -8.092   7.016  72.500  1.00  0.00    -0.107 C  
ENDBRANCH  23  24
BRANCH  23  26
HETATM   26  C   UNL     1      -9.010   5.560  69.892  1.00  0.00    -0.127 C  
HETATM   27  C   UNL     1      -9.228   4.068  70.110  1.00  0.00    -0.212 C  
ENDBRANCH  23  26
ENDBRANCH  21  23
ENDBRANCH  19  21
ENDBRANCH  15  19
TORSDOF 5
ENDMDL
MODEL      110
REMARK 921   NORMALIZED FREE ENERGY PREDICTED BY IDOCK:   -4.12 KCAL/MOL
REMARK 922        TOTAL FREE ENERGY PREDICTED BY IDOCK:   -5.81 KCAL/MOL
REMARK 923 INTER-LIGAND FREE ENERGY PREDICTED BY IDOCK:   -5.10 KCAL/MOL
REMARK 924 INTRA-LIGAND FREE ENERGY PREDICTED BY IDOCK:   -0.71 KCAL/MOL
REMARK 927      BINDING AFFINITY PREDICTED BY RF-SCORE:    0.00 PKD
ROOT
HETATM    1  C   UNL     1      -7.620  14.108  68.401  1.00  0.00    -0.130 C  
HETATM    2  C   UNL     1      -7.592  15.566  68.883  1.00  0.00    -0.166 C  
HETATM    3  C   UNL     1      -8.879  16.189  68.534  1.00  0.00    -0.200 A  
HETATM    4  C   UNL     1      -9.297  17.442  68.153  1.00  0.00    -0.277 A  
HETATM    5  N   UNL     1     -10.667  17.466  68.294  1.00  0.00    -0.360 NA 
HETATM    6  C   UNL     1     -11.110  16.249  68.789  1.00  0.00    -0.355 A  
HETATM    7  H   UNL     1     -11.265  18.260  68.068  1.00  0.00     0.000 HD 
HETATM    8  C   UNL     1     -12.305  15.835  69.357  1.00  0.00    -0.034 A  
HETATM    9  C   UNL     1     -12.340  14.489  69.759  1.00  0.00    -0.317 A  
HETATM   10  C   UNL     1     -11.320  13.558  69.430  1.00  0.00    -0.293 A  
HETATM   11  C   UNL     1     -10.153  13.983  68.783  1.00  0.00    -0.183 A  
HETATM   12  C   UNL     1     -10.047  15.390  68.636  1.00  0.00    -0.212 A  
HETATM   13  C   UNL     1      -8.940  13.282  68.248  1.00  0.00    -0.176 C  
HETATM   14  C   UNL     1      -8.785  12.165  67.450  1.00  0.00    -0.177 C  
HETATM   15  C   UNL     1      -7.384  12.085  66.752  1.00  0.00     0.033 C  
HETATM   16  N   UNL     1      -6.665  13.122  68.888  1.00  0.00    -0.096 NA 
HETATM   17  C   UNL     1      -6.192  12.311  67.776  1.00  0.00    -0.101 C  
HETATM   18  C   UNL     1      -5.895  13.317  70.080  1.00  0.00    -0.136 C  
ENDROOT
BRANCH  15  19
HETATM   19  N   UNL     1      -7.063  11.122  65.702  1.00  0.00    -0.364 N  
HETATM   20  H   UNL     1      -6.528  11.358  64.867  1.00  0.00     0.000 HD 
BRANCH  19  21
HETATM   21  C   UNL     1      -7.565   9.839  65.961  1.00  0.00    -0.102 C  
HETATM   22  O   UNL     1      -6.980   9.054  66.711  1.00  0.00    -0.079 OA 
BRANCH  21  23
HETATM   23  N   UNL     1      -8.752   9.463  65.367  1.00  0.00    -0.154 N  
BRANCH  23  24
HETATM   24  C   UNL     1      -9.311  10.009  64.138  1.00  0.00    -0.280 C  
HETATM   25  C   UNL     1     -10.432  10.998  64.418  1.00  0.00    -0.422 C  
ENDBRANCH  23  24
BRANCH  23  26
HETATM   26  C   UNL     1      -9.485   8.343  65.990  1.00  0.00    -0.154 C  
HETATM   27  C   UNL     1     -10.411   8.762  67.124  1.00  0.00    -0.364 C  
ENDBRANCH  23  26
ENDBRANCH  21  23
ENDBRANCH  19  21
ENDBRANCH  15  19
TORSDOF 5
ENDMDL
MODEL      111
REMARK 921   NORMALIZED FREE ENERGY PREDICTED BY IDOCK:   -4.11 KCAL/MOL
REMARK 922        TOTAL FREE ENERGY PREDICTED BY IDOCK:   -5.80 KCAL/MOL
REMARK 923 INTER-LIGAND FREE ENERGY PREDICTED BY IDOCK:   -5.46 KCAL/MOL
REMARK 924 INTRA-LIGAND FREE ENERGY PREDICTED BY IDOCK:   -0.34 KCAL/MOL
REMARK 927      BINDING AFFINITY PREDICTED BY RF-SCORE:    0.00 PKD
ROOT
HETATM    1  C   UNL     1      -8.788   7.362  67.923  1.00  0.00    -0.132 C  
HETATM    2  C   UNL     1      -8.520   5.948  68.461  1.00  0.00    -0.111 C  
HETATM    3  C   UNL     1      -9.071   4.979  67.500  1.00  0.00    -0.122 A  
HETATM    4  C   UNL     1      -9.664   3.742  67.577  1.00  0.00    -0.085 A  
HETATM    5  N   UNL     1      -9.653   3.213  66.306  1.00  0.00    -0.401 NA 
HETATM    6  C   UNL     1      -9.031   4.096  65.435  1.00  0.00    -0.132 A  
HETATM    7  H   UNL     1     -10.045   2.309  66.043  1.00  0.00     0.000 HD 
HETATM    8  C   UNL     1      -8.521   3.960  64.153  1.00  0.00    -0.093 A  
HETATM    9  C   UNL     1      -7.933   5.121  63.619  1.00  0.00    -0.098 A  
HETATM   10  C   UNL     1      -8.031   6.393  64.243  1.00  0.00    -0.102 A  
HETATM   11  C   UNL     1      -8.625   6.520  65.505  1.00  0.00    -0.109 A  
HETATM   12  C   UNL     1      -8.962   5.287  66.119  1.00  0.00    -0.139 A  
HETATM   13  C   UNL     1      -8.941   7.682  66.399  1.00  0.00    -0.198 C  
HETATM   14  C   UNL     1      -9.552   8.899  66.164  1.00  0.00    -0.335 C  
HETATM   15  C   UNL     1     -10.102   9.583  67.463  1.00  0.00    -0.204 C  
HETATM   16  N   UNL     1      -8.080   8.525  68.439  1.00  0.00    -0.121 NA 
HETATM   17  C   UNL     1      -9.017   9.624  68.622  1.00  0.00    -0.129 C  
HETATM   18  C   UNL     1      -6.864   8.418  69.187  1.00  0.00    -0.055 C  
ENDROOT
BRANCH  15  19
HETATM   19  N   UNL     1     -10.969  10.758  67.448  1.00  0.00    -0.293 N  
HETATM   20  H   UNL     1     -11.800  10.851  68.031  1.00  0.00     0.000 HD 
BRANCH  19  21
HETATM   21  C   UNL     1     -10.541  11.745  66.550  1.00  0.00    -0.253 C  
HETATM   22  O   UNL     1      -9.381  12.166  66.555  1.00  0.00    -0.220 OA 
BRANCH  21  23
HETATM   23  N   UNL     1     -11.444  12.240  65.632  1.00  0.00    -0.355 N  
BRANCH  23  24
HETATM   24  C   UNL     1     -12.472  13.240  65.890  1.00  0.00    -0.368 C  
HETATM   25  C   UNL     1     -12.105  14.136  67.063  1.00  0.00    -0.449 C  
ENDBRANCH  23  24
BRANCH  23  26
HETATM   26  C   UNL     1     -11.303  11.775  64.238  1.00  0.00    -0.325 C  
HETATM   27  C   UNL     1     -12.498  12.099  63.352  1.00  0.00    -0.625 C  
ENDBRANCH  23  26
ENDBRANCH  21  23
ENDBRANCH  19  21
ENDBRANCH  15  19
TORSDOF 5
ENDMDL
MODEL      112
REMARK 921   NORMALIZED FREE ENERGY PREDICTED BY IDOCK:   -4.04 KCAL/MOL
REMARK 922        TOTAL FREE ENERGY PREDICTED BY IDOCK:   -5.70 KCAL/MOL
REMARK 923 INTER-LIGAND FREE ENERGY PREDICTED BY IDOCK:   -5.61 KCAL/MOL
REMARK 924 INTRA-LIGAND FREE ENERGY PREDICTED BY IDOCK:   -0.09 KCAL/MOL
REMARK 927      BINDING AFFINITY PREDICTED BY RF-SCORE:    0.00 PKD
ROOT
HETATM    1  C   UNL     1     -10.445  15.249  70.065  1.00  0.00    -0.247 C  
HETATM    2  C   UNL     1     -10.700  15.144  71.577  1.00  0.00     0.294 C  
HETATM    3  C   UNL     1     -11.962  14.415  71.780  1.00  0.00    -0.209 A  
HETATM    4  C   UNL     1     -12.992  14.460  72.689  1.00  0.00    -0.445 A  
HETATM    5  N   UNL     1     -13.718  13.300  72.529  1.00  0.00    -0.695 NA 
HETATM    6  C   UNL     1     -13.135  12.512  71.548  1.00  0.00    -0.277 A  
HETATM    7  H   UNL     1     -14.558  13.058  73.054  1.00  0.00     0.000 HD 
HETATM    8  C   UNL     1     -13.281  11.181  71.191  1.00  0.00    -0.132 A  
HETATM    9  C   UNL     1     -12.466  10.756  70.127  1.00  0.00    -0.357 A  
HETATM   10  C   UNL     1     -11.702  11.652  69.334  1.00  0.00    -0.405 A  
HETATM   11  C   UNL     1     -11.633  13.011  69.665  1.00  0.00    -0.322 A  
HETATM   12  C   UNL     1     -12.254  13.344  70.896  1.00  0.00    -0.367 A  
HETATM   13  C   UNL     1     -10.992  14.210  69.031  1.00  0.00    -0.286 C  
HETATM   14  C   UNL     1     -10.989  14.689  67.735  1.00  0.00    -0.291 C  
HETATM   15  C   UNL     1     -10.607  16.205  67.631  1.00  0.00    -0.315 C  
HETATM   16  N   UNL     1      -9.134  15.591  69.532  1.00  0.00    -0.281 NA 
HETATM   17  C   UNL     1      -9.286  16.546  68.444  1.00  0.00    -0.222 C  
HETATM   18  C   UNL     1      -7.936  15.495  70.310  1.00  0.00     0.826 C  
ENDROOT
BRANCH  15  19
HETATM   19  N   UNL     1     -10.742  16.986  66.404  1.00  0.00    -0.152 N  
HETATM   20  H   UNL     1     -11.610  17.053  65.873  1.00  0.00     0.000 HD 
BRANCH  19  21
HETATM   21  C   UNL     1      -9.556  17.634  66.032  1.00  0.00    -0.103 C  
HETATM   22  O   UNL     1      -8.699  17.070  65.346  1.00  0.00     0.005 OA 
BRANCH  21  23
HETATM   23  N   UNL     1      -9.361  18.938  66.436  1.00  0.00    -0.333 N  
BRANCH  23  24
HETATM   24  C   UNL     1     -10.402  19.922  66.697  1.00  0.00    -0.485 C  
HETATM   25  C   UNL     1     -10.381  20.396  68.143  1.00  0.00    -0.255 C  
ENDBRANCH  23  24
BRANCH  23  26
HETATM   26  C   UNL     1      -7.971  19.350  66.712  1.00  0.00    -0.273 C  
HETATM   27  C   UNL     1      -7.328  20.153  65.588  1.00  0.00    -0.283 C  
ENDBRANCH  23  26
ENDBRANCH  21  23
ENDBRANCH  19  21
ENDBRANCH  15  19
TORSDOF 5
ENDMDL
MODEL      113
REMARK 921   NORMALIZED FREE ENERGY PREDICTED BY IDOCK:   -4.04 KCAL/MOL
REMARK 922        TOTAL FREE ENERGY PREDICTED BY IDOCK:   -5.70 KCAL/MOL
REMARK 923 INTER-LIGAND FREE ENERGY PREDICTED BY IDOCK:   -4.77 KCAL/MOL
REMARK 924 INTRA-LIGAND FREE ENERGY PREDICTED BY IDOCK:   -0.93 KCAL/MOL
REMARK 927      BINDING AFFINITY PREDICTED BY RF-SCORE:    0.00 PKD
ROOT
HETATM    1  C   UNL     1      -9.016   7.805  66.616  1.00  0.00    -0.149 C  
HETATM    2  C   UNL     1      -7.669   7.681  65.888  1.00  0.00    -0.098 C  
HETATM    3  C   UNL     1      -7.220   6.283  65.989  1.00  0.00    -0.075 A  
HETATM    4  C   UNL     1      -6.009   5.641  66.097  1.00  0.00    -0.022 A  
HETATM    5  N   UNL     1      -6.235   4.312  65.816  1.00  0.00    -0.031 NA 
HETATM    6  C   UNL     1      -7.573   4.118  65.503  1.00  0.00    -0.085 A  
HETATM    7  H   UNL     1      -5.526   3.580  65.836  1.00  0.00     0.000 HD 
HETATM    8  C   UNL     1      -8.263   3.079  64.900  1.00  0.00    -0.087 A  
HETATM    9  C   UNL     1      -9.644   3.292  64.741  1.00  0.00    -0.149 A  
HETATM   10  C   UNL     1     -10.328   4.387  65.332  1.00  0.00    -0.238 A  
HETATM   11  C   UNL     1      -9.618   5.387  66.008  1.00  0.00    -0.149 A  
HETATM   12  C   UNL     1      -8.207   5.267  65.913  1.00  0.00    -0.117 A  
HETATM   13  C   UNL     1     -10.014   6.611  66.779  1.00  0.00    -0.238 C  
HETATM   14  C   UNL     1     -10.949   6.824  67.774  1.00  0.00    -0.321 C  
HETATM   15  C   UNL     1     -10.683   8.120  68.614  1.00  0.00    -0.025 C  
HETATM   16  N   UNL     1      -9.895   8.948  66.411  1.00  0.00    -0.265 NA 
HETATM   17  C   UNL     1     -10.429   9.388  67.692  1.00  0.00    -0.268 C  
HETATM   18  C   UNL     1      -9.767   9.827  65.288  1.00  0.00    -0.300 C  
ENDROOT
BRANCH  15  19
HETATM   19  N   UNL     1     -11.400   8.442  69.845  1.00  0.00    -0.454 N  
HETATM   20  H   UNL     1     -11.817   9.354  70.031  1.00  0.00     0.000 HD 
BRANCH  19  21
HETATM   21  C   UNL     1     -11.455   7.369  70.745  1.00  0.00    -0.288 C  
HETATM   22  O   UNL     1     -12.504   6.755  70.956  1.00  0.00    -0.367 OA 
BRANCH  21  23
HETATM   23  N   UNL     1     -10.298   6.990  71.393  1.00  0.00    -0.198 N  
BRANCH  23  24
HETATM   24  C   UNL     1      -9.645   5.691  71.299  1.00  0.00    -0.160 C  
HETATM   25  C   UNL     1      -8.543   5.689  70.251  1.00  0.00    -0.131 C  
ENDBRANCH  23  24
BRANCH  23  26
HETATM   26  C   UNL     1      -9.610   8.024  72.191  1.00  0.00    -0.215 C  
HETATM   27  C   UNL     1      -9.426   7.655  73.658  1.00  0.00    -0.340 C  
ENDBRANCH  23  26
ENDBRANCH  21  23
ENDBRANCH  19  21
ENDBRANCH  15  19
TORSDOF 5
ENDMDL
MODEL      114
REMARK 921   NORMALIZED FREE ENERGY PREDICTED BY IDOCK:   -4.03 KCAL/MOL
REMARK 922        TOTAL FREE ENERGY PREDICTED BY IDOCK:   -5.70 KCAL/MOL
REMARK 923 INTER-LIGAND FREE ENERGY PREDICTED BY IDOCK:   -5.47 KCAL/MOL
REMARK 924 INTRA-LIGAND FREE ENERGY PREDICTED BY IDOCK:   -0.23 KCAL/MOL
REMARK 927      BINDING AFFINITY PREDICTED BY RF-SCORE:    0.00 PKD
ROOT
HETATM    1  C   UNL     1     -10.187   8.135  68.040  1.00  0.00    -0.212 C  
HETATM    2  C   UNL     1     -10.862   6.755  68.079  1.00  0.00    -0.306 C  
HETATM    3  C   UNL     1     -10.294   5.937  66.996  1.00  0.00    -0.298 A  
HETATM    4  C   UNL     1     -10.761   4.958  66.150  1.00  0.00    -0.184 A  
HETATM    5  N   UNL     1      -9.657   4.355  65.588  1.00  0.00    -0.172 NA 
HETATM    6  C   UNL     1      -8.499   4.927  66.096  1.00  0.00    -0.112 A  
HETATM    7  H   UNL     1      -9.687   3.602  64.901  1.00  0.00     0.000 HD 
HETATM    8  C   UNL     1      -7.169   4.539  66.088  1.00  0.00    -0.076 A  
HETATM    9  C   UNL     1      -6.289   5.410  66.753  1.00  0.00    -0.039 A  
HETATM   10  C   UNL     1      -6.680   6.693  67.220  1.00  0.00    -0.063 A  
HETATM   11  C   UNL     1      -8.018   7.099  67.145  1.00  0.00    -0.110 A  
HETATM   12  C   UNL     1      -8.912   6.085  66.712  1.00  0.00    -0.122 A  
HETATM   13  C   UNL     1      -8.746   8.367  67.476  1.00  0.00    -0.136 C  
HETATM   14  C   UNL     1      -8.493   9.693  67.176  1.00  0.00    -0.131 C  
HETATM   15  C   UNL     1      -9.755  10.613  67.304  1.00  0.00    -0.168 C  
HETATM   16  N   UNL     1     -10.255   9.053  69.168  1.00  0.00    -0.200 NA 
HETATM   17  C   UNL     1     -10.512  10.402  68.684  1.00  0.00    -0.196 C  
HETATM   18  C   UNL     1     -10.615   8.628  70.487  1.00  0.00    -0.217 C  
ENDROOT
BRANCH  15  19
HETATM   19  N   UNL     1      -9.792  11.996  66.837  1.00  0.00    -0.202 N  
HETATM   20  H   UNL     1      -8.969  12.501  66.508  1.00  0.00     0.000 HD 
BRANCH  19  21
HETATM   21  C   UNL     1     -11.075  12.560  66.887  1.00  0.00    -0.278 C  
HETATM   22  O   UNL     1     -12.024  12.063  66.275  1.00  0.00    -0.596 OA 
BRANCH  21  23
HETATM   23  N   UNL     1     -11.270  13.688  67.657  1.00  0.00    -0.269 N  
BRANCH  23  24
HETATM   24  C   UNL     1     -10.903  15.050  67.294  1.00  0.00    -0.310 C  
HETATM   25  C   UNL     1     -10.817  15.229  65.786  1.00  0.00    -0.363 C  
ENDBRANCH  23  24
BRANCH  23  26
HETATM   26  C   UNL     1     -11.997  13.511  68.929  1.00  0.00    -0.341 C  
HETATM   27  C   UNL     1     -12.029  14.758  69.803  1.00  0.00    -0.368 C  
ENDBRANCH  23  26
ENDBRANCH  21  23
ENDBRANCH  19  21
ENDBRANCH  15  19
TORSDOF 5
ENDMDL
MODEL      115
REMARK 921   NORMALIZED FREE ENERGY PREDICTED BY IDOCK:   -4.00 KCAL/MOL
REMARK 922        TOTAL FREE ENERGY PREDICTED BY IDOCK:   -5.66 KCAL/MOL
REMARK 923 INTER-LIGAND FREE ENERGY PREDICTED BY IDOCK:   -5.13 KCAL/MOL
REMARK 924 INTRA-LIGAND FREE ENERGY PREDICTED BY IDOCK:   -0.52 KCAL/MOL
REMARK 927      BINDING AFFINITY PREDICTED BY RF-SCORE:    0.00 PKD
ROOT
HETATM    1  C   UNL     1      -9.365   5.293  69.467  1.00  0.00    -0.130 C  
HETATM    2  C   UNL     1      -8.698   5.399  70.847  1.00  0.00    -0.140 C  
HETATM    3  C   UNL     1      -9.076   6.691  71.441  1.00  0.00    -0.143 A  
HETATM    4  C   UNL     1      -8.472   7.614  72.261  1.00  0.00    -0.123 A  
HETATM    5  N   UNL     1      -9.465   8.448  72.724  1.00  0.00    -0.268 NA 
HETATM    6  C   UNL     1     -10.693   8.038  72.227  1.00  0.00    -0.296 A  
HETATM    7  H   UNL     1      -9.319   9.247  73.341  1.00  0.00     0.000 HD 
HETATM    8  C   UNL     1     -12.002   8.333  72.574  1.00  0.00    -0.420 A  
HETATM    9  C   UNL     1     -12.984   7.672  71.816  1.00  0.00    -0.360 A  
HETATM   10  C   UNL     1     -12.683   6.920  70.649  1.00  0.00    -0.010 A  
HETATM   11  C   UNL     1     -11.352   6.702  70.270  1.00  0.00    -0.431 A  
HETATM   12  C   UNL     1     -10.394   7.162  71.210  1.00  0.00    -0.209 A  
HETATM   13  C   UNL     1     -10.696   6.030  69.101  1.00  0.00    -0.399 C  
HETATM   14  C   UNL     1     -10.903   6.119  67.738  1.00  0.00    -0.413 C  
HETATM   15  C   UNL     1      -9.684   5.623  66.886  1.00  0.00    -0.148 C  
HETATM   16  N   UNL     1      -9.487   4.020  68.771  1.00  0.00    -0.163 NA 
HETATM   17  C   UNL     1      -9.162   4.201  67.364  1.00  0.00    -0.157 C  
HETATM   18  C   UNL     1      -9.346   2.760  69.437  1.00  0.00    -0.119 C  
ENDROOT
BRANCH  15  19
HETATM   19  N   UNL     1      -9.579   5.816  65.443  1.00  0.00    -0.343 N  
HETATM   20  H   UNL     1     -10.380   5.788  64.812  1.00  0.00     0.000 HD 
BRANCH  19  21
HETATM   21  C   UNL     1      -8.265   6.045  65.013  1.00  0.00    -0.136 C  
HETATM   22  O   UNL     1      -7.622   5.182  64.409  1.00  0.00    -0.072 OA 
BRANCH  21  23
HETATM   23  N   UNL     1      -7.692   7.274  65.266  1.00  0.00    -0.106 N  
BRANCH  23  24
HETATM   24  C   UNL     1      -8.289   8.574  64.990  1.00  0.00    -0.165 C  
HETATM   25  C   UNL     1      -9.275   8.984  66.073  1.00  0.00    -0.284 C  
ENDBRANCH  23  24
BRANCH  23  26
HETATM   26  C   UNL     1      -6.388   7.274  65.957  1.00  0.00    -0.041 C  
HETATM   27  C   UNL     1      -6.481   7.537  67.455  1.00  0.00    -0.058 C  
ENDBRANCH  23  26
ENDBRANCH  21  23
ENDBRANCH  19  21
ENDBRANCH  15  19
TORSDOF 5
ENDMDL
MODEL      116
REMARK 921   NORMALIZED FREE ENERGY PREDICTED BY IDOCK:   -4.00 KCAL/MOL
REMARK 922        TOTAL FREE ENERGY PREDICTED BY IDOCK:   -5.65 KCAL/MOL
REMARK 923 INTER-LIGAND FREE ENERGY PREDICTED BY IDOCK:   -5.59 KCAL/MOL
REMARK 924 INTRA-LIGAND FREE ENERGY PREDICTED BY IDOCK:   -0.07 KCAL/MOL
REMARK 927      BINDING AFFINITY PREDICTED BY RF-SCORE:    0.00 PKD
ROOT
HETATM    1  C   UNL     1      -8.214   9.032  68.273  1.00  0.00    -0.116 C  
HETATM    2  C   UNL     1      -7.048   8.036  68.371  1.00  0.00    -0.084 C  
HETATM    3  C   UNL     1      -7.597   6.724  68.747  1.00  0.00    -0.105 A  
HETATM    4  C   UNL     1      -7.172   5.657  69.503  1.00  0.00    -0.066 A  
HETATM    5  N   UNL     1      -7.996   4.597  69.197  1.00  0.00    -0.070 NA 
HETATM    6  C   UNL     1      -8.918   4.980  68.233  1.00  0.00    -0.108 A  
HETATM    7  H   UNL     1      -7.939   3.669  69.617  1.00  0.00     0.000 HD 
HETATM    8  C   UNL     1      -9.765   4.270  67.397  1.00  0.00    -0.210 A  
HETATM    9  C   UNL     1     -10.540   5.056  66.526  1.00  0.00    -0.289 A  
HETATM   10  C   UNL     1     -10.616   6.471  66.624  1.00  0.00    -0.241 A  
HETATM   11  C   UNL     1      -9.808   7.163  67.534  1.00  0.00    -0.192 A  
HETATM   12  C   UNL     1      -8.853   6.354  68.202  1.00  0.00    -0.114 A  
HETATM   13  C   UNL     1      -9.680   8.604  67.932  1.00  0.00    -0.192 C  
HETATM   14  C   UNL     1     -10.613   9.563  68.275  1.00  0.00    -0.260 C  
HETATM   15  C   UNL     1     -10.008  10.765  69.077  1.00  0.00    -0.199 C  
HETATM   16  N   UNL     1      -8.073  10.311  67.591  1.00  0.00    -0.106 NA 
HETATM   17  C   UNL     1      -8.709  11.356  68.379  1.00  0.00    -0.157 C  
HETATM   18  C   UNL     1      -7.010  10.581  66.671  1.00  0.00    -0.113 C  
ENDROOT
BRANCH  15  19
HETATM   19  N   UNL     1     -10.821  11.786  69.732  1.00  0.00    -0.438 N  
HETATM   20  H   UNL     1     -10.853  11.918  70.742  1.00  0.00     0.000 HD 
BRANCH  19  21
HETATM   21  C   UNL     1     -11.554  12.568  68.827  1.00  0.00    -0.322 C  
HETATM   22  O   UNL     1     -12.061  12.080  67.813  1.00  0.00    -0.537 OA 
BRANCH  21  23
HETATM   23  N   UNL     1     -11.719  13.910  69.097  1.00  0.00    -0.313 N  
BRANCH  23  24
HETATM   24  C   UNL     1     -11.668  14.536  70.411  1.00  0.00    -0.290 C  
HETATM   25  C   UNL     1     -12.964  14.335  71.182  1.00  0.00    -0.423 C  
ENDBRANCH  23  24
BRANCH  23  26
HETATM   26  C   UNL     1     -11.876  14.810  67.937  1.00  0.00    -0.297 C  
HETATM   27  C   UNL     1     -10.953  16.021  67.962  1.00  0.00    -0.341 C  
ENDBRANCH  23  26
ENDBRANCH  21  23
ENDBRANCH  19  21
ENDBRANCH  15  19
TORSDOF 5
ENDMDL
MODEL      117
REMARK 921   NORMALIZED FREE ENERGY PREDICTED BY IDOCK:   -3.97 KCAL/MOL
REMARK 922        TOTAL FREE ENERGY PREDICTED BY IDOCK:   -5.62 KCAL/MOL
REMARK 923 INTER-LIGAND FREE ENERGY PREDICTED BY IDOCK:   -4.95 KCAL/MOL
REMARK 924 INTRA-LIGAND FREE ENERGY PREDICTED BY IDOCK:   -0.67 KCAL/MOL
REMARK 927      BINDING AFFINITY PREDICTED BY RF-SCORE:    0.00 PKD
ROOT
HETATM    1  C   UNL     1      -7.987   8.122  67.303  1.00  0.00    -0.113 C  
HETATM    2  C   UNL     1      -6.729   7.355  66.868  1.00  0.00    -0.065 C  
HETATM    3  C   UNL     1      -6.894   5.945  67.255  1.00  0.00    -0.063 A  
HETATM    4  C   UNL     1      -6.065   4.936  67.682  1.00  0.00    -0.027 A  
HETATM    5  N   UNL     1      -6.771   3.760  67.563  1.00  0.00    -0.042 NA 
HETATM    6  C   UNL     1      -8.028   4.018  67.035  1.00  0.00    -0.096 A  
HETATM    7  H   UNL     1      -6.423   2.837  67.823  1.00  0.00     0.000 HD 
HETATM    8  C   UNL     1      -9.004   3.210  66.473  1.00  0.00    -0.163 A  
HETATM    9  C   UNL     1     -10.154   3.885  66.028  1.00  0.00     0.003 A  
HETATM   10  C   UNL     1     -10.404   5.254  66.312  1.00  0.00    -0.287 A  
HETATM   11  C   UNL     1      -9.435   6.033  66.955  1.00  0.00    -0.137 A  
HETATM   12  C   UNL     1      -8.191   5.379  67.146  1.00  0.00    -0.104 A  
HETATM   13  C   UNL     1      -9.392   7.449  67.450  1.00  0.00    -0.154 C  
HETATM   14  C   UNL     1     -10.270   8.198  68.209  1.00  0.00    -0.245 C  
HETATM   15  C   UNL     1      -9.605   9.446  68.884  1.00  0.00    -0.155 C  
HETATM   16  N   UNL     1      -8.303   9.440  66.771  1.00  0.00    -0.122 NA 
HETATM   17  C   UNL     1      -8.759  10.305  67.849  1.00  0.00    -0.122 C  
HETATM   18  C   UNL     1      -7.705   9.952  65.575  1.00  0.00    -0.124 C  
ENDROOT
BRANCH  15  19
HETATM   19  N   UNL     1     -10.268  10.262  69.897  1.00  0.00    -0.371 N  
HETATM   20  H   UNL     1     -10.521  11.240  69.755  1.00  0.00     0.000 HD 
BRANCH  19  21
HETATM   21  C   UNL     1     -10.522   9.563  71.086  1.00  0.00    -0.288 C  
HETATM   22  O   UNL     1      -9.606   9.155  71.804  1.00  0.00    -0.283 OA 
BRANCH  21  23
HETATM   23  N   UNL     1     -11.832   9.345  71.457  1.00  0.00    -0.359 N  
BRANCH  23  24
HETATM   24  C   UNL     1     -12.979  10.164  71.086  1.00  0.00    -0.395 C  
HETATM   25  C   UNL     1     -13.001  11.481  71.847  1.00  0.00    -0.453 C  
ENDBRANCH  23  24
BRANCH  23  26
HETATM   26  C   UNL     1     -12.112   8.121  72.233  1.00  0.00    -0.364 C  
HETATM   27  C   UNL     1     -12.330   6.881  71.376  1.00  0.00    -0.421 C  
ENDBRANCH  23  26
ENDBRANCH  21  23
ENDBRANCH  19  21
ENDBRANCH  15  19
TORSDOF 5
ENDMDL
MODEL      118
REMARK 921   NORMALIZED FREE ENERGY PREDICTED BY IDOCK:   -3.94 KCAL/MOL
REMARK 922        TOTAL FREE ENERGY PREDICTED BY IDOCK:   -5.58 KCAL/MOL
REMARK 923 INTER-LIGAND FREE ENERGY PREDICTED BY IDOCK:   -5.13 KCAL/MOL
REMARK 924 INTRA-LIGAND FREE ENERGY PREDICTED BY IDOCK:   -0.45 KCAL/MOL
REMARK 927      BINDING AFFINITY PREDICTED BY RF-SCORE:    0.00 PKD
ROOT
HETATM    1  C   UNL     1      -8.929   9.629  69.132  1.00  0.00    -0.154 C  
HETATM    2  C   UNL     1      -8.258  10.904  68.599  1.00  0.00    -0.146 C  
HETATM    3  C   UNL     1      -9.309  11.796  68.086  1.00  0.00    -0.190 A  
HETATM    4  C   UNL     1      -9.418  12.705  67.060  1.00  0.00    -0.220 A  
HETATM    5  N   UNL     1     -10.547  13.454  67.308  1.00  0.00    -0.254 NA 
HETATM    6  C   UNL     1     -11.132  13.044  68.497  1.00  0.00    -0.266 A  
HETATM    7  H   UNL     1     -10.899  14.199  66.707  1.00  0.00     0.000 HD 
HETATM    8  C   UNL     1     -12.087  13.609  69.327  1.00  0.00    -0.360 A  
HETATM    9  C   UNL     1     -12.394  12.863  70.479  1.00  0.00    -0.362 A  
HETATM   10  C   UNL     1     -11.928  11.537  70.686  1.00  0.00    -0.391 A  
HETATM   11  C   UNL     1     -11.025  10.954  69.789  1.00  0.00    -0.290 A  
HETATM   12  C   UNL     1     -10.540  11.838  68.791  1.00  0.00    -0.234 A  
HETATM   13  C   UNL     1     -10.398   9.597  69.672  1.00  0.00    -0.245 C  
HETATM   14  C   UNL     1     -10.922   8.320  69.727  1.00  0.00    -0.132 C  
HETATM   15  C   UNL     1      -9.995   7.235  69.078  1.00  0.00    -0.177 C  
HETATM   16  N   UNL     1      -8.229   8.706  70.014  1.00  0.00    -0.116 NA 
HETATM   17  C   UNL     1      -8.499   7.337  69.600  1.00  0.00    -0.133 C  
HETATM   18  C   UNL     1      -7.047   9.073  70.733  1.00  0.00    -0.092 C  
ENDROOT
BRANCH  15  19
HETATM   19  N   UNL     1     -10.421   5.862  68.823  1.00  0.00    -0.222 N  
HETATM   20  H   UNL     1     -10.733   5.225  69.556  1.00  0.00     0.000 HD 
BRANCH  19  21
HETATM   21  C   UNL     1     -10.357   5.509  67.468  1.00  0.00    -0.214 C  
HETATM   22  O   UNL     1     -11.114   6.011  66.632  1.00  0.00    -0.263 OA 
BRANCH  21  23
HETATM   23  N   UNL     1      -9.411   4.588  67.069  1.00  0.00    -0.156 N  
BRANCH  23  24
HETATM   24  C   UNL     1      -8.837   4.466  65.736  1.00  0.00    -0.122 C  
HETATM   25  C   UNL     1      -9.731   3.656  64.809  1.00  0.00    -0.178 C  
ENDBRANCH  23  24
BRANCH  23  26
HETATM   26  C   UNL     1      -8.867   3.696  68.112  1.00  0.00    -0.116 C  
HETATM   27  C   UNL     1      -9.571   2.348  68.204  1.00  0.00    -0.100 C  
ENDBRANCH  23  26
ENDBRANCH  21  23
ENDBRANCH  19  21
ENDBRANCH  15  19
TORSDOF 5
ENDMDL
MODEL      119
REMARK 921   NORMALIZED FREE ENERGY PREDICTED BY IDOCK:   -3.93 KCAL/MOL
REMARK 922        TOTAL FREE ENERGY PREDICTED BY IDOCK:   -5.56 KCAL/MOL
REMARK 923 INTER-LIGAND FREE ENERGY PREDICTED BY IDOCK:   -5.06 KCAL/MOL
REMARK 924 INTRA-LIGAND FREE ENERGY PREDICTED BY IDOCK:   -0.51 KCAL/MOL
REMARK 927      BINDING AFFINITY PREDICTED BY RF-SCORE:    0.00 PKD
ROOT
HETATM    1  C   UNL     1      -9.021   5.628  69.209  1.00  0.00    -0.113 C  
HETATM    2  C   UNL     1      -9.528   4.456  68.354  1.00  0.00    -0.213 C  
HETATM    3  C   UNL     1      -9.526   4.882  66.946  1.00  0.00    -0.156 A  
HETATM    4  C   UNL     1     -10.302   4.632  65.838  1.00  0.00    -0.283 A  
HETATM    5  N   UNL     1      -9.587   5.066  64.744  1.00  0.00    -0.357 NA 
HETATM    6  C   UNL     1      -8.356   5.559  65.151  1.00  0.00    -0.146 A  
HETATM    7  H   UNL     1      -9.915   5.031  63.779  1.00  0.00     0.000 HD 
HETATM    8  C   UNL     1      -7.183   5.854  64.474  1.00  0.00    -0.063 A  
HETATM    9  C   UNL     1      -6.131   6.322  65.280  1.00  0.00    -0.030 A  
HETATM   10  C   UNL     1      -6.300   6.668  66.647  1.00  0.00    -0.042 A  
HETATM   11  C   UNL     1      -7.521   6.436  67.291  1.00  0.00    -0.088 A  
HETATM   12  C   UNL     1      -8.466   5.720  66.512  1.00  0.00    -0.116 A  
HETATM   13  C   UNL     1      -8.050   6.728  68.664  1.00  0.00    -0.120 C  
HETATM   14  C   UNL     1      -8.036   7.867  69.446  1.00  0.00    -0.125 C  
HETATM   15  C   UNL     1      -9.115   7.858  70.583  1.00  0.00    -0.153 C  
HETATM   16  N   UNL     1      -8.571   5.437  70.581  1.00  0.00    -0.125 NA 
HETATM   17  C   UNL     1      -9.091   6.507  71.418  1.00  0.00    -0.148 C  
HETATM   18  C   UNL     1      -8.221   4.151  71.105  1.00  0.00    -0.073 C  
ENDROOT
BRANCH  15  19
HETATM   19  N   UNL     1      -9.437   9.028  71.395  1.00  0.00    -0.275 N  
HETATM   20  H   UNL     1      -8.732   9.654  71.783  1.00  0.00     0.000 HD 
BRANCH  19  21
HETATM   21  C   UNL     1     -10.815   9.202  71.586  1.00  0.00    -0.372 C  
HETATM   22  O   UNL     1     -11.460   8.471  72.342  1.00  0.00    -0.369 OA 
BRANCH  21  23
HETATM   23  N   UNL     1     -11.450  10.228  70.918  1.00  0.00    -0.352 N  
BRANCH  23  24
HETATM   24  C   UNL     1     -10.902  11.005  69.815  1.00  0.00    -0.144 C  
HETATM   25  C   UNL     1     -11.086  10.298  68.481  1.00  0.00    -0.294 C  
ENDBRANCH  23  24
BRANCH  23  26
HETATM   26  C   UNL     1     -12.847  10.509  71.300  1.00  0.00    -0.431 C  
HETATM   27  C   UNL     1     -13.050  11.870  71.953  1.00  0.00    -0.474 C  
ENDBRANCH  23  26
ENDBRANCH  21  23
ENDBRANCH  19  21
ENDBRANCH  15  19
TORSDOF 5
ENDMDL
MODEL      120
REMARK 921   NORMALIZED FREE ENERGY PREDICTED BY IDOCK:   -3.92 KCAL/MOL
REMARK 922        TOTAL FREE ENERGY PREDICTED BY IDOCK:   -5.55 KCAL/MOL
REMARK 923 INTER-LIGAND FREE ENERGY PREDICTED BY IDOCK:   -5.46 KCAL/MOL
REMARK 924 INTRA-LIGAND FREE ENERGY PREDICTED BY IDOCK:   -0.09 KCAL/MOL
REMARK 927      BINDING AFFINITY PREDICTED BY RF-SCORE:    0.00 PKD
ROOT
HETATM    1  C   UNL     1     -11.131   7.834  70.743  1.00  0.00    -0.257 C  
HETATM    2  C   UNL     1     -11.562   6.369  70.579  1.00  0.00    -0.424 C  
HETATM    3  C   UNL     1     -10.363   5.567  70.290  1.00  0.00    -0.349 A  
HETATM    4  C   UNL     1     -10.078   4.454  69.535  1.00  0.00     0.011 A  
HETATM    5  N   UNL     1      -8.842   4.001  69.941  1.00  0.00    -0.078 NA 
HETATM    6  C   UNL     1      -8.361   4.802  70.965  1.00  0.00    -0.100 A  
HETATM    7  H   UNL     1      -8.355   3.197  69.546  1.00  0.00     0.000 HD 
HETATM    8  C   UNL     1      -7.340   4.646  71.890  1.00  0.00    -0.070 A  
HETATM    9  C   UNL     1      -7.190   5.709  72.798  1.00  0.00    -0.090 A  
HETATM   10  C   UNL     1      -7.880   6.943  72.664  1.00  0.00    -0.098 A  
HETATM   11  C   UNL     1      -8.852   7.107  71.669  1.00  0.00    -0.121 A  
HETATM   12  C   UNL     1      -9.158   5.923  70.949  1.00  0.00    -0.159 A  
HETATM   13  C   UNL     1      -9.702   8.258  71.218  1.00  0.00    -0.225 C  
HETATM   14  C   UNL     1      -9.407   9.575  70.924  1.00  0.00    -0.157 C  
HETATM   15  C   UNL     1     -10.493  10.276  70.038  1.00  0.00    -0.241 C  
HETATM   16  N   UNL     1     -11.998   8.822  71.372  1.00  0.00    -0.297 NA 
HETATM   17  C   UNL     1     -11.960  10.060  70.608  1.00  0.00    -0.313 C  
HETATM   18  C   UNL     1     -13.114   8.458  72.191  1.00  0.00    -0.328 C  
ENDROOT
BRANCH  15  19
HETATM   19  N   UNL     1     -10.305  11.587  69.423  1.00  0.00    -0.429 N  
HETATM   20  H   UNL     1     -10.607  12.460  69.856  1.00  0.00     0.000 HD 
BRANCH  19  21
HETATM   21  C   UNL     1      -9.668  11.523  68.176  1.00  0.00    -0.192 C  
HETATM   22  O   UNL     1      -8.440  11.437  68.080  1.00  0.00    -0.137 OA 
BRANCH  21  23
HETATM   23  N   UNL     1     -10.444  11.542  67.036  1.00  0.00    -0.219 N  
BRANCH  23  24
HETATM   24  C   UNL     1     -11.346  12.610  66.628  1.00  0.00    -0.326 C  
HETATM   25  C   UNL     1     -11.694  12.521  65.150  1.00  0.00    -0.422 C  
ENDBRANCH  23  24
BRANCH  23  26
HETATM   26  C   UNL     1     -10.282  10.414  66.098  1.00  0.00    -0.223 C  
HETATM   27  C   UNL     1      -9.030  10.501  65.234  1.00  0.00    -0.211 C  
ENDBRANCH  23  26
ENDBRANCH  21  23
ENDBRANCH  19  21
ENDBRANCH  15  19
TORSDOF 5
ENDMDL
MODEL      121
REMARK 921   NORMALIZED FREE ENERGY PREDICTED BY IDOCK:   -3.89 KCAL/MOL
REMARK 922        TOTAL FREE ENERGY PREDICTED BY IDOCK:   -5.51 KCAL/MOL
REMARK 923 INTER-LIGAND FREE ENERGY PREDICTED BY IDOCK:   -4.78 KCAL/MOL
REMARK 924 INTRA-LIGAND FREE ENERGY PREDICTED BY IDOCK:   -0.73 KCAL/MOL
REMARK 927      BINDING AFFINITY PREDICTED BY RF-SCORE:    0.00 PKD
ROOT
HETATM    1  C   UNL     1      -9.272   9.230  66.915  1.00  0.00    -0.144 C  
HETATM    2  C   UNL     1     -10.224  10.041  66.023  1.00  0.00    -0.277 C  
HETATM    3  C   UNL     1     -10.561  11.289  66.727  1.00  0.00    -0.305 A  
HETATM    4  C   UNL     1     -11.664  12.104  66.816  1.00  0.00    -0.305 A  
HETATM    5  N   UNL     1     -11.240  13.292  67.369  1.00  0.00    -0.278 NA 
HETATM    6  C   UNL     1      -9.873  13.241  67.601  1.00  0.00    -0.230 A  
HETATM    7  H   UNL     1     -11.840  14.089  67.578  1.00  0.00     0.000 HD 
HETATM    8  C   UNL     1      -8.921  14.211  67.874  1.00  0.00    -0.185 A  
HETATM    9  C   UNL     1      -7.607  13.733  68.022  1.00  0.00    -0.145 A  
HETATM   10  C   UNL     1      -7.293  12.350  68.097  1.00  0.00    -0.111 A  
HETATM   11  C   UNL     1      -8.287  11.385  67.899  1.00  0.00    -0.137 A  
HETATM   12  C   UNL     1      -9.539  11.911  67.490  1.00  0.00    -0.175 A  
HETATM   13  C   UNL     1      -8.317   9.887  67.967  1.00  0.00    -0.113 C  
HETATM   14  C   UNL     1      -7.854   8.986  68.907  1.00  0.00    -0.095 C  
HETATM   15  C   UNL     1      -8.526   7.574  68.805  1.00  0.00    -0.129 C  
HETATM   16  N   UNL     1      -8.479   8.129  66.386  1.00  0.00    -0.124 NA 
HETATM   17  C   UNL     1      -8.512   7.013  67.319  1.00  0.00    -0.121 C  
HETATM   18  C   UNL     1      -8.240   7.954  64.985  1.00  0.00    -0.131 C  
ENDROOT
BRANCH  15  19
HETATM   19  N   UNL     1      -8.363   6.531  69.813  1.00  0.00    -0.126 N  
HETATM   20  H   UNL     1      -7.528   5.950  69.891  1.00  0.00     0.000 HD 
BRANCH  19  21
HETATM   21  C   UNL     1      -9.471   6.409  70.662  1.00  0.00    -0.165 C  
HETATM   22  O   UNL     1     -10.484   5.793  70.320  1.00  0.00    -0.234 OA 
BRANCH  21  23
HETATM   23  N   UNL     1      -9.410   6.984  71.915  1.00  0.00    -0.141 N  
BRANCH  23  24
HETATM   24  C   UNL     1      -9.515   8.405  72.215  1.00  0.00    -0.297 C  
HETATM   25  C   UNL     1     -10.826   8.992  71.713  1.00  0.00    -0.437 C  
ENDBRANCH  23  24
BRANCH  23  26
HETATM   26  C   UNL     1      -9.313   6.066  73.067  1.00  0.00    -0.139 C  
HETATM   27  C   UNL     1     -10.585   5.982  73.901  1.00  0.00    -0.236 C  
ENDBRANCH  23  26
ENDBRANCH  21  23
ENDBRANCH  19  21
ENDBRANCH  15  19
TORSDOF 5
ENDMDL
MODEL      122
REMARK 921   NORMALIZED FREE ENERGY PREDICTED BY IDOCK:   -3.87 KCAL/MOL
REMARK 922        TOTAL FREE ENERGY PREDICTED BY IDOCK:   -5.48 KCAL/MOL
REMARK 923 INTER-LIGAND FREE ENERGY PREDICTED BY IDOCK:   -4.84 KCAL/MOL
REMARK 924 INTRA-LIGAND FREE ENERGY PREDICTED BY IDOCK:   -0.64 KCAL/MOL
REMARK 927      BINDING AFFINITY PREDICTED BY RF-SCORE:    0.00 PKD
ROOT
HETATM    1  C   UNL     1      -8.282   6.907  68.672  1.00  0.00    -0.121 C  
HETATM    2  C   UNL     1      -7.524   6.700  69.993  1.00  0.00    -0.094 C  
HETATM    3  C   UNL     1      -8.162   7.536  71.023  1.00  0.00    -0.108 A  
HETATM    4  C   UNL     1      -7.736   8.239  72.125  1.00  0.00    -0.124 A  
HETATM    5  N   UNL     1      -8.858   8.539  72.864  1.00  0.00    -0.359 NA 
HETATM    6  C   UNL     1      -9.983   8.005  72.252  1.00  0.00    -0.239 A  
HETATM    7  H   UNL     1      -8.862   9.075  73.732  1.00  0.00     0.000 HD 
HETATM    8  C   UNL     1     -11.279   7.778  72.685  1.00  0.00    -0.438 A  
HETATM    9  C   UNL     1     -12.129   7.180  71.738  1.00  0.00    -0.363 A  
HETATM   10  C   UNL     1     -11.766   7.007  70.375  1.00  0.00    -0.326 A  
HETATM   11  C   UNL     1     -10.472   7.321  69.941  1.00  0.00    -0.236 A  
HETATM   12  C   UNL     1      -9.574   7.668  70.983  1.00  0.00    -0.169 A  
HETATM   13  C   UNL     1      -9.789   7.320  68.606  1.00  0.00    -0.161 C  
HETATM   14  C   UNL     1     -10.154   7.824  67.372  1.00  0.00    -0.288 C  
HETATM   15  C   UNL     1      -8.944   8.024  66.396  1.00  0.00    -0.169 C  
HETATM   16  N   UNL     1      -8.140   5.983  67.555  1.00  0.00    -0.102 NA 
HETATM   17  C   UNL     1      -8.022   6.733  66.314  1.00  0.00    -0.108 C  
HETATM   18  C   UNL     1      -7.606   4.663  67.709  1.00  0.00    -0.078 C  
ENDROOT
BRANCH  15  19
HETATM   19  N   UNL     1      -9.045   8.738  65.126  1.00  0.00    -0.419 N  
HETATM   20  H   UNL     1      -9.348   8.299  64.257  1.00  0.00     0.000 HD 
BRANCH  19  21
HETATM   21  C   UNL     1      -8.682  10.088  65.224  1.00  0.00    -0.163 C  
HETATM   22  O   UNL     1      -9.527  10.987  65.221  1.00  0.00    -0.207 OA 
BRANCH  21  23
HETATM   23  N   UNL     1      -7.345  10.406  65.341  1.00  0.00    -0.142 N  
BRANCH  23  24
HETATM   24  C   UNL     1      -6.723  11.112  66.453  1.00  0.00    -0.102 C  
HETATM   25  C   UNL     1      -5.223  11.273  66.251  1.00  0.00    -0.126 C  
ENDBRANCH  23  24
BRANCH  23  26
HETATM   26  C   UNL     1      -6.445   9.910  64.281  1.00  0.00    -0.126 C  
HETATM   27  C   UNL     1      -6.642  10.590  62.932  1.00  0.00    -0.072 C  
ENDBRANCH  23  26
ENDBRANCH  21  23
ENDBRANCH  19  21
ENDBRANCH  15  19
TORSDOF 5
ENDMDL
MODEL      123
REMARK 921   NORMALIZED FREE ENERGY PREDICTED BY IDOCK:   -3.84 KCAL/MOL
REMARK 922        TOTAL FREE ENERGY PREDICTED BY IDOCK:   -5.44 KCAL/MOL
REMARK 923 INTER-LIGAND FREE ENERGY PREDICTED BY IDOCK:   -5.00 KCAL/MOL
REMARK 924 INTRA-LIGAND FREE ENERGY PREDICTED BY IDOCK:   -0.44 KCAL/MOL
REMARK 927      BINDING AFFINITY PREDICTED BY RF-SCORE:    0.00 PKD
ROOT
HETATM    1  C   UNL     1     -10.364   7.751  68.831  1.00  0.00    -0.213 C  
HETATM    2  C   UNL     1     -10.967   6.338  68.856  1.00  0.00    -0.435 C  
HETATM    3  C   UNL     1      -9.996   5.415  68.248  1.00  0.00    -0.212 A  
HETATM    4  C   UNL     1     -10.065   4.275  67.482  1.00  0.00     0.048 A  
HETATM    5  N   UNL     1      -8.816   3.696  67.512  1.00  0.00    -0.115 NA 
HETATM    6  C   UNL     1      -7.969   4.447  68.315  1.00  0.00    -0.079 A  
HETATM    7  H   UNL     1      -8.553   2.844  67.018  1.00  0.00     0.000 HD 
HETATM    8  C   UNL     1      -6.737   4.188  68.894  1.00  0.00    -0.046 A  
HETATM    9  C   UNL     1      -6.215   5.233  69.677  1.00  0.00    -0.026 A  
HETATM   10  C   UNL     1      -6.788   6.531  69.713  1.00  0.00    -0.058 A  
HETATM   11  C   UNL     1      -7.995   6.793  69.052  1.00  0.00    -0.116 A  
HETATM   12  C   UNL     1      -8.619   5.645  68.500  1.00  0.00    -0.107 A  
HETATM   13  C   UNL     1      -8.823   8.025  68.838  1.00  0.00    -0.141 C  
HETATM   14  C   UNL     1      -8.502   9.303  68.423  1.00  0.00    -0.120 C  
HETATM   15  C   UNL     1      -9.731  10.111  67.880  1.00  0.00    -0.146 C  
HETATM   16  N   UNL     1     -10.897   8.827  69.656  1.00  0.00    -0.209 NA 
HETATM   17  C   UNL     1     -10.970  10.051  68.872  1.00  0.00    -0.207 C  
HETATM   18  C   UNL     1     -11.742   8.584  70.786  1.00  0.00    -0.205 C  
ENDROOT
BRANCH  15  19
HETATM   19  N   UNL     1      -9.610  11.392  67.191  1.00  0.00    -0.178 N  
HETATM   20  H   UNL     1      -9.271  12.243  67.641  1.00  0.00     0.000 HD 
BRANCH  19  21
HETATM   21  C   UNL     1     -10.009  11.334  65.848  1.00  0.00    -0.234 C  
HETATM   22  O   UNL     1      -9.940  10.287  65.198  1.00  0.00    -0.299 OA 
BRANCH  21  23
HETATM   23  N   UNL     1     -10.501  12.478  65.255  1.00  0.00    -0.281 N  
BRANCH  23  24
HETATM   24  C   UNL     1     -10.681  12.696  63.826  1.00  0.00    -0.417 C  
HETATM   25  C   UNL     1     -12.075  12.299  63.366  1.00  0.00    -0.615 C  
ENDBRANCH  23  24
BRANCH  23  26
HETATM   26  C   UNL     1     -10.969  13.549  66.156  1.00  0.00    -0.284 C  
HETATM   27  C   UNL     1     -10.029  14.745  66.236  1.00  0.00    -0.308 C  
ENDBRANCH  23  26
ENDBRANCH  21  23
ENDBRANCH  19  21
ENDBRANCH  15  19
TORSDOF 5
ENDMDL
MODEL      124
REMARK 921   NORMALIZED FREE ENERGY PREDICTED BY IDOCK:   -3.84 KCAL/MOL
REMARK 922        TOTAL FREE ENERGY PREDICTED BY IDOCK:   -5.44 KCAL/MOL
REMARK 923 INTER-LIGAND FREE ENERGY PREDICTED BY IDOCK:   -4.76 KCAL/MOL
REMARK 924 INTRA-LIGAND FREE ENERGY PREDICTED BY IDOCK:   -0.69 KCAL/MOL
REMARK 927      BINDING AFFINITY PREDICTED BY RF-SCORE:    0.00 PKD
ROOT
HETATM    1  C   UNL     1      -6.544  15.201  68.576  1.00  0.00    -0.099 C  
HETATM    2  C   UNL     1      -5.474  15.074  69.671  1.00  0.00    -0.096 C  
HETATM    3  C   UNL     1      -5.635  13.764  70.321  1.00  0.00    -0.131 A  
HETATM    4  C   UNL     1      -5.469  13.266  71.591  1.00  0.00    -0.093 A  
HETATM    5  N   UNL     1      -5.461  11.893  71.484  1.00  0.00    -0.372 NA 
HETATM    6  C   UNL     1      -5.591  11.524  70.153  1.00  0.00    -0.123 A  
HETATM    7  H   UNL     1      -5.373  11.245  72.267  1.00  0.00     0.000 HD 
HETATM    8  C   UNL     1      -5.375  10.335  69.475  1.00  0.00    -0.038 A  
HETATM    9  C   UNL     1      -5.606  10.388  68.089  1.00  0.00    -0.036 A  
HETATM   10  C   UNL     1      -6.211  11.503  67.450  1.00  0.00    -0.090 A  
HETATM   11  C   UNL     1      -6.495  12.668  68.173  1.00  0.00    -0.080 A  
HETATM   12  C   UNL     1      -6.003  12.664  69.504  1.00  0.00    -0.113 A  
HETATM   13  C   UNL     1      -7.166  13.967  67.840  1.00  0.00    -0.164 C  
HETATM   14  C   UNL     1      -8.353  14.266  67.199  1.00  0.00    -0.202 C  
HETATM   15  C   UNL     1      -8.881  15.710  67.504  1.00  0.00    -0.181 C  
HETATM   16  N   UNL     1      -6.449  16.203  67.524  1.00  0.00    -0.158 NA 
HETATM   17  C   UNL     1      -7.754  16.812  67.311  1.00  0.00    -0.172 C  
HETATM   18  C   UNL     1      -5.226  16.877  67.209  1.00  0.00    -0.142 C  
ENDROOT
BRANCH  15  19
HETATM   19  N   UNL     1     -10.211  16.177  67.121  1.00  0.00    -0.275 N  
HETATM   20  H   UNL     1     -10.519  16.262  66.152  1.00  0.00     0.000 HD 
BRANCH  19  21
HETATM   21  C   UNL     1     -11.019  16.497  68.220  1.00  0.00    -0.346 C  
HETATM   22  O   UNL     1     -11.282  17.667  68.511  1.00  0.00     0.082 OA 
BRANCH  21  23
HETATM   23  N   UNL     1     -11.538  15.469  68.979  1.00  0.00    -0.344 N  
BRANCH  23  24
HETATM   24  C   UNL     1     -12.025  14.190  68.478  1.00  0.00    -0.332 C  
HETATM   25  C   UNL     1     -11.425  13.020  69.242  1.00  0.00    -0.348 C  
ENDBRANCH  23  24
BRANCH  23  26
HETATM   26  C   UNL     1     -11.522  15.646  70.444  1.00  0.00    -0.354 C  
HETATM   27  C   UNL     1     -12.895  15.544  71.097  1.00  0.00    -0.551 C  
ENDBRANCH  23  26
ENDBRANCH  21  23
ENDBRANCH  19  21
ENDBRANCH  15  19
TORSDOF 5
ENDMDL
MODEL      125
REMARK 921   NORMALIZED FREE ENERGY PREDICTED BY IDOCK:   -3.83 KCAL/MOL
REMARK 922        TOTAL FREE ENERGY PREDICTED BY IDOCK:   -5.43 KCAL/MOL
REMARK 923 INTER-LIGAND FREE ENERGY PREDICTED BY IDOCK:   -4.75 KCAL/MOL
REMARK 924 INTRA-LIGAND FREE ENERGY PREDICTED BY IDOCK:   -0.69 KCAL/MOL
REMARK 927      BINDING AFFINITY PREDICTED BY RF-SCORE:    0.00 PKD
ROOT
HETATM    1  C   UNL     1     -11.152   9.115  69.896  1.00  0.00    -0.159 C  
HETATM    2  C   UNL     1     -12.006   8.658  71.089  1.00  0.00    -0.320 C  
HETATM    3  C   UNL     1     -11.373   7.466  71.676  1.00  0.00    -0.286 A  
HETATM    4  C   UNL     1     -11.812   6.317  72.289  1.00  0.00    -0.278 A  
HETATM    5  N   UNL     1     -10.720   5.753  72.910  1.00  0.00    -0.230 NA 
HETATM    6  C   UNL     1      -9.603   6.553  72.716  1.00  0.00    -0.149 A  
HETATM    7  H   UNL     1     -10.730   4.877  73.432  1.00  0.00     0.000 HD 
HETATM    8  C   UNL     1      -8.359   6.605  73.324  1.00  0.00    -0.126 A  
HETATM    9  C   UNL     1      -7.499   7.606  72.838  1.00  0.00    -0.114 A  
HETATM   10  C   UNL     1      -7.787   8.375  71.679  1.00  0.00    -0.151 A  
HETATM   11  C   UNL     1      -9.022   8.247  71.032  1.00  0.00    -0.183 A  
HETATM   12  C   UNL     1      -9.955   7.423  71.711  1.00  0.00    -0.192 A  
HETATM   13  C   UNL     1      -9.616   8.839  69.788  1.00  0.00    -0.173 C  
HETATM   14  C   UNL     1      -9.135   8.978  68.500  1.00  0.00    -0.133 C  
HETATM   15  C   UNL     1     -10.260   9.204  67.433  1.00  0.00    -0.247 C  
HETATM   16  N   UNL     1     -11.293  10.445  69.318  1.00  0.00    -0.243 NA 
HETATM   17  C   UNL     1     -11.272  10.349  67.866  1.00  0.00    -0.263 C  
HETATM   18  C   UNL     1     -11.936  11.521  70.009  1.00  0.00    -0.357 C  
ENDROOT
BRANCH  15  19
HETATM   19  N   UNL     1     -10.023   9.163  65.993  1.00  0.00    -0.366 N  
HETATM   20  H   UNL     1     -10.653   8.708  65.332  1.00  0.00     0.000 HD 
BRANCH  19  21
HETATM   21  C   UNL     1      -8.841   9.813  65.612  1.00  0.00    -0.154 C  
HETATM   22  O   UNL     1      -8.761  11.044  65.579  1.00  0.00    -0.187 OA 
BRANCH  21  23
HETATM   23  N   UNL     1      -7.743   9.047  65.282  1.00  0.00    -0.097 N  
BRANCH  23  24
HETATM   24  C   UNL     1      -6.347   9.444  65.409  1.00  0.00    -0.066 C  
HETATM   25  C   UNL     1      -6.017   9.900  66.822  1.00  0.00    -0.055 C  
ENDBRANCH  23  24
BRANCH  23  26
HETATM   26  C   UNL     1      -8.003   7.664  64.838  1.00  0.00    -0.135 C  
HETATM   27  C   UNL     1      -7.531   6.598  65.819  1.00  0.00    -0.081 C  
ENDBRANCH  23  26
ENDBRANCH  21  23
ENDBRANCH  19  21
ENDBRANCH  15  19
TORSDOF 5
ENDMDL
MODEL      126
REMARK 921   NORMALIZED FREE ENERGY PREDICTED BY IDOCK:   -3.83 KCAL/MOL
REMARK 922        TOTAL FREE ENERGY PREDICTED BY IDOCK:   -5.43 KCAL/MOL
REMARK 923 INTER-LIGAND FREE ENERGY PREDICTED BY IDOCK:   -5.00 KCAL/MOL
REMARK 924 INTRA-LIGAND FREE ENERGY PREDICTED BY IDOCK:   -0.43 KCAL/MOL
REMARK 927      BINDING AFFINITY PREDICTED BY RF-SCORE:    0.00 PKD
ROOT
HETATM    1  C   UNL     1      -8.359   9.451  69.242  1.00  0.00    -0.131 C  
HETATM    2  C   UNL     1      -8.964  10.802  68.829  1.00  0.00    -0.171 C  
HETATM    3  C   UNL     1     -10.430  10.669  68.835  1.00  0.00    -0.232 A  
HETATM    4  C   UNL     1     -11.471  11.187  68.102  1.00  0.00    -0.303 A  
HETATM    5  N   UNL     1     -12.624  10.935  68.811  1.00  0.00    -0.530 NA 
HETATM    6  C   UNL     1     -12.314  10.289  69.999  1.00  0.00    -0.090 A  
HETATM    7  H   UNL     1     -13.565  11.186  68.508  1.00  0.00     0.000 HD 
HETATM    8  C   UNL     1     -13.027  10.058  71.165  1.00  0.00    -0.478 A  
HETATM    9  C   UNL     1     -12.322   9.369  72.168  1.00  0.00    -0.368 A  
HETATM   10  C   UNL     1     -11.055   8.767  71.946  1.00  0.00    -0.434 A  
HETATM   11  C   UNL     1     -10.388   8.946  70.728  1.00  0.00    -0.283 A  
HETATM   12  C   UNL     1     -11.014   9.866  69.849  1.00  0.00    -0.321 A  
HETATM   13  C   UNL     1      -9.107   8.421  70.152  1.00  0.00    -0.150 C  
HETATM   14  C   UNL     1      -8.571   7.149  70.076  1.00  0.00    -0.141 C  
HETATM   15  C   UNL     1      -7.465   7.002  68.975  1.00  0.00    -0.095 C  
HETATM   16  N   UNL     1      -6.973   9.332  69.672  1.00  0.00    -0.053 NA 
HETATM   17  C   UNL     1      -6.374   8.152  69.066  1.00  0.00    -0.040 C  
HETATM   18  C   UNL     1      -6.197  10.460  70.092  1.00  0.00    -0.108 C  
ENDROOT
BRANCH  15  19
HETATM   19  N   UNL     1      -6.909   5.716  68.561  1.00  0.00    -0.057 N  
HETATM   20  H   UNL     1      -5.909   5.544  68.457  1.00  0.00     0.000 HD 
BRANCH  19  21
HETATM   21  C   UNL     1      -7.890   4.744  68.322  1.00  0.00    -0.081 C  
HETATM   22  O   UNL     1      -8.148   3.868  69.151  1.00  0.00    -0.058 OA 
BRANCH  21  23
HETATM   23  N   UNL     1      -8.588   4.789  67.133  1.00  0.00    -0.105 N  
BRANCH  23  24
HETATM   24  C   UNL     1      -9.228   5.962  66.555  1.00  0.00    -0.145 C  
HETATM   25  C   UNL     1     -10.714   6.011  66.876  1.00  0.00    -0.407 C  
ENDBRANCH  23  24
BRANCH  23  26
HETATM   26  C   UNL     1      -8.618   3.551  66.330  1.00  0.00    -0.117 C  
HETATM   27  C   UNL     1      -8.492   3.783  64.829  1.00  0.00    -0.104 C  
ENDBRANCH  23  26
ENDBRANCH  21  23
ENDBRANCH  19  21
ENDBRANCH  15  19
TORSDOF 5
ENDMDL
MODEL      127
REMARK 921   NORMALIZED FREE ENERGY PREDICTED BY IDOCK:   -3.82 KCAL/MOL
REMARK 922        TOTAL FREE ENERGY PREDICTED BY IDOCK:   -5.42 KCAL/MOL
REMARK 923 INTER-LIGAND FREE ENERGY PREDICTED BY IDOCK:   -4.84 KCAL/MOL
REMARK 924 INTRA-LIGAND FREE ENERGY PREDICTED BY IDOCK:   -0.58 KCAL/MOL
REMARK 927      BINDING AFFINITY PREDICTED BY RF-SCORE:    0.00 PKD
ROOT
HETATM    1  C   UNL     1      -8.457   6.275  66.390  1.00  0.00    -0.125 C  
HETATM    2  C   UNL     1      -6.952   6.131  66.113  1.00  0.00    -0.066 C  
HETATM    3  C   UNL     1      -6.636   4.696  66.035  1.00  0.00    -0.045 A  
HETATM    4  C   UNL     1      -5.564   3.903  66.371  1.00  0.00    -0.018 A  
HETATM    5  N   UNL     1      -5.752   2.691  65.745  1.00  0.00    -0.017 NA 
HETATM    6  C   UNL     1      -6.918   2.725  64.994  1.00  0.00    -0.049 A  
HETATM    7  H   UNL     1      -5.129   1.888  65.822  1.00  0.00     0.000 HD 
HETATM    8  C   UNL     1      -7.423   1.914  63.989  1.00  0.00    -0.058 A  
HETATM    9  C   UNL     1      -8.659   2.321  63.458  1.00  0.00    -0.085 A  
HETATM   10  C   UNL     1      -9.443   3.356  64.033  1.00  0.00    -0.136 A  
HETATM   11  C   UNL     1      -8.947   4.111  65.102  1.00  0.00    -0.135 A  
HETATM   12  C   UNL     1      -7.593   3.842  65.430  1.00  0.00    -0.081 A  
HETATM   13  C   UNL     1      -9.512   5.202  65.963  1.00  0.00    -0.170 C  
HETATM   14  C   UNL     1     -10.712   5.331  66.636  1.00  0.00    -0.274 C  
HETATM   15  C   UNL     1     -10.673   6.398  67.784  1.00  0.00    -0.303 C  
HETATM   16  N   UNL     1      -9.157   7.534  66.181  1.00  0.00    -0.163 NA 
HETATM   17  C   UNL     1     -10.062   7.780  67.294  1.00  0.00    -0.238 C  
HETATM   18  C   UNL     1      -8.619   8.592  65.379  1.00  0.00    -0.176 C  
ENDROOT
BRANCH  15  19
HETATM   19  N   UNL     1     -11.740   6.560  68.767  1.00  0.00    -0.405 N  
HETATM   20  H   UNL     1     -12.720   6.689  68.518  1.00  0.00     0.000 HD 
BRANCH  19  21
HETATM   21  C   UNL     1     -11.278   6.520  70.090  1.00  0.00    -0.377 C  
HETATM   22  O   UNL     1     -10.669   5.543  70.534  1.00  0.00    -0.275 OA 
BRANCH  21  23
HETATM   23  N   UNL     1     -11.504   7.612  70.902  1.00  0.00    -0.280 N  
BRANCH  23  24
HETATM   24  C   UNL     1     -10.927   8.940  70.738  1.00  0.00    -0.253 C  
HETATM   25  C   UNL     1      -9.462   8.972  71.146  1.00  0.00    -0.348 C  
ENDBRANCH  23  24
BRANCH  23  26
HETATM   26  C   UNL     1     -12.488   7.445  71.989  1.00  0.00    -0.247 C  
HETATM   27  C   UNL     1     -13.937   7.448  71.519  1.00  0.00    -0.517 C  
ENDBRANCH  23  26
ENDBRANCH  21  23
ENDBRANCH  19  21
ENDBRANCH  15  19
TORSDOF 5
ENDMDL
MODEL      128
REMARK 921   NORMALIZED FREE ENERGY PREDICTED BY IDOCK:   -3.82 KCAL/MOL
REMARK 922        TOTAL FREE ENERGY PREDICTED BY IDOCK:   -5.42 KCAL/MOL
REMARK 923 INTER-LIGAND FREE ENERGY PREDICTED BY IDOCK:   -5.13 KCAL/MOL
REMARK 924 INTRA-LIGAND FREE ENERGY PREDICTED BY IDOCK:   -0.29 KCAL/MOL
REMARK 927      BINDING AFFINITY PREDICTED BY RF-SCORE:    0.00 PKD
ROOT
HETATM    1  C   UNL     1      -9.679  15.729  68.411  1.00  0.00    -0.203 C  
HETATM    2  C   UNL     1      -9.319  16.857  69.390  1.00  0.00     0.105 C  
HETATM    3  C   UNL     1      -8.801  17.993  68.610  1.00  0.00    -0.272 A  
HETATM    4  C   UNL     1      -7.854  18.971  68.802  1.00  0.00    -0.342 A  
HETATM    5  N   UNL     1      -8.072  19.933  67.841  1.00  0.00    -0.295 NA 
HETATM    6  C   UNL     1      -9.167  19.582  67.065  1.00  0.00    -0.332 A  
HETATM    7  H   UNL     1      -7.512  20.776  67.717  1.00  0.00     0.000 HD 
HETATM    8  C   UNL     1      -9.962  20.287  66.175  1.00  0.00    -0.443 A  
HETATM    9  C   UNL     1     -11.014  19.550  65.601  1.00  0.00    -0.221 A  
HETATM   10  C   UNL     1     -11.141  18.143  65.749  1.00  0.00     0.491 A  
HETATM   11  C   UNL     1     -10.274  17.437  66.592  1.00  0.00    -0.324 A  
HETATM   12  C   UNL     1      -9.402  18.258  67.353  1.00  0.00    -0.261 A  
HETATM   13  C   UNL     1     -10.091  15.986  66.923  1.00  0.00    -0.266 C  
HETATM   14  C   UNL     1      -9.989  14.855  66.135  1.00  0.00    -0.323 C  
HETATM   15  C   UNL     1      -9.325  13.640  66.869  1.00  0.00    -0.257 C  
HETATM   16  N   UNL     1     -10.532  14.616  68.805  1.00  0.00    -0.241 NA 
HETATM   17  C   UNL     1      -9.977  13.373  68.292  1.00  0.00    -0.240 C  
HETATM   18  C   UNL     1     -11.375  14.664  69.961  1.00  0.00    -0.242 C  
ENDROOT
BRANCH  15  19
HETATM   19  N   UNL     1      -8.916  12.415  66.187  1.00  0.00    -0.423 N  
HETATM   20  H   UNL     1      -9.345  12.082  65.324  1.00  0.00     0.000 HD 
BRANCH  19  21
HETATM   21  C   UNL     1      -7.874  11.744  66.841  1.00  0.00    -0.141 C  
HETATM   22  O   UNL     1      -6.831  12.323  67.159  1.00  0.00    -0.147 OA 
BRANCH  21  23
HETATM   23  N   UNL     1      -8.035  10.408  67.144  1.00  0.00    -0.113 N  
BRANCH  23  24
HETATM   24  C   UNL     1      -7.981   9.815  68.474  1.00  0.00    -0.089 C  
HETATM   25  C   UNL     1      -7.592   8.346  68.421  1.00  0.00    -0.097 C  
ENDBRANCH  23  24
BRANCH  23  26
HETATM   26  C   UNL     1      -8.379   9.507  66.027  1.00  0.00    -0.119 C  
HETATM   27  C   UNL     1      -9.870   9.222  65.897  1.00  0.00    -0.335 C  
ENDBRANCH  23  26
ENDBRANCH  21  23
ENDBRANCH  19  21
ENDBRANCH  15  19
TORSDOF 5
ENDMDL
MODEL      129
REMARK 921   NORMALIZED FREE ENERGY PREDICTED BY IDOCK:   -3.82 KCAL/MOL
REMARK 922        TOTAL FREE ENERGY PREDICTED BY IDOCK:   -5.41 KCAL/MOL
REMARK 923 INTER-LIGAND FREE ENERGY PREDICTED BY IDOCK:   -5.02 KCAL/MOL
REMARK 924 INTRA-LIGAND FREE ENERGY PREDICTED BY IDOCK:   -0.40 KCAL/MOL
REMARK 927      BINDING AFFINITY PREDICTED BY RF-SCORE:    0.00 PKD
ROOT
HETATM    1  C   UNL     1      -8.651   8.946  65.843  1.00  0.00    -0.158 C  
HETATM    2  C   UNL     1      -8.606  10.209  64.969  1.00  0.00    -0.178 C  
HETATM    3  C   UNL     1      -9.895  10.905  65.102  1.00  0.00    -0.329 A  
HETATM    4  C   UNL     1     -10.700  11.657  64.279  1.00  0.00    -0.341 A  
HETATM    5  N   UNL     1     -11.608  12.302  65.088  1.00  0.00    -0.351 NA 
HETATM    6  C   UNL     1     -11.363  11.985  66.416  1.00  0.00    -0.354 A  
HETATM    7  H   UNL     1     -12.351  12.919  64.759  1.00  0.00     0.000 HD 
HETATM    8  C   UNL     1     -11.778  12.543  67.615  1.00  0.00    -0.423 A  
HETATM    9  C   UNL     1     -11.270  11.921  68.769  1.00  0.00    -0.314 A  
HETATM   10  C   UNL     1     -10.558  10.693  68.735  1.00  0.00    -0.234 A  
HETATM   11  C   UNL     1     -10.219  10.103  67.511  1.00  0.00    -0.257 A  
HETATM   12  C   UNL     1     -10.519  10.900  66.376  1.00  0.00    -0.307 A  
HETATM   13  C   UNL     1      -9.548   8.821  67.119  1.00  0.00    -0.228 C  
HETATM   14  C   UNL     1      -9.736   7.511  67.517  1.00  0.00    -0.190 C  
HETATM   15  C   UNL     1      -9.159   6.462  66.506  1.00  0.00    -0.151 C  
HETATM   16  N   UNL     1      -7.440   8.227  66.215  1.00  0.00    -0.078 NA 
HETATM   17  C   UNL     1      -7.664   6.795  66.086  1.00  0.00    -0.091 C  
HETATM   18  C   UNL     1      -6.137   8.814  66.122  1.00  0.00    -0.052 C  
ENDROOT
BRANCH  15  19
HETATM   19  N   UNL     1      -9.422   5.028  66.597  1.00  0.00    -0.136 N  
HETATM   20  H   UNL     1      -9.025   4.428  67.319  1.00  0.00     0.000 HD 
BRANCH  19  21
HETATM   21  C   UNL     1     -10.277   4.561  65.588  1.00  0.00    -0.253 C  
HETATM   22  O   UNL     1     -11.461   4.903  65.534  1.00  0.00     0.128 OA 
BRANCH  21  23
HETATM   23  N   UNL     1      -9.765   3.711  64.630  1.00  0.00    -0.169 N  
BRANCH  23  24
HETATM   24  C   UNL     1      -8.513   2.970  64.718  1.00  0.00    -0.095 C  
HETATM   25  C   UNL     1      -8.558   1.915  65.813  1.00  0.00    -0.111 C  
ENDBRANCH  23  24
BRANCH  23  26
HETATM   26  C   UNL     1     -10.603   3.462  63.442  1.00  0.00    -0.252 C  
HETATM   27  C   UNL     1      -9.959   2.545  62.410  1.00  0.00    -0.091 C  
ENDBRANCH  23  26
ENDBRANCH  21  23
ENDBRANCH  19  21
ENDBRANCH  15  19
TORSDOF 5
ENDMDL
MODEL      130
REMARK 921   NORMALIZED FREE ENERGY PREDICTED BY IDOCK:   -3.81 KCAL/MOL
REMARK 922        TOTAL FREE ENERGY PREDICTED BY IDOCK:   -5.41 KCAL/MOL
REMARK 923 INTER-LIGAND FREE ENERGY PREDICTED BY IDOCK:   -4.86 KCAL/MOL
REMARK 924 INTRA-LIGAND FREE ENERGY PREDICTED BY IDOCK:   -0.54 KCAL/MOL
REMARK 927      BINDING AFFINITY PREDICTED BY RF-SCORE:    0.00 PKD
ROOT
HETATM    1  C   UNL     1      -9.807  11.151  66.816  1.00  0.00    -0.200 C  
HETATM    2  C   UNL     1     -10.637  10.542  65.675  1.00  0.00    -0.132 C  
HETATM    3  C   UNL     1      -9.920  10.774  64.412  1.00  0.00    -0.400 A  
HETATM    4  C   UNL     1     -10.274  11.022  63.107  1.00  0.00    -0.245 A  
HETATM    5  N   UNL     1      -9.149  10.817  62.341  1.00  0.00    -0.374 NA 
HETATM    6  C   UNL     1      -8.096  10.413  63.149  1.00  0.00    -0.141 A  
HETATM    7  H   UNL     1      -9.096  10.943  61.330  1.00  0.00     0.000 HD 
HETATM    8  C   UNL     1      -6.867   9.830  62.884  1.00  0.00    -0.110 A  
HETATM    9  C   UNL     1      -6.083   9.548  64.017  1.00  0.00    -0.095 A  
HETATM   10  C   UNL     1      -6.416  10.006  65.319  1.00  0.00    -0.112 A  
HETATM   11  C   UNL     1      -7.630  10.666  65.551  1.00  0.00    -0.072 A  
HETATM   12  C   UNL     1      -8.503  10.691  64.433  1.00  0.00    -0.070 A  
HETATM   13  C   UNL     1      -8.253  11.317  66.749  1.00  0.00    -0.158 C  
HETATM   14  C   UNL     1      -7.769  12.218  67.679  1.00  0.00    -0.144 C  
HETATM   15  C   UNL     1      -8.896  12.984  68.452  1.00  0.00    -0.123 C  
HETATM   16  N   UNL     1     -10.046  10.799  68.209  1.00  0.00    -0.165 NA 
HETATM   17  C   UNL     1     -10.000  11.999  69.030  1.00  0.00     0.137 C  
HETATM   18  C   UNL     1     -10.780   9.631  68.594  1.00  0.00    -0.201 C  
ENDROOT
BRANCH  15  19
HETATM   19  N   UNL     1      -8.639  14.129  69.321  1.00  0.00    -0.341 N  
HETATM   20  H   UNL     1      -8.297  14.044  70.278  1.00  0.00     0.000 HD 
BRANCH  19  21
HETATM   21  C   UNL     1      -8.911  15.359  68.705  1.00  0.00    -0.191 C  
HETATM   22  O   UNL     1      -8.159  15.835  67.850  1.00  0.00    -0.137 OA 
BRANCH  21  23
HETATM   23  N   UNL     1     -10.059  16.036  69.061  1.00  0.00    -0.225 N  
BRANCH  23  24
HETATM   24  C   UNL     1     -10.878  16.861  68.183  1.00  0.00    -0.351 C  
HETATM   25  C   UNL     1     -10.432  18.315  68.195  1.00  0.00    -0.359 C  
ENDBRANCH  23  24
BRANCH  23  26
HETATM   26  C   UNL     1     -10.550  15.839  70.438  1.00  0.00    -0.229 C  
HETATM   27  C   UNL     1     -12.042  15.546  70.528  1.00  0.00    -0.423 C  
ENDBRANCH  23  26
ENDBRANCH  21  23
ENDBRANCH  19  21
ENDBRANCH  15  19
TORSDOF 5
ENDMDL
MODEL      131
REMARK 921   NORMALIZED FREE ENERGY PREDICTED BY IDOCK:   -3.80 KCAL/MOL
REMARK 922        TOTAL FREE ENERGY PREDICTED BY IDOCK:   -5.40 KCAL/MOL
REMARK 923 INTER-LIGAND FREE ENERGY PREDICTED BY IDOCK:   -5.50 KCAL/MOL
REMARK 924 INTRA-LIGAND FREE ENERGY PREDICTED BY IDOCK:    0.10 KCAL/MOL
REMARK 927      BINDING AFFINITY PREDICTED BY RF-SCORE:    0.00 PKD
ROOT
HETATM    1  C   UNL     1      -8.918  10.248  68.781  1.00  0.00    -0.155 C  
HETATM    2  C   UNL     1      -8.364  11.106  67.632  1.00  0.00    -0.122 C  
HETATM    3  C   UNL     1      -9.496  11.779  66.976  1.00  0.00    -0.191 A  
HETATM    4  C   UNL     1      -9.806  12.163  65.693  1.00  0.00    -0.237 A  
HETATM    5  N   UNL     1     -10.862  13.042  65.783  1.00  0.00    -0.271 NA 
HETATM    6  C   UNL     1     -11.200  13.237  67.114  1.00  0.00    -0.299 A  
HETATM    7  H   UNL     1     -11.327  13.483  64.990  1.00  0.00     0.000 HD 
HETATM    8  C   UNL     1     -11.970  14.186  67.767  1.00  0.00    -0.389 A  
HETATM    9  C   UNL     1     -12.043  14.038  69.163  1.00  0.00    -0.375 A  
HETATM   10  C   UNL     1     -11.547  12.895  69.845  1.00  0.00    -0.246 A  
HETATM   11  C   UNL     1     -10.840  11.906  69.151  1.00  0.00    -0.196 A  
HETATM   12  C   UNL     1     -10.562  12.228  67.797  1.00  0.00    -0.241 A  
HETATM   13  C   UNL     1     -10.249  10.581  69.532  1.00  0.00    -0.230 C  
HETATM   14  C   UNL     1     -10.753   9.504  70.236  1.00  0.00    -0.315 C  
HETATM   15  C   UNL     1      -9.975   8.168  69.975  1.00  0.00    -0.192 C  
HETATM   16  N   UNL     1      -8.057   9.737  69.839  1.00  0.00    -0.166 NA 
HETATM   17  C   UNL     1      -8.404   8.353  70.124  1.00  0.00    -0.120 C  
HETATM   18  C   UNL     1      -6.755  10.273  70.099  1.00  0.00    -0.146 C  
ENDROOT
BRANCH  15  19
HETATM   19  N   UNL     1     -10.444   6.862  70.430  1.00  0.00    -0.202 N  
HETATM   20  H   UNL     1     -11.366   6.488  70.209  1.00  0.00     0.000 HD 
BRANCH  19  21
HETATM   21  C   UNL     1      -9.495   6.176  71.201  1.00  0.00    -0.167 C  
HETATM   22  O   UNL     1      -8.477   5.695  70.696  1.00  0.00    -0.122 OA 
BRANCH  21  23
HETATM   23  N   UNL     1      -9.709   6.056  72.558  1.00  0.00    -0.157 N  
BRANCH  23  24
HETATM   24  C   UNL     1      -8.707   6.210  73.604  1.00  0.00    -0.124 C  
HETATM   25  C   UNL     1      -8.186   7.637  73.680  1.00  0.00    -0.218 C  
ENDBRANCH  23  24
BRANCH  23  26
HETATM   26  C   UNL     1     -11.100   5.833  72.997  1.00  0.00    -0.265 C  
HETATM   27  C   UNL     1     -11.402   4.395  73.396  1.00  0.00    -0.353 C  
ENDBRANCH  23  26
ENDBRANCH  21  23
ENDBRANCH  19  21
ENDBRANCH  15  19
TORSDOF 5
ENDMDL
MODEL      132
REMARK 921   NORMALIZED FREE ENERGY PREDICTED BY IDOCK:   -3.79 KCAL/MOL
REMARK 922        TOTAL FREE ENERGY PREDICTED BY IDOCK:   -5.38 KCAL/MOL
REMARK 923 INTER-LIGAND FREE ENERGY PREDICTED BY IDOCK:   -4.75 KCAL/MOL
REMARK 924 INTRA-LIGAND FREE ENERGY PREDICTED BY IDOCK:   -0.63 KCAL/MOL
REMARK 927      BINDING AFFINITY PREDICTED BY RF-SCORE:    0.00 PKD
ROOT
HETATM    1  C   UNL     1      -9.652   7.198  68.120  1.00  0.00    -0.131 C  
HETATM    2  C   UNL     1     -10.530   8.009  67.155  1.00  0.00    -0.408 C  
HETATM    3  C   UNL     1     -10.374   9.436  67.482  1.00  0.00    -0.314 A  
HETATM    4  C   UNL     1     -11.182  10.547  67.461  1.00  0.00    -0.224 A  
HETATM    5  N   UNL     1     -10.357  11.644  67.564  1.00  0.00    -0.194 NA 
HETATM    6  C   UNL     1      -9.033  11.233  67.619  1.00  0.00    -0.142 A  
HETATM    7  H   UNL     1     -10.672  12.614  67.595  1.00  0.00     0.000 HD 
HETATM    8  C   UNL     1      -7.827  11.897  67.455  1.00  0.00    -0.152 A  
HETATM    9  C   UNL     1      -6.682  11.090  67.569  1.00  0.00    -0.072 A  
HETATM   10  C   UNL     1      -6.727   9.745  68.022  1.00  0.00    -0.061 A  
HETATM   11  C   UNL     1      -7.956   9.118  68.260  1.00  0.00    -0.103 A  
HETATM   12  C   UNL     1      -9.087   9.884  67.877  1.00  0.00    -0.135 A  
HETATM   13  C   UNL     1      -8.357   7.772  68.786  1.00  0.00    -0.128 C  
HETATM   14  C   UNL     1      -7.952   7.043  69.888  1.00  0.00    -0.123 C  
HETATM   15  C   UNL     1      -8.972   5.931  70.311  1.00  0.00    -0.146 C  
HETATM   16  N   UNL     1      -9.303   5.809  67.855  1.00  0.00    -0.105 NA 
HETATM   17  C   UNL     1      -9.423   5.034  69.080  1.00  0.00    -0.137 C  
HETATM   18  C   UNL     1      -9.424   5.219  66.556  1.00  0.00    -0.149 C  
ENDROOT
BRANCH  15  19
HETATM   19  N   UNL     1      -8.872   5.180  71.560  1.00  0.00    -0.132 N  
HETATM   20  H   UNL     1      -7.990   4.837  71.941  1.00  0.00     0.000 HD 
BRANCH  19  21
HETATM   21  C   UNL     1     -10.112   4.980  72.182  1.00  0.00    -0.196 C  
HETATM   22  O   UNL     1     -10.575   3.849  72.352  1.00  0.00    -0.122 OA 
BRANCH  21  23
HETATM   23  N   UNL     1     -10.815   6.082  72.623  1.00  0.00    -0.230 N  
BRANCH  23  24
HETATM   24  C   UNL     1     -10.444   6.952  73.730  1.00  0.00    -0.357 C  
HETATM   25  C   UNL     1      -9.294   7.876  73.360  1.00  0.00    -0.348 C  
ENDBRANCH  23  24
BRANCH  23  26
HETATM   26  C   UNL     1     -12.012   6.464  71.848  1.00  0.00    -0.329 C  
HETATM   27  C   UNL     1     -11.866   7.779  71.093  1.00  0.00    -0.311 C  
ENDBRANCH  23  26
ENDBRANCH  21  23
ENDBRANCH  19  21
ENDBRANCH  15  19
TORSDOF 5
ENDMDL
MODEL      133
REMARK 921   NORMALIZED FREE ENERGY PREDICTED BY IDOCK:   -3.79 KCAL/MOL
REMARK 922        TOTAL FREE ENERGY PREDICTED BY IDOCK:   -5.38 KCAL/MOL
REMARK 923 INTER-LIGAND FREE ENERGY PREDICTED BY IDOCK:   -5.20 KCAL/MOL
REMARK 924 INTRA-LIGAND FREE ENERGY PREDICTED BY IDOCK:   -0.18 KCAL/MOL
REMARK 927      BINDING AFFINITY PREDICTED BY RF-SCORE:    0.00 PKD
ROOT
HETATM    1  C   UNL     1     -10.868  11.504  68.764  1.00  0.00    -0.216 C  
HETATM    2  C   UNL     1     -11.565  12.849  68.508  1.00  0.00    -0.358 C  
HETATM    3  C   UNL     1     -10.947  13.468  67.325  1.00  0.00    -0.293 A  
HETATM    4  C   UNL     1     -10.665  14.750  66.917  1.00  0.00    -0.308 A  
HETATM    5  N   UNL     1     -10.384  14.688  65.570  1.00  0.00    -0.337 NA 
HETATM    6  C   UNL     1     -10.517  13.382  65.121  1.00  0.00    -0.347 A  
HETATM    7  H   UNL     1     -10.118  15.483  64.989  1.00  0.00     0.000 HD 
HETATM    8  C   UNL     1     -10.619  12.819  63.859  1.00  0.00    -0.427 A  
HETATM    9  C   UNL     1     -10.768  11.422  63.839  1.00  0.00    -0.462 A  
HETATM   10  C   UNL     1     -10.619  10.612  64.997  1.00  0.00    -0.187 A  
HETATM   11  C   UNL     1     -10.435  11.201  66.254  1.00  0.00    -0.312 A  
HETATM   12  C   UNL     1     -10.557  12.614  66.262  1.00  0.00    -0.274 A  
HETATM   13  C   UNL     1     -10.188  10.664  67.632  1.00  0.00    -0.229 C  
HETATM   14  C   UNL     1      -9.305   9.720  68.121  1.00  0.00    -0.136 C  
HETATM   15  C   UNL     1      -9.063   9.831  69.666  1.00  0.00    -0.220 C  
HETATM   16  N   UNL     1     -11.456  10.488  69.626  1.00  0.00    -0.264 NA 
HETATM   17  C   UNL     1     -10.424   9.917  70.479  1.00  0.00    -0.264 C  
HETATM   18  C   UNL     1     -12.840  10.495  69.992  1.00  0.00     0.023 C  
ENDROOT
BRANCH  15  19
HETATM   19  N   UNL     1      -8.020   9.092  70.371  1.00  0.00    -0.126 N  
HETATM   20  H   UNL     1      -7.279   9.541  70.910  1.00  0.00     0.000 HD 
BRANCH  19  21
HETATM   21  C   UNL     1      -8.140   7.703  70.231  1.00  0.00    -0.114 C  
HETATM   22  O   UNL     1      -9.237   7.140  70.277  1.00  0.00    -0.155 OA 
BRANCH  21  23
HETATM   23  N   UNL     1      -6.997   6.959  70.023  1.00  0.00    -0.060 N  
BRANCH  23  24
HETATM   24  C   UNL     1      -5.961   6.680  71.009  1.00  0.00    -0.028 C  
HETATM   25  C   UNL     1      -5.735   5.186  71.182  1.00  0.00    -0.012 C  
ENDBRANCH  23  24
BRANCH  23  26
HETATM   26  C   UNL     1      -6.851   6.314  68.704  1.00  0.00    -0.074 C  
HETATM   27  C   UNL     1      -5.726   6.889  67.854  1.00  0.00    -0.020 C  
ENDBRANCH  23  26
ENDBRANCH  21  23
ENDBRANCH  19  21
ENDBRANCH  15  19
TORSDOF 5
ENDMDL
MODEL      134
REMARK 921   NORMALIZED FREE ENERGY PREDICTED BY IDOCK:   -3.75 KCAL/MOL
REMARK 922        TOTAL FREE ENERGY PREDICTED BY IDOCK:   -5.33 KCAL/MOL
REMARK 923 INTER-LIGAND FREE ENERGY PREDICTED BY IDOCK:   -5.10 KCAL/MOL
REMARK 924 INTRA-LIGAND FREE ENERGY PREDICTED BY IDOCK:   -0.23 KCAL/MOL
REMARK 927      BINDING AFFINITY PREDICTED BY RF-SCORE:    0.00 PKD
ROOT
HETATM    1  C   UNL     1      -8.493   9.339  69.998  1.00  0.00    -0.176 C  
HETATM    2  C   UNL     1      -7.511   8.632  70.945  1.00  0.00    -0.083 C  
HETATM    3  C   UNL     1      -8.227   7.531  71.609  1.00  0.00    -0.108 A  
HETATM    4  C   UNL     1      -8.188   6.934  72.847  1.00  0.00    -0.107 A  
HETATM    5  N   UNL     1      -8.874   5.745  72.739  1.00  0.00    -0.122 NA 
HETATM    6  C   UNL     1      -9.318   5.575  71.436  1.00  0.00    -0.147 A  
HETATM    7  H   UNL     1      -9.032   5.088  73.503  1.00  0.00     0.000 HD 
HETATM    8  C   UNL     1      -9.798   4.480  70.734  1.00  0.00    -0.280 A  
HETATM    9  C   UNL     1     -10.125   4.730  69.390  1.00  0.00    -0.241 A  
HETATM   10  C   UNL     1     -10.165   6.037  68.835  1.00  0.00    -0.246 A  
HETATM   11  C   UNL     1      -9.752   7.141  69.590  1.00  0.00    -0.158 A  
HETATM   12  C   UNL     1      -9.180   6.809  70.846  1.00  0.00    -0.157 A  
HETATM   13  C   UNL     1      -9.722   8.621  69.348  1.00  0.00    -0.176 C  
HETATM   14  C   UNL     1     -10.668   9.505  68.866  1.00  0.00    -0.220 C  
HETATM   15  C   UNL     1     -10.374  10.999  69.238  1.00  0.00    -0.154 C  
HETATM   16  N   UNL     1      -8.032  10.231  68.943  1.00  0.00    -0.104 NA 
HETATM   17  C   UNL     1      -8.878  11.414  68.902  1.00  0.00    -0.001 C  
HETATM   18  C   UNL     1      -6.680  10.235  68.473  1.00  0.00    -0.057 C  
ENDROOT
BRANCH  15  19
HETATM   19  N   UNL     1     -11.330  12.083  69.030  1.00  0.00    -0.255 N  
HETATM   20  H   UNL     1     -11.433  12.580  68.146  1.00  0.00     0.000 HD 
BRANCH  19  21
HETATM   21  C   UNL     1     -12.090  12.371  70.172  1.00  0.00    -0.290 C  
HETATM   22  O   UNL     1     -12.722  11.494  70.767  1.00  0.00    -0.301 OA 
BRANCH  21  23
HETATM   23  N   UNL     1     -12.113  13.669  70.640  1.00  0.00    -0.344 N  
BRANCH  23  24
HETATM   24  C   UNL     1     -12.616  14.107  71.935  1.00  0.00    -0.286 C  
HETATM   25  C   UNL     1     -14.091  14.474  71.872  1.00  0.00    -0.595 C  
ENDBRANCH  23  24
BRANCH  23  26
HETATM   26  C   UNL     1     -11.493  14.698  69.784  1.00  0.00    -0.282 C  
HETATM   27  C   UNL     1     -11.730  16.126  70.262  1.00  0.00    -0.211 C  
ENDBRANCH  23  26
ENDBRANCH  21  23
ENDBRANCH  19  21
ENDBRANCH  15  19
TORSDOF 5
ENDMDL
MODEL      135
REMARK 921   NORMALIZED FREE ENERGY PREDICTED BY IDOCK:   -3.74 KCAL/MOL
REMARK 922        TOTAL FREE ENERGY PREDICTED BY IDOCK:   -5.32 KCAL/MOL
REMARK 923 INTER-LIGAND FREE ENERGY PREDICTED BY IDOCK:   -5.39 KCAL/MOL
REMARK 924 INTRA-LIGAND FREE ENERGY PREDICTED BY IDOCK:    0.07 KCAL/MOL
REMARK 927      BINDING AFFINITY PREDICTED BY RF-SCORE:    0.00 PKD
ROOT
HETATM    1  C   UNL     1     -10.418  14.750  68.832  1.00  0.00    -0.249 C  
HETATM    2  C   UNL     1      -9.128  14.606  69.653  1.00  0.00     0.321 C  
HETATM    3  C   UNL     1      -8.136  15.552  69.117  1.00  0.00    -0.244 A  
HETATM    4  C   UNL     1      -6.770  15.566  68.960  1.00  0.00    -0.131 A  
HETATM    5  N   UNL     1      -6.410  16.870  68.703  1.00  0.00    -0.155 NA 
HETATM    6  C   UNL     1      -7.535  17.682  68.726  1.00  0.00    -0.255 A  
HETATM    7  H   UNL     1      -5.459  17.191  68.521  1.00  0.00     0.000 HD 
HETATM    8  C   UNL     1      -7.712  19.054  68.802  1.00  0.00    -0.382 A  
HETATM    9  C   UNL     1      -9.050  19.484  68.825  1.00  0.00    -0.381 A  
HETATM   10  C   UNL     1     -10.145  18.612  68.580  1.00  0.00    -0.426 A  
HETATM   11  C   UNL     1      -9.935  17.236  68.424  1.00  0.00    -0.322 A  
HETATM   12  C   UNL     1      -8.603  16.816  68.673  1.00  0.00    -0.263 A  
HETATM   13  C   UNL     1     -10.825  16.073  68.102  1.00  0.00    -0.322 C  
HETATM   14  C   UNL     1     -11.785  15.876  67.128  1.00  0.00     0.432 C  
HETATM   15  C   UNL     1     -12.107  14.365  66.865  1.00  0.00    -0.356 C  
HETATM   16  N   UNL     1     -11.691  14.227  69.308  1.00  0.00    -0.299 NA 
HETATM   17  C   UNL     1     -12.389  13.571  68.212  1.00  0.00     0.095 C  
HETATM   18  C   UNL     1     -11.919  13.885  70.679  1.00  0.00    -0.292 C  
ENDROOT
BRANCH  15  19
HETATM   19  N   UNL     1     -12.920  13.899  65.745  1.00  0.00    -0.524 N  
HETATM   20  H   UNL     1     -13.917  13.698  65.819  1.00  0.00     0.000 HD 
BRANCH  19  21
HETATM   21  C   UNL     1     -12.189  13.755  64.558  1.00  0.00    -0.403 C  
HETATM   22  O   UNL     1     -12.600  14.209  63.486  1.00  0.00    -0.834 OA 
BRANCH  21  23
HETATM   23  N   UNL     1     -10.975  13.101  64.604  1.00  0.00    -0.336 N  
BRANCH  23  24
HETATM   24  C   UNL     1      -9.721  13.651  65.100  1.00  0.00     0.050 C  
HETATM   25  C   UNL     1      -9.634  15.153  64.874  1.00  0.00     0.594 C  
ENDBRANCH  23  24
BRANCH  23  26
HETATM   26  C   UNL     1     -10.964  11.684  64.192  1.00  0.00    -0.376 C  
HETATM   27  C   UNL     1     -10.061  11.393  63.000  1.00  0.00    -0.333 C  
ENDBRANCH  23  26
ENDBRANCH  21  23
ENDBRANCH  19  21
ENDBRANCH  15  19
TORSDOF 5
ENDMDL
MODEL      136
REMARK 921   NORMALIZED FREE ENERGY PREDICTED BY IDOCK:   -3.74 KCAL/MOL
REMARK 922        TOTAL FREE ENERGY PREDICTED BY IDOCK:   -5.31 KCAL/MOL
REMARK 923 INTER-LIGAND FREE ENERGY PREDICTED BY IDOCK:   -5.62 KCAL/MOL
REMARK 924 INTRA-LIGAND FREE ENERGY PREDICTED BY IDOCK:    0.31 KCAL/MOL
REMARK 927      BINDING AFFINITY PREDICTED BY RF-SCORE:    0.00 PKD
ROOT
HETATM    1  C   UNL     1     -10.906  11.552  68.981  1.00  0.00    -0.212 C  
HETATM    2  C   UNL     1     -10.918  13.088  68.987  1.00  0.00    -0.242 C  
HETATM    3  C   UNL     1     -10.199  13.557  67.792  1.00  0.00    -0.242 A  
HETATM    4  C   UNL     1      -9.393  14.627  67.481  1.00  0.00    -0.195 A  
HETATM    5  N   UNL     1      -9.304  14.675  66.108  1.00  0.00    -0.456 NA 
HETATM    6  C   UNL     1     -10.071  13.662  65.551  1.00  0.00    -0.275 A  
HETATM    7  H   UNL     1      -8.755  15.353  65.580  1.00  0.00     0.000 HD 
HETATM    8  C   UNL     1     -10.543  13.427  64.269  1.00  0.00    -0.358 A  
HETATM    9  C   UNL     1     -11.327  12.269  64.125  1.00  0.00    -0.442 A  
HETATM   10  C   UNL     1     -11.462  11.296  65.150  1.00  0.00     0.113 A  
HETATM   11  C   UNL     1     -10.906  11.517  66.416  1.00  0.00    -0.334 A  
HETATM   12  C   UNL     1     -10.355  12.812  66.594  1.00  0.00    -0.252 A  
HETATM   13  C   UNL     1     -10.807  10.702  67.671  1.00  0.00    -0.346 C  
HETATM   14  C   UNL     1     -10.423   9.395  67.906  1.00  0.00    -0.296 C  
HETATM   15  C   UNL     1     -10.010   9.123  69.394  1.00  0.00    -0.191 C  
HETATM   16  N   UNL     1     -11.814  10.776  69.815  1.00  0.00    -0.312 NA 
HETATM   17  C   UNL     1     -11.090   9.669  70.423  1.00  0.00    -0.290 C  
HETATM   18  C   UNL     1     -12.993  11.338  70.400  1.00  0.00     0.075 C  
ENDROOT
BRANCH  15  19
HETATM   19  N   UNL     1      -9.369   7.889  69.837  1.00  0.00    -0.157 N  
HETATM   20  H   UNL     1      -8.510   7.868  70.387  1.00  0.00     0.000 HD 
BRANCH  19  21
HETATM   21  C   UNL     1     -10.054   6.736  69.429  1.00  0.00    -0.171 C  
HETATM   22  O   UNL     1     -11.285   6.707  69.355  1.00  0.00    -0.306 OA 
BRANCH  21  23
HETATM   23  N   UNL     1      -9.321   5.618  69.090  1.00  0.00    -0.121 N  
BRANCH  23  24
HETATM   24  C   UNL     1      -8.605   5.405  67.839  1.00  0.00    -0.104 C  
HETATM   25  C   UNL     1      -7.734   6.599  67.478  1.00  0.00    -0.110 C  
ENDBRANCH  23  24
BRANCH  23  26
HETATM   26  C   UNL     1      -9.179   4.574  70.124  1.00  0.00    -0.130 C  
HETATM   27  C   UNL     1      -9.991   4.837  71.385  1.00  0.00    -0.267 C  
ENDBRANCH  23  26
ENDBRANCH  21  23
ENDBRANCH  19  21
ENDBRANCH  15  19
TORSDOF 5
ENDMDL
MODEL      137
REMARK 921   NORMALIZED FREE ENERGY PREDICTED BY IDOCK:   -3.72 KCAL/MOL
REMARK 922        TOTAL FREE ENERGY PREDICTED BY IDOCK:   -5.29 KCAL/MOL
REMARK 923 INTER-LIGAND FREE ENERGY PREDICTED BY IDOCK:   -5.08 KCAL/MOL
REMARK 924 INTRA-LIGAND FREE ENERGY PREDICTED BY IDOCK:   -0.22 KCAL/MOL
REMARK 927      BINDING AFFINITY PREDICTED BY RF-SCORE:    0.00 PKD
ROOT
HETATM    1  C   UNL     1      -8.714   6.273  67.590  1.00  0.00    -0.113 C  
HETATM    2  C   UNL     1      -8.220   5.061  66.787  1.00  0.00    -0.107 C  
HETATM    3  C   UNL     1      -8.460   5.327  65.359  1.00  0.00    -0.145 A  
HETATM    4  C   UNL     1      -8.793   4.575  64.258  1.00  0.00    -0.152 A  
HETATM    5  N   UNL     1      -8.544   5.356  63.151  1.00  0.00    -0.287 NA 
HETATM    6  C   UNL     1      -8.030   6.582  63.546  1.00  0.00    -0.075 A  
HETATM    7  H   UNL     1      -8.714   5.075  62.185  1.00  0.00     0.000 HD 
HETATM    8  C   UNL     1      -7.375   7.598  62.867  1.00  0.00    -0.096 A  
HETATM    9  C   UNL     1      -6.986   8.691  63.661  1.00  0.00    -0.088 A  
HETATM   10  C   UNL     1      -7.404   8.856  65.008  1.00  0.00    -0.095 A  
HETATM   11  C   UNL     1      -8.136   7.850  65.651  1.00  0.00    -0.130 A  
HETATM   12  C   UNL     1      -8.276   6.656  64.897  1.00  0.00    -0.085 A  
HETATM   13  C   UNL     1      -8.773   7.723  67.003  1.00  0.00    -0.131 C  
HETATM   14  C   UNL     1      -9.593   8.564  67.730  1.00  0.00    -0.185 C  
HETATM   15  C   UNL     1     -10.400   7.831  68.856  1.00  0.00    -0.213 C  
HETATM   16  N   UNL     1      -8.315   6.490  68.973  1.00  0.00    -0.115 NA 
HETATM   17  C   UNL     1      -9.470   6.908  69.754  1.00  0.00    -0.145 C  
HETATM   18  C   UNL     1      -7.186   5.835  69.561  1.00  0.00    -0.066 C  
ENDROOT
BRANCH  15  19
HETATM   19  N   UNL     1     -11.482   8.459  69.609  1.00  0.00    -0.370 N  
HETATM   20  H   UNL     1     -12.426   8.580  69.241  1.00  0.00     0.000 HD 
BRANCH  19  21
HETATM   21  C   UNL     1     -11.091   8.877  70.888  1.00  0.00    -0.271 C  
HETATM   22  O   UNL     1     -10.160   9.670  71.053  1.00  0.00    -0.268 OA 
BRANCH  21  23
HETATM   23  N   UNL     1     -11.781   8.394  71.980  1.00  0.00    -0.326 N  
BRANCH  23  24
HETATM   24  C   UNL     1     -11.302   7.396  72.927  1.00  0.00    -0.273 C  
HETATM   25  C   UNL     1     -11.572   5.981  72.440  1.00  0.00    -0.349 C  
ENDBRANCH  23  24
BRANCH  23  26
HETATM   26  C   UNL     1     -13.093   9.007  72.266  1.00  0.00    -0.445 C  
HETATM   27  C   UNL     1     -14.276   8.222  71.714  1.00  0.00    -0.544 C  
ENDBRANCH  23  26
ENDBRANCH  21  23
ENDBRANCH  19  21
ENDBRANCH  15  19
TORSDOF 5
ENDMDL
MODEL      138
REMARK 921   NORMALIZED FREE ENERGY PREDICTED BY IDOCK:   -3.71 KCAL/MOL
REMARK 922        TOTAL FREE ENERGY PREDICTED BY IDOCK:   -5.28 KCAL/MOL
REMARK 923 INTER-LIGAND FREE ENERGY PREDICTED BY IDOCK:   -4.50 KCAL/MOL
REMARK 924 INTRA-LIGAND FREE ENERGY PREDICTED BY IDOCK:   -0.78 KCAL/MOL
REMARK 927      BINDING AFFINITY PREDICTED BY RF-SCORE:    0.00 PKD
ROOT
HETATM    1  C   UNL     1      -9.051   9.398  65.438  1.00  0.00    -0.226 C  
HETATM    2  C   UNL     1     -10.118  10.356  64.887  1.00  0.00    -0.382 C  
HETATM    3  C   UNL     1     -10.424  11.350  65.929  1.00  0.00    -0.309 A  
HETATM    4  C   UNL     1     -11.540  12.044  66.334  1.00  0.00    -0.313 A  
HETATM    5  N   UNL     1     -11.102  13.066  67.146  1.00  0.00    -0.265 NA 
HETATM    6  C   UNL     1      -9.717  13.039  67.231  1.00  0.00    -0.225 A  
HETATM    7  H   UNL     1     -11.705  13.741  67.615  1.00  0.00     0.000 HD 
HETATM    8  C   UNL     1      -8.777  13.958  67.669  1.00  0.00    -0.187 A  
HETATM    9  C   UNL     1      -7.439  13.540  67.564  1.00  0.00    -0.177 A  
HETATM   10  C   UNL     1      -7.071  12.208  67.235  1.00  0.00    -0.144 A  
HETATM   11  C   UNL     1      -8.046  11.271  66.874  1.00  0.00    -0.155 A  
HETATM   12  C   UNL     1      -9.351  11.809  66.736  1.00  0.00    -0.199 A  
HETATM   13  C   UNL     1      -8.017   9.810  66.538  1.00  0.00    -0.112 C  
HETATM   14  C   UNL     1      -7.428   8.722  67.155  1.00  0.00    -0.088 C  
HETATM   15  C   UNL     1      -8.058   7.349  66.737  1.00  0.00    -0.123 C  
HETATM   16  N   UNL     1      -8.279   8.527  64.563  1.00  0.00    -0.162 NA 
HETATM   17  C   UNL     1      -8.177   7.203  65.160  1.00  0.00    -0.113 C  
HETATM   18  C   UNL     1      -8.180   8.744  63.151  1.00  0.00    -0.182 C  
ENDROOT
BRANCH  15  19
HETATM   19  N   UNL     1      -7.755   6.088  67.408  1.00  0.00    -0.096 N  
HETATM   20  H   UNL     1      -6.821   5.679  67.442  1.00  0.00     0.000 HD 
BRANCH  19  21
HETATM   21  C   UNL     1      -8.880   5.497  68.000  1.00  0.00    -0.105 C  
HETATM   22  O   UNL     1      -9.278   4.380  67.659  1.00  0.00    -0.126 OA 
BRANCH  21  23
HETATM   23  N   UNL     1      -9.539   6.185  68.997  1.00  0.00    -0.126 N  
BRANCH  23  24
HETATM   24  C   UNL     1     -10.765   6.957  68.842  1.00  0.00    -0.222 C  
HETATM   25  C   UNL     1     -10.534   8.439  69.094  1.00  0.00    -0.218 C  
ENDBRANCH  23  24
BRANCH  23  26
HETATM   26  C   UNL     1      -9.001   6.058  70.365  1.00  0.00    -0.149 C  
HETATM   27  C   UNL     1      -7.703   6.823  70.593  1.00  0.00    -0.097 C  
ENDBRANCH  23  26
ENDBRANCH  21  23
ENDBRANCH  19  21
ENDBRANCH  15  19
TORSDOF 5
ENDMDL
MODEL      139
REMARK 921   NORMALIZED FREE ENERGY PREDICTED BY IDOCK:   -3.70 KCAL/MOL
REMARK 922        TOTAL FREE ENERGY PREDICTED BY IDOCK:   -5.26 KCAL/MOL
REMARK 923 INTER-LIGAND FREE ENERGY PREDICTED BY IDOCK:   -4.84 KCAL/MOL
REMARK 924 INTRA-LIGAND FREE ENERGY PREDICTED BY IDOCK:   -0.42 KCAL/MOL
REMARK 927      BINDING AFFINITY PREDICTED BY RF-SCORE:    0.00 PKD
ROOT
HETATM    1  C   UNL     1      -7.901   7.795  68.943  1.00  0.00    -0.122 C  
HETATM    2  C   UNL     1      -6.684   7.462  69.820  1.00  0.00    -0.044 C  
HETATM    3  C   UNL     1      -6.880   8.092  71.135  1.00  0.00    -0.045 A  
HETATM    4  C   UNL     1      -6.068   8.663  72.087  1.00  0.00    -0.072 A  
HETATM    5  N   UNL     1      -6.816   8.768  73.239  1.00  0.00    -0.330 NA 
HETATM    6  C   UNL     1      -8.082   8.242  73.028  1.00  0.00    -0.149 A  
HETATM    7  H   UNL     1      -6.488   9.174  74.115  1.00  0.00     0.000 HD 
HETATM    8  C   UNL     1      -9.102   7.856  73.883  1.00  0.00    -0.237 A  
HETATM    9  C   UNL     1     -10.245   7.335  73.252  1.00  0.00    -0.365 A  
HETATM   10  C   UNL     1     -10.441   7.385  71.846  1.00  0.00    -0.229 A  
HETATM   11  C   UNL     1      -9.426   7.856  71.005  1.00  0.00    -0.172 A  
HETATM   12  C   UNL     1      -8.197   8.120  71.663  1.00  0.00    -0.156 A  
HETATM   13  C   UNL     1      -9.320   8.097  69.528  1.00  0.00    -0.155 C  
HETATM   14  C   UNL     1     -10.147   8.741  68.627  1.00  0.00    -0.207 C  
HETATM   15  C   UNL     1      -9.419   9.170  67.308  1.00  0.00    -0.148 C  
HETATM   16  N   UNL     1      -8.193   7.053  67.725  1.00  0.00    -0.114 NA 
HETATM   17  C   UNL     1      -8.583   7.979  66.672  1.00  0.00    -0.136 C  
HETATM   18  C   UNL     1      -7.621   5.770  67.448  1.00  0.00    -0.096 C  
ENDROOT
BRANCH  15  19
HETATM   19  N   UNL     1     -10.020  10.047  66.306  1.00  0.00    -0.232 N  
HETATM   20  H   UNL     1     -10.866   9.811  65.788  1.00  0.00     0.000 HD 
BRANCH  19  21
HETATM   21  C   UNL     1      -9.314  11.245  66.130  1.00  0.00    -0.211 C  
HETATM   22  O   UNL     1      -8.092  11.257  65.962  1.00  0.00    -0.119 OA 
BRANCH  21  23
HETATM   23  N   UNL     1     -10.017  12.432  66.132  1.00  0.00    -0.248 N  
BRANCH  23  24
HETATM   24  C   UNL     1     -11.109  12.786  65.234  1.00  0.00    -0.287 C  
HETATM   25  C   UNL     1     -10.927  12.171  63.855  1.00  0.00    -0.463 C  
ENDBRANCH  23  24
BRANCH  23  26
HETATM   26  C   UNL     1      -9.691  13.400  67.197  1.00  0.00    -0.237 C  
HETATM   27  C   UNL     1     -10.557  13.266  68.443  1.00  0.00    -0.263 C  
ENDBRANCH  23  26
ENDBRANCH  21  23
ENDBRANCH  19  21
ENDBRANCH  15  19
TORSDOF 5
ENDMDL
MODEL      140
REMARK 921   NORMALIZED FREE ENERGY PREDICTED BY IDOCK:   -3.70 KCAL/MOL
REMARK 922        TOTAL FREE ENERGY PREDICTED BY IDOCK:   -5.26 KCAL/MOL
REMARK 923 INTER-LIGAND FREE ENERGY PREDICTED BY IDOCK:   -4.52 KCAL/MOL
REMARK 924 INTRA-LIGAND FREE ENERGY PREDICTED BY IDOCK:   -0.74 KCAL/MOL
REMARK 927      BINDING AFFINITY PREDICTED BY RF-SCORE:    0.00 PKD
ROOT
HETATM    1  C   UNL     1      -8.554   9.382  68.811  1.00  0.00    -0.127 C  
HETATM    2  C   UNL     1      -8.562  10.912  68.674  1.00  0.00    -0.153 C  
HETATM    3  C   UNL     1      -9.963  11.364  68.662  1.00  0.00    -0.209 A  
HETATM    4  C   UNL     1     -10.668  12.372  68.049  1.00  0.00    -0.223 A  
HETATM    5  N   UNL     1     -11.878  12.467  68.701  1.00  0.00    -0.317 NA 
HETATM    6  C   UNL     1     -11.927  11.546  69.738  1.00  0.00    -0.346 A  
HETATM    7  H   UNL     1     -12.626  13.116  68.458  1.00  0.00     0.000 HD 
HETATM    8  C   UNL     1     -12.755  11.403  70.840  1.00  0.00    -0.397 A  
HETATM    9  C   UNL     1     -12.444  10.323  71.684  1.00  0.00    -0.491 A  
HETATM   10  C   UNL     1     -11.493   9.325  71.342  1.00  0.00    -0.439 A  
HETATM   11  C   UNL     1     -10.722   9.448  70.180  1.00  0.00    -0.282 A  
HETATM   12  C   UNL     1     -10.882  10.683  69.501  1.00  0.00    -0.303 A  
HETATM   13  C   UNL     1      -9.704   8.579  69.505  1.00  0.00    -0.176 C  
HETATM   14  C   UNL     1      -9.694   7.236  69.178  1.00  0.00    -0.160 C  
HETATM   15  C   UNL     1      -8.653   6.871  68.064  1.00  0.00    -0.123 C  
HETATM   16  N   UNL     1      -7.355   8.654  69.203  1.00  0.00    -0.074 NA 
HETATM   17  C   UNL     1      -7.214   7.466  68.374  1.00  0.00    -0.093 C  
HETATM   18  C   UNL     1      -6.238   9.291  69.831  1.00  0.00    -0.039 C  
ENDROOT
BRANCH  15  19
HETATM   19  N   UNL     1      -8.605   5.570  67.403  1.00  0.00    -0.109 N  
HETATM   20  H   UNL     1      -8.458   5.453  66.401  1.00  0.00     0.000 HD 
BRANCH  19  21
HETATM   21  C   UNL     1      -8.783   4.497  68.289  1.00  0.00    -0.100 C  
HETATM   22  O   UNL     1      -9.871   3.928  68.405  1.00  0.00    -0.088 OA 
BRANCH  21  23
HETATM   23  N   UNL     1      -7.703   4.068  69.031  1.00  0.00    -0.054 N  
BRANCH  23  24
HETATM   24  C   UNL     1      -7.685   3.837  70.469  1.00  0.00    -0.044 C  
HETATM   25  C   UNL     1      -7.642   5.142  71.250  1.00  0.00    -0.095 C  
ENDBRANCH  23  24
BRANCH  23  26
HETATM   26  C   UNL     1      -6.473   3.730  68.288  1.00  0.00    -0.037 C  
HETATM   27  C   UNL     1      -6.565   2.433  67.495  1.00  0.00    -0.036 C  
ENDBRANCH  23  26
ENDBRANCH  21  23
ENDBRANCH  19  21
ENDBRANCH  15  19
TORSDOF 5
ENDMDL
MODEL      141
REMARK 921   NORMALIZED FREE ENERGY PREDICTED BY IDOCK:   -3.65 KCAL/MOL
REMARK 922        TOTAL FREE ENERGY PREDICTED BY IDOCK:   -5.20 KCAL/MOL
REMARK 923 INTER-LIGAND FREE ENERGY PREDICTED BY IDOCK:   -5.01 KCAL/MOL
REMARK 924 INTRA-LIGAND FREE ENERGY PREDICTED BY IDOCK:   -0.19 KCAL/MOL
REMARK 927      BINDING AFFINITY PREDICTED BY RF-SCORE:    0.00 PKD
ROOT
HETATM    1  C   UNL     1      -8.734  13.365  68.026  1.00  0.00    -0.178 C  
HETATM    2  C   UNL     1      -8.527  14.843  68.391  1.00  0.00    -0.153 C  
HETATM    3  C   UNL     1      -9.844  15.500  68.407  1.00  0.00    -0.210 A  
HETATM    4  C   UNL     1     -10.328  16.749  68.097  1.00  0.00    -0.318 A  
HETATM    5  N   UNL     1     -11.590  16.835  68.639  1.00  0.00    -0.011 NA 
HETATM    6  C   UNL     1     -11.893  15.662  69.315  1.00  0.00    -0.363 A  
HETATM    7  H   UNL     1     -12.210  17.641  68.557  1.00  0.00     0.000 HD 
HETATM    8  C   UNL     1     -12.871  15.325  70.237  1.00  0.00    -0.298 A  
HETATM    9  C   UNL     1     -12.816  14.002  70.710  1.00  0.00    -0.355 A  
HETATM   10  C   UNL     1     -11.964  13.016  70.146  1.00  0.00    -0.374 A  
HETATM   11  C   UNL     1     -11.037  13.362  69.155  1.00  0.00    -0.261 A  
HETATM   12  C   UNL     1     -10.946  14.755  68.901  1.00  0.00    -0.262 A  
HETATM   13  C   UNL     1     -10.058  12.587  68.323  1.00  0.00    -0.228 C  
HETATM   14  C   UNL     1     -10.177  11.427  67.583  1.00  0.00    -0.204 C  
HETATM   15  C   UNL     1      -9.054  11.257  66.503  1.00  0.00    -0.184 C  
HETATM   16  N   UNL     1      -7.700  12.366  68.262  1.00  0.00    -0.133 NA 
HETATM   17  C   UNL     1      -7.604  11.484  67.108  1.00  0.00    -0.149 C  
HETATM   18  C   UNL     1      -6.603  12.588  69.154  1.00  0.00    -0.100 C  
ENDROOT
BRANCH  15  19
HETATM   19  N   UNL     1      -9.087  10.232  65.463  1.00  0.00    -0.165 N  
HETATM   20  H   UNL     1      -8.935  10.429  64.474  1.00  0.00     0.000 HD 
BRANCH  19  21
HETATM   21  C   UNL     1      -9.348   8.949  65.965  1.00  0.00    -0.242 C  
HETATM   22  O   UNL     1     -10.478   8.616  66.332  1.00  0.00    -0.205 OA 
BRANCH  21  23
HETATM   23  N   UNL     1      -8.312   8.042  66.030  1.00  0.00    -0.119 N  
BRANCH  23  24
HETATM   24  C   UNL     1      -7.922   7.104  64.986  1.00  0.00    -0.129 C  
HETATM   25  C   UNL     1      -8.511   5.721  65.221  1.00  0.00    -0.148 C  
ENDBRANCH  23  24
BRANCH  23  26
HETATM   26  C   UNL     1      -7.464   8.082  67.238  1.00  0.00    -0.093 C  
HETATM   27  C   UNL     1      -8.248   8.144  68.543  1.00  0.00    -0.125 C  
ENDBRANCH  23  26
ENDBRANCH  21  23
ENDBRANCH  19  21
ENDBRANCH  15  19
TORSDOF 5
ENDMDL
MODEL      142
REMARK 921   NORMALIZED FREE ENERGY PREDICTED BY IDOCK:   -3.63 KCAL/MOL
REMARK 922        TOTAL FREE ENERGY PREDICTED BY IDOCK:   -5.18 KCAL/MOL
REMARK 923 INTER-LIGAND FREE ENERGY PREDICTED BY IDOCK:   -4.68 KCAL/MOL
REMARK 924 INTRA-LIGAND FREE ENERGY PREDICTED BY IDOCK:   -0.50 KCAL/MOL
REMARK 927      BINDING AFFINITY PREDICTED BY RF-SCORE:    0.00 PKD
ROOT
HETATM    1  C   UNL     1      -7.360   9.249  67.842  1.00  0.00    -0.080 C  
HETATM    2  C   UNL     1      -7.416   7.715  67.781  1.00  0.00    -0.108 C  
HETATM    3  C   UNL     1      -8.062   7.330  66.516  1.00  0.00    -0.114 A  
HETATM    4  C   UNL     1      -8.889   6.314  66.099  1.00  0.00    -0.153 A  
HETATM    5  N   UNL     1      -8.875   6.326  64.722  1.00  0.00    -0.343 NA 
HETATM    6  C   UNL     1      -8.023   7.323  64.269  1.00  0.00    -0.093 A  
HETATM    7  H   UNL     1      -9.411   5.697  64.125  1.00  0.00     0.000 HD 
HETATM    8  C   UNL     1      -7.444   7.588  63.038  1.00  0.00    -0.107 A  
HETATM    9  C   UNL     1      -6.601   8.712  63.004  1.00  0.00    -0.090 A  
HETATM   10  C   UNL     1      -6.502   9.635  64.079  1.00  0.00    -0.111 A  
HETATM   11  C   UNL     1      -7.162   9.389  65.289  1.00  0.00    -0.096 A  
HETATM   12  C   UNL     1      -7.782   8.115  65.367  1.00  0.00    -0.101 A  
HETATM   13  C   UNL     1      -7.320  10.156  66.568  1.00  0.00    -0.108 C  
HETATM   14  C   UNL     1      -7.662  11.468  66.832  1.00  0.00    -0.157 C  
HETATM   15  C   UNL     1      -8.175  11.698  68.295  1.00  0.00    -0.156 C  
HETATM   16  N   UNL     1      -6.484   9.946  68.775  1.00  0.00    -0.045 NA 
HETATM   17  C   UNL     1      -7.202  11.060  69.376  1.00  0.00    -0.114 C  
HETATM   18  C   UNL     1      -5.379   9.305  69.420  1.00  0.00    -0.035 C  
ENDROOT
BRANCH  15  19
HETATM   19  N   UNL     1      -8.793  12.943  68.744  1.00  0.00    -0.379 N  
HETATM   20  H   UNL     1      -8.594  13.376  69.645  1.00  0.00     0.000 HD 
BRANCH  19  21
HETATM   21  C   UNL     1      -9.689  13.480  67.809  1.00  0.00    -0.226 C  
HETATM   22  O   UNL     1      -9.312  14.246  66.918  1.00  0.00    -0.235 OA 
BRANCH  21  23
HETATM   23  N   UNL     1     -11.019  13.125  67.889  1.00  0.00    -0.241 N  
BRANCH  23  24
HETATM   24  C   UNL     1     -11.679  12.516  69.037  1.00  0.00    -0.318 C  
HETATM   25  C   UNL     1     -12.061  13.552  70.083  1.00  0.00    -0.425 C  
ENDBRANCH  23  24
BRANCH  23  26
HETATM   26  C   UNL     1     -11.874  13.470  66.737  1.00  0.00    -0.406 C  
HETATM   27  C   UNL     1     -12.005  12.355  65.707  1.00  0.00    -0.437 C  
ENDBRANCH  23  26
ENDBRANCH  21  23
ENDBRANCH  19  21
ENDBRANCH  15  19
TORSDOF 5
ENDMDL
MODEL      143
REMARK 921   NORMALIZED FREE ENERGY PREDICTED BY IDOCK:   -3.63 KCAL/MOL
REMARK 922        TOTAL FREE ENERGY PREDICTED BY IDOCK:   -5.18 KCAL/MOL
REMARK 923 INTER-LIGAND FREE ENERGY PREDICTED BY IDOCK:   -4.99 KCAL/MOL
REMARK 924 INTRA-LIGAND FREE ENERGY PREDICTED BY IDOCK:   -0.19 KCAL/MOL
REMARK 927      BINDING AFFINITY PREDICTED BY RF-SCORE:    0.00 PKD
ROOT
HETATM    1  C   UNL     1      -7.739   9.358  70.200  1.00  0.00    -0.136 C  
HETATM    2  C   UNL     1      -7.353   8.629  71.495  1.00  0.00    -0.118 C  
HETATM    3  C   UNL     1      -8.590   8.274  72.208  1.00  0.00    -0.257 A  
HETATM    4  C   UNL     1      -8.976   8.169  73.524  1.00  0.00    -0.225 A  
HETATM    5  N   UNL     1     -10.165   7.475  73.538  1.00  0.00    -0.340 NA 
HETATM    6  C   UNL     1     -10.515   7.116  72.244  1.00  0.00    -0.209 A  
HETATM    7  H   UNL     1     -10.707   7.258  74.374  1.00  0.00     0.000 HD 
HETATM    8  C   UNL     1     -11.428   6.210  71.727  1.00  0.00    -0.342 A  
HETATM    9  C   UNL     1     -11.458   6.129  70.324  1.00  0.00    -0.357 A  
HETATM   10  C   UNL     1     -10.767   7.041  69.483  1.00  0.00    -0.263 A  
HETATM   11  C   UNL     1      -9.911   8.003  70.032  1.00  0.00    -0.185 A  
HETATM   12  C   UNL     1      -9.707   7.875  71.430  1.00  0.00    -0.199 A  
HETATM   13  C   UNL     1      -9.099   9.128  69.461  1.00  0.00    -0.155 C  
HETATM   14  C   UNL     1      -9.404  10.139  68.569  1.00  0.00    -0.151 C  
HETATM   15  C   UNL     1      -8.414  11.351  68.637  1.00  0.00    -0.131 C  
HETATM   16  N   UNL     1      -6.792   9.533  69.107  1.00  0.00    -0.049 NA 
HETATM   17  C   UNL     1      -6.896  10.887  68.584  1.00  0.00    -0.062 C  
HETATM   18  C   UNL     1      -5.597   8.753  68.992  1.00  0.00    -0.036 C  
ENDROOT
BRANCH  15  19
HETATM   19  N   UNL     1      -8.649  12.620  67.954  1.00  0.00    -0.170 N  
HETATM   20  H   UNL     1      -7.921  13.135  67.457  1.00  0.00     0.000 HD 
BRANCH  19  21
HETATM   21  C   UNL     1      -9.976  13.059  68.051  1.00  0.00    -0.233 C  
HETATM   22  O   UNL     1     -10.905  12.432  67.534  1.00  0.00    -0.225 OA 
BRANCH  21  23
HETATM   23  N   UNL     1     -10.240  14.215  68.757  1.00  0.00    -0.233 N  
BRANCH  23  24
HETATM   24  C   UNL     1     -11.528  14.609  69.310  1.00  0.00    -0.291 C  
HETATM   25  C   UNL     1     -11.643  14.250  70.784  1.00  0.00    -0.182 C  
ENDBRANCH  23  24
BRANCH  23  26
HETATM   26  C   UNL     1      -9.092  15.094  69.051  1.00  0.00    -0.218 C  
HETATM   27  C   UNL     1      -9.212  16.490  68.455  1.00  0.00    -0.222 C  
ENDBRANCH  23  26
ENDBRANCH  21  23
ENDBRANCH  19  21
ENDBRANCH  15  19
TORSDOF 5
ENDMDL
MODEL      144
REMARK 921   NORMALIZED FREE ENERGY PREDICTED BY IDOCK:   -3.59 KCAL/MOL
REMARK 922        TOTAL FREE ENERGY PREDICTED BY IDOCK:   -5.12 KCAL/MOL
REMARK 923 INTER-LIGAND FREE ENERGY PREDICTED BY IDOCK:   -4.86 KCAL/MOL
REMARK 924 INTRA-LIGAND FREE ENERGY PREDICTED BY IDOCK:   -0.26 KCAL/MOL
REMARK 927      BINDING AFFINITY PREDICTED BY RF-SCORE:    0.00 PKD
ROOT
HETATM    1  C   UNL     1      -7.119  13.464  67.832  1.00  0.00    -0.137 C  
HETATM    2  C   UNL     1      -6.471  14.851  67.697  1.00  0.00    -0.168 C  
HETATM    3  C   UNL     1      -7.415  15.732  66.991  1.00  0.00    -0.242 A  
HETATM    4  C   UNL     1      -7.314  16.775  66.102  1.00  0.00    -0.029 A  
HETATM    5  N   UNL     1      -8.544  17.395  66.072  1.00  0.00    -0.534 NA 
HETATM    6  C   UNL     1      -9.409  16.767  66.957  1.00  0.00    -0.233 A  
HETATM    7  H   UNL     1      -8.783  18.194  65.485  1.00  0.00     0.000 HD 
HETATM    8  C   UNL     1     -10.628  17.130  67.507  1.00  0.00    -0.323 A  
HETATM    9  C   UNL     1     -11.179  16.197  68.404  1.00  0.00    -0.358 A  
HETATM   10  C   UNL     1     -10.647  14.893  68.584  1.00  0.00    -0.251 A  
HETATM   11  C   UNL     1      -9.454  14.519  67.952  1.00  0.00    -0.212 A  
HETATM   12  C   UNL     1      -8.797  15.577  67.273  1.00  0.00    -0.218 A  
HETATM   13  C   UNL     1      -8.668  13.245  67.875  1.00  0.00    -0.192 C  
HETATM   14  C   UNL     1      -9.033  11.939  67.607  1.00  0.00    -0.169 C  
HETATM   15  C   UNL     1      -7.834  11.036  67.154  1.00  0.00    -0.135 C  
HETATM   16  N   UNL     1      -6.616  12.471  68.770  1.00  0.00    -0.083 NA 
HETATM   17  C   UNL     1      -6.587  11.165  68.129  1.00  0.00    -0.058 C  
HETATM   18  C   UNL     1      -5.755  12.811  69.863  1.00  0.00    -0.125 C  
ENDROOT
BRANCH  15  19
HETATM   19  N   UNL     1      -8.002   9.689  66.614  1.00  0.00    -0.108 N  
HETATM   20  H   UNL     1      -7.309   9.231  66.023  1.00  0.00     0.000 HD 
BRANCH  19  21
HETATM   21  C   UNL     1      -9.213   9.092  66.990  1.00  0.00    -0.135 C  
HETATM   22  O   UNL     1     -10.291   9.461  66.517  1.00  0.00    -0.251 OA 
BRANCH  21  23
HETATM   23  N   UNL     1      -9.184   8.059  67.903  1.00  0.00    -0.131 N  
BRANCH  23  24
HETATM   24  C   UNL     1      -9.222   6.636  67.592  1.00  0.00    -0.110 C  
HETATM   25  C   UNL     1     -10.435   5.956  68.209  1.00  0.00    -0.293 C  
ENDBRANCH  23  24
BRANCH  23  26
HETATM   26  C   UNL     1      -9.012   8.425  69.322  1.00  0.00    -0.150 C  
HETATM   27  C   UNL     1     -10.028   9.442  69.826  1.00  0.00    -0.217 C  
ENDBRANCH  23  26
ENDBRANCH  21  23
ENDBRANCH  19  21
ENDBRANCH  15  19
TORSDOF 5
ENDMDL
MODEL      145
REMARK 921   NORMALIZED FREE ENERGY PREDICTED BY IDOCK:   -3.56 KCAL/MOL
REMARK 922        TOTAL FREE ENERGY PREDICTED BY IDOCK:   -5.08 KCAL/MOL
REMARK 923 INTER-LIGAND FREE ENERGY PREDICTED BY IDOCK:   -4.69 KCAL/MOL
REMARK 924 INTRA-LIGAND FREE ENERGY PREDICTED BY IDOCK:   -0.39 KCAL/MOL
REMARK 927      BINDING AFFINITY PREDICTED BY RF-SCORE:    0.00 PKD
ROOT
HETATM    1  C   UNL     1      -7.354  12.548  68.009  1.00  0.00    -0.111 C  
HETATM    2  C   UNL     1      -7.211  14.072  67.881  1.00  0.00    -0.164 C  
HETATM    3  C   UNL     1      -8.421  14.593  67.226  1.00  0.00    -0.234 A  
HETATM    4  C   UNL     1      -8.708  15.618  66.355  1.00  0.00    -0.318 A  
HETATM    5  N   UNL     1     -10.074  15.791  66.378  1.00  0.00    -0.275 NA 
HETATM    6  C   UNL     1     -10.646  14.903  67.278  1.00  0.00    -0.272 A  
HETATM    7  H   UNL     1     -10.589  16.469  65.817  1.00  0.00     0.000 HD 
HETATM    8  C   UNL     1     -11.894  14.833  67.876  1.00  0.00    -0.327 A  
HETATM    9  C   UNL     1     -12.067  13.763  68.771  1.00  0.00    -0.344 A  
HETATM   10  C   UNL     1     -11.125  12.709  68.907  1.00  0.00    -0.307 A  
HETATM   11  C   UNL     1      -9.901  12.761  68.229  1.00  0.00    -0.224 A  
HETATM   12  C   UNL     1      -9.660  13.983  67.550  1.00  0.00    -0.228 A  
HETATM   13  C   UNL     1      -8.738  11.823  68.099  1.00  0.00    -0.168 C  
HETATM   14  C   UNL     1      -8.656  10.473  67.817  1.00  0.00    -0.118 C  
HETATM   15  C   UNL     1      -7.243  10.025  67.306  1.00  0.00    -0.086 C  
HETATM   16  N   UNL     1      -6.512  11.773  68.910  1.00  0.00    -0.070 NA 
HETATM   17  C   UNL     1      -6.074  10.556  68.242  1.00  0.00    -0.047 C  
HETATM   18  C   UNL     1      -5.773  12.371  69.981  1.00  0.00    -0.141 C  
ENDROOT
BRANCH  15  19
HETATM   19  N   UNL     1      -6.972   8.705  66.744  1.00  0.00    -0.076 N  
HETATM   20  H   UNL     1      -6.348   8.548  65.953  1.00  0.00     0.000 HD 
BRANCH  19  21
HETATM   21  C   UNL     1      -7.657   7.676  67.404  1.00  0.00    -0.109 C  
HETATM   22  O   UNL     1      -7.472   7.438  68.601  1.00  0.00    -0.096 OA 
BRANCH  21  23
HETATM   23  N   UNL     1      -8.569   6.926  66.691  1.00  0.00    -0.120 N  
BRANCH  23  24
HETATM   24  C   UNL     1      -8.310   5.653  66.033  1.00  0.00    -0.124 C  
HETATM   25  C   UNL     1      -7.260   5.785  64.940  1.00  0.00    -0.066 C  
ENDBRANCH  23  24
BRANCH  23  26
HETATM   26  C   UNL     1      -9.960   7.419  66.661  1.00  0.00    -0.191 C  
HETATM   27  C   UNL     1     -10.967   6.471  67.302  1.00  0.00    -0.475 C  
ENDBRANCH  23  26
ENDBRANCH  21  23
ENDBRANCH  19  21
ENDBRANCH  15  19
TORSDOF 5
ENDMDL
MODEL      146
REMARK 921   NORMALIZED FREE ENERGY PREDICTED BY IDOCK:   -3.47 KCAL/MOL
REMARK 922        TOTAL FREE ENERGY PREDICTED BY IDOCK:   -4.96 KCAL/MOL
REMARK 923 INTER-LIGAND FREE ENERGY PREDICTED BY IDOCK:   -4.73 KCAL/MOL
REMARK 924 INTRA-LIGAND FREE ENERGY PREDICTED BY IDOCK:   -0.24 KCAL/MOL
REMARK 927      BINDING AFFINITY PREDICTED BY RF-SCORE:    0.00 PKD
ROOT
HETATM    1  C   UNL     1     -10.602   8.071  69.719  1.00  0.00    -0.238 C  
HETATM    2  C   UNL     1     -11.984   7.639  70.233  1.00  0.00     0.159 C  
HETATM    3  C   UNL     1     -12.386   8.566  71.302  1.00  0.00    -0.301 A  
HETATM    4  C   UNL     1     -13.103   8.473  72.471  1.00  0.00    -0.238 A  
HETATM    5  N   UNL     1     -13.409   9.759  72.856  1.00  0.00    -0.320 NA 
HETATM    6  C   UNL     1     -12.916  10.660  71.923  1.00  0.00    -0.437 A  
HETATM    7  H   UNL     1     -13.921  10.012  73.702  1.00  0.00     0.000 HD 
HETATM    8  C   UNL     1     -13.164  12.001  71.678  1.00  0.00    -0.361 A  
HETATM    9  C   UNL     1     -12.458  12.550  70.594  1.00  0.00    -0.323 A  
HETATM   10  C   UNL     1     -11.414  11.859  69.923  1.00  0.00    -0.264 A  
HETATM   11  C   UNL     1     -11.125  10.526  70.243  1.00  0.00    -0.359 A  
HETATM   12  C   UNL     1     -12.037   9.934  71.154  1.00  0.00    -0.466 A  
HETATM   13  C   UNL     1     -10.084   9.546  69.792  1.00  0.00    -0.238 C  
HETATM   14  C   UNL     1      -8.713   9.641  69.648  1.00  0.00    -0.206 C  
HETATM   15  C   UNL     1      -7.989   8.252  69.622  1.00  0.00    -0.111 C  
HETATM   16  N   UNL     1     -10.074   7.595  68.448  1.00  0.00    -0.181 NA 
HETATM   17  C   UNL     1      -8.671   7.241  68.604  1.00  0.00    -0.127 C  
HETATM   18  C   UNL     1     -10.906   7.014  67.437  1.00  0.00    -0.300 C  
ENDROOT
BRANCH  15  19
HETATM   19  N   UNL     1      -6.538   8.100  69.694  1.00  0.00    -0.037 N  
HETATM   20  H   UNL     1      -6.077   7.228  69.954  1.00  0.00     0.000 HD 
BRANCH  19  21
HETATM   21  C   UNL     1      -5.846   9.275  69.371  1.00  0.00    -0.034 C  
HETATM   22  O   UNL     1      -5.389  10.017  70.244  1.00  0.00    -0.039 OA 
BRANCH  21  23
HETATM   23  N   UNL     1      -5.666   9.590  68.040  1.00  0.00    -0.041 N  
BRANCH  23  24
HETATM   24  C   UNL     1      -5.866  10.898  67.432  1.00  0.00    -0.046 C  
HETATM   25  C   UNL     1      -5.194  10.996  66.071  1.00  0.00    -0.139 C  
ENDBRANCH  23  24
BRANCH  23  26
HETATM   26  C   UNL     1      -5.139   8.524  67.167  1.00  0.00    -0.033 C  
HETATM   27  C   UNL     1      -6.200   7.843  66.311  1.00  0.00    -0.046 C  
ENDBRANCH  23  26
ENDBRANCH  21  23
ENDBRANCH  19  21
ENDBRANCH  15  19
TORSDOF 5
ENDMDL
MODEL      147
REMARK 921   NORMALIZED FREE ENERGY PREDICTED BY IDOCK:   -3.37 KCAL/MOL
REMARK 922        TOTAL FREE ENERGY PREDICTED BY IDOCK:   -4.83 KCAL/MOL
REMARK 923 INTER-LIGAND FREE ENERGY PREDICTED BY IDOCK:   -4.78 KCAL/MOL
REMARK 924 INTRA-LIGAND FREE ENERGY PREDICTED BY IDOCK:   -0.05 KCAL/MOL
REMARK 927      BINDING AFFINITY PREDICTED BY RF-SCORE:    0.00 PKD
ROOT
HETATM    1  C   UNL     1      -8.322   8.507  67.429  1.00  0.00    -0.120 C  
HETATM    2  C   UNL     1      -7.145   8.099  68.327  1.00  0.00    -0.081 C  
HETATM    3  C   UNL     1      -7.597   8.149  69.727  1.00  0.00    -0.090 A  
HETATM    4  C   UNL     1      -7.026   8.462  70.938  1.00  0.00    -0.052 A  
HETATM    5  N   UNL     1      -7.878   7.995  71.914  1.00  0.00    -0.097 NA 
HETATM    6  C   UNL     1      -8.965   7.364  71.327  1.00  0.00    -0.138 A  
HETATM    7  H   UNL     1      -7.732   8.098  72.918  1.00  0.00     0.000 HD 
HETATM    8  C   UNL     1      -9.942   6.510  71.815  1.00  0.00    -0.192 A  
HETATM    9  C   UNL     1     -10.874   6.063  70.862  1.00  0.00    -0.349 A  
HETATM   10  C   UNL     1     -10.950   6.595  69.547  1.00  0.00    -0.367 A  
HETATM   11  C   UNL     1      -9.998   7.520  69.101  1.00  0.00    -0.179 A  
HETATM   12  C   UNL     1      -8.927   7.739  70.004  1.00  0.00    -0.142 A  
HETATM   13  C   UNL     1      -9.819   8.307  67.837  1.00  0.00    -0.207 C  
HETATM   14  C   UNL     1     -10.687   9.078  67.087  1.00  0.00    -0.206 C  
HETATM   15  C   UNL     1      -9.962  10.092  66.137  1.00  0.00    -0.256 C  
HETATM   16  N   UNL     1      -8.326   8.231  65.999  1.00  0.00    -0.121 NA 
HETATM   17  C   UNL     1      -8.822   9.394  65.279  1.00  0.00    -0.190 C  
HETATM   18  C   UNL     1      -7.453   7.268  65.398  1.00  0.00    -0.087 C  
ENDROOT
BRANCH  15  19
HETATM   19  N   UNL     1     -10.656  11.153  65.412  1.00  0.00    -0.252 N  
HETATM   20  H   UNL     1     -10.603  11.270  64.401  1.00  0.00     0.000 HD 
BRANCH  19  21
HETATM   21  C   UNL     1     -11.403  11.993  66.250  1.00  0.00    -0.357 C  
HETATM   22  O   UNL     1     -12.541  12.361  65.949  1.00  0.00    -0.475 OA 
BRANCH  21  23
HETATM   23  N   UNL     1     -10.845  12.398  67.445  1.00  0.00    -0.231 N  
BRANCH  23  24
HETATM   24  C   UNL     1      -9.436  12.322  67.806  1.00  0.00    -0.197 C  
HETATM   25  C   UNL     1      -9.240  11.712  69.186  1.00  0.00     0.303 C  
ENDBRANCH  23  24
BRANCH  23  26
HETATM   26  C   UNL     1     -11.747  13.049  68.415  1.00  0.00    -0.351 C  
HETATM   27  C   UNL     1     -11.797  14.566  68.294  1.00  0.00    -0.347 C  
ENDBRANCH  23  26
ENDBRANCH  21  23
ENDBRANCH  19  21
ENDBRANCH  15  19
TORSDOF 5
ENDMDL
MODEL      148
REMARK 921   NORMALIZED FREE ENERGY PREDICTED BY IDOCK:   -3.36 KCAL/MOL
REMARK 922        TOTAL FREE ENERGY PREDICTED BY IDOCK:   -4.82 KCAL/MOL
REMARK 923 INTER-LIGAND FREE ENERGY PREDICTED BY IDOCK:   -4.56 KCAL/MOL
REMARK 924 INTRA-LIGAND FREE ENERGY PREDICTED BY IDOCK:   -0.26 KCAL/MOL
REMARK 927      BINDING AFFINITY PREDICTED BY RF-SCORE:    0.00 PKD
ROOT
HETATM    1  C   UNL     1      -8.575  10.055  67.615  1.00  0.00    -0.118 C  
HETATM    2  C   UNL     1      -7.528   8.931  67.671  1.00  0.00    -0.092 C  
HETATM    3  C   UNL     1      -7.361   8.531  69.077  1.00  0.00    -0.081 A  
HETATM    4  C   UNL     1      -6.322   8.086  69.859  1.00  0.00    -0.030 A  
HETATM    5  N   UNL     1      -6.879   7.566  71.007  1.00  0.00    -0.049 NA 
HETATM    6  C   UNL     1      -8.262   7.654  70.940  1.00  0.00    -0.108 A  
HETATM    7  H   UNL     1      -6.353   7.176  71.789  1.00  0.00     0.000 HD 
HETATM    8  C   UNL     1      -9.285   7.060  71.662  1.00  0.00    -0.144 A  
HETATM    9  C   UNL     1     -10.584   7.405  71.250  1.00  0.00    -0.231 A  
HETATM   10  C   UNL     1     -10.848   8.437  70.310  1.00  0.00    -0.244 A  
HETATM   11  C   UNL     1      -9.794   9.082  69.651  1.00  0.00    -0.182 A  
HETATM   12  C   UNL     1      -8.516   8.519  69.901  1.00  0.00    -0.125 A  
HETATM   13  C   UNL     1      -9.712  10.220  68.677  1.00  0.00    -0.171 C  
HETATM   14  C   UNL     1     -10.280  11.479  68.665  1.00  0.00    -0.217 C  
HETATM   15  C   UNL     1      -9.541  12.489  67.721  1.00  0.00    -0.203 C  
HETATM   16  N   UNL     1      -9.227  10.432  66.368  1.00  0.00    -0.159 NA 
HETATM   17  C   UNL     1      -9.294  11.883  66.273  1.00  0.00    -0.227 C  
HETATM   18  C   UNL     1      -9.232   9.585  65.214  1.00  0.00    -0.247 C  
ENDROOT
BRANCH  15  19
HETATM   19  N   UNL     1      -9.818  13.922  67.702  1.00  0.00    -0.232 N  
HETATM   20  H   UNL     1      -9.090  14.636  67.724  1.00  0.00     0.000 HD 
BRANCH  19  21
HETATM   21  C   UNL     1     -11.188  14.217  67.650  1.00  0.00    -0.297 C  
HETATM   22  O   UNL     1     -11.888  14.218  68.666  1.00  0.00    -0.323 OA 
BRANCH  21  23
HETATM   23  N   UNL     1     -11.751  14.525  66.430  1.00  0.00    -0.376 N  
BRANCH  23  24
HETATM   24  C   UNL     1     -12.806  13.779  65.756  1.00  0.00    -0.379 C  
HETATM   25  C   UNL     1     -12.240  12.769  64.769  1.00  0.00    -0.517 C  
ENDBRANCH  23  24
BRANCH  23  26
HETATM   26  C   UNL     1     -11.304  15.774  65.784  1.00  0.00     0.090 C  
HETATM   27  C   UNL     1     -10.182  15.582  64.771  1.00  0.00     0.098 C  
ENDBRANCH  23  26
ENDBRANCH  21  23
ENDBRANCH  19  21
ENDBRANCH  15  19
TORSDOF 5
ENDMDL
MODEL      149
REMARK 921   NORMALIZED FREE ENERGY PREDICTED BY IDOCK:   -3.30 KCAL/MOL
REMARK 922        TOTAL FREE ENERGY PREDICTED BY IDOCK:   -4.74 KCAL/MOL
REMARK 923 INTER-LIGAND FREE ENERGY PREDICTED BY IDOCK:   -5.07 KCAL/MOL
REMARK 924 INTRA-LIGAND FREE ENERGY PREDICTED BY IDOCK:    0.32 KCAL/MOL
REMARK 927      BINDING AFFINITY PREDICTED BY RF-SCORE:    0.00 PKD
ROOT
HETATM    1  C   UNL     1      -9.964   7.498  69.795  1.00  0.00    -0.186 C  
HETATM    2  C   UNL     1      -9.231   6.351  69.083  1.00  0.00    -0.133 C  
HETATM    3  C   UNL     1      -8.175   6.935  68.240  1.00  0.00    -0.123 A  
HETATM    4  C   UNL     1      -7.598   6.632  67.029  1.00  0.00    -0.095 A  
HETATM    5  N   UNL     1      -6.439   7.370  66.943  1.00  0.00    -0.054 NA 
HETATM    6  C   UNL     1      -6.266   8.113  68.102  1.00  0.00    -0.050 A  
HETATM    7  H   UNL     1      -5.804   7.371  66.145  1.00  0.00     0.000 HD 
HETATM    8  C   UNL     1      -5.183   8.786  68.642  1.00  0.00    -0.034 A  
HETATM    9  C   UNL     1      -5.423   9.408  69.880  1.00  0.00    -0.032 A  
HETATM   10  C   UNL     1      -6.721   9.525  70.446  1.00  0.00    -0.093 A  
HETATM   11  C   UNL     1      -7.818   8.903  69.838  1.00  0.00    -0.092 A  
HETATM   12  C   UNL     1      -7.483   8.068  68.741  1.00  0.00    -0.091 A  
HETATM   13  C   UNL     1      -9.291   8.872  70.121  1.00  0.00    -0.197 C  
HETATM   14  C   UNL     1     -10.209   9.869  70.394  1.00  0.00    -0.299 C  
HETATM   15  C   UNL     1     -11.694   9.436  70.141  1.00  0.00    -0.015 C  
HETATM   16  N   UNL     1     -10.816   7.261  70.952  1.00  0.00    -0.239 NA 
HETATM   17  C   UNL     1     -12.036   8.045  70.827  1.00  0.00    -0.121 C  
HETATM   18  C   UNL     1     -10.751   6.056  71.723  1.00  0.00    -0.244 C  
ENDROOT
BRANCH  15  19
HETATM   19  N   UNL     1     -12.816  10.371  70.151  1.00  0.00    -0.540 N  
HETATM   20  H   UNL     1     -13.391  10.567  69.332  1.00  0.00     0.000 HD 
BRANCH  19  21
HETATM   21  C   UNL     1     -13.022  10.970  71.401  1.00  0.00    -0.414 C  
HETATM   22  O   UNL     1     -13.236  10.298  72.413  1.00  0.00    -0.323 OA 
BRANCH  21  23
HETATM   23  N   UNL     1     -12.966  12.345  71.491  1.00  0.00    -0.349 N  
BRANCH  23  24
HETATM   24  C   UNL     1     -13.769  13.183  72.371  1.00  0.00    -0.540 C  
HETATM   25  C   UNL     1     -13.094  14.517  72.652  1.00  0.00    -0.557 C  
ENDBRANCH  23  24
BRANCH  23  26
HETATM   26  C   UNL     1     -11.937  13.026  70.682  1.00  0.00    -0.138 C  
HETATM   27  C   UNL     1     -12.200  12.986  69.182  1.00  0.00    -0.106 C  
ENDBRANCH  23  26
ENDBRANCH  21  23
ENDBRANCH  19  21
ENDBRANCH  15  19
TORSDOF 5
ENDMDL
MODEL      150
REMARK 921   NORMALIZED FREE ENERGY PREDICTED BY IDOCK:   -3.23 KCAL/MOL
REMARK 922        TOTAL FREE ENERGY PREDICTED BY IDOCK:   -4.65 KCAL/MOL
REMARK 923 INTER-LIGAND FREE ENERGY PREDICTED BY IDOCK:   -4.94 KCAL/MOL
REMARK 924 INTRA-LIGAND FREE ENERGY PREDICTED BY IDOCK:    0.28 KCAL/MOL
REMARK 927      BINDING AFFINITY PREDICTED BY RF-SCORE:    0.00 PKD
ROOT
HETATM    1  C   UNL     1      -6.586  15.570  67.912  1.00  0.00    -0.158 C  
HETATM    2  C   UNL     1      -5.600  15.616  69.089  1.00  0.00    -0.101 C  
HETATM    3  C   UNL     1      -5.834  14.432  69.931  1.00  0.00    -0.122 A  
HETATM    4  C   UNL     1      -5.770  14.147  71.274  1.00  0.00    -0.228 A  
HETATM    5  N   UNL     1      -5.782  12.776  71.394  1.00  0.00    -0.519 NA 
HETATM    6  C   UNL     1      -5.824  12.194  70.135  1.00  0.00    -0.162 A  
HETATM    7  H   UNL     1      -5.765  12.264  72.276  1.00  0.00     0.000 HD 
HETATM    8  C   UNL     1      -5.586  10.908  69.678  1.00  0.00    -0.042 A  
HETATM    9  C   UNL     1      -5.715  10.735  68.289  1.00  0.00    -0.043 A  
HETATM   10  C   UNL     1      -6.249  11.735  67.433  1.00  0.00    -0.108 A  
HETATM   11  C   UNL     1      -6.560  13.005  67.933  1.00  0.00    -0.131 A  
HETATM   12  C   UNL     1      -6.165  13.215  69.279  1.00  0.00    -0.102 A  
HETATM   13  C   UNL     1      -7.178  14.237  67.344  1.00  0.00    -0.137 C  
HETATM   14  C   UNL     1      -8.310  14.437  66.576  1.00  0.00     0.307 C  
HETATM   15  C   UNL     1      -8.829  15.916  66.601  1.00  0.00    -0.281 C  
HETATM   16  N   UNL     1      -6.395  16.385  66.720  1.00  0.00    -0.296 NA 
HETATM   17  C   UNL     1      -7.668  16.962  66.315  1.00  0.00    -0.297 C  
HETATM   18  C   UNL     1      -5.138  16.987  66.392  1.00  0.00    -0.009 C  
ENDROOT
BRANCH  15  19
HETATM   19  N   UNL     1     -10.117  16.326  66.049  1.00  0.00    -0.336 N  
HETATM   20  H   UNL     1     -10.696  15.723  65.465  1.00  0.00     0.000 HD 
BRANCH  19  21
HETATM   21  C   UNL     1     -10.477  17.633  66.405  1.00  0.00    -0.286 C  
HETATM   22  O   UNL     1     -10.824  18.461  65.559  1.00  0.00    -0.492 OA 
BRANCH  21  23
HETATM   23  N   UNL     1     -10.451  17.986  67.738  1.00  0.00    -0.398 N  
BRANCH  23  24
HETATM   24  C   UNL     1     -10.530  19.339  68.271  1.00  0.00    -0.300 C  
HETATM   25  C   UNL     1      -9.179  20.037  68.242  1.00  0.00    -0.278 C  
ENDBRANCH  23  24
BRANCH  23  26
HETATM   26  C   UNL     1     -10.425  16.885  68.720  1.00  0.00    -0.343 C  
HETATM   27  C   UNL     1     -11.802  16.333  69.068  1.00  0.00    -0.072 C  
ENDBRANCH  23  26
ENDBRANCH  21  23
ENDBRANCH  19  21
ENDBRANCH  15  19
TORSDOF 5
ENDMDL
MODEL      151
REMARK 921   NORMALIZED FREE ENERGY PREDICTED BY IDOCK:   -3.21 KCAL/MOL
REMARK 922        TOTAL FREE ENERGY PREDICTED BY IDOCK:   -4.63 KCAL/MOL
REMARK 923 INTER-LIGAND FREE ENERGY PREDICTED BY IDOCK:   -4.34 KCAL/MOL
REMARK 924 INTRA-LIGAND FREE ENERGY PREDICTED BY IDOCK:   -0.29 KCAL/MOL
REMARK 927      BINDING AFFINITY PREDICTED BY RF-SCORE:    0.00 PKD
ROOT
HETATM    1  C   UNL     1     -10.232   7.217  68.618  1.00  0.00    -0.179 C  
HETATM    2  C   UNL     1     -11.233   6.237  67.986  1.00  0.00    -0.223 C  
HETATM    3  C   UNL     1     -10.499   5.376  67.044  1.00  0.00    -0.319 A  
HETATM    4  C   UNL     1     -10.776   4.768  65.843  1.00  0.00    -0.173 A  
HETATM    5  N   UNL     1      -9.790   3.830  65.633  1.00  0.00    -0.354 NA 
HETATM    6  C   UNL     1      -8.912   3.822  66.708  1.00  0.00    -0.141 A  
HETATM    7  H   UNL     1      -9.716   3.231  64.811  1.00  0.00     0.000 HD 
HETATM    8  C   UNL     1      -7.942   2.927  67.132  1.00  0.00    -0.075 A  
HETATM    9  C   UNL     1      -7.274   3.289  68.314  1.00  0.00    -0.050 A  
HETATM   10  C   UNL     1      -7.419   4.563  68.925  1.00  0.00    -0.056 A  
HETATM   11  C   UNL     1      -8.349   5.485  68.430  1.00  0.00    -0.098 A  
HETATM   12  C   UNL     1      -9.186   4.976  67.403  1.00  0.00    -0.127 A  
HETATM   13  C   UNL     1      -8.709   6.898  68.781  1.00  0.00    -0.129 C  
HETATM   14  C   UNL     1      -7.944   8.027  69.000  1.00  0.00    -0.114 C  
HETATM   15  C   UNL     1      -8.749   9.365  68.858  1.00  0.00    -0.132 C  
HETATM   16  N   UNL     1     -10.549   7.959  69.830  1.00  0.00    -0.240 NA 
HETATM   17  C   UNL     1     -10.103   9.337  69.688  1.00  0.00    -0.197 C  
HETATM   18  C   UNL     1     -11.615   7.582  70.708  1.00  0.00    -0.277 C  
ENDROOT
BRANCH  15  19
HETATM   19  N   UNL     1      -8.121  10.683  68.830  1.00  0.00    -0.130 N  
HETATM   20  H   UNL     1      -7.415  10.983  69.501  1.00  0.00     0.000 HD 
BRANCH  19  21
HETATM   21  C   UNL     1      -8.589  11.492  67.785  1.00  0.00    -0.138 C  
HETATM   22  O   UNL     1      -8.923  12.665  67.975  1.00  0.00    -0.186 OA 
BRANCH  21  23
HETATM   23  N   UNL     1      -8.660  10.957  66.516  1.00  0.00    -0.151 N  
BRANCH  23  24
HETATM   24  C   UNL     1      -7.530  10.568  65.682  1.00  0.00    -0.129 C  
HETATM   25  C   UNL     1      -7.984   9.990  64.350  1.00  0.00    -0.152 C  
ENDBRANCH  23  24
BRANCH  23  26
HETATM   26  C   UNL     1     -10.007  10.673  65.985  1.00  0.00    -0.239 C  
HETATM   27  C   UNL     1     -10.803  11.919  65.617  1.00  0.00    -0.333 C  
ENDBRANCH  23  26
ENDBRANCH  21  23
ENDBRANCH  19  21
ENDBRANCH  15  19
TORSDOF 5
ENDMDL
MODEL      152
REMARK 921   NORMALIZED FREE ENERGY PREDICTED BY IDOCK:   -3.15 KCAL/MOL
REMARK 922        TOTAL FREE ENERGY PREDICTED BY IDOCK:   -4.56 KCAL/MOL
REMARK 923 INTER-LIGAND FREE ENERGY PREDICTED BY IDOCK:   -4.14 KCAL/MOL
REMARK 924 INTRA-LIGAND FREE ENERGY PREDICTED BY IDOCK:   -0.42 KCAL/MOL
REMARK 927      BINDING AFFINITY PREDICTED BY RF-SCORE:    0.00 PKD
ROOT
HETATM    1  C   UNL     1     -10.039  16.669  65.705  1.00  0.00    -0.277 C  
HETATM    2  C   UNL     1     -10.879  15.951  64.638  1.00  0.00    -0.234 C  
HETATM    3  C   UNL     1     -10.794  14.503  64.886  1.00  0.00    -0.436 A  
HETATM    4  C   UNL     1     -10.781  13.368  64.110  1.00  0.00    -0.264 A  
HETATM    5  N   UNL     1     -11.020  12.305  64.952  1.00  0.00    -0.293 NA 
HETATM    6  C   UNL     1     -11.213  12.765  66.247  1.00  0.00    -0.300 A  
HETATM    7  H   UNL     1     -11.049  11.326  64.667  1.00  0.00     0.000 HD 
HETATM    8  C   UNL     1     -11.737  12.183  67.390  1.00  0.00    -0.374 A  
HETATM    9  C   UNL     1     -11.779  13.019  68.520  1.00  0.00    -0.377 A  
HETATM   10  C   UNL     1     -11.149  14.291  68.562  1.00  0.00    -0.276 A  
HETATM   11  C   UNL     1     -10.553  14.827  67.414  1.00  0.00    -0.268 A  
HETATM   12  C   UNL     1     -10.768  14.066  66.235  1.00  0.00    -0.289 A  
HETATM   13  C   UNL     1      -9.771  16.074  67.127  1.00  0.00    -0.231 C  
HETATM   14  C   UNL     1      -8.703  16.672  67.767  1.00  0.00    -0.201 C  
HETATM   15  C   UNL     1      -7.910  17.673  66.858  1.00  0.00    -0.224 C  
HETATM   16  N   UNL     1     -10.186  18.095  65.963  1.00  0.00    -0.558 NA 
HETATM   17  C   UNL     1      -8.872  18.700  66.120  1.00  0.00    -0.118 C  
HETATM   18  C   UNL     1     -11.330  18.842  65.535  1.00  0.00     1.251 C  
ENDROOT
BRANCH  15  19
HETATM   19  N   UNL     1      -6.627  18.259  67.236  1.00  0.00    -0.185 N  
HETATM   20  H   UNL     1      -6.418  19.254  67.153  1.00  0.00     0.000 HD 
BRANCH  19  21
HETATM   21  C   UNL     1      -5.713  17.315  67.723  1.00  0.00    -0.121 C  
HETATM   22  O   UNL     1      -5.216  16.457  66.988  1.00  0.00    -0.290 OA 
BRANCH  21  23
HETATM   23  N   UNL     1      -5.358  17.365  69.054  1.00  0.00    -0.152 N  
BRANCH  23  24
HETATM   24  C   UNL     1      -5.246  18.567  69.870  1.00  0.00    -0.205 C  
HETATM   25  C   UNL     1      -6.606  19.184  70.156  1.00  0.00     0.062 C  
ENDBRANCH  23  24
BRANCH  23  26
HETATM   26  C   UNL     1      -5.155  16.074  69.741  1.00  0.00    -0.114 C  
HETATM   27  C   UNL     1      -6.304  15.672  70.656  1.00  0.00     0.334 C  
ENDBRANCH  23  26
ENDBRANCH  21  23
ENDBRANCH  19  21
ENDBRANCH  15  19
TORSDOF 5
ENDMDL
MODEL      153
REMARK 921   NORMALIZED FREE ENERGY PREDICTED BY IDOCK:   -3.04 KCAL/MOL
REMARK 922        TOTAL FREE ENERGY PREDICTED BY IDOCK:   -4.42 KCAL/MOL
REMARK 923 INTER-LIGAND FREE ENERGY PREDICTED BY IDOCK:   -5.16 KCAL/MOL
REMARK 924 INTRA-LIGAND FREE ENERGY PREDICTED BY IDOCK:    0.74 KCAL/MOL
REMARK 927      BINDING AFFINITY PREDICTED BY RF-SCORE:    0.00 PKD
ROOT
HETATM    1  C   UNL     1     -10.178  12.208  66.427  1.00  0.00    -0.220 C  
HETATM    2  C   UNL     1     -10.604  10.875  65.793  1.00  0.00    -0.230 C  
HETATM    3  C   UNL     1      -9.414  10.252  65.192  1.00  0.00    -0.309 A  
HETATM    4  C   UNL     1      -9.160   9.471  64.090  1.00  0.00    -0.153 A  
HETATM    5  N   UNL     1      -7.901   8.939  64.259  1.00  0.00    -0.126 NA 
HETATM    6  C   UNL     1      -7.373   9.356  65.472  1.00  0.00    -0.088 A  
HETATM    7  H   UNL     1      -7.427   8.331  63.591  1.00  0.00     0.000 HD 
HETATM    8  C   UNL     1      -6.304   8.921  66.239  1.00  0.00    -0.065 A  
HETATM    9  C   UNL     1      -6.116   9.614  67.448  1.00  0.00    -0.059 A  
HETATM   10  C   UNL     1      -6.823  10.801  67.775  1.00  0.00    -0.073 A  
HETATM   11  C   UNL     1      -7.847  11.269  66.942  1.00  0.00    -0.156 A  
HETATM   12  C   UNL     1      -8.179  10.394  65.876  1.00  0.00    -0.150 A  
HETATM   13  C   UNL     1      -8.729  12.482  66.951  1.00  0.00    -0.182 C  
HETATM   14  C   UNL     1      -8.462  13.828  67.112  1.00  0.00    -0.189 C  
HETATM   15  C   UNL     1      -9.599  14.760  66.570  1.00  0.00    -0.284 C  
HETATM   16  N   UNL     1     -11.019  12.900  67.394  1.00  0.00    -0.254 NA 
HETATM   17  C   UNL     1     -11.032  14.324  67.098  1.00  0.00    -0.302 C  
HETATM   18  C   UNL     1     -12.087  12.249  68.091  1.00  0.00    -0.013 C  
ENDROOT
BRANCH  15  19
HETATM   19  N   UNL     1      -9.455  16.207  66.431  1.00  0.00    -0.272 N  
HETATM   20  H   UNL     1     -10.120  16.792  65.927  1.00  0.00     0.000 HD 
BRANCH  19  21
HETATM   21  C   UNL     1      -8.308  16.708  67.063  1.00  0.00    -0.187 C  
HETATM   22  O   UNL     1      -7.280  16.034  67.167  1.00  0.00    -0.188 OA 
BRANCH  21  23
HETATM   23  N   UNL     1      -8.339  17.993  67.565  1.00  0.00    -0.231 N  
BRANCH  23  24
HETATM   24  C   UNL     1      -9.449  18.613  68.275  1.00  0.00    -0.336 C  
HETATM   25  C   UNL     1      -9.987  19.827  67.533  1.00  0.00    -0.540 C  
ENDBRANCH  23  24
BRANCH  23  26
HETATM   26  C   UNL     1      -7.100  18.786  67.444  1.00  0.00    -0.206 C  
HETATM   27  C   UNL     1      -6.839  19.710  68.627  1.00  0.00    -0.349 C  
ENDBRANCH  23  26
ENDBRANCH  21  23
ENDBRANCH  19  21
ENDBRANCH  15  19
TORSDOF 5
ENDMDL
MODEL      154
REMARK 921   NORMALIZED FREE ENERGY PREDICTED BY IDOCK:   -3.02 KCAL/MOL
REMARK 922        TOTAL FREE ENERGY PREDICTED BY IDOCK:   -4.39 KCAL/MOL
REMARK 923 INTER-LIGAND FREE ENERGY PREDICTED BY IDOCK:   -3.87 KCAL/MOL
REMARK 924 INTRA-LIGAND FREE ENERGY PREDICTED BY IDOCK:   -0.52 KCAL/MOL
REMARK 927      BINDING AFFINITY PREDICTED BY RF-SCORE:    0.00 PKD
ROOT
HETATM    1  C   UNL     1      -9.077   5.296  69.335  1.00  0.00    -0.104 C  
HETATM    2  C   UNL     1      -9.787   4.318  70.284  1.00  0.00    -0.263 C  
HETATM    3  C   UNL     1     -10.113   5.037  71.525  1.00  0.00    -0.263 A  
HETATM    4  C   UNL     1     -10.188   4.718  72.860  1.00  0.00    -0.174 A  
HETATM    5  N   UNL     1     -10.867   5.744  73.479  1.00  0.00    -0.372 NA 
HETATM    6  C   UNL     1     -11.246   6.692  72.539  1.00  0.00    -0.266 A  
HETATM    7  H   UNL     1     -11.062   5.799  74.479  1.00  0.00     0.000 HD 
HETATM    8  C   UNL     1     -12.150   7.742  72.564  1.00  0.00    -0.251 A  
HETATM    9  C   UNL     1     -12.257   8.466  71.364  1.00  0.00    -0.335 A  
HETATM   10  C   UNL     1     -11.370   8.283  70.270  1.00  0.00    -0.129 A  
HETATM   11  C   UNL     1     -10.408   7.265  70.300  1.00  0.00    -0.219 A  
HETATM   12  C   UNL     1     -10.513   6.394  71.414  1.00  0.00    -0.257 A  
HETATM   13  C   UNL     1      -9.305   6.844  69.376  1.00  0.00    -0.146 C  
HETATM   14  C   UNL     1      -8.307   7.550  68.731  1.00  0.00    -0.129 C  
HETATM   15  C   UNL     1      -7.106   6.655  68.270  1.00  0.00    -0.083 C  
HETATM   16  N   UNL     1      -8.935   5.017  67.913  1.00  0.00    -0.106 NA 
HETATM   17  C   UNL     1      -7.590   5.365  67.480  1.00  0.00    -0.088 C  
HETATM   18  C   UNL     1      -9.732   4.038  67.236  1.00  0.00    -0.153 C  
ENDROOT
BRANCH  15  19
HETATM   19  N   UNL     1      -5.847   7.197  67.766  1.00  0.00    -0.028 N  
HETATM   20  H   UNL     1      -4.941   6.757  67.926  1.00  0.00     0.000 HD 
BRANCH  19  21
HETATM   21  C   UNL     1      -6.012   8.383  67.038  1.00  0.00    -0.053 C  
HETATM   22  O   UNL     1      -5.891   9.490  67.570  1.00  0.00    -0.044 OA 
BRANCH  21  23
HETATM   23  N   UNL     1      -6.302   8.298  65.692  1.00  0.00    -0.048 N  
BRANCH  23  24
HETATM   24  C   UNL     1      -5.838   7.265  64.776  1.00  0.00    -0.037 C  
HETATM   25  C   UNL     1      -6.950   6.787  63.854  1.00  0.00    -0.056 C  
ENDBRANCH  23  24
BRANCH  23  26
HETATM   26  C   UNL     1      -7.240   9.299  65.147  1.00  0.00    -0.094 C  
HETATM   27  C   UNL     1      -8.651   9.198  65.711  1.00  0.00    -0.171 C  
ENDBRANCH  23  26
ENDBRANCH  21  23
ENDBRANCH  19  21
ENDBRANCH  15  19
TORSDOF 5
ENDMDL
MODEL      155
REMARK 921   NORMALIZED FREE ENERGY PREDICTED BY IDOCK:   -2.99 KCAL/MOL
REMARK 922        TOTAL FREE ENERGY PREDICTED BY IDOCK:   -4.35 KCAL/MOL
REMARK 923 INTER-LIGAND FREE ENERGY PREDICTED BY IDOCK:   -4.14 KCAL/MOL
REMARK 924 INTRA-LIGAND FREE ENERGY PREDICTED BY IDOCK:   -0.21 KCAL/MOL
REMARK 927      BINDING AFFINITY PREDICTED BY RF-SCORE:    0.00 PKD
ROOT
HETATM    1  C   UNL     1      -8.263   5.957  68.283  1.00  0.00    -0.109 C  
HETATM    2  C   UNL     1      -7.595   5.683  66.926  1.00  0.00    -0.096 C  
HETATM    3  C   UNL     1      -8.112   6.660  65.955  1.00  0.00    -0.122 A  
HETATM    4  C   UNL     1      -8.399   6.658  64.611  1.00  0.00     0.028 A  
HETATM    5  N   UNL     1      -8.538   7.973  64.229  1.00  0.00    -0.381 NA 
HETATM    6  C   UNL     1      -8.312   8.805  65.316  1.00  0.00    -0.160 A  
HETATM    7  H   UNL     1      -8.774   8.289  63.288  1.00  0.00     0.000 HD 
HETATM    8  C   UNL     1      -8.060  10.163  65.433  1.00  0.00    -0.149 A  
HETATM    9  C   UNL     1      -7.857  10.621  66.747  1.00  0.00    -0.126 A  
HETATM   10  C   UNL     1      -8.093   9.813  67.891  1.00  0.00    -0.112 A  
HETATM   11  C   UNL     1      -8.426   8.460  67.748  1.00  0.00    -0.131 A  
HETATM   12  C   UNL     1      -8.359   7.980  66.415  1.00  0.00    -0.124 A  
HETATM   13  C   UNL     1      -8.791   7.367  68.707  1.00  0.00    -0.130 C  
HETATM   14  C   UNL     1      -9.683   7.311  69.761  1.00  0.00    -0.166 C  
HETATM   15  C   UNL     1     -10.086   5.851  70.163  1.00  0.00    -0.202 C  
HETATM   16  N   UNL     1      -7.728   5.414  69.523  1.00  0.00    -0.076 NA 
HETATM   17  C   UNL     1      -8.819   4.910  70.345  1.00  0.00    -0.104 C  
HETATM   18  C   UNL     1      -6.390   4.917  69.634  1.00  0.00    -0.031 C  
ENDROOT
BRANCH  15  19
HETATM   19  N   UNL     1     -11.167   5.542  71.094  1.00  0.00    -0.069 N  
HETATM   20  H   UNL     1     -11.729   4.692  71.043  1.00  0.00     0.000 HD 
BRANCH  19  21
HETATM   21  C   UNL     1     -11.354   6.534  72.067  1.00  0.00    -0.285 C  
HETATM   22  O   UNL     1     -12.241   7.386  71.960  1.00  0.00    -0.297 OA 
BRANCH  21  23
HETATM   23  N   UNL     1     -10.530   6.538  73.173  1.00  0.00    -0.231 N  
BRANCH  23  24
HETATM   24  C   UNL     1     -10.191   5.386  73.997  1.00  0.00    -0.251 C  
HETATM   25  C   UNL     1     -10.981   4.151  73.593  1.00  0.00    -0.351 C  
ENDBRANCH  23  24
BRANCH  23  26
HETATM   26  C   UNL     1      -9.861   7.812  73.503  1.00  0.00    -0.234 C  
HETATM   27  C   UNL     1      -8.387   7.854  73.124  1.00  0.00    -0.233 C  
ENDBRANCH  23  26
ENDBRANCH  21  23
ENDBRANCH  19  21
ENDBRANCH  15  19
TORSDOF 5
ENDMDL
MODEL      156
REMARK 921   NORMALIZED FREE ENERGY PREDICTED BY IDOCK:   -2.97 KCAL/MOL
REMARK 922        TOTAL FREE ENERGY PREDICTED BY IDOCK:   -4.32 KCAL/MOL
REMARK 923 INTER-LIGAND FREE ENERGY PREDICTED BY IDOCK:   -4.29 KCAL/MOL
REMARK 924 INTRA-LIGAND FREE ENERGY PREDICTED BY IDOCK:   -0.03 KCAL/MOL
REMARK 927      BINDING AFFINITY PREDICTED BY RF-SCORE:    0.00 PKD
ROOT
HETATM    1  C   UNL     1      -7.995   5.011  68.835  1.00  0.00    -0.081 C  
HETATM    2  C   UNL     1      -7.184   4.182  67.828  1.00  0.00    -0.064 C  
HETATM    3  C   UNL     1      -7.725   4.436  66.483  1.00  0.00    -0.094 A  
HETATM    4  C   UNL     1      -7.891   3.704  65.332  1.00  0.00    -0.086 A  
HETATM    5  N   UNL     1      -8.149   4.602  64.320  1.00  0.00    -0.098 NA 
HETATM    6  C   UNL     1      -8.116   5.896  64.820  1.00  0.00    -0.132 A  
HETATM    7  H   UNL     1      -8.337   4.353  63.349  1.00  0.00     0.000 HD 
HETATM    8  C   UNL     1      -8.036   7.142  64.219  1.00  0.00    -0.043 A  
HETATM    9  C   UNL     1      -8.003   8.232  65.106  1.00  0.00    -0.128 A  
HETATM   10  C   UNL     1      -8.242   8.099  66.500  1.00  0.00    -0.107 A  
HETATM   11  C   UNL     1      -8.402   6.833  67.076  1.00  0.00    -0.114 A  
HETATM   12  C   UNL     1      -8.163   5.753  66.187  1.00  0.00    -0.111 A  
HETATM   13  C   UNL     1      -8.720   6.346  68.458  1.00  0.00    -0.121 C  
HETATM   14  C   UNL     1      -9.687   6.709  69.375  1.00  0.00    -0.153 C  
HETATM   15  C   UNL     1      -9.951   5.620  70.471  1.00  0.00    -0.205 C  
HETATM   16  N   UNL     1      -7.511   5.264  70.185  1.00  0.00    -0.066 NA 
HETATM   17  C   UNL     1      -8.603   5.101  71.133  1.00  0.00    -0.122 C  
HETATM   18  C   UNL     1      -6.139   5.094  70.556  1.00  0.00    -0.018 C  
ENDROOT
BRANCH  15  19
HETATM   19  N   UNL     1     -11.066   5.679  71.412  1.00  0.00    -0.203 N  
HETATM   20  H   UNL     1     -11.292   4.928  72.063  1.00  0.00     0.000 HD 
BRANCH  19  21
HETATM   21  C   UNL     1     -11.793   6.875  71.328  1.00  0.00    -0.341 C  
HETATM   22  O   UNL     1     -12.664   7.043  70.471  1.00  0.00    -0.141 OA 
BRANCH  21  23
HETATM   23  N   UNL     1     -11.528   7.874  72.240  1.00  0.00    -0.322 N  
BRANCH  23  24
HETATM   24  C   UNL     1     -12.162   9.185  72.288  1.00  0.00    -0.277 C  
HETATM   25  C   UNL     1     -13.679   9.077  72.333  1.00  0.00    -0.539 C  
ENDBRANCH  23  24
BRANCH  23  26
HETATM   26  C   UNL     1     -10.574   7.557  73.321  1.00  0.00    -0.384 C  
HETATM   27  C   UNL     1      -9.178   8.125  73.102  1.00  0.00    -0.336 C  
ENDBRANCH  23  26
ENDBRANCH  21  23
ENDBRANCH  19  21
ENDBRANCH  15  19
TORSDOF 5
ENDMDL
MODEL      157
REMARK 921   NORMALIZED FREE ENERGY PREDICTED BY IDOCK:   -2.93 KCAL/MOL
REMARK 922        TOTAL FREE ENERGY PREDICTED BY IDOCK:   -4.27 KCAL/MOL
REMARK 923 INTER-LIGAND FREE ENERGY PREDICTED BY IDOCK:   -4.03 KCAL/MOL
REMARK 924 INTRA-LIGAND FREE ENERGY PREDICTED BY IDOCK:   -0.24 KCAL/MOL
REMARK 927      BINDING AFFINITY PREDICTED BY RF-SCORE:    0.00 PKD
ROOT
HETATM    1  C   UNL     1      -7.306   9.495  68.266  1.00  0.00    -0.077 C  
HETATM    2  C   UNL     1      -7.590   7.991  68.397  1.00  0.00    -0.108 C  
HETATM    3  C   UNL     1      -8.265   7.543  67.169  1.00  0.00    -0.114 A  
HETATM    4  C   UNL     1      -9.227   6.612  66.856  1.00  0.00    -0.142 A  
HETATM    5  N   UNL     1      -9.189   6.442  65.490  1.00  0.00    -0.366 NA 
HETATM    6  C   UNL     1      -8.191   7.236  64.944  1.00  0.00    -0.073 A  
HETATM    7  H   UNL     1      -9.804   5.825  64.959  1.00  0.00     0.000 HD 
HETATM    8  C   UNL     1      -7.560   7.250  63.711  1.00  0.00    -0.110 A  
HETATM    9  C   UNL     1      -6.558   8.225  63.564  1.00  0.00    -0.080 A  
HETATM   10  C   UNL     1      -6.339   9.257  64.516  1.00  0.00    -0.077 A  
HETATM   11  C   UNL     1      -7.048   9.269  65.724  1.00  0.00    -0.086 A  
HETATM   12  C   UNL     1      -7.852   8.121  65.941  1.00  0.00    -0.094 A  
HETATM   13  C   UNL     1      -7.111  10.212  66.889  1.00  0.00    -0.091 C  
HETATM   14  C   UNL     1      -7.258  11.584  66.971  1.00  0.00    -0.146 C  
HETATM   15  C   UNL     1      -7.754  12.075  68.374  1.00  0.00    -0.138 C  
HETATM   16  N   UNL     1      -6.352  10.173  69.132  1.00  0.00    -0.044 NA 
HETATM   17  C   UNL     1      -6.905  11.449  69.562  1.00  0.00    -0.097 C  
HETATM   18  C   UNL     1      -5.365   9.468  69.893  1.00  0.00    -0.032 C  
ENDROOT
BRANCH  15  19
HETATM   19  N   UNL     1      -8.187  13.444  68.640  1.00  0.00    -0.318 N  
HETATM   20  H   UNL     1      -7.678  14.087  69.246  1.00  0.00     0.000 HD 
BRANCH  19  21
HETATM   21  C   UNL     1      -9.373  13.784  67.975  1.00  0.00    -0.199 C  
HETATM   22  O   UNL     1     -10.012  12.952  67.326  1.00  0.00    -0.219 OA 
BRANCH  21  23
HETATM   23  N   UNL     1      -9.835  15.080  68.070  1.00  0.00    -0.216 N  
BRANCH  23  24
HETATM   24  C   UNL     1      -9.039  16.290  67.913  1.00  0.00    -0.196 C  
HETATM   25  C   UNL     1      -9.010  16.763  66.468  1.00  0.00    -0.304 C  
ENDBRANCH  23  24
BRANCH  23  26
HETATM   26  C   UNL     1     -11.287  15.260  68.263  1.00  0.00    -0.336 C  
HETATM   27  C   UNL     1     -11.667  15.803  69.635  1.00  0.00    -0.363 C  
ENDBRANCH  23  26
ENDBRANCH  21  23
ENDBRANCH  19  21
ENDBRANCH  15  19
TORSDOF 5
ENDMDL
MODEL      158
REMARK 921   NORMALIZED FREE ENERGY PREDICTED BY IDOCK:   -2.89 KCAL/MOL
REMARK 922        TOTAL FREE ENERGY PREDICTED BY IDOCK:   -4.22 KCAL/MOL
REMARK 923 INTER-LIGAND FREE ENERGY PREDICTED BY IDOCK:   -3.57 KCAL/MOL
REMARK 924 INTRA-LIGAND FREE ENERGY PREDICTED BY IDOCK:   -0.65 KCAL/MOL
REMARK 927      BINDING AFFINITY PREDICTED BY RF-SCORE:    0.00 PKD
ROOT
HETATM    1  C   UNL     1      -9.517  18.638  67.303  1.00  0.00    -0.298 C  
HETATM    2  C   UNL     1      -9.973  19.605  68.408  1.00  0.00    -0.543 C  
HETATM    3  C   UNL     1      -8.899  19.695  69.409  1.00  0.00     0.173 A  
HETATM    4  C   UNL     1      -8.833  19.858  70.773  1.00  0.00     1.971 A  
HETATM    5  N   UNL     1      -7.532  20.196  71.073  1.00  0.00     0.674 NA 
HETATM    6  C   UNL     1      -6.786  20.277  69.906  1.00  0.00    -0.002 A  
HETATM    7  H   UNL     1      -7.171  20.361  72.012  1.00  0.00     0.000 HD 
HETATM    8  C   UNL     1      -5.548  20.825  69.609  1.00  0.00    -0.396 A  
HETATM    9  C   UNL     1      -5.154  20.715  68.264  1.00  0.00    -0.274 A  
HETATM   10  C   UNL     1      -5.858  19.927  67.315  1.00  0.00    -0.191 A  
HETATM   11  C   UNL     1      -7.069  19.314  67.661  1.00  0.00    -0.251 A  
HETATM   12  C   UNL     1      -7.559  19.671  68.943  1.00  0.00    -0.344 A  
HETATM   13  C   UNL     1      -8.013  18.392  66.949  1.00  0.00    -0.249 C  
HETATM   14  C   UNL     1      -7.815  17.231  66.226  1.00  0.00    -0.344 C  
HETATM   15  C   UNL     1      -9.107  16.354  66.085  1.00  0.00    -0.326 C  
HETATM   16  N   UNL     1     -10.177  18.592  66.006  1.00  0.00    -0.553 NA 
HETATM   17  C   UNL     1     -10.357  17.206  65.600  1.00  0.00    -0.183 C  
HETATM   18  C   UNL     1     -11.020  19.648  65.532  1.00  0.00    -0.039 C  
ENDROOT
BRANCH  15  19
HETATM   19  N   UNL     1      -9.101  14.993  65.556  1.00  0.00    -0.205 N  
HETATM   20  H   UNL     1      -8.861  14.766  64.592  1.00  0.00     0.000 HD 
BRANCH  19  21
HETATM   21  C   UNL     1      -9.460  14.031  66.511  1.00  0.00    -0.279 C  
HETATM   22  O   UNL     1      -8.712  13.092  66.796  1.00  0.00    -0.182 OA 
BRANCH  21  23
HETATM   23  N   UNL     1     -10.675  14.158  67.151  1.00  0.00    -0.279 N  
BRANCH  23  24
HETATM   24  C   UNL     1     -11.989  14.071  66.528  1.00  0.00    -0.444 C  
HETATM   25  C   UNL     1     -12.042  12.973  65.476  1.00  0.00    -0.501 C  
ENDBRANCH  23  24
BRANCH  23  26
HETATM   26  C   UNL     1     -10.644  14.312  68.619  1.00  0.00    -0.250 C  
HETATM   27  C   UNL     1     -10.678  15.760  69.091  1.00  0.00    -0.246 C  
ENDBRANCH  23  26
ENDBRANCH  21  23
ENDBRANCH  19  21
ENDBRANCH  15  19
TORSDOF 5
ENDMDL
MODEL      159
REMARK 921   NORMALIZED FREE ENERGY PREDICTED BY IDOCK:   -2.54 KCAL/MOL
REMARK 922        TOTAL FREE ENERGY PREDICTED BY IDOCK:   -3.77 KCAL/MOL
REMARK 923 INTER-LIGAND FREE ENERGY PREDICTED BY IDOCK:   -4.06 KCAL/MOL
REMARK 924 INTRA-LIGAND FREE ENERGY PREDICTED BY IDOCK:    0.29 KCAL/MOL
REMARK 927      BINDING AFFINITY PREDICTED BY RF-SCORE:    0.00 PKD
ROOT
HETATM    1  C   UNL     1      -9.934   6.720  70.241  1.00  0.00    -0.178 C  
HETATM    2  C   UNL     1     -10.595   5.538  70.967  1.00  0.00    -0.300 C  
HETATM    3  C   UNL     1      -9.589   4.475  71.123  1.00  0.00    -0.245 A  
HETATM    4  C   UNL     1      -9.599   3.100  71.124  1.00  0.00    -0.160 A  
HETATM    5  N   UNL     1      -8.392   2.692  71.648  1.00  0.00    -0.062 NA 
HETATM    6  C   UNL     1      -7.635   3.799  72.003  1.00  0.00    -0.058 A  
HETATM    7  H   UNL     1      -8.099   1.722  71.757  1.00  0.00     0.000 HD 
HETATM    8  C   UNL     1      -6.509   3.962  72.793  1.00  0.00    -0.028 A  
HETATM    9  C   UNL     1      -6.056   5.287  72.922  1.00  0.00    -0.031 A  
HETATM   10  C   UNL     1      -6.573   6.358  72.145  1.00  0.00    -0.063 A  
HETATM   11  C   UNL     1      -7.663   6.152  71.290  1.00  0.00    -0.106 A  
HETATM   12  C   UNL     1      -8.252   4.866  71.393  1.00  0.00    -0.112 A  
HETATM   13  C   UNL     1      -8.399   7.016  70.309  1.00  0.00    -0.133 C  
HETATM   14  C   UNL     1      -7.969   7.856  69.300  1.00  0.00    -0.117 C  
HETATM   15  C   UNL     1      -9.074   8.169  68.233  1.00  0.00    -0.135 C  
HETATM   16  N   UNL     1     -10.531   8.048  70.239  1.00  0.00    -0.217 NA 
HETATM   17  C   UNL     1     -10.441   8.620  68.904  1.00  0.00    -0.192 C  
HETATM   18  C   UNL     1     -11.536   8.443  71.179  1.00  0.00    -0.274 C  
ENDROOT
BRANCH  15  19
HETATM   19  N   UNL     1      -8.803   8.849  66.970  1.00  0.00    -0.125 N  
HETATM   20  H   UNL     1      -8.767   8.372  66.070  1.00  0.00     0.000 HD 
BRANCH  19  21
HETATM   21  C   UNL     1      -8.596  10.228  67.122  1.00  0.00    -0.126 C  
HETATM   22  O   UNL     1      -7.733  10.672  67.884  1.00  0.00    -0.097 OA 
BRANCH  21  23
HETATM   23  N   UNL     1      -9.373  11.097  66.386  1.00  0.00    -0.182 N  
BRANCH  23  24
HETATM   24  C   UNL     1      -9.583  12.511  66.666  1.00  0.00    -0.239 C  
HETATM   25  C   UNL     1     -10.935  12.763  67.316  1.00  0.00    -0.294 C  
ENDBRANCH  23  24
BRANCH  23  26
HETATM   26  C   UNL     1      -9.982  10.567  65.151  1.00  0.00    -0.309 C  
HETATM   27  C   UNL     1      -9.020   9.771  64.278  1.00  0.00    -0.276 C  
ENDBRANCH  23  26
ENDBRANCH  21  23
ENDBRANCH  19  21
ENDBRANCH  15  19
TORSDOF 5
ENDMDL
MODEL      160
REMARK 921   NORMALIZED FREE ENERGY PREDICTED BY IDOCK:   -2.45 KCAL/MOL
REMARK 922        TOTAL FREE ENERGY PREDICTED BY IDOCK:   -3.65 KCAL/MOL
REMARK 923 INTER-LIGAND FREE ENERGY PREDICTED BY IDOCK:   -3.60 KCAL/MOL
REMARK 924 INTRA-LIGAND FREE ENERGY PREDICTED BY IDOCK:   -0.05 KCAL/MOL
REMARK 927      BINDING AFFINITY PREDICTED BY RF-SCORE:    0.00 PKD
ROOT
HETATM    1  C   UNL     1      -9.592  10.062  67.038  1.00  0.00    -0.172 C  
HETATM    2  C   UNL     1     -10.743  10.056  66.020  1.00  0.00     0.078 C  
HETATM    3  C   UNL     1     -10.195  10.429  64.706  1.00  0.00    -0.319 A  
HETATM    4  C   UNL     1     -10.647  11.125  63.610  1.00  0.00    -0.347 A  
HETATM    5  N   UNL     1      -9.786  10.842  62.574  1.00  0.00    -0.593 NA 
HETATM    6  C   UNL     1      -8.813   9.950  63.001  1.00  0.00    -0.245 A  
HETATM    7  H   UNL     1      -9.853  11.230  61.633  1.00  0.00     0.000 HD 
HETATM    8  C   UNL     1      -7.901   9.150  62.331  1.00  0.00    -0.121 A  
HETATM    9  C   UNL     1      -7.087   8.353  63.155  1.00  0.00    -0.091 A  
HETATM   10  C   UNL     1      -7.043   8.496  64.567  1.00  0.00    -0.078 A  
HETATM   11  C   UNL     1      -7.920   9.373  65.219  1.00  0.00    -0.110 A  
HETATM   12  C   UNL     1      -8.900   9.954  64.373  1.00  0.00    -0.245 A  
HETATM   13  C   UNL     1      -8.100   9.803  66.644  1.00  0.00    -0.116 C  
HETATM   14  C   UNL     1      -7.207  10.233  67.608  1.00  0.00    -0.087 C  
HETATM   15  C   UNL     1      -7.884  11.029  68.775  1.00  0.00    -0.138 C  
HETATM   16  N   UNL     1      -9.712   9.410  68.334  1.00  0.00    -0.146 NA 
HETATM   17  C   UNL     1      -9.147  10.267  69.366  1.00  0.00    -0.187 C  
HETATM   18  C   UNL     1     -10.720   8.432  68.614  1.00  0.00    -0.034 C  
ENDROOT
BRANCH  15  19
HETATM   19  N   UNL     1      -7.133  11.763  69.790  1.00  0.00    -0.335 N  
HETATM   20  H   UNL     1      -7.040  11.452  70.756  1.00  0.00     0.000 HD 
BRANCH  19  21
HETATM   21  C   UNL     1      -6.552  12.941  69.298  1.00  0.00    -0.085 C  
HETATM   22  O   UNL     1      -5.367  13.213  69.507  1.00  0.00    -0.076 OA 
BRANCH  21  23
HETATM   23  N   UNL     1      -7.331  13.800  68.551  1.00  0.00    -0.111 N  
BRANCH  23  24
HETATM   24  C   UNL     1      -6.956  14.423  67.289  1.00  0.00     0.110 C  
HETATM   25  C   UNL     1      -5.935  15.533  67.489  1.00  0.00    -0.099 C  
ENDBRANCH  23  24
BRANCH  23  26
HETATM   26  C   UNL     1      -8.704  14.044  69.032  1.00  0.00     0.169 C  
HETATM   27  C   UNL     1      -9.146  15.499  68.933  1.00  0.00    -0.219 C  
ENDBRANCH  23  26
ENDBRANCH  21  23
ENDBRANCH  19  21
ENDBRANCH  15  19
TORSDOF 5
ENDMDL
MODEL      161
REMARK 921   NORMALIZED FREE ENERGY PREDICTED BY IDOCK:   -1.75 KCAL/MOL
REMARK 922        TOTAL FREE ENERGY PREDICTED BY IDOCK:   -2.74 KCAL/MOL
REMARK 923 INTER-LIGAND FREE ENERGY PREDICTED BY IDOCK:   -2.54 KCAL/MOL
REMARK 924 INTRA-LIGAND FREE ENERGY PREDICTED BY IDOCK:   -0.20 KCAL/MOL
REMARK 927      BINDING AFFINITY PREDICTED BY RF-SCORE:    0.00 PKD
ROOT
HETATM    1  C   UNL     1      -6.882  14.599  68.933  1.00  0.00    -0.104 C  
HETATM    2  C   UNL     1      -5.535  14.129  69.505  1.00  0.00    -0.091 C  
HETATM    3  C   UNL     1      -5.769  12.896  70.274  1.00  0.00    -0.162 A  
HETATM    4  C   UNL     1      -5.238  12.323  71.405  1.00  0.00    -0.067 A  
HETATM    5  N   UNL     1      -5.655  11.010  71.422  1.00  0.00    -0.343 NA 
HETATM    6  C   UNL     1      -6.420  10.745  70.296  1.00  0.00    -0.127 A  
HETATM    7  H   UNL     1      -5.435  10.335  72.154  1.00  0.00     0.000 HD 
HETATM    8  C   UNL     1      -6.843   9.571  69.693  1.00  0.00    -0.063 A  
HETATM    9  C   UNL     1      -7.600   9.742  68.521  1.00  0.00    -0.080 A  
HETATM   10  C   UNL     1      -8.081  11.007  68.089  1.00  0.00    -0.122 A  
HETATM   11  C   UNL     1      -7.706  12.175  68.763  1.00  0.00    -0.034 A  
HETATM   12  C   UNL     1      -6.730  11.980  69.774  1.00  0.00     0.075 A  
HETATM   13  C   UNL     1      -8.066  13.624  68.622  1.00  0.00    -0.071 C  
HETATM   14  C   UNL     1      -9.278  14.276  68.495  1.00  0.00    -0.197 C  
HETATM   15  C   UNL     1      -9.211  15.798  68.863  1.00  0.00    -0.227 C  
HETATM   16  N   UNL     1      -6.956  15.571  67.851  1.00  0.00    -0.126 NA 
HETATM   17  C   UNL     1      -8.007  16.536  68.136  1.00  0.00    -0.163 C  
HETATM   18  C   UNL     1      -5.838  15.876  67.011  1.00  0.00     0.288 C  
ENDROOT
BRANCH  15  19
HETATM   19  N   UNL     1     -10.393  16.642  69.014  1.00  0.00    -0.297 N  
HETATM   20  H   UNL     1     -10.981  16.642  69.848  1.00  0.00     0.000 HD 
BRANCH  19  21
HETATM   21  C   UNL     1     -10.637  17.451  67.896  1.00  0.00    -0.383 C  
HETATM   22  O   UNL     1     -10.879  16.966  66.787  1.00  0.00    -0.166 OA 
BRANCH  21  23
HETATM   23  N   UNL     1     -10.618  18.821  68.055  1.00  0.00    -0.341 N  
BRANCH  23  24
HETATM   24  C   UNL     1     -11.134  19.803  67.111  1.00  0.00    -0.069 C  
HETATM   25  C   UNL     1     -10.031  20.377  66.235  1.00  0.00    -0.352 C  
ENDBRANCH  23  24
BRANCH  23  26
HETATM   26  C   UNL     1     -10.103  19.337  69.338  1.00  0.00    -0.006 C  
HETATM   27  C   UNL     1     -10.483  20.785  69.620  1.00  0.00     0.683 C  
ENDBRANCH  23  26
ENDBRANCH  21  23
ENDBRANCH  19  21
ENDBRANCH  15  19
TORSDOF 5
ENDMDL
MODEL      162
REMARK 921   NORMALIZED FREE ENERGY PREDICTED BY IDOCK:   -1.65 KCAL/MOL
REMARK 922        TOTAL FREE ENERGY PREDICTED BY IDOCK:   -2.62 KCAL/MOL
REMARK 923 INTER-LIGAND FREE ENERGY PREDICTED BY IDOCK:   -1.87 KCAL/MOL
REMARK 924 INTRA-LIGAND FREE ENERGY PREDICTED BY IDOCK:   -0.75 KCAL/MOL
REMARK 927      BINDING AFFINITY PREDICTED BY RF-SCORE:    0.00 PKD
ROOT
HETATM    1  C   UNL     1      -8.965   5.104  69.202  1.00  0.00    -0.100 C  
HETATM    2  C   UNL     1      -8.709   5.021  67.690  1.00  0.00    -0.103 C  
HETATM    3  C   UNL     1      -8.418   6.377  67.198  1.00  0.00    -0.112 A  
HETATM    4  C   UNL     1      -8.656   7.079  66.040  1.00  0.00    -0.148 A  
HETATM    5  N   UNL     1      -7.845   8.192  66.073  1.00  0.00    -0.090 NA 
HETATM    6  C   UNL     1      -7.077   8.180  67.229  1.00  0.00    -0.079 A  
HETATM    7  H   UNL     1      -7.814   8.916  65.356  1.00  0.00     0.000 HD 
HETATM    8  C   UNL     1      -5.945   8.877  67.622  1.00  0.00    -0.047 A  
HETATM    9  C   UNL     1      -5.450   8.544  68.894  1.00  0.00    -0.039 A  
HETATM   10  C   UNL     1      -6.158   7.714  69.804  1.00  0.00    -0.027 A  
HETATM   11  C   UNL     1      -7.344   7.082  69.413  1.00  0.00    -0.091 A  
HETATM   12  C   UNL     1      -7.662   7.235  68.039  1.00  0.00    -0.117 A  
HETATM   13  C   UNL     1      -8.347   6.216  70.115  1.00  0.00    -0.128 C  
HETATM   14  C   UNL     1      -9.000   6.339  71.326  1.00  0.00    -0.139 C  
HETATM   15  C   UNL     1     -10.300   5.469  71.428  1.00  0.00    -0.229 C  
HETATM   16  N   UNL     1      -8.934   3.921  70.051  1.00  0.00    -0.090 NA 
HETATM   17  C   UNL     1     -10.046   3.964  70.987  1.00  0.00     0.034 C  
HETATM   18  C   UNL     1      -8.321   2.694  69.640  1.00  0.00    -0.048 C  
ENDROOT
BRANCH  15  19
HETATM   19  N   UNL     1     -11.267   5.592  72.515  1.00  0.00    -0.283 N  
HETATM   20  H   UNL     1     -11.116   5.211  73.448  1.00  0.00     0.000 HD 
BRANCH  19  21
HETATM   21  C   UNL     1     -12.425   6.290  72.142  1.00  0.00    -0.063 C  
HETATM   22  O   UNL     1     -13.552   5.861  72.408  1.00  0.00     0.295 OA 
BRANCH  21  23
HETATM   23  N   UNL     1     -12.288   7.489  71.476  1.00  0.00    -0.325 N  
BRANCH  23  24
HETATM   24  C   UNL     1     -12.313   7.679  70.032  1.00  0.00     0.833 C  
HETATM   25  C   UNL     1     -11.158   8.548  69.557  1.00  0.00     0.039 C  
ENDBRANCH  23  24
BRANCH  23  26
HETATM   26  C   UNL     1     -12.192   8.707  72.305  1.00  0.00    -0.378 C  
HETATM   27  C   UNL     1     -13.532   9.378  72.578  1.00  0.00    -0.437 C  
ENDBRANCH  23  26
ENDBRANCH  21  23
ENDBRANCH  19  21
ENDBRANCH  15  19
TORSDOF 5
ENDMDL
MODEL      163
REMARK 921   NORMALIZED FREE ENERGY PREDICTED BY IDOCK:   -1.20 KCAL/MOL
REMARK 922        TOTAL FREE ENERGY PREDICTED BY IDOCK:   -2.03 KCAL/MOL
REMARK 923 INTER-LIGAND FREE ENERGY PREDICTED BY IDOCK:   -1.74 KCAL/MOL
REMARK 924 INTRA-LIGAND FREE ENERGY PREDICTED BY IDOCK:   -0.29 KCAL/MOL
REMARK 927      BINDING AFFINITY PREDICTED BY RF-SCORE:    0.00 PKD
ROOT
HETATM    1  C   UNL     1     -10.425   6.705  71.519  1.00  0.00    -0.215 C  
HETATM    2  C   UNL     1     -11.510   7.700  71.957  1.00  0.00    -0.327 C  
HETATM    3  C   UNL     1     -11.256   8.982  71.281  1.00  0.00    -0.385 A  
HETATM    4  C   UNL     1     -11.415  10.311  71.595  1.00  0.00     0.352 A  
HETATM    5  N   UNL     1     -11.303  11.016  70.417  1.00  0.00    -0.467 NA 
HETATM    6  C   UNL     1     -11.106  10.139  69.360  1.00  0.00    -0.243 A  
HETATM    7  H   UNL     1     -11.357  12.031  70.334  1.00  0.00     0.000 HD 
HETATM    8  C   UNL     1     -11.201  10.276  67.985  1.00  0.00    -0.303 A  
HETATM    9  C   UNL     1     -10.939   9.108  67.248  1.00  0.00     0.040 A  
HETATM   10  C   UNL     1     -10.413   7.927  67.837  1.00  0.00    -0.261 A  
HETATM   11  C   UNL     1     -10.248   7.838  69.225  1.00  0.00    -0.211 A  
HETATM   12  C   UNL     1     -10.775   8.940  69.947  1.00  0.00    -0.236 A  
HETATM   13  C   UNL     1      -9.681   6.799  70.145  1.00  0.00    -0.175 C  
HETATM   14  C   UNL     1      -8.507   6.071  70.119  1.00  0.00    -0.127 C  
HETATM   15  C   UNL     1      -8.111   5.473  71.513  1.00  0.00    -0.118 C  
HETATM   16  N   UNL     1     -10.576   5.270  71.718  1.00  0.00    -0.220 NA 
HETATM   17  C   UNL     1      -9.323   4.711  72.202  1.00  0.00    -0.136 C  
HETATM   18  C   UNL     1     -11.844   4.657  71.981  1.00  0.00     1.454 C  
ENDROOT
BRANCH  15  19
HETATM   19  N   UNL     1      -6.817   4.855  71.785  1.00  0.00    -0.050 N  
HETATM   20  H   UNL     1      -6.622   4.299  72.618  1.00  0.00     0.000 HD 
BRANCH  19  21
HETATM   21  C   UNL     1      -5.868   5.105  70.783  1.00  0.00    -0.017 C  
HETATM   22  O   UNL     1      -5.288   6.191  70.698  1.00  0.00    -0.013 OA 
BRANCH  21  23
HETATM   23  N   UNL     1      -5.573   4.098  69.887  1.00  0.00    -0.015 N  
BRANCH  23  24
HETATM   24  C   UNL     1      -5.230   4.271  68.482  1.00  0.00    -0.007 C  
HETATM   25  C   UNL     1      -6.454   4.170  67.585  1.00  0.00    -0.038 C  
ENDBRANCH  23  24
BRANCH  23  26
HETATM   26  C   UNL     1      -5.518   2.724  70.421  1.00  0.00    -0.012 C  
HETATM   27  C   UNL     1      -5.468   1.644  69.348  1.00  0.00    -0.013 C  
ENDBRANCH  23  26
ENDBRANCH  21  23
ENDBRANCH  19  21
ENDBRANCH  15  19
TORSDOF 5
ENDMDL
MODEL      164
REMARK 921   NORMALIZED FREE ENERGY PREDICTED BY IDOCK:   -0.12 KCAL/MOL
REMARK 922        TOTAL FREE ENERGY PREDICTED BY IDOCK:   -0.64 KCAL/MOL
REMARK 923 INTER-LIGAND FREE ENERGY PREDICTED BY IDOCK:   -1.58 KCAL/MOL
REMARK 924 INTRA-LIGAND FREE ENERGY PREDICTED BY IDOCK:    0.94 KCAL/MOL
REMARK 927      BINDING AFFINITY PREDICTED BY RF-SCORE:    0.00 PKD
ROOT
HETATM    1  C   UNL     1     -10.036  16.194  67.436  1.00  0.00    -0.257 C  
HETATM    2  C   UNL     1      -9.923  16.294  68.965  1.00  0.00    -0.256 C  
HETATM    3  C   UNL     1      -8.727  15.547  69.386  1.00  0.00    -0.258 A  
HETATM    4  C   UNL     1      -8.370  14.790  70.476  1.00  0.00     1.609 A  
HETATM    5  N   UNL     1      -7.002  14.638  70.427  1.00  0.00    -0.309 NA 
HETATM    6  C   UNL     1      -6.492  15.318  69.330  1.00  0.00    -0.141 A  
HETATM    7  H   UNL     1      -6.447  14.104  71.096  1.00  0.00     0.000 HD 
HETATM    8  C   UNL     1      -5.214  15.714  68.972  1.00  0.00    -0.096 A  
HETATM    9  C   UNL     1      -5.126  16.423  67.761  1.00  0.00    -0.138 A  
HETATM   10  C   UNL     1      -6.216  16.550  66.860  1.00  0.00    -0.143 A  
HETATM   11  C   UNL     1      -7.484  16.070  67.209  1.00  0.00    -0.236 A  
HETATM   12  C   UNL     1      -7.585  15.603  68.545  1.00  0.00    -0.132 A  
HETATM   13  C   UNL     1      -8.802  15.985  66.498  1.00  0.00    -0.340 C  
HETATM   14  C   UNL     1      -9.154  15.538  65.239  1.00  0.00     0.939 C  
HETATM   15  C   UNL     1     -10.675  15.182  65.104  1.00  0.00    -0.422 C  
HETATM   16  N   UNL     1     -10.887  17.095  66.671  1.00  0.00    -0.054 NA 
HETATM   17  C   UNL     1     -11.610  16.340  65.659  1.00  0.00     0.695 C  
HETATM   18  C   UNL     1     -11.375  18.332  67.202  1.00  0.00     0.755 C  
ENDROOT
BRANCH  15  19
HETATM   19  N   UNL     1     -11.240  14.493  63.948  1.00  0.00    -0.224 N  
HETATM   20  H   UNL     1     -11.279  14.900  63.014  1.00  0.00     0.000 HD 
BRANCH  19  21
HETATM   21  C   UNL     1     -11.724  13.213  64.253  1.00  0.00    -0.395 C  
HETATM   22  O   UNL     1     -12.918  12.927  64.134  1.00  0.00    -0.673 OA 
BRANCH  21  23
HETATM   23  N   UNL     1     -10.830  12.255  64.684  1.00  0.00    -0.294 N  
BRANCH  23  24
HETATM   24  C   UNL     1     -10.550  10.984  64.029  1.00  0.00    -0.324 C  
HETATM   25  C   UNL     1      -9.759  10.047  64.930  1.00  0.00    -0.377 C  
ENDBRANCH  23  24
BRANCH  23  26
HETATM   26  C   UNL     1     -10.019  12.583  65.872  1.00  0.00    -0.257 C  
HETATM   27  C   UNL     1     -10.511  11.932  67.158  1.00  0.00    -0.249 C  
ENDBRANCH  23  26
ENDBRANCH  21  23
ENDBRANCH  19  21
ENDBRANCH  15  19
TORSDOF 5
ENDMDL
MODEL      165
REMARK 921   NORMALIZED FREE ENERGY PREDICTED BY IDOCK:    0.71 KCAL/MOL
REMARK 922        TOTAL FREE ENERGY PREDICTED BY IDOCK:    0.43 KCAL/MOL
REMARK 923 INTER-LIGAND FREE ENERGY PREDICTED BY IDOCK:   -2.58 KCAL/MOL
REMARK 924 INTRA-LIGAND FREE ENERGY PREDICTED BY IDOCK:    3.02 KCAL/MOL
REMARK 927      BINDING AFFINITY PREDICTED BY RF-SCORE:    0.00 PKD
ROOT
HETATM    1  C   UNL     1      -8.892   5.613  68.360  1.00  0.00    -0.108 C  
HETATM    2  C   UNL     1      -8.672   5.547  66.841  1.00  0.00    -0.112 C  
HETATM    3  C   UNL     1      -8.369   6.906  66.363  1.00  0.00    -0.125 A  
HETATM    4  C   UNL     1      -8.621   7.629  65.221  1.00  0.00    -0.022 A  
HETATM    5  N   UNL     1      -7.791   8.727  65.251  1.00  0.00    -0.104 NA 
HETATM    6  C   UNL     1      -6.997   8.685  66.389  1.00  0.00    -0.078 A  
HETATM    7  H   UNL     1      -7.764   9.461  64.544  1.00  0.00     0.000 HD 
HETATM    8  C   UNL     1      -5.846   9.358  66.766  1.00  0.00    -0.055 A  
HETATM    9  C   UNL     1      -5.329   8.998  68.022  1.00  0.00    -0.035 A  
HETATM   10  C   UNL     1      -6.029   8.166  68.936  1.00  0.00    -0.039 A  
HETATM   11  C   UNL     1      -7.235   7.559  68.562  1.00  0.00    -0.090 A  
HETATM   12  C   UNL     1      -7.580   7.738  67.198  1.00  0.00    -0.100 A  
HETATM   13  C   UNL     1      -8.236   6.700  69.274  1.00  0.00    -0.124 C  
HETATM   14  C   UNL     1      -8.860   6.816  70.502  1.00  0.00    -0.151 C  
HETATM   15  C   UNL     1     -10.171   5.966  70.620  1.00  0.00    -0.209 C  
HETATM   16  N   UNL     1      -8.862   4.416  69.190  1.00  0.00    -0.088 NA 
HETATM   17  C   UNL     1      -9.953   4.464  70.152  1.00  0.00    -0.179 C  
HETATM   18  C   UNL     1      -8.280   3.186  68.748  1.00  0.00    -0.060 C  
ENDROOT
BRANCH  15  19
HETATM   19  N   UNL     1     -11.112   6.090  71.730  1.00  0.00    -0.268 N  
HETATM   20  H   UNL     1     -12.026   6.534  71.645  1.00  0.00     0.000 HD 
BRANCH  19  21
HETATM   21  C   UNL     1     -10.630   5.535  72.924  1.00  0.00    -0.229 C  
HETATM   22  O   UNL     1     -10.693   6.147  73.993  1.00  0.00    -0.222 OA 
BRANCH  21  23
HETATM   23  N   UNL     1     -10.088   4.267  72.891  1.00  0.00    -0.151 N  
BRANCH  23  24
HETATM   24  C   UNL     1      -8.675   3.938  72.755  1.00  0.00    -0.099 C  
HETATM   25  C   UNL     1      -8.444   2.863  71.705  1.00  0.00    -0.085 C  
ENDBRANCH  23  24
BRANCH  23  26
HETATM   26  C   UNL     1     -11.017   3.138  73.097  1.00  0.00    -0.102 C  
HETATM   27  C   UNL     1     -11.143   2.696  74.549  1.00  0.00     0.254 C  
ENDBRANCH  23  26
ENDBRANCH  21  23
ENDBRANCH  19  21
ENDBRANCH  15  19
TORSDOF 5
ENDMDL
MODEL      166
REMARK 921   NORMALIZED FREE ENERGY PREDICTED BY IDOCK:    0.90 KCAL/MOL
REMARK 922        TOTAL FREE ENERGY PREDICTED BY IDOCK:    0.68 KCAL/MOL
REMARK 923 INTER-LIGAND FREE ENERGY PREDICTED BY IDOCK:    1.14 KCAL/MOL
REMARK 924 INTRA-LIGAND FREE ENERGY PREDICTED BY IDOCK:   -0.46 KCAL/MOL
REMARK 927      BINDING AFFINITY PREDICTED BY RF-SCORE:    0.00 PKD
ROOT
HETATM    1  C   UNL     1      -7.489  17.513  67.926  1.00  0.00    -0.205 C  
HETATM    2  C   UNL     1      -8.174  18.884  67.818  1.00  0.00    -0.296 C  
HETATM    3  C   UNL     1      -8.373  19.405  69.179  1.00  0.00    -0.159 A  
HETATM    4  C   UNL     1      -9.323  20.172  69.813  1.00  0.00     0.740 A  
HETATM    5  N   UNL     1      -8.770  20.589  71.004  1.00  0.00     1.473 NA 
HETATM    6  C   UNL     1      -7.470  20.115  71.110  1.00  0.00     1.273 A  
HETATM    7  H   UNL     1      -9.246  21.159  71.702  1.00  0.00     0.000 HD 
HETATM    8  C   UNL     1      -6.406  20.447  71.934  1.00  0.00     0.182 A  
HETATM    9  C   UNL     1      -5.222  19.728  71.697  1.00  0.00    -0.417 A  
HETATM   10  C   UNL     1      -5.160  18.605  70.830  1.00  0.00    -0.252 A  
HETATM   11  C   UNL     1      -6.275  18.238  70.065  1.00  0.00    -0.045 A  
HETATM   12  C   UNL     1      -7.360  19.149  70.138  1.00  0.00     0.660 A  
HETATM   13  C   UNL     1      -6.570  17.107  69.125  1.00  0.00    -0.231 C  
HETATM   14  C   UNL     1      -6.385  15.741  69.222  1.00  0.00    -0.147 C  
HETATM   15  C   UNL     1      -7.272  14.918  68.226  1.00  0.00    -0.113 C  
HETATM   16  N   UNL     1      -6.839  16.889  66.781  1.00  0.00    -0.212 NA 
HETATM   17  C   UNL     1      -7.176  15.474  66.741  1.00  0.00     0.231 C  
HETATM   18  C   UNL     1      -6.467  17.625  65.611  1.00  0.00    -0.014 C  
ENDROOT
BRANCH  15  19
HETATM   19  N   UNL     1      -7.413  13.466  68.286  1.00  0.00    -0.118 N  
HETATM   20  H   UNL     1      -6.621  12.824  68.295  1.00  0.00     0.000 HD 
BRANCH  19  21
HETATM   21  C   UNL     1      -8.749  13.045  68.330  1.00  0.00    -0.115 C  
HETATM   22  O   UNL     1      -9.641  13.769  68.779  1.00  0.00    -0.160 OA 
BRANCH  21  23
HETATM   23  N   UNL     1      -9.064  11.793  67.844  1.00  0.00    -0.174 N  
BRANCH  23  24
HETATM   24  C   UNL     1      -8.125  10.708  67.592  1.00  0.00    -0.107 C  
HETATM   25  C   UNL     1      -7.747  10.619  66.121  1.00  0.00    -0.145 C  
ENDBRANCH  23  24
BRANCH  23  26
HETATM   26  C   UNL     1     -10.495  11.496  67.638  1.00  0.00    -0.189 C  
HETATM   27  C   UNL     1     -11.087  10.551  68.676  1.00  0.00    -0.319 C  
ENDBRANCH  23  26
ENDBRANCH  21  23
ENDBRANCH  19  21
ENDBRANCH  15  19
TORSDOF 5
ENDMDL
MODEL      167
REMARK 921   NORMALIZED FREE ENERGY PREDICTED BY IDOCK:    0.91 KCAL/MOL
REMARK 922        TOTAL FREE ENERGY PREDICTED BY IDOCK:    0.69 KCAL/MOL
REMARK 923 INTER-LIGAND FREE ENERGY PREDICTED BY IDOCK:    0.49 KCAL/MOL
REMARK 924 INTRA-LIGAND FREE ENERGY PREDICTED BY IDOCK:    0.20 KCAL/MOL
REMARK 927      BINDING AFFINITY PREDICTED BY RF-SCORE:    0.00 PKD
ROOT
HETATM    1  C   UNL     1     -10.139   6.318  70.934  1.00  0.00    -0.189 C  
HETATM    2  C   UNL     1     -11.167   7.272  71.560  1.00  0.00    -0.273 C  
HETATM    3  C   UNL     1     -11.029   8.585  70.909  1.00  0.00    -0.292 A  
HETATM    4  C   UNL     1     -11.162   9.897  71.297  1.00  0.00    -0.286 A  
HETATM    5  N   UNL     1     -11.227  10.650  70.146  1.00  0.00    -0.338 NA 
HETATM    6  C   UNL     1     -11.166   9.819  69.037  1.00  0.00    -0.038 A  
HETATM    7  H   UNL     1     -11.307  11.666  70.114  1.00  0.00     0.000 HD 
HETATM    8  C   UNL     1     -11.454  10.009  67.694  1.00  0.00     0.357 A  
HETATM    9  C   UNL     1     -11.279   8.876  66.881  1.00  0.00     0.972 A  
HETATM   10  C   UNL     1     -10.659   7.684  67.340  1.00  0.00    -0.356 A  
HETATM   11  C   UNL     1     -10.301   7.544  68.687  1.00  0.00    -0.218 A  
HETATM   12  C   UNL     1     -10.738   8.605  69.521  1.00  0.00    -0.189 A  
HETATM   13  C   UNL     1      -9.596   6.481  69.476  1.00  0.00    -0.152 C  
HETATM   14  C   UNL     1      -8.425   5.780  69.257  1.00  0.00    -0.108 C  
HETATM   15  C   UNL     1      -7.830   5.136  70.556  1.00  0.00    -0.082 C  
HETATM   16  N   UNL     1     -10.239   4.873  71.093  1.00  0.00    -0.210 NA 
HETATM   17  C   UNL     1      -8.922   4.322  71.373  1.00  0.00    -0.119 C  
HETATM   18  C   UNL     1     -11.448   4.225  71.502  1.00  0.00     2.192 C  
ENDROOT
BRANCH  15  19
HETATM   19  N   UNL     1      -6.501   4.534  70.620  1.00  0.00    -0.029 N  
HETATM   20  H   UNL     1      -5.637   5.069  70.530  1.00  0.00     0.000 HD 
BRANCH  19  21
HETATM   21  C   UNL     1      -6.535   3.147  70.816  1.00  0.00    -0.027 C  
HETATM   22  O   UNL     1      -6.715   2.365  69.878  1.00  0.00    -0.032 OA 
BRANCH  21  23
HETATM   23  N   UNL     1      -6.346   2.655  72.090  1.00  0.00    -0.014 N  
BRANCH  23  24
HETATM   24  C   UNL     1      -6.977   1.471  72.658  1.00  0.00    -0.019 C  
HETATM   25  C   UNL     1      -8.489   1.619  72.733  1.00  0.00    -0.057 C  
ENDBRANCH  23  24
BRANCH  23  26
HETATM   26  C   UNL     1      -5.347   3.343  72.931  1.00  0.00     0.000 C  
HETATM   27  C   UNL     1      -5.321   2.869  74.378  1.00  0.00     0.000 C  
ENDBRANCH  23  26
ENDBRANCH  21  23
ENDBRANCH  19  21
ENDBRANCH  15  19
TORSDOF 5
ENDMDL
MODEL      168
REMARK 921   NORMALIZED FREE ENERGY PREDICTED BY IDOCK:    2.34 KCAL/MOL
REMARK 922        TOTAL FREE ENERGY PREDICTED BY IDOCK:    2.55 KCAL/MOL
REMARK 923 INTER-LIGAND FREE ENERGY PREDICTED BY IDOCK:    2.26 KCAL/MOL
REMARK 924 INTRA-LIGAND FREE ENERGY PREDICTED BY IDOCK:    0.28 KCAL/MOL
REMARK 927      BINDING AFFINITY PREDICTED BY RF-SCORE:    0.00 PKD
ROOT
HETATM    1  C   UNL     1      -7.905  17.400  67.479  1.00  0.00    -0.197 C  
HETATM    2  C   UNL     1      -8.348  18.866  67.352  1.00  0.00    -0.294 C  
HETATM    3  C   UNL     1      -8.414  19.443  68.704  1.00  0.00    -0.395 A  
HETATM    4  C   UNL     1      -9.199  20.375  69.342  1.00  0.00     0.881 A  
HETATM    5  N   UNL     1      -8.547  20.717  70.506  1.00  0.00     1.770 NA 
HETATM    6  C   UNL     1      -7.345  20.030  70.591  1.00  0.00     0.792 A  
HETATM    7  H   UNL     1      -8.897  21.375  71.202  1.00  0.00     0.000 HD 
HETATM    8  C   UNL     1      -6.215  20.192  71.378  1.00  0.00    -0.178 A  
HETATM    9  C   UNL     1      -5.178  19.276  71.129  1.00  0.00    -0.291 A  
HETATM   10  C   UNL     1      -5.336  18.140  70.291  1.00  0.00    -0.250 A  
HETATM   11  C   UNL     1      -6.520  17.953  69.566  1.00  0.00    -0.190 A  
HETATM   12  C   UNL     1      -7.430  19.038  69.643  1.00  0.00     0.166 A  
HETATM   13  C   UNL     1      -7.032  16.869  68.664  1.00  0.00    -0.191 C  
HETATM   14  C   UNL     1      -7.081  15.494  68.793  1.00  0.00    -0.124 C  
HETATM   15  C   UNL     1      -8.125  14.814  67.843  1.00  0.00    -0.141 C  
HETATM   16  N   UNL     1      -7.406  16.649  66.335  1.00  0.00    -0.239 NA 
HETATM   17  C   UNL     1      -7.981  15.313  66.342  1.00  0.00     0.409 C  
HETATM   18  C   UNL     1      -6.950  17.285  65.136  1.00  0.00     2.267 C  
ENDROOT
BRANCH  15  19
HETATM   19  N   UNL     1      -8.510  13.409  67.945  1.00  0.00    -0.160 N  
HETATM   20  H   UNL     1      -7.886  12.679  68.287  1.00  0.00     0.000 HD 
BRANCH  19  21
HETATM   21  C   UNL     1      -9.826  13.168  67.526  1.00  0.00    -0.216 C  
HETATM   22  O   UNL     1     -10.073  12.664  66.428  1.00  0.00    -0.242 OA 
BRANCH  21  23
HETATM   23  N   UNL     1     -10.861  13.494  68.378  1.00  0.00    -0.258 N  
BRANCH  23  24
HETATM   24  C   UNL     1     -10.851  13.371  69.830  1.00  0.00     0.364 C  
HETATM   25  C   UNL     1     -12.150  12.779  70.355  1.00  0.00    -0.382 C  
ENDBRANCH  23  24
BRANCH  23  26
HETATM   26  C   UNL     1     -12.060  14.103  67.771  1.00  0.00    -0.286 C  
HETATM   27  C   UNL     1     -11.865  14.548  66.327  1.00  0.00    -0.354 C  
ENDBRANCH  23  26
ENDBRANCH  21  23
ENDBRANCH  19  21
ENDBRANCH  15  19
TORSDOF 5
ENDMDL
MODEL      169
REMARK 921   NORMALIZED FREE ENERGY PREDICTED BY IDOCK:    2.44 KCAL/MOL
REMARK 922        TOTAL FREE ENERGY PREDICTED BY IDOCK:    2.67 KCAL/MOL
REMARK 923 INTER-LIGAND FREE ENERGY PREDICTED BY IDOCK:    2.39 KCAL/MOL
REMARK 924 INTRA-LIGAND FREE ENERGY PREDICTED BY IDOCK:    0.27 KCAL/MOL
REMARK 927      BINDING AFFINITY PREDICTED BY RF-SCORE:    0.00 PKD
ROOT
HETATM    1  C   UNL     1     -12.381  12.055  70.649  1.00  0.00    -0.304 C  
HETATM    2  C   UNL     1     -13.358  12.779  71.588  1.00  0.00    -0.345 C  
HETATM    3  C   UNL     1     -12.751  14.060  71.982  1.00  0.00    -0.367 A  
HETATM    4  C   UNL     1     -12.756  14.849  73.109  1.00  0.00    -0.489 A  
HETATM    5  N   UNL     1     -12.268  16.082  72.736  1.00  0.00    -0.474 NA 
HETATM    6  C   UNL     1     -11.985  16.084  71.378  1.00  0.00    -0.449 A  
HETATM    7  H   UNL     1     -12.135  16.873  73.364  1.00  0.00     0.000 HD 
HETATM    8  C   UNL     1     -11.744  17.096  70.462  1.00  0.00     1.894 A  
HETATM    9  C   UNL     1     -11.518  16.667  69.143  1.00  0.00     0.051 A  
HETATM   10  C   UNL     1     -11.340  15.301  68.796  1.00  0.00    -0.318 A  
HETATM   11  C   UNL     1     -11.509  14.297  69.757  1.00  0.00    -0.317 A  
HETATM   12  C   UNL     1     -11.996  14.760  71.006  1.00  0.00    -0.389 A  
HETATM   13  C   UNL     1     -11.342  12.806  69.752  1.00  0.00    -0.103 C  
HETATM   14  C   UNL     1     -10.328  11.983  69.301  1.00  0.00     0.163 C  
HETATM   15  C   UNL     1     -10.359  10.549  69.932  1.00  0.00    -0.114 C  
HETATM   16  N   UNL     1     -12.806  10.945  69.809  1.00  0.00    -0.113 NA 
HETATM   17  C   UNL     1     -11.803   9.892  69.848  1.00  0.00    -0.010 C  
HETATM   18  C   UNL     1     -14.183  10.685  69.514  1.00  0.00     5.406 C  
ENDROOT
BRANCH  15  19
HETATM   19  N   UNL     1      -9.278   9.579  69.779  1.00  0.00    -0.192 N  
HETATM   20  H   UNL     1      -8.302   9.788  69.989  1.00  0.00     0.000 HD 
BRANCH  19  21
HETATM   21  C   UNL     1      -9.720   8.332  69.315  1.00  0.00    -0.177 C  
HETATM   22  O   UNL     1     -10.203   7.492  70.078  1.00  0.00    -0.206 OA 
BRANCH  21  23
HETATM   23  N   UNL     1      -9.621   8.057  67.967  1.00  0.00    -0.149 N  
BRANCH  23  24
HETATM   24  C   UNL     1      -9.848   8.997  66.878  1.00  0.00    -0.224 C  
HETATM   25  C   UNL     1      -8.563   9.691  66.454  1.00  0.00    -0.136 C  
ENDBRANCH  23  24
BRANCH  23  26
HETATM   26  C   UNL     1      -9.159   6.705  67.594  1.00  0.00    -0.112 C  
HETATM   27  C   UNL     1      -9.182   6.435  66.095  1.00  0.00    -0.132 C  
ENDBRANCH  23  26
ENDBRANCH  21  23
ENDBRANCH  19  21
ENDBRANCH  15  19
TORSDOF 5
ENDMDL
MODEL      170
REMARK 921   NORMALIZED FREE ENERGY PREDICTED BY IDOCK:    5.24 KCAL/MOL
REMARK 922        TOTAL FREE ENERGY PREDICTED BY IDOCK:    6.29 KCAL/MOL
REMARK 923 INTER-LIGAND FREE ENERGY PREDICTED BY IDOCK:    4.16 KCAL/MOL
REMARK 924 INTRA-LIGAND FREE ENERGY PREDICTED BY IDOCK:    2.13 KCAL/MOL
REMARK 927      BINDING AFFINITY PREDICTED BY RF-SCORE:    0.00 PKD
ROOT
HETATM    1  C   UNL     1      -8.648   4.847  69.388  1.00  0.00    -0.087 C  
HETATM    2  C   UNL     1      -8.098   5.490  68.105  1.00  0.00    -0.096 C  
HETATM    3  C   UNL     1      -8.008   6.943  68.322  1.00  0.00    -0.119 A  
HETATM    4  C   UNL     1      -8.163   8.067  67.547  1.00  0.00    -0.123 A  
HETATM    5  N   UNL     1      -7.623   9.118  68.255  1.00  0.00    -0.083 NA 
HETATM    6  C   UNL     1      -7.103   8.658  69.456  1.00  0.00    -0.055 A  
HETATM    7  H   UNL     1      -7.608  10.089  67.943  1.00  0.00     0.000 HD 
HETATM    8  C   UNL     1      -6.239   9.211  70.388  1.00  0.00    -0.048 A  
HETATM    9  C   UNL     1      -5.936   8.386  71.485  1.00  0.00    -0.041 A  
HETATM   10  C   UNL     1      -6.615   7.164  71.742  1.00  0.00    -0.048 A  
HETATM   11  C   UNL     1      -7.546   6.664  70.825  1.00  0.00    -0.092 A  
HETATM   12  C   UNL     1      -7.622   7.394  69.611  1.00  0.00    -0.095 A  
HETATM   13  C   UNL     1      -8.462   5.476  70.808  1.00  0.00    -0.122 C  
HETATM   14  C   UNL     1      -9.344   4.966  71.741  1.00  0.00    -0.185 C  
HETATM   15  C   UNL     1     -10.428   4.018  71.123  1.00  0.00     0.427 C  
HETATM   16  N   UNL     1      -8.533   3.417  69.638  1.00  0.00    -0.058 NA 
HETATM   17  C   UNL     1      -9.788   2.914  70.177  1.00  0.00     0.220 C  
HETATM   18  C   UNL     1      -7.611   2.582  68.929  1.00  0.00    -0.046 C  
ENDROOT
BRANCH  15  19
HETATM   19  N   UNL     1     -11.589   3.533  71.864  1.00  0.00     2.266 N  
HETATM   20  H   UNL     1     -11.812   2.544  71.977  1.00  0.00     0.000 HD 
BRANCH  19  21
HETATM   21  C   UNL     1     -12.367   4.566  72.405  1.00  0.00     1.672 C  
HETATM   22  O   UNL     1     -13.590   4.460  72.526  1.00  0.00     1.724 OA 
BRANCH  21  23
HETATM   23  N   UNL     1     -11.735   5.719  72.822  1.00  0.00    -0.227 N  
BRANCH  23  24
HETATM   24  C   UNL     1     -11.033   5.906  74.085  1.00  0.00     0.406 C  
HETATM   25  C   UNL     1     -10.305   4.643  74.518  1.00  0.00    -0.318 C  
ENDBRANCH  23  24
BRANCH  23  26
HETATM   26  C   UNL     1     -11.693   6.841  71.865  1.00  0.00    -0.310 C  
HETATM   27  C   UNL     1     -11.012   8.092  72.406  1.00  0.00    -0.402 C  
ENDBRANCH  23  26
ENDBRANCH  21  23
ENDBRANCH  19  21
ENDBRANCH  15  19
TORSDOF 5
ENDMDL
MODEL      171
REMARK 921   NORMALIZED FREE ENERGY PREDICTED BY IDOCK:    8.87 KCAL/MOL
REMARK 922        TOTAL FREE ENERGY PREDICTED BY IDOCK:   10.98 KCAL/MOL
REMARK 923 INTER-LIGAND FREE ENERGY PREDICTED BY IDOCK:   10.33 KCAL/MOL
REMARK 924 INTRA-LIGAND FREE ENERGY PREDICTED BY IDOCK:    0.65 KCAL/MOL
REMARK 927      BINDING AFFINITY PREDICTED BY RF-SCORE:    0.00 PKD
ROOT
HETATM    1  C   UNL     1     -12.304  12.268  71.210  1.00  0.00    -0.056 C  
HETATM    2  C   UNL     1     -12.522  12.268  72.731  1.00  0.00     2.700 C  
HETATM    3  C   UNL     1     -12.301  13.635  73.226  1.00  0.00     1.229 A  
HETATM    4  C   UNL     1     -11.793  14.199  74.372  1.00  0.00     2.600 A  
HETATM    5  N   UNL     1     -12.162  15.526  74.362  1.00  0.00    -0.636 NA 
HETATM    6  C   UNL     1     -12.923  15.794  73.234  1.00  0.00    -0.565 A  
HETATM    7  H   UNL     1     -11.912  16.209  75.077  1.00  0.00     0.000 HD 
HETATM    8  C   UNL     1     -13.749  16.848  72.877  1.00  0.00     2.280 A  
HETATM    9  C   UNL     1     -14.372  16.721  71.623  1.00  0.00     5.393 A  
HETATM   10  C   UNL     1     -14.033  15.702  70.693  1.00  0.00     0.585 A  
HETATM   11  C   UNL     1     -13.132  14.690  71.047  1.00  0.00    -0.427 A  
HETATM   12  C   UNL     1     -12.735  14.711  72.408  1.00  0.00    -0.429 A  
HETATM   13  C   UNL     1     -12.521  13.533  70.314  1.00  0.00    -0.309 C  
HETATM   14  C   UNL     1     -11.907  13.429  69.081  1.00  0.00    -0.383 C  
HETATM   15  C   UNL     1     -11.001  12.158  68.938  1.00  0.00    -0.224 C  
HETATM   16  N   UNL     1     -12.777  11.178  70.368  1.00  0.00    -0.215 NA 
HETATM   17  C   UNL     1     -11.752  10.835  69.393  1.00  0.00    -0.306 C  
HETATM   18  C   UNL     1     -13.768  10.241  70.804  1.00  0.00     0.400 C  
ENDROOT
BRANCH  15  19
HETATM   19  N   UNL     1     -10.088  11.943  67.819  1.00  0.00    -0.187 N  
HETATM   20  H   UNL     1      -9.237  12.486  67.675  1.00  0.00     0.000 HD 
BRANCH  19  21
HETATM   21  C   UNL     1     -10.502  10.913  66.963  1.00  0.00    -0.244 C  
HETATM   22  O   UNL     1     -11.650  10.867  66.513  1.00  0.00    -0.118 OA 
BRANCH  21  23
HETATM   23  N   UNL     1      -9.590   9.940  66.611  1.00  0.00    -0.175 N  
BRANCH  23  24
HETATM   24  C   UNL     1      -8.147  10.111  66.507  1.00  0.00    -0.121 C  
HETATM   25  C   UNL     1      -7.570  10.797  67.736  1.00  0.00    -0.095 C  
ENDBRANCH  23  24
BRANCH  23  26
HETATM   26  C   UNL     1     -10.114   8.576  66.403  1.00  0.00    -0.201 C  
HETATM   27  C   UNL     1      -9.239   7.478  66.994  1.00  0.00    -0.167 C  
ENDBRANCH  23  26
ENDBRANCH  21  23
ENDBRANCH  19  21
ENDBRANCH  15  19
TORSDOF 5
ENDMDL
MODEL      172
REMARK 921   NORMALIZED FREE ENERGY PREDICTED BY IDOCK:    9.00 KCAL/MOL
REMARK 922        TOTAL FREE ENERGY PREDICTED BY IDOCK:   11.14 KCAL/MOL
REMARK 923 INTER-LIGAND FREE ENERGY PREDICTED BY IDOCK:    9.44 KCAL/MOL
REMARK 924 INTRA-LIGAND FREE ENERGY PREDICTED BY IDOCK:    1.70 KCAL/MOL
REMARK 927      BINDING AFFINITY PREDICTED BY RF-SCORE:    0.00 PKD
ROOT
HETATM    1  C   UNL     1      -8.588  17.525  66.964  1.00  0.00    -0.235 C  
HETATM    2  C   UNL     1      -7.977  16.343  66.196  1.00  0.00    -0.130 C  
HETATM    3  C   UNL     1      -8.527  15.099  66.757  1.00  0.00    -0.272 A  
HETATM    4  C   UNL     1      -8.063  13.822  66.967  1.00  0.00     0.018 A  
HETATM    5  N   UNL     1      -9.163  13.033  67.220  1.00  0.00    -0.205 NA 
HETATM    6  C   UNL     1     -10.318  13.798  67.141  1.00  0.00    -0.261 A  
HETATM    7  H   UNL     1      -9.134  12.037  67.434  1.00  0.00     0.000 HD 
HETATM    8  C   UNL     1     -11.662  13.476  67.038  1.00  0.00    -0.424 A  
HETATM    9  C   UNL     1     -12.535  14.575  66.957  1.00  0.00     0.146 A  
HETATM   10  C   UNL     1     -12.112  15.914  67.171  1.00  0.00     1.064 A  
HETATM   11  C   UNL     1     -10.755  16.209  67.354  1.00  0.00    -0.291 A  
HETATM   12  C   UNL     1      -9.886  15.103  67.164  1.00  0.00    -0.228 A  
HETATM   13  C   UNL     1      -9.989  17.462  67.657  1.00  0.00    -0.300 C  
HETATM   14  C   UNL     1     -10.169  18.460  68.596  1.00  0.00    -0.370 C  
HETATM   15  C   UNL     1      -8.876  19.304  68.867  1.00  0.00    -0.296 C  
HETATM   16  N   UNL     1      -8.534  18.885  66.445  1.00  0.00    -0.312 NA 
HETATM   17  C   UNL     1      -8.196  19.804  67.522  1.00  0.00    -0.312 C  
HETATM   18  C   UNL     1      -8.257  19.176  65.071  1.00  0.00     2.118 C  
ENDROOT
BRANCH  15  19
HETATM   19  N   UNL     1      -8.757  20.264  69.961  1.00  0.00     1.071 N  
HETATM   20  H   UNL     1      -9.549  20.777  70.347  1.00  0.00     0.000 HD 
BRANCH  19  21
HETATM   21  C   UNL     1      -7.442  20.407  70.425  1.00  0.00     1.159 C  
HETATM   22  O   UNL     1      -6.510  20.667  69.659  1.00  0.00    -0.165 OA 
BRANCH  21  23
HETATM   23  N   UNL     1      -7.200  20.268  71.776  1.00  0.00     0.821 N  
BRANCH  23  24
HETATM   24  C   UNL     1      -8.126  20.588  72.853  1.00  0.00     3.917 C  
HETATM   25  C   UNL     1      -9.548  20.161  72.521  1.00  0.00     3.011 C  
ENDBRANCH  23  24
BRANCH  23  26
HETATM   26  C   UNL     1      -5.913  19.657  72.164  1.00  0.00     0.200 C  
HETATM   27  C   UNL     1      -5.224  18.897  71.038  1.00  0.00    -0.283 C  
ENDBRANCH  23  26
ENDBRANCH  21  23
ENDBRANCH  19  21
ENDBRANCH  15  19
TORSDOF 5
ENDMDL
MODEL      173
REMARK 921   NORMALIZED FREE ENERGY PREDICTED BY IDOCK:   10.00 KCAL/MOL
REMARK 922        TOTAL FREE ENERGY PREDICTED BY IDOCK:   12.44 KCAL/MOL
REMARK 923 INTER-LIGAND FREE ENERGY PREDICTED BY IDOCK:   12.03 KCAL/MOL
REMARK 924 INTRA-LIGAND FREE ENERGY PREDICTED BY IDOCK:    0.41 KCAL/MOL
REMARK 927      BINDING AFFINITY PREDICTED BY RF-SCORE:    0.00 PKD
ROOT
HETATM    1  C   UNL     1     -12.304  12.268  71.210  1.00  0.00    -0.056 C  
HETATM    2  C   UNL     1     -12.494  12.270  72.734  1.00  0.00     2.700 C  
HETATM    3  C   UNL     1     -12.250  13.636  73.225  1.00  0.00     1.464 A  
HETATM    4  C   UNL     1     -11.716  14.195  74.362  1.00  0.00     2.782 A  
HETATM    5  N   UNL     1     -12.072  15.526  74.358  1.00  0.00    -0.560 NA 
HETATM    6  C   UNL     1     -12.851  15.801  73.243  1.00  0.00    -0.542 A  
HETATM    7  H   UNL     1     -11.803  16.206  75.068  1.00  0.00     0.000 HD 
HETATM    8  C   UNL     1     -13.673  16.863  72.901  1.00  0.00     2.280 A  
HETATM    9  C   UNL     1     -14.319  16.741  71.659  1.00  0.00     5.393 A  
HETATM   10  C   UNL     1     -14.007  15.719  70.723  1.00  0.00     0.733 A  
HETATM   11  C   UNL     1     -13.110  14.698  71.061  1.00  0.00    -0.427 A  
HETATM   12  C   UNL     1     -12.688  14.715  72.415  1.00  0.00    -0.429 A  
HETATM   13  C   UNL     1     -12.524  13.534  70.318  1.00  0.00    -0.309 C  
HETATM   14  C   UNL     1     -11.934  13.424  69.073  1.00  0.00    -0.357 C  
HETATM   15  C   UNL     1     -11.044  12.144  68.915  1.00  0.00    -0.243 C  
HETATM   16  N   UNL     1     -12.803  11.183  70.377  1.00  0.00    -0.165 NA 
HETATM   17  C   UNL     1     -11.800  10.829  69.384  1.00  0.00    -0.298 C  
HETATM   18  C   UNL     1     -13.795  10.256  70.832  1.00  0.00     0.520 C  
ENDROOT
BRANCH  15  19
HETATM   19  N   UNL     1     -10.154  11.919  67.779  1.00  0.00    -0.187 N  
HETATM   20  H   UNL     1      -9.420  11.212  67.772  1.00  0.00     0.000 HD 
BRANCH  19  21
HETATM   21  C   UNL     1     -10.412  12.777  66.701  1.00  0.00    -0.257 C  
HETATM   22  O   UNL     1     -10.509  13.997  66.853  1.00  0.00    -0.273 OA 
BRANCH  21  23
HETATM   23  N   UNL     1     -10.544  12.232  65.441  1.00  0.00    -0.265 N  
BRANCH  23  24
HETATM   24  C   UNL     1     -11.622  12.496  64.498  1.00  0.00    -0.348 C  
HETATM   25  C   UNL     1     -11.528  11.605  63.268  1.00  0.00    -0.266 C  
ENDBRANCH  23  24
BRANCH  23  26
HETATM   26  C   UNL     1      -9.446  11.364  64.970  1.00  0.00    -0.185 C  
HETATM   27  C   UNL     1      -8.056  11.874  65.329  1.00  0.00     1.327 C  
ENDBRANCH  23  26
ENDBRANCH  21  23
ENDBRANCH  19  21
ENDBRANCH  15  19
TORSDOF 5
ENDMDL
MODEL      174
REMARK 921   NORMALIZED FREE ENERGY PREDICTED BY IDOCK:   10.31 KCAL/MOL
REMARK 922        TOTAL FREE ENERGY PREDICTED BY IDOCK:   12.85 KCAL/MOL
REMARK 923 INTER-LIGAND FREE ENERGY PREDICTED BY IDOCK:   12.68 KCAL/MOL
REMARK 924 INTRA-LIGAND FREE ENERGY PREDICTED BY IDOCK:    0.16 KCAL/MOL
REMARK 927      BINDING AFFINITY PREDICTED BY RF-SCORE:    0.00 PKD
ROOT
HETATM    1  C   UNL     1     -10.737  10.066  67.365  1.00  0.00    -0.274 C  
HETATM    2  C   UNL     1     -11.670  10.107  66.145  1.00  0.00     2.612 C  
HETATM    3  C   UNL     1     -10.841  10.262  64.939  1.00  0.00     0.693 A  
HETATM    4  C   UNL     1     -10.976  10.893  63.724  1.00  0.00     0.198 A  
HETATM    5  N   UNL     1      -9.992  10.389  62.902  1.00  0.00    -0.603 NA 
HETATM    6  C   UNL     1      -9.260   9.426  63.580  1.00  0.00     0.128 A  
HETATM    7  H   UNL     1      -9.827  10.682  61.939  1.00  0.00     0.000 HD 
HETATM    8  C   UNL     1      -8.372   8.445  63.165  1.00  0.00    -0.086 A  
HETATM    9  C   UNL     1      -7.853   7.638  64.192  1.00  0.00    -0.133 A  
HETATM   10  C   UNL     1      -8.047   7.922  65.571  1.00  0.00    -0.130 A  
HETATM   11  C   UNL     1      -8.885   8.971  65.967  1.00  0.00    -0.208 A  
HETATM   12  C   UNL     1      -9.594   9.587  64.904  1.00  0.00    -0.158 A  
HETATM   13  C   UNL     1      -9.255   9.570  67.292  1.00  0.00    -0.154 C  
HETATM   14  C   UNL     1      -8.499   9.975  68.375  1.00  0.00    -0.112 C  
HETATM   15  C   UNL     1      -9.249  10.974  69.322  1.00  0.00     0.085 C  
HETATM   16  N   UNL     1     -11.189   9.576  68.659  1.00  0.00     0.022 NA 
HETATM   17  C   UNL     1     -10.698  10.454  69.711  1.00  0.00    -0.278 C  
HETATM   18  C   UNL     1     -12.368   8.777  68.812  1.00  0.00     3.806 C  
ENDROOT
BRANCH  15  19
HETATM   19  N   UNL     1      -8.593  11.704  70.403  1.00  0.00     3.093 N  
HETATM   20  H   UNL     1      -8.358  11.285  71.303  1.00  0.00     0.000 HD 
BRANCH  19  21
HETATM   21  C   UNL     1      -8.320  13.040  70.078  1.00  0.00     3.062 C  
HETATM   22  O   UNL     1      -9.224  13.843  69.830  1.00  0.00     1.205 OA 
BRANCH  21  23
HETATM   23  N   UNL     1      -7.006  13.458  70.052  1.00  0.00     0.373 N  
BRANCH  23  24
HETATM   24  C   UNL     1      -6.543  14.829  69.886  1.00  0.00    -0.175 C  
HETATM   25  C   UNL     1      -5.240  14.894  69.104  1.00  0.00    -0.093 C  
ENDBRANCH  23  24
BRANCH  23  26
HETATM   26  C   UNL     1      -5.974  12.433  70.300  1.00  0.00    -0.132 C  
HETATM   27  C   UNL     1      -5.156  12.066  69.069  1.00  0.00    -0.055 C  
ENDBRANCH  23  26
ENDBRANCH  21  23
ENDBRANCH  19  21
ENDBRANCH  15  19
TORSDOF 5
ENDMDL
MODEL      175
REMARK 921   NORMALIZED FREE ENERGY PREDICTED BY IDOCK:   22.45 KCAL/MOL
REMARK 922        TOTAL FREE ENERGY PREDICTED BY IDOCK:   28.53 KCAL/MOL
REMARK 923 INTER-LIGAND FREE ENERGY PREDICTED BY IDOCK:   24.57 KCAL/MOL
REMARK 924 INTRA-LIGAND FREE ENERGY PREDICTED BY IDOCK:    3.96 KCAL/MOL
REMARK 927      BINDING AFFINITY PREDICTED BY RF-SCORE:    0.00 PKD
ROOT
HETATM    1  C   UNL     1     -10.346  12.030  68.830  1.00  0.00    -0.092 C  
HETATM    2  C   UNL     1     -10.016  10.535  68.958  1.00  0.00    -0.223 C  
HETATM    3  C   UNL     1      -9.953  10.200  70.390  1.00  0.00     0.015 A  
HETATM    4  C   UNL     1      -9.220   9.336  71.169  1.00  0.00    -0.155 A  
HETATM    5  N   UNL     1      -9.860   9.256  72.386  1.00  0.00     0.334 NA 
HETATM    6  C   UNL     1     -11.005  10.039  72.368  1.00  0.00     2.874 A  
HETATM    7  H   UNL     1      -9.539   8.704  73.182  1.00  0.00     0.000 HD 
HETATM    8  C   UNL     1     -12.119  10.106  73.190  1.00  0.00     4.582 A  
HETATM    9  C   UNL     1     -13.093  11.042  72.799  1.00  0.00     1.758 A  
HETATM   10  C   UNL     1     -12.876  11.997  71.771  1.00  0.00    -0.377 A  
HETATM   11  C   UNL     1     -11.705  11.962  71.005  1.00  0.00     0.630 A  
HETATM   12  C   UNL     1     -10.875  10.839  71.258  1.00  0.00     1.735 A  
HETATM   13  C   UNL     1     -11.141  12.827  69.917  1.00  0.00     0.249 C  
HETATM   14  C   UNL     1     -10.987  14.195  69.799  1.00  0.00    -0.068 C  
HETATM   15  C   UNL     1      -9.924  14.614  68.726  1.00  0.00    -0.235 C  
HETATM   16  N   UNL     1     -10.822  12.605  67.580  1.00  0.00    -0.234 NA 
HETATM   17  C   UNL     1     -10.150  13.873  67.340  1.00  0.00    -0.244 C  
HETATM   18  C   UNL     1     -11.360  11.807  66.520  1.00  0.00    -0.305 C  
ENDROOT
BRANCH  15  19
HETATM   19  N   UNL     1      -9.434  15.981  68.572  1.00  0.00    -0.209 N  
HETATM   20  H   UNL     1      -8.446  16.217  68.482  1.00  0.00     0.000 HD 
BRANCH  19  21
HETATM   21  C   UNL     1     -10.460  16.936  68.560  1.00  0.00    -0.361 C  
HETATM   22  O   UNL     1     -10.571  17.778  69.455  1.00  0.00    -0.033 OA 
BRANCH  21  23
HETATM   23  N   UNL     1     -11.354  16.931  67.510  1.00  0.00     0.120 N  
BRANCH  23  24
HETATM   24  C   UNL     1     -12.783  17.201  67.595  1.00  0.00     4.447 C  
HETATM   25  C   UNL     1     -13.467  17.048  66.245  1.00  0.00    10.715 C  
ENDBRANCH  23  24
BRANCH  23  26
HETATM   26  C   UNL     1     -10.797  16.717  66.160  1.00  0.00    -0.006 C  
HETATM   27  C   UNL     1      -9.666  15.698  66.111  1.00  0.00    -0.348 C  
ENDBRANCH  23  26
ENDBRANCH  21  23
ENDBRANCH  19  21
ENDBRANCH  15  19
TORSDOF 5
ENDMDL
MODEL      176
REMARK 921   NORMALIZED FREE ENERGY PREDICTED BY IDOCK:   28.06 KCAL/MOL
REMARK 922        TOTAL FREE ENERGY PREDICTED BY IDOCK:   35.78 KCAL/MOL
REMARK 923 INTER-LIGAND FREE ENERGY PREDICTED BY IDOCK:   35.56 KCAL/MOL
REMARK 924 INTRA-LIGAND FREE ENERGY PREDICTED BY IDOCK:    0.22 KCAL/MOL
REMARK 927      BINDING AFFINITY PREDICTED BY RF-SCORE:    0.00 PKD
ROOT
HETATM    1  C   UNL     1      -9.395  18.599  67.177  1.00  0.00    -0.290 C  
HETATM    2  C   UNL     1      -8.044  18.418  66.469  1.00  0.00    -0.291 C  
HETATM    3  C   UNL     1      -7.675  16.995  66.543  1.00  0.00    -0.327 A  
HETATM    4  C   UNL     1      -6.503  16.285  66.656  1.00  0.00     0.247 A  
HETATM    5  N   UNL     1      -6.797  14.977  66.340  1.00  0.00     0.872 NA 
HETATM    6  C   UNL     1      -8.137  14.864  66.000  1.00  0.00     1.621 A  
HETATM    7  H   UNL     1      -6.129  14.207  66.354  1.00  0.00     0.000 HD 
HETATM    8  C   UNL     1      -8.873  13.879  65.362  1.00  0.00     1.726 A  
HETATM    9  C   UNL     1     -10.236  14.172  65.186  1.00  0.00    -0.411 A  
HETATM   10  C   UNL     1     -10.870  15.290  65.791  1.00  0.00    -0.363 A  
HETATM   11  C   UNL     1     -10.118  16.232  66.503  1.00  0.00    -0.301 A  
HETATM   12  C   UNL     1      -8.715  16.037  66.428  1.00  0.00    -0.362 A  
HETATM   13  C   UNL     1     -10.460  17.459  67.296  1.00  0.00    -0.321 C  
HETATM   14  C   UNL     1     -11.399  17.700  68.280  1.00  0.00     0.576 C  
HETATM   15  C   UNL     1     -11.077  18.961  69.155  1.00  0.00     1.959 C  
HETATM   16  N   UNL     1     -10.206  19.793  66.985  1.00  0.00    -0.421 NA 
HETATM   17  C   UNL     1     -10.737  20.233  68.267  1.00  0.00     0.160 C  
HETATM   18  C   UNL     1     -10.011  20.689  65.886  1.00  0.00     0.315 C  
ENDROOT
BRANCH  15  19
HETATM   19  N   UNL     1     -11.796  19.293  70.381  1.00  0.00     7.040 N  
HETATM   20  H   UNL     1     -12.756  19.004  70.566  1.00  0.00     0.000 HD 
BRANCH  19  21
HETATM   21  C   UNL     1     -11.031  20.051  71.279  1.00  0.00     4.962 C  
HETATM   22  O   UNL     1     -10.971  21.281  71.199  1.00  0.00     4.330 OA 
BRANCH  21  23
HETATM   23  N   UNL     1     -10.345  19.396  72.279  1.00  0.00     2.925 N  
BRANCH  23  24
HETATM   24  C   UNL     1     -10.784  18.197  72.980  1.00  0.00     3.416 C  
HETATM   25  C   UNL     1     -10.726  16.967  72.087  1.00  0.00     2.841 C  
ENDBRANCH  23  24
BRANCH  23  26
HETATM   26  C   UNL     1      -9.001  19.907  72.613  1.00  0.00     3.573 C  
HETATM   27  C   UNL     1      -8.190  20.354  71.404  1.00  0.00     2.084 C  
ENDBRANCH  23  26
ENDBRANCH  21  23
ENDBRANCH  19  21
ENDBRANCH  15  19
TORSDOF 5
ENDMDL
MODEL      177
REMARK 921   NORMALIZED FREE ENERGY PREDICTED BY IDOCK:   76.80 KCAL/MOL
REMARK 922        TOTAL FREE ENERGY PREDICTED BY IDOCK:   98.76 KCAL/MOL
REMARK 923 INTER-LIGAND FREE ENERGY PREDICTED BY IDOCK:   71.34 KCAL/MOL
REMARK 924 INTRA-LIGAND FREE ENERGY PREDICTED BY IDOCK:   27.42 KCAL/MOL
REMARK 927      BINDING AFFINITY PREDICTED BY RF-SCORE:    0.00 PKD
ROOT
HETATM    1  C   UNL     1      -8.342  15.070  69.666  1.00  0.00    -0.009 C  
HETATM    2  C   UNL     1      -8.209  15.386  71.164  1.00  0.00     3.236 C  
HETATM    3  C   UNL     1      -9.355  14.781  71.863  1.00  0.00     4.991 A  
HETATM    4  C   UNL     1     -10.128  15.105  72.953  1.00  0.00     4.771 A  
HETATM    5  N   UNL     1     -10.828  13.970  73.297  1.00  0.00     3.383 NA 
HETATM    6  C   UNL     1     -10.479  12.927  72.451  1.00  0.00    12.498 A  
HETATM    7  H   UNL     1     -11.503  13.906  74.059  1.00  0.00     0.000 HD 
HETATM    8  C   UNL     1     -10.662  11.555  72.514  1.00  0.00    11.789 A  
HETATM    9  C   UNL     1     -10.122  10.831  71.437  1.00  0.00     4.321 A  
HETATM   10  C   UNL     1      -9.611  11.454  70.267  1.00  0.00     2.590 A  
HETATM   11  C   UNL     1      -9.511  12.848  70.192  1.00  0.00     3.836 A  
HETATM   12  C   UNL     1      -9.818  13.522  71.402  1.00  0.00     8.416 A  
HETATM   13  C   UNL     1      -9.091  13.809  69.120  1.00  0.00     0.417 C  
HETATM   14  C   UNL     1      -9.426  13.921  67.784  1.00  0.00    -0.214 C  
HETATM   15  C   UNL     1      -9.136  15.339  67.183  1.00  0.00    -0.210 C  
HETATM   16  N   UNL     1      -7.217  15.212  68.752  1.00  0.00    -0.120 NA 
HETATM   17  C   UNL     1      -7.668  15.842  67.520  1.00  0.00    -0.161 C  
HETATM   18  C   UNL     1      -5.861  15.289  69.204  1.00  0.00    -0.099 C  
ENDROOT
BRANCH  15  19
HETATM   19  N   UNL     1      -9.599  15.764  65.865  1.00  0.00    -0.340 N  
HETATM   20  H   UNL     1     -10.554  15.628  65.534  1.00  0.00     0.000 HD 
BRANCH  19  21
HETATM   21  C   UNL     1      -8.596  16.376  65.101  1.00  0.00     2.669 C  
HETATM   22  O   UNL     1      -8.749  16.607  63.899  1.00  0.00     8.417 OA 
BRANCH  21  23
HETATM   23  N   UNL     1      -7.419  16.737  65.724  1.00  0.00     0.380 N  
BRANCH  23  24
HETATM   24  C   UNL     1      -6.268  17.364  65.090  1.00  0.00     1.356 C  
HETATM   25  C   UNL     1      -5.456  18.185  66.080  1.00  0.00    -0.210 C  
ENDBRANCH  23  24
BRANCH  23  26
HETATM   26  C   UNL     1      -7.352  16.546  67.186  1.00  0.00    -0.185 C  
HETATM   27  C   UNL     1      -6.018  16.001  67.679  1.00  0.00    -0.176 C  
ENDBRANCH  23  26
ENDBRANCH  21  23
ENDBRANCH  19  21
ENDBRANCH  15  19
TORSDOF 5
ENDMDL
