MODEL        1
REMARK 921   NORMALIZED FREE ENERGY PREDICTED BY IDOCK:   -7.41 KCAL/MOL
REMARK 922        TOTAL FREE ENERGY PREDICTED BY IDOCK:   -8.80 KCAL/MOL
REMARK 923 INTER-LIGAND FREE ENERGY PREDICTED BY IDOCK:   -8.27 KCAL/MOL
REMARK 924 INTRA-LIGAND FREE ENERGY PREDICTED BY IDOCK:   -0.53 KCAL/MOL
REMARK 927      BINDING AFFINITY PREDICTED BY RF-SCORE:    0.00 PKD
ROOT
HETATM    1  O   UNL     1     -13.833  15.210  73.095  1.00  0.00    -0.437 OA 
HETATM    2  C   UNL     1     -12.586  15.394  72.623  1.00  0.00    -0.387 C  
HETATM    3  O   UNL     1     -11.557  15.376  73.268  1.00  0.00    -0.395 OA 
HETATM    4  C   UNL     1     -12.604  15.622  71.107  1.00  0.00    -0.453 C  
HETATM    5  O   UNL     1     -13.711  15.672  70.582  1.00  0.00    -0.402 OA 
HETATM    6  N   UNL     1     -11.351  15.695  70.521  1.00  0.00    -0.333 N  
HETATM    7  H   UNL     1     -10.545  15.598  71.139  1.00  0.00     0.000 HD 
ENDROOT
BRANCH   6   8
HETATM    8  C   UNL     1     -11.083  15.890  69.141  1.00  0.00    -0.302 A  
HETATM    9  C   UNL     1     -10.735  17.156  68.657  1.00  0.00    -0.306 A  
HETATM   10  C   UNL     1     -10.516  17.365  67.298  1.00  0.00    -0.321 A  
HETATM   11  C   UNL     1     -10.188  18.670  66.822  1.00  0.00    -0.393 C  
HETATM   12  C   UNL     1     -10.628  16.306  66.400  1.00  0.00    -0.253 A  
HETATM   13  C   UNL     1     -10.928  15.012  66.841  1.00  0.00    -0.324 A  
HETATM   14  N   UNL     1      -9.920  19.729  66.433  1.00  0.00    -0.433 NA 
HETATM   15  C   UNL     1     -11.160  14.811  68.225  1.00  0.00    -0.274 A  
HETATM   16 CL   UNL     1     -11.542  13.220  68.807  1.00  0.00    -0.324 Cl 
BRANCH  13  17
HETATM   17  N   UNL     1     -11.039  13.942  65.912  1.00  0.00    -0.290 N  
HETATM   18  C   UNL     1     -12.184  13.580  65.221  1.00  0.00    -0.441 C  
HETATM   19  H   UNL     1     -10.199  13.391  65.738  1.00  0.00     0.000 HD 
HETATM   20  O   UNL     1     -13.275  14.140  65.184  1.00  0.00    -0.743 OA 
HETATM   21  C   UNL     1     -12.049  12.315  64.363  1.00  0.00    -0.399 C  
HETATM   22  O   UNL     1     -13.195  12.065  63.697  1.00  0.00    -0.737 OA 
HETATM   23  O   UNL     1     -11.029  11.657  64.321  1.00  0.00    -0.325 OA 
ENDBRANCH  13  17
ENDBRANCH   6   8
TORSDOF 2
ENDMDL
MODEL        2
REMARK 921   NORMALIZED FREE ENERGY PREDICTED BY IDOCK:   -7.39 KCAL/MOL
REMARK 922        TOTAL FREE ENERGY PREDICTED BY IDOCK:   -8.79 KCAL/MOL
REMARK 923 INTER-LIGAND FREE ENERGY PREDICTED BY IDOCK:   -8.30 KCAL/MOL
REMARK 924 INTRA-LIGAND FREE ENERGY PREDICTED BY IDOCK:   -0.49 KCAL/MOL
REMARK 927      BINDING AFFINITY PREDICTED BY RF-SCORE:    0.00 PKD
ROOT
HETATM    1  O   UNL     1     -12.975  12.083  63.455  1.00  0.00    -0.772 OA 
HETATM    2  C   UNL     1     -11.879  12.351  64.188  1.00  0.00    -0.413 C  
HETATM    3  O   UNL     1     -10.815  11.767  64.140  1.00  0.00    -0.307 OA 
HETATM    4  C   UNL     1     -12.124  13.543  65.121  1.00  0.00    -0.404 C  
HETATM    5  O   UNL     1     -13.257  14.010  65.114  1.00  0.00    -0.768 OA 
HETATM    6  N   UNL     1     -11.005  13.966  65.820  1.00  0.00    -0.282 N  
HETATM    7  H   UNL     1     -10.138  13.453  65.659  1.00  0.00     0.000 HD 
ENDROOT
BRANCH   6   8
HETATM    8  C   UNL     1     -10.952  15.046  66.739  1.00  0.00    -0.323 A  
HETATM    9  C   UNL     1     -10.606  16.331  66.306  1.00  0.00    -0.256 A  
HETATM   10  C   UNL     1     -10.508  17.386  67.210  1.00  0.00    -0.321 A  
HETATM   11  C   UNL     1     -10.126  18.683  66.751  1.00  0.00    -0.380 C  
HETATM   12  C   UNL     1     -10.770  17.176  68.562  1.00  0.00    -0.326 A  
HETATM   13  C   UNL     1     -11.165  15.920  69.036  1.00  0.00    -0.327 A  
HETATM   14  N   UNL     1      -9.817  19.737  66.381  1.00  0.00    -0.416 NA 
HETATM   15  C   UNL     1     -11.252  14.850  68.111  1.00  0.00    -0.299 A  
HETATM   16 CL   UNL     1     -11.733  13.276  68.664  1.00  0.00    -0.355 Cl 
BRANCH  13  17
HETATM   17  N   UNL     1     -11.429  15.722  70.418  1.00  0.00    -0.333 N  
HETATM   18  C   UNL     1     -12.680  15.589  70.997  1.00  0.00    -0.467 C  
HETATM   19  H   UNL     1     -10.623  15.674  71.041  1.00  0.00     0.000 HD 
HETATM   20  O   UNL     1     -13.778  15.514  70.456  1.00  0.00    -0.291 OA 
HETATM   21  C   UNL     1     -12.678  15.496  72.529  1.00  0.00    -0.407 C  
HETATM   22  O   UNL     1     -13.931  15.326  72.998  1.00  0.00    -0.403 OA 
HETATM   23  O   UNL     1     -11.661  15.572  73.189  1.00  0.00    -0.447 OA 
ENDBRANCH  13  17
ENDBRANCH   6   8
TORSDOF 2
ENDMDL
MODEL        3
REMARK 921   NORMALIZED FREE ENERGY PREDICTED BY IDOCK:   -7.33 KCAL/MOL
REMARK 922        TOTAL FREE ENERGY PREDICTED BY IDOCK:   -8.71 KCAL/MOL
REMARK 923 INTER-LIGAND FREE ENERGY PREDICTED BY IDOCK:   -8.20 KCAL/MOL
REMARK 924 INTRA-LIGAND FREE ENERGY PREDICTED BY IDOCK:   -0.52 KCAL/MOL
REMARK 927      BINDING AFFINITY PREDICTED BY RF-SCORE:    0.00 PKD
ROOT
HETATM    1  O   UNL     1     -12.948  12.303  63.331  1.00  0.00    -0.753 OA 
HETATM    2  C   UNL     1     -12.008  12.231  64.292  1.00  0.00    -0.407 C  
HETATM    3  O   UNL     1     -11.063  11.469  64.326  1.00  0.00    -0.342 OA 
HETATM    4  C   UNL     1     -12.260  13.279  65.383  1.00  0.00    -0.456 C  
HETATM    5  O   UNL     1     -13.279  13.951  65.260  1.00  0.00    -0.774 OA 
HETATM    6  N   UNL     1     -11.268  13.358  66.346  1.00  0.00    -0.299 N  
HETATM    7  H   UNL     1     -10.477  12.721  66.248  1.00  0.00     0.000 HD 
ENDROOT
BRANCH   6   8
HETATM    8  C   UNL     1     -11.248  14.243  67.455  1.00  0.00    -0.307 A  
HETATM    9  C   UNL     1     -11.997  13.961  68.603  1.00  0.00    -0.401 A  
HETATM   10  C   UNL     1     -12.018  14.847  69.677  1.00  0.00    -0.360 A  
HETATM   11  C   UNL     1     -12.811  14.552  70.827  1.00  0.00    -0.361 C  
HETATM   12  C   UNL     1     -11.277  16.026  69.627  1.00  0.00    -0.336 A  
HETATM   13  C   UNL     1     -10.476  16.330  68.520  1.00  0.00    -0.278 A  
HETATM   14  N   UNL     1     -13.453  14.315  71.763  1.00  0.00    -0.355 NA 
HETATM   15  C   UNL     1     -10.469  15.427  67.428  1.00  0.00    -0.277 A  
HETATM   16 CL   UNL     1      -9.491  15.776  66.036  1.00  0.00    -0.374 Cl 
BRANCH  13  17
HETATM   17  N   UNL     1      -9.726  17.537  68.484  1.00  0.00    -0.305 N  
HETATM   18  C   UNL     1     -10.097  18.706  67.841  1.00  0.00    -0.369 C  
HETATM   19  H   UNL     1      -8.834  17.543  68.978  1.00  0.00     0.000 HD 
HETATM   20  O   UNL     1     -11.150  18.976  67.273  1.00  0.00    -0.382 OA 
HETATM   21  C   UNL     1      -9.045  19.823  67.872  1.00  0.00    -0.327 C  
HETATM   22  O   UNL     1      -9.509  20.932  67.260  1.00  0.00    -0.405 OA 
HETATM   23  O   UNL     1      -7.955  19.682  68.387  1.00  0.00    -0.328 OA 
ENDBRANCH  13  17
ENDBRANCH   6   8
TORSDOF 2
ENDMDL
MODEL        4
REMARK 921   NORMALIZED FREE ENERGY PREDICTED BY IDOCK:   -7.28 KCAL/MOL
REMARK 922        TOTAL FREE ENERGY PREDICTED BY IDOCK:   -8.67 KCAL/MOL
REMARK 923 INTER-LIGAND FREE ENERGY PREDICTED BY IDOCK:   -8.24 KCAL/MOL
REMARK 924 INTRA-LIGAND FREE ENERGY PREDICTED BY IDOCK:   -0.43 KCAL/MOL
REMARK 927      BINDING AFFINITY PREDICTED BY RF-SCORE:    0.00 PKD
ROOT
HETATM    1  O   UNL     1      -9.627  20.898  67.418  1.00  0.00    -0.433 OA 
HETATM    2  C   UNL     1      -9.183  19.789  68.038  1.00  0.00    -0.341 C  
HETATM    3  O   UNL     1      -8.160  19.681  68.684  1.00  0.00    -0.342 OA 
HETATM    4  C   UNL     1     -10.166  18.627  67.850  1.00  0.00    -0.392 C  
HETATM    5  O   UNL     1     -11.135  18.851  67.132  1.00  0.00    -0.321 OA 
HETATM    6  N   UNL     1      -9.848  17.484  68.563  1.00  0.00    -0.312 N  
HETATM    7  H   UNL     1      -9.003  17.514  69.133  1.00  0.00     0.000 HD 
ENDROOT
BRANCH   6   8
HETATM    8  C   UNL     1     -10.589  16.273  68.575  1.00  0.00    -0.294 A  
HETATM    9  C   UNL     1     -11.320  15.899  69.708  1.00  0.00    -0.347 A  
HETATM   10  C   UNL     1     -12.012  14.691  69.743  1.00  0.00    -0.378 A  
HETATM   11  C   UNL     1     -12.730  14.316  70.919  1.00  0.00    -0.357 C  
HETATM   12  C   UNL     1     -11.996  13.842  68.639  1.00  0.00    -0.401 A  
HETATM   13  C   UNL     1     -11.318  14.194  67.466  1.00  0.00    -0.322 A  
HETATM   14  N   UNL     1     -13.314  14.009  71.873  1.00  0.00    -0.375 NA 
HETATM   15  C   UNL     1     -10.608  15.420  67.443  1.00  0.00    -0.289 A  
HETATM   16 CL   UNL     1      -9.749  15.885  66.007  1.00  0.00    -0.346 Cl 
BRANCH  13  17
HETATM   17  N   UNL     1     -11.311  13.316  66.348  1.00  0.00    -0.303 N  
HETATM   18  C   UNL     1     -12.274  13.257  65.355  1.00  0.00    -0.456 C  
HETATM   19  H   UNL     1     -10.524  12.672  66.269  1.00  0.00     0.000 HD 
HETATM   20  O   UNL     1     -13.247  13.983  65.176  1.00  0.00    -0.768 OA 
HETATM   21  C   UNL     1     -12.072  12.139  64.323  1.00  0.00    -0.375 C  
HETATM   22  O   UNL     1     -13.030  12.185  63.375  1.00  0.00    -0.776 OA 
HETATM   23  O   UNL     1     -11.159  11.341  64.392  1.00  0.00    -0.310 OA 
ENDBRANCH  13  17
ENDBRANCH   6   8
TORSDOF 2
ENDMDL
MODEL        5
REMARK 921   NORMALIZED FREE ENERGY PREDICTED BY IDOCK:   -7.28 KCAL/MOL
REMARK 922        TOTAL FREE ENERGY PREDICTED BY IDOCK:   -8.66 KCAL/MOL
REMARK 923 INTER-LIGAND FREE ENERGY PREDICTED BY IDOCK:   -8.13 KCAL/MOL
REMARK 924 INTRA-LIGAND FREE ENERGY PREDICTED BY IDOCK:   -0.52 KCAL/MOL
REMARK 927      BINDING AFFINITY PREDICTED BY RF-SCORE:    0.00 PKD
ROOT
HETATM    1  O   UNL     1     -12.918  12.093  63.134  1.00  0.00    -0.659 OA 
HETATM    2  C   UNL     1     -12.008  12.025  64.123  1.00  0.00    -0.369 C  
HETATM    3  O   UNL     1     -11.023  11.315  64.154  1.00  0.00    -0.372 OA 
HETATM    4  C   UNL     1     -12.354  13.003  65.252  1.00  0.00    -0.486 C  
HETATM    5  O   UNL     1     -13.404  13.624  65.126  1.00  0.00    -0.677 OA 
HETATM    6  N   UNL     1     -11.399  13.089  66.252  1.00  0.00    -0.305 N  
HETATM    7  H   UNL     1     -10.571  12.501  66.153  1.00  0.00     0.000 HD 
ENDROOT
BRANCH   6   8
HETATM    8  C   UNL     1     -11.465  13.918  67.402  1.00  0.00    -0.348 A  
HETATM    9  C   UNL     1     -11.976  13.424  68.607  1.00  0.00    -0.362 A  
HETATM   10  C   UNL     1     -12.086  14.245  69.726  1.00  0.00    -0.401 A  
HETATM   11  C   UNL     1     -12.636  13.727  70.938  1.00  0.00    -0.356 C  
HETATM   12  C   UNL     1     -11.672  15.573  69.663  1.00  0.00    -0.371 A  
HETATM   13  C   UNL     1     -11.111  16.101  68.495  1.00  0.00    -0.357 A  
HETATM   14  N   UNL     1     -13.081  13.308  71.923  1.00  0.00    -0.393 NA 
HETATM   15  C   UNL     1     -11.013  15.262  67.357  1.00  0.00    -0.321 A  
HETATM   16 CL   UNL     1     -10.328  15.885  65.889  1.00  0.00    -0.358 Cl 
BRANCH  13  17
HETATM   17  N   UNL     1     -10.693  17.459  68.446  1.00  0.00    -0.340 N  
HETATM   18  C   UNL     1      -9.390  17.914  68.559  1.00  0.00    -0.296 C  
HETATM   19  H   UNL     1     -11.420  18.163  68.317  1.00  0.00     0.000 HD 
HETATM   20  O   UNL     1      -8.348  17.269  68.620  1.00  0.00    -0.256 OA 
HETATM   21  C   UNL     1      -9.237  19.441  68.582  1.00  0.00    -0.378 C  
HETATM   22  O   UNL     1      -7.936  19.789  68.651  1.00  0.00    -0.318 OA 
HETATM   23  O   UNL     1     -10.188  20.195  68.544  1.00  0.00    -0.413 OA 
ENDBRANCH  13  17
ENDBRANCH   6   8
TORSDOF 2
ENDMDL
MODEL        6
REMARK 921   NORMALIZED FREE ENERGY PREDICTED BY IDOCK:   -7.02 KCAL/MOL
REMARK 922        TOTAL FREE ENERGY PREDICTED BY IDOCK:   -8.37 KCAL/MOL
REMARK 923 INTER-LIGAND FREE ENERGY PREDICTED BY IDOCK:   -7.89 KCAL/MOL
REMARK 924 INTRA-LIGAND FREE ENERGY PREDICTED BY IDOCK:   -0.48 KCAL/MOL
REMARK 927      BINDING AFFINITY PREDICTED BY RF-SCORE:    0.00 PKD
ROOT
HETATM    1  O   UNL     1     -10.540   7.287  72.126  1.00  0.00    -0.204 OA 
HETATM    2  C   UNL     1     -11.568   7.885  71.495  1.00  0.00    -0.270 C  
HETATM    3  O   UNL     1     -12.678   7.425  71.322  1.00  0.00    -0.349 OA 
HETATM    4  C   UNL     1     -11.172   9.286  71.012  1.00  0.00    -0.321 C  
HETATM    5  O   UNL     1     -10.005   9.612  71.201  1.00  0.00    -0.221 OA 
HETATM    6  N   UNL     1     -12.210  10.020  70.464  1.00  0.00    -0.414 N  
HETATM    7  H   UNL     1     -13.125   9.570  70.426  1.00  0.00     0.000 HD 
ENDROOT
BRANCH   6   8
HETATM    8  C   UNL     1     -12.121  11.341  69.951  1.00  0.00    -0.341 A  
HETATM    9  C   UNL     1     -12.402  12.441  70.768  1.00  0.00    -0.377 A  
HETATM   10  C   UNL     1     -12.361  13.736  70.259  1.00  0.00    -0.407 A  
HETATM   11  C   UNL     1     -12.678  14.844  71.103  1.00  0.00    -0.342 C  
HETATM   12  C   UNL     1     -12.022  13.955  68.925  1.00  0.00    -0.393 A  
HETATM   13  C   UNL     1     -11.687  12.889  68.081  1.00  0.00    -0.352 A  
HETATM   14  N   UNL     1     -12.934  15.744  71.786  1.00  0.00    -0.459 NA 
HETATM   15  C   UNL     1     -11.742  11.574  68.605  1.00  0.00    -0.326 A  
HETATM   16 CL   UNL     1     -11.339  10.228  67.584  1.00  0.00    -0.241 Cl 
BRANCH  13  17
HETATM   17  N   UNL     1     -11.344  13.128  66.722  1.00  0.00    -0.303 N  
HETATM   18  C   UNL     1     -12.219  13.503  65.716  1.00  0.00    -0.461 C  
HETATM   19  H   UNL     1     -10.364  13.013  66.465  1.00  0.00     0.000 HD 
HETATM   20  O   UNL     1     -13.407  13.796  65.794  1.00  0.00    -0.471 OA 
HETATM   21  C   UNL     1     -11.597  13.587  64.316  1.00  0.00    -0.397 C  
HETATM   22  O   UNL     1     -12.509  13.998  63.412  1.00  0.00    -0.826 OA 
HETATM   23  O   UNL     1     -10.435  13.308  64.097  1.00  0.00    -0.414 OA 
ENDBRANCH  13  17
ENDBRANCH   6   8
TORSDOF 2
ENDMDL
MODEL        7
REMARK 921   NORMALIZED FREE ENERGY PREDICTED BY IDOCK:   -6.99 KCAL/MOL
REMARK 922        TOTAL FREE ENERGY PREDICTED BY IDOCK:   -8.33 KCAL/MOL
REMARK 923 INTER-LIGAND FREE ENERGY PREDICTED BY IDOCK:   -7.80 KCAL/MOL
REMARK 924 INTRA-LIGAND FREE ENERGY PREDICTED BY IDOCK:   -0.53 KCAL/MOL
REMARK 927      BINDING AFFINITY PREDICTED BY RF-SCORE:    0.00 PKD
ROOT
HETATM    1  O   UNL     1      -6.230  19.109  65.892  1.00  0.00    -0.180 OA 
HETATM    2  C   UNL     1      -6.407  17.792  66.105  1.00  0.00    -0.243 C  
HETATM    3  O   UNL     1      -5.536  16.963  66.273  1.00  0.00    -0.349 OA 
HETATM    4  C   UNL     1      -7.898  17.439  66.134  1.00  0.00    -0.258 C  
HETATM    5  O   UNL     1      -8.676  18.358  65.896  1.00  0.00    -0.497 OA 
HETATM    6  N   UNL     1      -8.172  16.125  66.475  1.00  0.00    -0.292 N  
HETATM    7  H   UNL     1      -7.373  15.521  66.666  1.00  0.00     0.000 HD 
ENDROOT
BRANCH   6   8
HETATM    8  C   UNL     1      -9.461  15.540  66.583  1.00  0.00    -0.259 A  
HETATM    9  C   UNL     1     -10.027  14.863  65.498  1.00  0.00    -0.392 A  
HETATM   10  C   UNL     1     -11.309  14.326  65.581  1.00  0.00    -0.317 A  
HETATM   11  C   UNL     1     -11.879  13.663  64.453  1.00  0.00    -0.424 C  
HETATM   12  C   UNL     1     -12.043  14.446  66.760  1.00  0.00    -0.393 A  
HETATM   13  C   UNL     1     -11.501  15.073  67.888  1.00  0.00    -0.340 A  
HETATM   14  N   UNL     1     -12.343  13.123  63.538  1.00  0.00    -0.744 NA 
HETATM   15  C   UNL     1     -10.200  15.626  67.790  1.00  0.00    -0.252 A  
HETATM   16 CL   UNL     1      -9.500  16.417  69.167  1.00  0.00    -0.257 Cl 
BRANCH  13  17
HETATM   17  N   UNL     1     -12.263  15.188  69.083  1.00  0.00    -0.574 N  
HETATM   18  C   UNL     1     -12.407  14.208  70.052  1.00  0.00    -0.344 C  
HETATM   19  H   UNL     1     -12.746  16.071  69.241  1.00  0.00     0.000 HD 
HETATM   20  O   UNL     1     -11.854  13.117  70.137  1.00  0.00    -0.313 OA 
HETATM   21  C   UNL     1     -13.377  14.560  71.188  1.00  0.00    -0.354 C  
HETATM   22  O   UNL     1     -13.421  13.570  72.102  1.00  0.00    -0.449 OA 
HETATM   23  O   UNL     1     -14.001  15.602  71.217  1.00  0.00    -0.570 OA 
ENDBRANCH  13  17
ENDBRANCH   6   8
TORSDOF 2
ENDMDL
MODEL        8
REMARK 921   NORMALIZED FREE ENERGY PREDICTED BY IDOCK:   -6.98 KCAL/MOL
REMARK 922        TOTAL FREE ENERGY PREDICTED BY IDOCK:   -8.33 KCAL/MOL
REMARK 923 INTER-LIGAND FREE ENERGY PREDICTED BY IDOCK:   -7.78 KCAL/MOL
REMARK 924 INTRA-LIGAND FREE ENERGY PREDICTED BY IDOCK:   -0.54 KCAL/MOL
REMARK 927      BINDING AFFINITY PREDICTED BY RF-SCORE:    0.00 PKD
ROOT
HETATM    1  O   UNL     1     -13.301  13.571  72.254  1.00  0.00    -0.460 OA 
HETATM    2  C   UNL     1     -13.398  14.477  71.263  1.00  0.00    -0.365 C  
HETATM    3  O   UNL     1     -14.093  15.473  71.257  1.00  0.00    -0.548 OA 
HETATM    4  C   UNL     1     -12.476  14.108  70.094  1.00  0.00    -0.331 C  
HETATM    5  O   UNL     1     -11.867  13.049  70.200  1.00  0.00    -0.313 OA 
HETATM    6  N   UNL     1     -12.419  15.056  69.086  1.00  0.00    -0.588 N  
HETATM    7  H   UNL     1     -12.988  15.894  69.205  1.00  0.00     0.000 HD 
ENDROOT
BRANCH   6   8
HETATM    8  C   UNL     1     -11.642  14.969  67.900  1.00  0.00    -0.333 A  
HETATM    9  C   UNL     1     -12.144  14.321  66.767  1.00  0.00    -0.446 A  
HETATM   10  C   UNL     1     -11.370  14.192  65.617  1.00  0.00    -0.319 A  
HETATM   11  C   UNL     1     -11.892  13.502  64.481  1.00  0.00    -0.405 C  
HETATM   12  C   UNL     1     -10.083  14.725  65.575  1.00  0.00    -0.409 A  
HETATM   13  C   UNL     1      -9.555  15.424  66.667  1.00  0.00    -0.256 A  
HETATM   14  N   UNL     1     -12.313  12.943  63.557  1.00  0.00    -0.704 NA 
HETATM   15  C   UNL     1     -10.346  15.540  67.837  1.00  0.00    -0.250 A  
HETATM   16 CL   UNL     1      -9.719  16.394  69.213  1.00  0.00    -0.248 Cl 
BRANCH  13  17
HETATM   17  N   UNL     1      -8.240  15.961  66.610  1.00  0.00    -0.271 N  
HETATM   18  C   UNL     1      -7.903  17.246  66.216  1.00  0.00    -0.309 C  
HETATM   19  H   UNL     1      -7.475  15.345  66.883  1.00  0.00     0.000 HD 
HETATM   20  O   UNL     1      -8.639  18.188  65.941  1.00  0.00    -0.507 OA 
HETATM   21  C   UNL     1      -6.396  17.526  66.143  1.00  0.00    -0.220 C  
HETATM   22  O   UNL     1      -6.165  18.808  65.794  1.00  0.00    -0.190 OA 
HETATM   23  O   UNL     1      -5.560  16.676  66.375  1.00  0.00    -0.313 OA 
ENDBRANCH  13  17
ENDBRANCH   6   8
TORSDOF 2
ENDMDL
MODEL        9
REMARK 921   NORMALIZED FREE ENERGY PREDICTED BY IDOCK:   -6.95 KCAL/MOL
REMARK 922        TOTAL FREE ENERGY PREDICTED BY IDOCK:   -8.29 KCAL/MOL
REMARK 923 INTER-LIGAND FREE ENERGY PREDICTED BY IDOCK:   -7.96 KCAL/MOL
REMARK 924 INTRA-LIGAND FREE ENERGY PREDICTED BY IDOCK:   -0.34 KCAL/MOL
REMARK 927      BINDING AFFINITY PREDICTED BY RF-SCORE:    0.00 PKD
ROOT
HETATM    1  O   UNL     1     -13.899  16.004  73.189  1.00  0.00    -0.576 OA 
HETATM    2  C   UNL     1     -12.813  15.809  72.419  1.00  0.00    -0.457 C  
HETATM    3  O   UNL     1     -11.813  16.498  72.388  1.00  0.00    -0.532 OA 
HETATM    4  C   UNL     1     -12.972  14.550  71.558  1.00  0.00    -0.336 C  
HETATM    5  O   UNL     1     -14.051  13.971  71.642  1.00  0.00    -0.362 OA 
HETATM    6  N   UNL     1     -11.846  14.205  70.829  1.00  0.00    -0.466 N  
HETATM    7  H   UNL     1     -11.031  14.810  70.924  1.00  0.00     0.000 HD 
ENDROOT
BRANCH   6   8
HETATM    8  C   UNL     1     -11.721  13.087  69.963  1.00  0.00    -0.215 A  
HETATM    9  C   UNL     1     -11.815  11.785  70.465  1.00  0.00    -0.288 A  
HETATM   10  C   UNL     1     -11.648  10.684  69.630  1.00  0.00    -0.368 A  
HETATM   11  C   UNL     1     -11.720   9.363  70.168  1.00  0.00    -0.015 C  
HETATM   12  C   UNL     1     -11.398  10.867  68.271  1.00  0.00    -0.374 A  
HETATM   13  C   UNL     1     -11.342  12.149  67.713  1.00  0.00    -0.307 A  
HETATM   14  N   UNL     1     -11.779   8.290  70.603  1.00  0.00    -0.209 NA 
HETATM   15  C   UNL     1     -11.503  13.264  68.573  1.00  0.00    -0.312 A  
HETATM   16 CL   UNL     1     -11.433  14.870  67.916  1.00  0.00    -0.343 Cl 
BRANCH  13  17
HETATM   17  N   UNL     1     -11.086  12.320  66.325  1.00  0.00    -0.287 N  
HETATM   18  C   UNL     1     -12.001  12.746  65.376  1.00  0.00    -0.436 C  
HETATM   19  H   UNL     1     -10.144  12.110  65.999  1.00  0.00     0.000 HD 
HETATM   20  O   UNL     1     -13.149  13.148  65.534  1.00  0.00    -0.522 OA 
HETATM   21  C   UNL     1     -11.485  12.735  63.931  1.00  0.00    -0.444 C  
HETATM   22  O   UNL     1     -12.426  13.204  63.085  1.00  0.00    -0.686 OA 
HETATM   23  O   UNL     1     -10.374  12.346  63.634  1.00  0.00    -0.424 OA 
ENDBRANCH  13  17
ENDBRANCH   6   8
TORSDOF 2
ENDMDL
MODEL       10
REMARK 921   NORMALIZED FREE ENERGY PREDICTED BY IDOCK:   -6.82 KCAL/MOL
REMARK 922        TOTAL FREE ENERGY PREDICTED BY IDOCK:   -8.15 KCAL/MOL
REMARK 923 INTER-LIGAND FREE ENERGY PREDICTED BY IDOCK:   -7.70 KCAL/MOL
REMARK 924 INTRA-LIGAND FREE ENERGY PREDICTED BY IDOCK:   -0.45 KCAL/MOL
REMARK 927      BINDING AFFINITY PREDICTED BY RF-SCORE:    0.00 PKD
ROOT
HETATM    1  O   UNL     1     -12.268  16.310  63.794  1.00  0.00    -0.923 OA 
HETATM    2  C   UNL     1     -11.280  15.858  64.589  1.00  0.00    -0.351 C  
HETATM    3  O   UNL     1     -10.350  16.503  65.027  1.00  0.00    -0.622 OA 
HETATM    4  C   UNL     1     -11.478  14.372  64.913  1.00  0.00    -0.386 C  
HETATM    5  O   UNL     1     -12.426  13.821  64.365  1.00  0.00    -0.601 OA 
HETATM    6  N   UNL     1     -10.575  13.858  65.829  1.00  0.00    -0.290 N  
HETATM    7  H   UNL     1      -9.871  14.500  66.194  1.00  0.00     0.000 HD 
ENDROOT
BRANCH   6   8
HETATM    8  C   UNL     1     -10.539  12.522  66.309  1.00  0.00    -0.248 A  
HETATM    9  C   UNL     1      -9.815  11.541  65.623  1.00  0.00    -0.269 A  
HETATM   10  C   UNL     1      -9.813  10.220  66.061  1.00  0.00    -0.292 A  
HETATM   11  C   UNL     1      -9.089   9.228  65.331  1.00  0.00    -0.222 C  
HETATM   12  C   UNL     1     -10.523   9.859  67.204  1.00  0.00    -0.305 A  
HETATM   13  C   UNL     1     -11.224  10.814  67.950  1.00  0.00    -0.318 A  
HETATM   14  N   UNL     1      -8.502   8.422  64.740  1.00  0.00    -0.141 NA 
HETATM   15  C   UNL     1     -11.230  12.155  67.491  1.00  0.00    -0.297 A  
HETATM   16 CL   UNL     1     -12.094  13.364  68.388  1.00  0.00    -0.342 Cl 
BRANCH  13  17
HETATM   17  N   UNL     1     -11.944  10.431  69.114  1.00  0.00    -0.534 N  
HETATM   18  C   UNL     1     -11.404   9.856  70.253  1.00  0.00    -0.291 C  
HETATM   19  H   UNL     1     -12.951  10.594  69.111  1.00  0.00     0.000 HD 
HETATM   20  O   UNL     1     -10.227   9.654  70.534  1.00  0.00    -0.264 OA 
HETATM   21  C   UNL     1     -12.429   9.442  71.317  1.00  0.00    -0.335 C  
HETATM   22  O   UNL     1     -11.811   8.933  72.402  1.00  0.00    -0.334 OA 
HETATM   23  O   UNL     1     -13.626   9.571  71.159  1.00  0.00    -0.337 OA 
ENDBRANCH  13  17
ENDBRANCH   6   8
TORSDOF 2
ENDMDL
MODEL       11
REMARK 921   NORMALIZED FREE ENERGY PREDICTED BY IDOCK:   -6.82 KCAL/MOL
REMARK 922        TOTAL FREE ENERGY PREDICTED BY IDOCK:   -8.15 KCAL/MOL
REMARK 923 INTER-LIGAND FREE ENERGY PREDICTED BY IDOCK:   -7.64 KCAL/MOL
REMARK 924 INTRA-LIGAND FREE ENERGY PREDICTED BY IDOCK:   -0.51 KCAL/MOL
REMARK 927      BINDING AFFINITY PREDICTED BY RF-SCORE:    0.00 PKD
ROOT
HETATM    1  O   UNL     1      -9.307   6.747  70.187  1.00  0.00    -0.158 OA 
HETATM    2  C   UNL     1     -10.433   7.305  69.704  1.00  0.00    -0.231 C  
HETATM    3  O   UNL     1     -11.397   6.719  69.256  1.00  0.00    -0.237 OA 
HETATM    4  C   UNL     1     -10.371   8.834  69.804  1.00  0.00    -0.211 C  
HETATM    5  O   UNL     1      -9.320   9.306  70.225  1.00  0.00    -0.201 OA 
HETATM    6  N   UNL     1     -11.542   9.482  69.446  1.00  0.00    -0.425 N  
HETATM    7  H   UNL     1     -12.322   8.896  69.149  1.00  0.00     0.000 HD 
ENDROOT
BRANCH   6   8
HETATM    8  C   UNL     1     -11.757  10.885  69.456  1.00  0.00    -0.328 A  
HETATM    9  C   UNL     1     -12.258  11.520  70.597  1.00  0.00    -0.473 A  
HETATM   10  C   UNL     1     -12.515  12.888  70.599  1.00  0.00    -0.333 A  
HETATM   11  C   UNL     1     -13.051  13.511  71.766  1.00  0.00    -0.387 C  
HETATM   12  C   UNL     1     -12.261  13.649  69.460  1.00  0.00    -0.316 A  
HETATM   13  C   UNL     1     -11.717  13.068  68.309  1.00  0.00    -0.353 A  
HETATM   14  N   UNL     1     -13.485  14.019  72.713  1.00  0.00    -0.663 NA 
HETATM   15  C   UNL     1     -11.468  11.673  68.313  1.00  0.00    -0.303 A  
HETATM   16 CL   UNL     1     -10.800  10.918  66.900  1.00  0.00    -0.319 Cl 
BRANCH  13  17
HETATM   17  N   UNL     1     -11.464  13.858  67.154  1.00  0.00    -0.329 N  
HETATM   18  C   UNL     1     -12.260  13.924  66.023  1.00  0.00    -0.462 C  
HETATM   19  H   UNL     1     -10.619  14.429  67.160  1.00  0.00     0.000 HD 
HETATM   20  O   UNL     1     -13.358  13.416  65.819  1.00  0.00    -0.276 OA 
HETATM   21  C   UNL     1     -11.691  14.775  64.880  1.00  0.00    -0.390 C  
HETATM   22  O   UNL     1     -12.551  14.814  63.841  1.00  0.00    -0.834 OA 
HETATM   23  O   UNL     1     -10.608  15.319  64.944  1.00  0.00    -0.407 OA 
ENDBRANCH  13  17
ENDBRANCH   6   8
TORSDOF 2
ENDMDL
MODEL       12
REMARK 921   NORMALIZED FREE ENERGY PREDICTED BY IDOCK:   -6.82 KCAL/MOL
REMARK 922        TOTAL FREE ENERGY PREDICTED BY IDOCK:   -8.15 KCAL/MOL
REMARK 923 INTER-LIGAND FREE ENERGY PREDICTED BY IDOCK:   -7.80 KCAL/MOL
REMARK 924 INTRA-LIGAND FREE ENERGY PREDICTED BY IDOCK:   -0.35 KCAL/MOL
REMARK 927      BINDING AFFINITY PREDICTED BY RF-SCORE:    0.00 PKD
ROOT
HETATM    1  O   UNL     1     -12.432  13.376  62.958  1.00  0.00    -0.667 OA 
HETATM    2  C   UNL     1     -11.475  12.960  63.808  1.00  0.00    -0.459 C  
HETATM    3  O   UNL     1     -10.298  12.804  63.554  1.00  0.00    -0.347 OA 
HETATM    4  C   UNL     1     -12.056  12.712  65.205  1.00  0.00    -0.467 C  
HETATM    5  O   UNL     1     -13.269  12.854  65.319  1.00  0.00    -0.609 OA 
HETATM    6  N   UNL     1     -11.115  12.403  66.173  1.00  0.00    -0.289 N  
HETATM    7  H   UNL     1     -10.141  12.364  65.875  1.00  0.00     0.000 HD 
ENDROOT
BRANCH   6   8
HETATM    8  C   UNL     1     -11.380  12.137  67.542  1.00  0.00    -0.326 A  
HETATM    9  C   UNL     1     -11.180  10.856  68.069  1.00  0.00    -0.378 A  
HETATM   10  C   UNL     1     -11.481  10.576  69.399  1.00  0.00    -0.329 A  
HETATM   11  C   UNL     1     -11.295   9.256  69.909  1.00  0.00    -0.061 C  
HETATM   12  C   UNL     1     -11.975  11.579  70.231  1.00  0.00    -0.455 A  
HETATM   13  C   UNL     1     -12.148  12.886  69.763  1.00  0.00    -0.245 A  
HETATM   14  N   UNL     1     -11.144   8.184  70.325  1.00  0.00    -0.248 NA 
HETATM   15  C   UNL     1     -11.849  13.159  68.405  1.00  0.00    -0.351 A  
HETATM   16 CL   UNL     1     -12.058  14.769  67.789  1.00  0.00    -0.246 Cl 
BRANCH  13  17
HETATM   17  N   UNL     1     -12.653  13.898  70.624  1.00  0.00    -0.343 N  
HETATM   18  C   UNL     1     -11.901  14.858  71.280  1.00  0.00    -0.339 C  
HETATM   19  H   UNL     1     -13.662  13.919  70.772  1.00  0.00     0.000 HD 
HETATM   20  O   UNL     1     -10.701  15.098  71.187  1.00  0.00    -0.162 OA 
HETATM   21  C   UNL     1     -12.694  15.760  72.236  1.00  0.00    -0.446 C  
HETATM   22  O   UNL     1     -11.889  16.687  72.795  1.00  0.00    -0.519 OA 
HETATM   23  O   UNL     1     -13.884  15.620  72.433  1.00  0.00    -0.515 OA 
ENDBRANCH  13  17
ENDBRANCH   6   8
TORSDOF 2
ENDMDL
MODEL       13
REMARK 921   NORMALIZED FREE ENERGY PREDICTED BY IDOCK:   -6.80 KCAL/MOL
REMARK 922        TOTAL FREE ENERGY PREDICTED BY IDOCK:   -8.13 KCAL/MOL
REMARK 923 INTER-LIGAND FREE ENERGY PREDICTED BY IDOCK:   -7.65 KCAL/MOL
REMARK 924 INTRA-LIGAND FREE ENERGY PREDICTED BY IDOCK:   -0.48 KCAL/MOL
REMARK 927      BINDING AFFINITY PREDICTED BY RF-SCORE:    0.00 PKD
ROOT
HETATM    1  O   UNL     1     -12.391  16.006  63.710  1.00  0.00    -0.858 OA 
HETATM    2  C   UNL     1     -11.519  15.715  64.694  1.00  0.00    -0.303 C  
HETATM    3  O   UNL     1     -10.458  16.266  64.908  1.00  0.00    -0.624 OA 
HETATM    4  C   UNL     1     -12.046  14.571  65.568  1.00  0.00    -0.299 C  
HETATM    5  O   UNL     1     -13.105  14.064  65.214  1.00  0.00    -0.782 OA 
HETATM    6  N   UNL     1     -11.268  14.293  66.681  1.00  0.00    -0.324 N  
HETATM    7  H   UNL     1     -10.430  14.859  66.812  1.00  0.00     0.000 HD 
ENDROOT
BRANCH   6   8
HETATM    8  C   UNL     1     -11.530  13.294  67.655  1.00  0.00    -0.321 A  
HETATM    9  C   UNL     1     -12.027  13.644  68.915  1.00  0.00    -0.392 A  
HETATM   10  C   UNL     1     -12.243  12.675  69.892  1.00  0.00    -0.238 A  
HETATM   11  C   UNL     1     -12.724  13.058  71.180  1.00  0.00    -0.283 C  
HETATM   12  C   UNL     1     -11.980  11.335  69.618  1.00  0.00    -0.423 A  
HETATM   13  C   UNL     1     -11.526  10.930  68.357  1.00  0.00    -0.304 A  
HETATM   14  N   UNL     1     -13.116  13.365  72.227  1.00  0.00    -0.395 NA 
HETATM   15  C   UNL     1     -11.299  11.924  67.373  1.00  0.00    -0.324 A  
HETATM   16 CL   UNL     1     -10.731  11.459  65.800  1.00  0.00    -0.321 Cl 
BRANCH  13  17
HETATM   17  N   UNL     1     -11.262   9.558  68.094  1.00  0.00    -0.509 N  
HETATM   18  C   UNL     1     -10.061   8.904  68.316  1.00  0.00    -0.187 C  
HETATM   19  H   UNL     1     -12.026   9.005  67.706  1.00  0.00     0.000 HD 
HETATM   20  O   UNL     1      -9.042   9.320  68.857  1.00  0.00    -0.137 OA 
HETATM   21  C   UNL     1     -10.020   7.447  67.838  1.00  0.00    -0.165 C  
HETATM   22  O   UNL     1      -8.832   6.881  68.132  1.00  0.00    -0.126 OA 
HETATM   23  O   UNL     1     -10.955   6.916  67.272  1.00  0.00    -0.335 OA 
ENDBRANCH  13  17
ENDBRANCH   6   8
TORSDOF 2
ENDMDL
MODEL       14
REMARK 921   NORMALIZED FREE ENERGY PREDICTED BY IDOCK:   -6.78 KCAL/MOL
REMARK 922        TOTAL FREE ENERGY PREDICTED BY IDOCK:   -8.11 KCAL/MOL
REMARK 923 INTER-LIGAND FREE ENERGY PREDICTED BY IDOCK:   -7.91 KCAL/MOL
REMARK 924 INTRA-LIGAND FREE ENERGY PREDICTED BY IDOCK:   -0.20 KCAL/MOL
REMARK 927      BINDING AFFINITY PREDICTED BY RF-SCORE:    0.00 PKD
ROOT
HETATM    1  O   UNL     1     -12.465  13.829  62.975  1.00  0.00    -0.712 OA 
HETATM    2  C   UNL     1     -11.705  13.082  63.797  1.00  0.00    -0.485 C  
HETATM    3  O   UNL     1     -10.754  12.397  63.481  1.00  0.00    -0.442 OA 
HETATM    4  C   UNL     1     -12.181  13.212  65.249  1.00  0.00    -0.455 C  
HETATM    5  O   UNL     1     -13.186  13.892  65.429  1.00  0.00    -0.750 OA 
HETATM    6  N   UNL     1     -11.375  12.576  66.178  1.00  0.00    -0.324 N  
HETATM    7  H   UNL     1     -10.557  12.083  65.820  1.00  0.00     0.000 HD 
ENDROOT
BRANCH   6   8
HETATM    8  C   UNL     1     -11.581  12.546  67.583  1.00  0.00    -0.355 A  
HETATM    9  C   UNL     1     -12.018  13.689  68.261  1.00  0.00    -0.385 A  
HETATM   10  C   UNL     1     -12.178  13.680  69.644  1.00  0.00    -0.326 A  
HETATM   11  C   UNL     1     -12.599  14.866  70.320  1.00  0.00    -0.313 C  
HETATM   12  C   UNL     1     -11.918  12.521  70.372  1.00  0.00    -0.335 A  
HETATM   13  C   UNL     1     -11.524  11.340  69.733  1.00  0.00    -0.310 A  
HETATM   14  N   UNL     1     -12.941  15.827  70.870  1.00  0.00    -0.495 NA 
HETATM   15  C   UNL     1     -11.353  11.361  68.326  1.00  0.00    -0.286 A  
HETATM   16 CL   UNL     1     -10.859   9.915  67.502  1.00  0.00    -0.338 Cl 
BRANCH  13  17
HETATM   17  N   UNL     1     -11.261  10.165  70.490  1.00  0.00    -0.317 N  
HETATM   18  C   UNL     1     -12.207   9.386  71.136  1.00  0.00    -0.323 C  
HETATM   19  H   UNL     1     -10.288   9.870  70.564  1.00  0.00     0.000 HD 
HETATM   20  O   UNL     1     -13.430   9.476  71.113  1.00  0.00    -0.341 OA 
HETATM   21  C   UNL     1     -11.633   8.234  71.972  1.00  0.00    -0.340 C  
HETATM   22  O   UNL     1     -12.625   7.508  72.527  1.00  0.00    -0.048 OA 
HETATM   23  O   UNL     1     -10.440   8.042  72.092  1.00  0.00    -0.227 OA 
ENDBRANCH  13  17
ENDBRANCH   6   8
TORSDOF 2
ENDMDL
MODEL       15
REMARK 921   NORMALIZED FREE ENERGY PREDICTED BY IDOCK:   -6.78 KCAL/MOL
REMARK 922        TOTAL FREE ENERGY PREDICTED BY IDOCK:   -8.10 KCAL/MOL
REMARK 923 INTER-LIGAND FREE ENERGY PREDICTED BY IDOCK:   -7.57 KCAL/MOL
REMARK 924 INTRA-LIGAND FREE ENERGY PREDICTED BY IDOCK:   -0.53 KCAL/MOL
REMARK 927      BINDING AFFINITY PREDICTED BY RF-SCORE:    0.00 PKD
ROOT
HETATM    1  O   UNL     1     -12.517  15.142  63.845  1.00  0.00    -0.768 OA 
HETATM    2  C   UNL     1     -11.604  14.926  64.810  1.00  0.00    -0.410 C  
HETATM    3  O   UNL     1     -10.456  15.323  64.822  1.00  0.00    -0.357 OA 
HETATM    4  C   UNL     1     -12.204  14.103  65.956  1.00  0.00    -0.443 C  
HETATM    5  O   UNL     1     -13.357  13.718  65.798  1.00  0.00    -0.471 OA 
HETATM    6  N   UNL     1     -11.368  13.944  67.049  1.00  0.00    -0.313 N  
HETATM    7  H   UNL     1     -10.445  14.375  66.992  1.00  0.00     0.000 HD 
ENDROOT
BRANCH   6   8
HETATM    8  C   UNL     1     -11.676  13.238  68.241  1.00  0.00    -0.353 A  
HETATM    9  C   UNL     1     -12.143  13.919  69.370  1.00  0.00    -0.384 A  
HETATM   10  C   UNL     1     -12.403  13.239  70.557  1.00  0.00    -0.389 A  
HETATM   11  C   UNL     1     -12.853  13.958  71.706  1.00  0.00    -0.335 C  
HETATM   12  C   UNL     1     -12.216  11.860  70.630  1.00  0.00    -0.424 A  
HETATM   13  C   UNL     1     -11.796  11.128  69.514  1.00  0.00    -0.353 A  
HETATM   14  N   UNL     1     -13.218  14.540  72.640  1.00  0.00    -0.447 NA 
HETATM   15  C   UNL     1     -11.522  11.830  68.313  1.00  0.00    -0.307 A  
HETATM   16 CL   UNL     1     -10.993  10.954  66.911  1.00  0.00    -0.312 Cl 
BRANCH  13  17
HETATM   17  N   UNL     1     -11.609   9.722  69.604  1.00  0.00    -0.448 N  
HETATM   18  C   UNL     1     -10.459   9.080  70.034  1.00  0.00    -0.214 C  
HETATM   19  H   UNL     1     -12.393   9.132  69.328  1.00  0.00     0.000 HD 
HETATM   20  O   UNL     1      -9.434   9.562  70.505  1.00  0.00    -0.252 OA 
HETATM   21  C   UNL     1     -10.493   7.550  69.927  1.00  0.00    -0.229 C  
HETATM   22  O   UNL     1      -9.353   7.012  70.405  1.00  0.00    -0.159 OA 
HETATM   23  O   UNL     1     -11.441   6.946  69.465  1.00  0.00    -0.205 OA 
ENDBRANCH  13  17
ENDBRANCH   6   8
TORSDOF 2
ENDMDL
MODEL       16
REMARK 921   NORMALIZED FREE ENERGY PREDICTED BY IDOCK:   -6.77 KCAL/MOL
REMARK 922        TOTAL FREE ENERGY PREDICTED BY IDOCK:   -8.09 KCAL/MOL
REMARK 923 INTER-LIGAND FREE ENERGY PREDICTED BY IDOCK:   -7.68 KCAL/MOL
REMARK 924 INTRA-LIGAND FREE ENERGY PREDICTED BY IDOCK:   -0.41 KCAL/MOL
REMARK 927      BINDING AFFINITY PREDICTED BY RF-SCORE:    0.00 PKD
ROOT
HETATM    1  O   UNL     1     -11.547   8.910  72.422  1.00  0.00    -0.324 OA 
HETATM    2  C   UNL     1     -12.220   9.377  71.354  1.00  0.00    -0.356 C  
HETATM    3  O   UNL     1     -13.422   9.526  71.264  1.00  0.00    -0.370 OA 
HETATM    4  C   UNL     1     -11.257   9.737  70.217  1.00  0.00    -0.288 C  
HETATM    5  O   UNL     1     -10.072   9.489  70.414  1.00  0.00    -0.235 OA 
HETATM    6  N   UNL     1     -11.856  10.344  69.126  1.00  0.00    -0.518 N  
HETATM    7  H   UNL     1     -12.865  10.490  69.174  1.00  0.00     0.000 HD 
ENDROOT
BRANCH   6   8
HETATM    8  C   UNL     1     -11.198  10.784  67.947  1.00  0.00    -0.318 A  
HETATM    9  C   UNL     1     -10.508   9.876  67.138  1.00  0.00    -0.305 A  
HETATM   10  C   UNL     1      -9.822  10.307  66.006  1.00  0.00    -0.292 A  
HETATM   11  C   UNL     1      -9.102   9.367  65.208  1.00  0.00    -0.232 C  
HETATM   12  C   UNL     1      -9.827  11.655  65.655  1.00  0.00    -0.270 A  
HETATM   13  C   UNL     1     -10.541  12.595  66.407  1.00  0.00    -0.251 A  
HETATM   14  N   UNL     1      -8.517   8.605  64.559  1.00  0.00    -0.146 NA 
HETATM   15  C   UNL     1     -11.227  12.149  67.564  1.00  0.00    -0.297 A  
HETATM   16 CL   UNL     1     -12.118  13.289  68.524  1.00  0.00    -0.334 Cl 
BRANCH  13  17
HETATM   17  N   UNL     1     -10.535  13.968  66.037  1.00  0.00    -0.296 N  
HETATM   18  C   UNL     1     -11.235  14.528  64.981  1.00  0.00    -0.382 C  
HETATM   19  H   UNL     1      -9.964  14.597  66.600  1.00  0.00     0.000 HD 
HETATM   20  O   UNL     1     -12.053  14.006  64.232  1.00  0.00    -0.445 OA 
HETATM   21  C   UNL     1     -10.960  16.019  64.741  1.00  0.00    -0.356 C  
HETATM   22  O   UNL     1     -11.713  16.486  63.725  1.00  0.00    -1.086 OA 
HETATM   23  O   UNL     1     -10.160  16.652  65.401  1.00  0.00    -0.578 OA 
ENDBRANCH  13  17
ENDBRANCH   6   8
TORSDOF 2
ENDMDL
MODEL       17
REMARK 921   NORMALIZED FREE ENERGY PREDICTED BY IDOCK:   -6.65 KCAL/MOL
REMARK 922        TOTAL FREE ENERGY PREDICTED BY IDOCK:   -7.95 KCAL/MOL
REMARK 923 INTER-LIGAND FREE ENERGY PREDICTED BY IDOCK:   -7.57 KCAL/MOL
REMARK 924 INTRA-LIGAND FREE ENERGY PREDICTED BY IDOCK:   -0.38 KCAL/MOL
REMARK 927      BINDING AFFINITY PREDICTED BY RF-SCORE:    0.00 PKD
ROOT
HETATM    1  O   UNL     1     -12.546  14.939  63.590  1.00  0.00    -0.724 OA 
HETATM    2  C   UNL     1     -11.712  15.093  64.635  1.00  0.00    -0.348 C  
HETATM    3  O   UNL     1     -10.674  15.723  64.646  1.00  0.00    -0.497 OA 
HETATM    4  C   UNL     1     -12.251  14.370  65.875  1.00  0.00    -0.341 C  
HETATM    5  O   UNL     1     -13.282  13.725  65.718  1.00  0.00    -0.467 OA 
HETATM    6  N   UNL     1     -11.517  14.584  67.030  1.00  0.00    -0.357 N  
HETATM    7  H   UNL     1     -10.698  15.186  66.952  1.00  0.00     0.000 HD 
ENDROOT
BRANCH   6   8
HETATM    8  C   UNL     1     -11.800  14.044  68.312  1.00  0.00    -0.371 A  
HETATM    9  C   UNL     1     -12.442  14.818  69.284  1.00  0.00    -0.045 A  
HETATM   10  C   UNL     1     -12.681  14.310  70.558  1.00  0.00    -0.391 A  
HETATM   11  C   UNL     1     -13.314  15.127  71.543  1.00  0.00    -0.448 C  
HETATM   12  C   UNL     1     -12.294  13.011  70.878  1.00  0.00    -0.376 A  
HETATM   13  C   UNL     1     -11.690  12.181  69.926  1.00  0.00    -0.287 A  
HETATM   14  N   UNL     1     -13.829  15.788  72.344  1.00  0.00    -0.496 NA 
HETATM   15  C   UNL     1     -11.441  12.710  68.635  1.00  0.00    -0.308 A  
HETATM   16 CL   UNL     1     -10.687  11.712  67.431  1.00  0.00    -0.259 Cl 
BRANCH  13  17
HETATM   17  N   UNL     1     -11.300  10.858  70.268  1.00  0.00    -0.424 N  
HETATM   18  C   UNL     1     -12.132   9.867  70.762  1.00  0.00    -0.308 C  
HETATM   19  H   UNL     1     -10.318  10.616  70.137  1.00  0.00     0.000 HD 
HETATM   20  O   UNL     1     -13.350   9.882  70.910  1.00  0.00    -0.349 OA 
HETATM   21  C   UNL     1     -11.425   8.562  71.150  1.00  0.00    -0.276 C  
HETATM   22  O   UNL     1     -12.316   7.645  71.579  1.00  0.00    -0.307 OA 
HETATM   23  O   UNL     1     -10.221   8.419  71.068  1.00  0.00    -0.189 OA 
ENDBRANCH  13  17
ENDBRANCH   6   8
TORSDOF 2
ENDMDL
MODEL       18
REMARK 921   NORMALIZED FREE ENERGY PREDICTED BY IDOCK:   -6.62 KCAL/MOL
REMARK 922        TOTAL FREE ENERGY PREDICTED BY IDOCK:   -7.92 KCAL/MOL
REMARK 923 INTER-LIGAND FREE ENERGY PREDICTED BY IDOCK:   -7.47 KCAL/MOL
REMARK 924 INTRA-LIGAND FREE ENERGY PREDICTED BY IDOCK:   -0.45 KCAL/MOL
REMARK 927      BINDING AFFINITY PREDICTED BY RF-SCORE:    0.00 PKD
ROOT
HETATM    1  O   UNL     1     -12.041  10.364  71.151  1.00  0.00    -0.348 OA 
HETATM    2  C   UNL     1     -12.459  11.618  70.898  1.00  0.00    -0.341 C  
HETATM    3  O   UNL     1     -13.200  12.289  71.588  1.00  0.00    -0.398 OA 
HETATM    4  C   UNL     1     -11.853  12.142  69.590  1.00  0.00    -0.322 C  
HETATM    5  O   UNL     1     -11.163  11.348  68.959  1.00  0.00    -0.214 OA 
HETATM    6  N   UNL     1     -12.130  13.472  69.320  1.00  0.00    -0.316 N  
HETATM    7  H   UNL     1     -12.706  13.971  69.997  1.00  0.00     0.000 HD 
ENDROOT
BRANCH   6   8
HETATM    8  C   UNL     1     -11.687  14.205  68.187  1.00  0.00    -0.355 A  
HETATM    9  C   UNL     1     -12.112  13.851  66.902  1.00  0.00    -0.467 A  
HETATM   10  C   UNL     1     -11.646  14.536  65.783  1.00  0.00    -0.347 A  
HETATM   11  C   UNL     1     -12.071  14.141  64.478  1.00  0.00    -0.468 C  
HETATM   12  C   UNL     1     -10.757  15.598  65.932  1.00  0.00    -0.336 A  
HETATM   13  C   UNL     1     -10.340  16.019  67.200  1.00  0.00    -0.295 A  
HETATM   14  N   UNL     1     -12.416  13.823  63.418  1.00  0.00    -0.803 NA 
HETATM   15  C   UNL     1     -10.810  15.309  68.332  1.00  0.00    -0.257 A  
HETATM   16 CL   UNL     1     -10.308  15.800  69.920  1.00  0.00    -0.310 Cl 
BRANCH  13  17
HETATM   17  N   UNL     1      -9.432  17.104  67.335  1.00  0.00    -0.244 N  
HETATM   18  C   UNL     1      -9.766  18.449  67.341  1.00  0.00    -0.299 C  
HETATM   19  H   UNL     1      -8.444  16.872  67.438  1.00  0.00     0.000 HD 
HETATM   20  O   UNL     1     -10.876  18.970  67.332  1.00  0.00    -0.473 OA 
HETATM   21  C   UNL     1      -8.572  19.412  67.392  1.00  0.00    -0.297 C  
HETATM   22  O   UNL     1      -8.994  20.692  67.436  1.00  0.00    -0.344 OA 
HETATM   23  O   UNL     1      -7.420  19.028  67.389  1.00  0.00    -0.228 OA 
ENDBRANCH  13  17
ENDBRANCH   6   8
TORSDOF 2
ENDMDL
MODEL       19
REMARK 921   NORMALIZED FREE ENERGY PREDICTED BY IDOCK:   -6.47 KCAL/MOL
REMARK 922        TOTAL FREE ENERGY PREDICTED BY IDOCK:   -7.75 KCAL/MOL
REMARK 923 INTER-LIGAND FREE ENERGY PREDICTED BY IDOCK:   -7.26 KCAL/MOL
REMARK 924 INTRA-LIGAND FREE ENERGY PREDICTED BY IDOCK:   -0.50 KCAL/MOL
REMARK 927      BINDING AFFINITY PREDICTED BY RF-SCORE:    0.00 PKD
ROOT
HETATM    1  O   UNL     1      -9.135  20.748  67.208  1.00  0.00    -0.339 OA 
HETATM    2  C   UNL     1      -8.690  19.514  66.907  1.00  0.00    -0.311 C  
HETATM    3  O   UNL     1      -7.543  19.196  66.668  1.00  0.00    -0.226 OA 
HETATM    4  C   UNL     1      -9.841  18.501  66.918  1.00  0.00    -0.334 C  
HETATM    5  O   UNL     1     -10.961  18.958  67.119  1.00  0.00    -0.410 OA 
HETATM    6  N   UNL     1      -9.450  17.184  66.743  1.00  0.00    -0.257 N  
HETATM    7  H   UNL     1      -8.453  17.010  66.620  1.00  0.00     0.000 HD 
ENDROOT
BRANCH   6   8
HETATM    8  C   UNL     1     -10.308  16.053  66.721  1.00  0.00    -0.300 A  
HETATM    9  C   UNL     1     -10.768  15.534  65.506  1.00  0.00    -0.395 A  
HETATM   10  C   UNL     1     -11.646  14.454  65.477  1.00  0.00    -0.347 A  
HETATM   11  C   UNL     1     -12.125  13.957  64.227  1.00  0.00    -0.440 C  
HETATM   12  C   UNL     1     -12.068  13.863  66.667  1.00  0.00    -0.485 A  
HETATM   13  C   UNL     1     -11.599  14.317  67.905  1.00  0.00    -0.336 A  
HETATM   14  N   UNL     1     -12.514  13.552  63.213  1.00  0.00    -0.765 NA 
HETATM   15  C   UNL     1     -10.714  15.423  67.924  1.00  0.00    -0.286 A  
HETATM   16 CL   UNL     1     -10.117  16.016  69.443  1.00  0.00    -0.256 Cl 
BRANCH  13  17
HETATM   17  N   UNL     1     -12.039  13.703  69.110  1.00  0.00    -0.343 N  
HETATM   18  C   UNL     1     -11.702  12.433  69.546  1.00  0.00    -0.322 C  
HETATM   19  H   UNL     1     -12.659  14.249  69.708  1.00  0.00     0.000 HD 
HETATM   20  O   UNL     1     -10.907  11.634  69.061  1.00  0.00    -0.209 OA 
HETATM   21  C   UNL     1     -12.408  11.982  70.831  1.00  0.00    -0.285 C  
HETATM   22  O   UNL     1     -11.988  10.754  71.201  1.00  0.00    -0.329 OA 
HETATM   23  O   UNL     1     -13.230  12.669  71.404  1.00  0.00    -0.281 OA 
ENDBRANCH  13  17
ENDBRANCH   6   8
TORSDOF 2
ENDMDL
MODEL       20
REMARK 921   NORMALIZED FREE ENERGY PREDICTED BY IDOCK:   -6.36 KCAL/MOL
REMARK 922        TOTAL FREE ENERGY PREDICTED BY IDOCK:   -7.64 KCAL/MOL
REMARK 923 INTER-LIGAND FREE ENERGY PREDICTED BY IDOCK:   -7.10 KCAL/MOL
REMARK 924 INTRA-LIGAND FREE ENERGY PREDICTED BY IDOCK:   -0.54 KCAL/MOL
REMARK 927      BINDING AFFINITY PREDICTED BY RF-SCORE:    0.00 PKD
ROOT
HETATM    1  O   UNL     1     -10.288   6.741  71.700  1.00  0.00    -0.197 OA 
HETATM    2  C   UNL     1     -11.268   7.343  71.001  1.00  0.00    -0.264 C  
HETATM    3  O   UNL     1     -12.211   6.801  70.461  1.00  0.00    -0.363 OA 
HETATM    4  C   UNL     1     -11.067   8.863  70.977  1.00  0.00    -0.276 C  
HETATM    5  O   UNL     1     -10.047   9.282  71.514  1.00  0.00    -0.317 OA 
HETATM    6  N   UNL     1     -12.101   9.571  70.386  1.00  0.00    -0.466 N  
HETATM    7  H   UNL     1     -12.884   9.029  70.022  1.00  0.00     0.000 HD 
ENDROOT
BRANCH   6   8
HETATM    8  C   UNL     1     -12.172  10.981  70.239  1.00  0.00    -0.363 A  
HETATM    9  C   UNL     1     -12.557  11.789  71.315  1.00  0.00    -0.401 A  
HETATM   10  C   UNL     1     -12.673  13.168  71.166  1.00  0.00    -0.386 A  
HETATM   11  C   UNL     1     -13.095  13.971  72.269  1.00  0.00    -0.423 C  
HETATM   12  C   UNL     1     -12.390  13.767  69.940  1.00  0.00    -0.334 A  
HETATM   13  C   UNL     1     -11.956  13.006  68.848  1.00  0.00    -0.263 A  
HETATM   14  N   UNL     1     -13.436  14.625  73.163  1.00  0.00    -0.570 NA 
HETATM   15  C   UNL     1     -11.851  11.602  69.005  1.00  0.00    -0.328 A  
HETATM   16 CL   UNL     1     -11.322  10.627  67.670  1.00  0.00    -0.361 Cl 
BRANCH  13  17
HETATM   17  N   UNL     1     -11.672  13.631  67.603  1.00  0.00    -0.342 N  
HETATM   18  C   UNL     1     -10.490  14.270  67.264  1.00  0.00    -0.269 C  
HETATM   19  H   UNL     1     -12.404  13.607  66.894  1.00  0.00     0.000 HD 
HETATM   20  O   UNL     1      -9.442  14.345  67.898  1.00  0.00    -0.204 OA 
HETATM   21  C   UNL     1     -10.495  14.954  65.891  1.00  0.00    -0.315 C  
HETATM   22  O   UNL     1      -9.294  15.511  65.631  1.00  0.00    -0.302 OA 
HETATM   23  O   UNL     1     -11.472  14.969  65.170  1.00  0.00    -0.360 OA 
ENDBRANCH  13  17
ENDBRANCH   6   8
TORSDOF 2
ENDMDL
MODEL       21
REMARK 921   NORMALIZED FREE ENERGY PREDICTED BY IDOCK:   -6.36 KCAL/MOL
REMARK 922        TOTAL FREE ENERGY PREDICTED BY IDOCK:   -7.63 KCAL/MOL
REMARK 923 INTER-LIGAND FREE ENERGY PREDICTED BY IDOCK:   -7.12 KCAL/MOL
REMARK 924 INTRA-LIGAND FREE ENERGY PREDICTED BY IDOCK:   -0.51 KCAL/MOL
REMARK 927      BINDING AFFINITY PREDICTED BY RF-SCORE:    0.00 PKD
ROOT
HETATM    1  O   UNL     1     -11.070  16.953  64.429  1.00  0.00    -1.128 OA 
HETATM    2  C   UNL     1     -11.743  15.791  64.349  1.00  0.00    -0.201 C  
HETATM    3  O   UNL     1     -12.836  15.620  63.847  1.00  0.00    -0.619 OA 
HETATM    4  C   UNL     1     -10.934  14.647  64.971  1.00  0.00    -0.405 C  
HETATM    5  O   UNL     1      -9.869  14.960  65.493  1.00  0.00    -0.343 OA 
HETATM    6  N   UNL     1     -11.500  13.392  64.816  1.00  0.00    -0.324 N  
HETATM    7  H   UNL     1     -12.388  13.343  64.318  1.00  0.00     0.000 HD 
ENDROOT
BRANCH   6   8
HETATM    8  C   UNL     1     -10.958  12.167  65.287  1.00  0.00    -0.304 A  
HETATM    9  C   UNL     1     -10.182  11.364  64.445  1.00  0.00    -0.361 A  
HETATM   10  C   UNL     1      -9.685  10.139  64.885  1.00  0.00    -0.392 A  
HETATM   11  C   UNL     1      -8.918   9.323  64.000  1.00  0.00    -0.064 C  
HETATM   12  C   UNL     1      -9.944   9.704  66.182  1.00  0.00    -0.346 A  
HETATM   13  C   UNL     1     -10.677  10.494  67.077  1.00  0.00    -0.250 A  
HETATM   14  N   UNL     1      -8.294   8.658  63.283  1.00  0.00    -0.168 NA 
HETATM   15  C   UNL     1     -11.187  11.733  66.617  1.00  0.00    -0.323 A  
HETATM   16 CL   UNL     1     -12.105  12.735  67.698  1.00  0.00    -0.311 Cl 
BRANCH  13  17
HETATM   17  N   UNL     1     -10.933  10.035  68.398  1.00  0.00    -0.367 N  
HETATM   18  C   UNL     1     -10.010   9.963  69.428  1.00  0.00    -0.212 C  
HETATM   19  H   UNL     1     -11.884   9.732  68.606  1.00  0.00     0.000 HD 
HETATM   20  O   UNL     1      -8.848  10.356  69.454  1.00  0.00    -0.167 OA 
HETATM   21  C   UNL     1     -10.533   9.326  70.722  1.00  0.00    -0.276 C  
HETATM   22  O   UNL     1      -9.581   9.337  71.678  1.00  0.00    -0.277 OA 
HETATM   23  O   UNL     1     -11.658   8.881  70.825  1.00  0.00    -0.280 OA 
ENDBRANCH  13  17
ENDBRANCH   6   8
TORSDOF 2
ENDMDL
MODEL       22
REMARK 921   NORMALIZED FREE ENERGY PREDICTED BY IDOCK:   -6.34 KCAL/MOL
REMARK 922        TOTAL FREE ENERGY PREDICTED BY IDOCK:   -7.61 KCAL/MOL
REMARK 923 INTER-LIGAND FREE ENERGY PREDICTED BY IDOCK:   -7.08 KCAL/MOL
REMARK 924 INTRA-LIGAND FREE ENERGY PREDICTED BY IDOCK:   -0.53 KCAL/MOL
REMARK 927      BINDING AFFINITY PREDICTED BY RF-SCORE:    0.00 PKD
ROOT
HETATM    1  O   UNL     1     -10.117   6.702  71.808  1.00  0.00    -0.183 OA 
HETATM    2  C   UNL     1     -11.091   7.265  71.069  1.00  0.00    -0.258 C  
HETATM    3  O   UNL     1     -12.098   6.722  70.662  1.00  0.00    -0.392 OA 
HETATM    4  C   UNL     1     -10.786   8.744  70.799  1.00  0.00    -0.228 C  
HETATM    5  O   UNL     1      -9.711   9.159  71.218  1.00  0.00    -0.283 OA 
HETATM    6  N   UNL     1     -11.800   9.431  70.152  1.00  0.00    -0.466 N  
HETATM    7  H   UNL     1     -12.638   8.902  69.913  1.00  0.00     0.000 HD 
ENDROOT
BRANCH   6   8
HETATM    8  C   UNL     1     -11.781  10.804  69.792  1.00  0.00    -0.324 A  
HETATM    9  C   UNL     1     -11.154  11.220  68.613  1.00  0.00    -0.286 A  
HETATM   10  C   UNL     1     -11.091  12.570  68.276  1.00  0.00    -0.294 A  
HETATM   11  C   UNL     1     -10.423  12.975  67.081  1.00  0.00    -0.243 C  
HETATM   12  C   UNL     1     -11.669  13.527  69.107  1.00  0.00    -0.374 A  
HETATM   13  C   UNL     1     -12.348  13.156  70.273  1.00  0.00    -0.249 A  
HETATM   14  N   UNL     1      -9.881  13.307  66.111  1.00  0.00    -0.287 NA 
HETATM   15  C   UNL     1     -12.397  11.781  70.614  1.00  0.00    -0.328 A  
HETATM   16 CL   UNL     1     -13.225  11.285  72.057  1.00  0.00    -0.564 Cl 
BRANCH  13  17
HETATM   17  N   UNL     1     -12.932  14.144  71.112  1.00  0.00    -0.344 N  
HETATM   18  C   UNL     1     -12.256  14.950  72.012  1.00  0.00    -0.358 C  
HETATM   19  H   UNL     1     -13.942  14.271  71.044  1.00  0.00     0.000 HD 
HETATM   20  O   UNL     1     -11.048  15.054  72.202  1.00  0.00    -0.226 OA 
HETATM   21  C   UNL     1     -13.151  15.856  72.868  1.00  0.00    -0.507 C  
HETATM   22  O   UNL     1     -12.405  16.632  73.682  1.00  0.00    -0.437 OA 
HETATM   23  O   UNL     1     -14.363  15.841  72.792  1.00  0.00    -0.453 OA 
ENDBRANCH  13  17
ENDBRANCH   6   8
TORSDOF 2
ENDMDL
MODEL       23
REMARK 921   NORMALIZED FREE ENERGY PREDICTED BY IDOCK:   -6.32 KCAL/MOL
REMARK 922        TOTAL FREE ENERGY PREDICTED BY IDOCK:   -7.58 KCAL/MOL
REMARK 923 INTER-LIGAND FREE ENERGY PREDICTED BY IDOCK:   -7.19 KCAL/MOL
REMARK 924 INTRA-LIGAND FREE ENERGY PREDICTED BY IDOCK:   -0.39 KCAL/MOL
REMARK 927      BINDING AFFINITY PREDICTED BY RF-SCORE:    0.00 PKD
ROOT
HETATM    1  O   UNL     1     -13.130  14.819  73.795  1.00  0.00    -0.466 OA 
HETATM    2  C   UNL     1     -13.409  14.470  72.525  1.00  0.00    -0.472 C  
HETATM    3  O   UNL     1     -14.389  13.867  72.138  1.00  0.00    -0.520 OA 
HETATM    4  C   UNL     1     -12.311  14.957  71.572  1.00  0.00    -0.339 C  
HETATM    5  O   UNL     1     -11.347  15.506  72.094  1.00  0.00    -0.417 OA 
HETATM    6  N   UNL     1     -12.582  14.751  70.230  1.00  0.00    -0.476 N  
HETATM    7  H   UNL     1     -13.466  14.297  70.000  1.00  0.00     0.000 HD 
ENDROOT
BRANCH   6   8
HETATM    8  C   UNL     1     -11.743  15.112  69.142  1.00  0.00    -0.325 A  
HETATM    9  C   UNL     1     -11.357  16.443  68.955  1.00  0.00    -0.272 A  
HETATM   10  C   UNL     1     -10.573  16.812  67.865  1.00  0.00    -0.350 A  
HETATM   11  C   UNL     1     -10.213  18.181  67.677  1.00  0.00    -0.374 C  
HETATM   12  C   UNL     1     -10.147  15.851  66.951  1.00  0.00    -0.267 A  
HETATM   13  C   UNL     1     -10.468  14.499  67.122  1.00  0.00    -0.267 A  
HETATM   14  N   UNL     1      -9.919  19.292  67.523  1.00  0.00    -0.345 NA 
HETATM   15  C   UNL     1     -11.276  14.135  68.227  1.00  0.00    -0.272 A  
HETATM   16 CL   UNL     1     -11.699  12.468  68.466  1.00  0.00    -0.351 Cl 
BRANCH  13  17
HETATM   17  N   UNL     1     -10.027  13.530  66.180  1.00  0.00    -0.299 N  
HETATM   18  C   UNL     1     -10.632  13.238  64.968  1.00  0.00    -0.346 C  
HETATM   19  H   UNL     1      -9.188  13.002  66.417  1.00  0.00     0.000 HD 
HETATM   20  O   UNL     1     -11.579  13.796  64.423  1.00  0.00    -0.380 OA 
HETATM   21  C   UNL     1     -10.006  12.069  64.198  1.00  0.00    -0.263 C  
HETATM   22  O   UNL     1     -10.632  11.886  63.017  1.00  0.00    -0.309 OA 
HETATM   23  O   UNL     1      -9.075  11.421  64.632  1.00  0.00    -0.085 OA 
ENDBRANCH  13  17
ENDBRANCH   6   8
TORSDOF 2
ENDMDL
MODEL       24
REMARK 921   NORMALIZED FREE ENERGY PREDICTED BY IDOCK:   -6.24 KCAL/MOL
REMARK 922        TOTAL FREE ENERGY PREDICTED BY IDOCK:   -7.50 KCAL/MOL
REMARK 923 INTER-LIGAND FREE ENERGY PREDICTED BY IDOCK:   -7.16 KCAL/MOL
REMARK 924 INTRA-LIGAND FREE ENERGY PREDICTED BY IDOCK:   -0.34 KCAL/MOL
REMARK 927      BINDING AFFINITY PREDICTED BY RF-SCORE:    0.00 PKD
ROOT
HETATM    1  O   UNL     1     -11.881   9.783  71.714  1.00  0.00    -0.383 OA 
HETATM    2  C   UNL     1     -12.482  10.955  71.438  1.00  0.00    -0.355 C  
HETATM    3  O   UNL     1     -13.382  11.474  72.067  1.00  0.00    -0.476 OA 
HETATM    4  C   UNL     1     -11.866  11.604  70.193  1.00  0.00    -0.344 C  
HETATM    5  O   UNL     1     -11.002  10.953  69.615  1.00  0.00    -0.251 OA 
HETATM    6  N   UNL     1     -12.342  12.875  69.912  1.00  0.00    -0.155 N  
HETATM    7  H   UNL     1     -13.048  13.254  70.542  1.00  0.00     0.000 HD 
ENDROOT
BRANCH   6   8
HETATM    8  C   UNL     1     -11.936  13.699  68.829  1.00  0.00    -0.359 A  
HETATM    9  C   UNL     1     -11.889  13.189  67.527  1.00  0.00    -0.409 A  
HETATM   10  C   UNL     1     -11.449  13.977  66.467  1.00  0.00    -0.368 A  
HETATM   11  C   UNL     1     -11.383  13.428  65.151  1.00  0.00    -0.299 C  
HETATM   12  C   UNL     1     -11.062  15.297  66.690  1.00  0.00    -0.276 A  
HETATM   13  C   UNL     1     -11.136  15.866  67.966  1.00  0.00    -0.334 A  
HETATM   14  N   UNL     1     -11.329  12.985  64.081  1.00  0.00    -0.376 NA 
HETATM   15  C   UNL     1     -11.575  15.053  69.041  1.00  0.00    -0.319 A  
HETATM   16 CL   UNL     1     -11.673  15.725  70.639  1.00  0.00    -0.373 Cl 
BRANCH  13  17
HETATM   17  N   UNL     1     -10.737  17.214  68.177  1.00  0.00    -0.375 N  
HETATM   18  C   UNL     1      -9.456  17.646  68.478  1.00  0.00    -0.298 C  
HETATM   19  H   UNL     1     -11.460  17.929  68.099  1.00  0.00     0.000 HD 
HETATM   20  O   UNL     1      -8.413  17.000  68.527  1.00  0.00    -0.239 OA 
HETATM   21  C   UNL     1      -9.329  19.148  68.763  1.00  0.00    -0.372 C  
HETATM   22  O   UNL     1      -8.045  19.482  69.004  1.00  0.00    -0.348 OA 
HETATM   23  O   UNL     1     -10.285  19.898  68.764  1.00  0.00    -0.451 OA 
ENDBRANCH  13  17
ENDBRANCH   6   8
TORSDOF 2
ENDMDL
MODEL       25
REMARK 921   NORMALIZED FREE ENERGY PREDICTED BY IDOCK:   -6.23 KCAL/MOL
REMARK 922        TOTAL FREE ENERGY PREDICTED BY IDOCK:   -7.49 KCAL/MOL
REMARK 923 INTER-LIGAND FREE ENERGY PREDICTED BY IDOCK:   -6.96 KCAL/MOL
REMARK 924 INTRA-LIGAND FREE ENERGY PREDICTED BY IDOCK:   -0.53 KCAL/MOL
REMARK 927      BINDING AFFINITY PREDICTED BY RF-SCORE:    0.00 PKD
ROOT
HETATM    1  O   UNL     1      -9.129   7.435  70.072  1.00  0.00    -0.148 OA 
HETATM    2  C   UNL     1     -10.137   7.896  69.309  1.00  0.00    -0.197 C  
HETATM    3  O   UNL     1     -10.973   7.230  68.733  1.00  0.00    -0.130 OA 
HETATM    4  C   UNL     1     -10.128   9.429  69.261  1.00  0.00    -0.196 C  
HETATM    5  O   UNL     1      -9.200   9.982  69.841  1.00  0.00    -0.215 OA 
HETATM    6  N   UNL     1     -11.209   9.989  68.600  1.00  0.00    -0.458 N  
HETATM    7  H   UNL     1     -11.897   9.346  68.209  1.00  0.00     0.000 HD 
ENDROOT
BRANCH   6   8
HETATM    8  C   UNL     1     -11.450  11.377  68.419  1.00  0.00    -0.299 A  
HETATM    9  C   UNL     1     -11.116  12.004  67.213  1.00  0.00    -0.341 A  
HETATM   10  C   UNL     1     -11.306  13.373  67.044  1.00  0.00    -0.346 A  
HETATM   11  C   UNL     1     -10.933  13.997  65.816  1.00  0.00    -0.294 C  
HETATM   12  C   UNL     1     -11.850  14.137  68.075  1.00  0.00    -0.400 A  
HETATM   13  C   UNL     1     -12.242  13.547  69.282  1.00  0.00    -0.211 A  
HETATM   14  N   UNL     1     -10.632  14.506  64.819  1.00  0.00    -0.420 NA 
HETATM   15  C   UNL     1     -12.035  12.155  69.449  1.00  0.00    -0.270 A  
HETATM   16 CL   UNL     1     -12.504  11.392  70.936  1.00  0.00    -0.485 Cl 
BRANCH  13  17
HETATM   17  N   UNL     1     -12.795  14.340  70.324  1.00  0.00    -0.439 N  
HETATM   18  C   UNL     1     -12.078  15.077  71.253  1.00  0.00    -0.328 C  
HETATM   19  H   UNL     1     -13.811  14.370  70.395  1.00  0.00     0.000 HD 
HETATM   20  O   UNL     1     -10.870  15.278  71.314  1.00  0.00    -0.264 OA 
HETATM   21  C   UNL     1     -12.928  15.754  72.337  1.00  0.00    -0.465 C  
HETATM   22  O   UNL     1     -12.152  16.480  73.167  1.00  0.00    -0.513 OA 
HETATM   23  O   UNL     1     -14.133  15.623  72.401  1.00  0.00    -0.543 OA 
ENDBRANCH  13  17
ENDBRANCH   6   8
TORSDOF 2
ENDMDL
MODEL       26
REMARK 921   NORMALIZED FREE ENERGY PREDICTED BY IDOCK:   -6.22 KCAL/MOL
REMARK 922        TOTAL FREE ENERGY PREDICTED BY IDOCK:   -7.48 KCAL/MOL
REMARK 923 INTER-LIGAND FREE ENERGY PREDICTED BY IDOCK:   -7.14 KCAL/MOL
REMARK 924 INTRA-LIGAND FREE ENERGY PREDICTED BY IDOCK:   -0.33 KCAL/MOL
REMARK 927      BINDING AFFINITY PREDICTED BY RF-SCORE:    0.00 PKD
ROOT
HETATM    1  O   UNL     1     -10.691   8.938  67.047  1.00  0.00    -0.248 OA 
HETATM    2  C   UNL     1     -10.331   9.724  68.079  1.00  0.00    -0.207 C  
HETATM    3  O   UNL     1      -9.546   9.445  68.963  1.00  0.00    -0.158 OA 
HETATM    4  C   UNL     1     -11.038  11.082  68.003  1.00  0.00    -0.286 C  
HETATM    5  O   UNL     1     -11.848  11.220  67.092  1.00  0.00    -0.524 OA 
HETATM    6  N   UNL     1     -10.628  11.999  68.957  1.00  0.00    -0.389 N  
HETATM    7  H   UNL     1      -9.911  11.692  69.615  1.00  0.00     0.000 HD 
ENDROOT
BRANCH   6   8
HETATM    8  C   UNL     1     -11.111  13.325  69.105  1.00  0.00    -0.209 A  
HETATM    9  C   UNL     1     -11.912  13.672  70.199  1.00  0.00    -0.407 A  
HETATM   10  C   UNL     1     -12.428  14.959  70.326  1.00  0.00    -0.386 A  
HETATM   11  C   UNL     1     -13.266  15.284  71.436  1.00  0.00    -0.475 C  
HETATM   12  C   UNL     1     -12.138  15.928  69.368  1.00  0.00    -0.183 A  
HETATM   13  C   UNL     1     -11.303  15.642  68.281  1.00  0.00    -0.356 A  
HETATM   14  N   UNL     1     -13.946  15.550  72.336  1.00  0.00    -0.556 NA 
HETATM   15  C   UNL     1     -10.792  14.327  68.154  1.00  0.00    -0.244 A  
HETATM   16 CL   UNL     1      -9.758  13.935  66.815  1.00  0.00    -0.270 Cl 
BRANCH  13  17
HETATM   17  N   UNL     1     -11.017  16.641  67.311  1.00  0.00    -0.145 N  
HETATM   18  C   UNL     1     -10.363  17.840  67.547  1.00  0.00    -0.369 C  
HETATM   19  H   UNL     1     -11.319  16.459  66.355  1.00  0.00     0.000 HD 
HETATM   20  O   UNL     1      -9.824  18.238  68.574  1.00  0.00    -0.343 OA 
HETATM   21  C   UNL     1     -10.285  18.782  66.339  1.00  0.00    -0.421 C  
HETATM   22  O   UNL     1      -9.598  19.901  66.649  1.00  0.00    -0.357 OA 
HETATM   23  O   UNL     1     -10.791  18.517  65.267  1.00  0.00    -0.606 OA 
ENDBRANCH  13  17
ENDBRANCH   6   8
TORSDOF 2
ENDMDL
MODEL       27
REMARK 921   NORMALIZED FREE ENERGY PREDICTED BY IDOCK:   -6.21 KCAL/MOL
REMARK 922        TOTAL FREE ENERGY PREDICTED BY IDOCK:   -7.47 KCAL/MOL
REMARK 923 INTER-LIGAND FREE ENERGY PREDICTED BY IDOCK:   -7.16 KCAL/MOL
REMARK 924 INTRA-LIGAND FREE ENERGY PREDICTED BY IDOCK:   -0.31 KCAL/MOL
REMARK 927      BINDING AFFINITY PREDICTED BY RF-SCORE:    0.00 PKD
ROOT
HETATM    1  O   UNL     1      -9.470  19.261  65.804  1.00  0.00    -0.391 OA 
HETATM    2  C   UNL     1     -10.221  18.582  66.690  1.00  0.00    -0.399 C  
HETATM    3  O   UNL     1     -10.792  19.042  67.658  1.00  0.00    -0.438 OA 
HETATM    4  C   UNL     1     -10.298  17.097  66.317  1.00  0.00    -0.313 C  
HETATM    5  O   UNL     1      -9.632  16.749  65.347  1.00  0.00    -0.461 OA 
HETATM    6  N   UNL     1     -11.156  16.349  67.105  1.00  0.00    -0.068 N  
HETATM    7  H   UNL     1     -11.646  16.842  67.852  1.00  0.00     0.000 HD 
ENDROOT
BRANCH   6   8
HETATM    8  C   UNL     1     -11.419  14.960  66.971  1.00  0.00    -0.326 A  
HETATM    9  C   UNL     1     -11.733  14.415  65.722  1.00  0.00    -0.362 A  
HETATM   10  C   UNL     1     -12.037  13.062  65.590  1.00  0.00    -0.507 A  
HETATM   11  C   UNL     1     -12.382  12.531  64.310  1.00  0.00    -0.456 C  
HETATM   12  C   UNL     1     -12.016  12.228  66.705  1.00  0.00    -0.230 A  
HETATM   13  C   UNL     1     -11.662  12.718  67.968  1.00  0.00    -0.356 A  
HETATM   14  N   UNL     1     -12.661  12.098  63.272  1.00  0.00    -0.699 NA 
HETATM   15  C   UNL     1     -11.365  14.098  68.094  1.00  0.00    -0.290 A  
HETATM   16 CL   UNL     1     -10.928  14.741  69.647  1.00  0.00    -0.287 Cl 
BRANCH  13  17
HETATM   17  N   UNL     1     -11.646  11.854  69.097  1.00  0.00    -0.287 N  
HETATM   18  C   UNL     1     -10.631  10.974  69.433  1.00  0.00    -0.174 C  
HETATM   19  H   UNL     1     -12.456  11.885  69.715  1.00  0.00     0.000 HD 
HETATM   20  O   UNL     1      -9.530  10.827  68.912  1.00  0.00    -0.179 OA 
HETATM   21  C   UNL     1     -10.924  10.081  70.646  1.00  0.00    -0.322 C  
HETATM   22  O   UNL     1      -9.867   9.290  70.923  1.00  0.00    -0.262 OA 
HETATM   23  O   UNL     1     -11.981  10.114  71.244  1.00  0.00    -0.355 OA 
ENDBRANCH  13  17
ENDBRANCH   6   8
TORSDOF 2
ENDMDL
MODEL       28
REMARK 921   NORMALIZED FREE ENERGY PREDICTED BY IDOCK:   -6.17 KCAL/MOL
REMARK 922        TOTAL FREE ENERGY PREDICTED BY IDOCK:   -7.43 KCAL/MOL
REMARK 923 INTER-LIGAND FREE ENERGY PREDICTED BY IDOCK:   -6.91 KCAL/MOL
REMARK 924 INTRA-LIGAND FREE ENERGY PREDICTED BY IDOCK:   -0.51 KCAL/MOL
REMARK 927      BINDING AFFINITY PREDICTED BY RF-SCORE:    0.00 PKD
ROOT
HETATM    1  O   UNL     1      -9.617   5.171  66.334  1.00  0.00    -0.141 OA 
HETATM    2  C   UNL     1      -9.049   6.258  66.888  1.00  0.00    -0.128 C  
HETATM    3  O   UNL     1      -7.869   6.416  67.128  1.00  0.00    -0.105 OA 
HETATM    4  C   UNL     1     -10.101   7.335  67.179  1.00  0.00    -0.236 C  
HETATM    5  O   UNL     1     -11.265   7.032  66.941  1.00  0.00    -0.302 OA 
HETATM    6  N   UNL     1      -9.583   8.537  67.633  1.00  0.00    -0.148 N  
HETATM    7  H   UNL     1      -8.570   8.594  67.736  1.00  0.00     0.000 HD 
ENDROOT
BRANCH   6   8
HETATM    8  C   UNL     1     -10.331   9.696  67.968  1.00  0.00    -0.218 A  
HETATM    9  C   UNL     1     -11.026   9.768  69.179  1.00  0.00    -0.205 A  
HETATM   10  C   UNL     1     -11.799  10.883  69.494  1.00  0.00    -0.404 A  
HETATM   11  C   UNL     1     -12.522  10.924  70.724  1.00  0.00    -0.394 C  
HETATM   12  C   UNL     1     -11.877  11.954  68.606  1.00  0.00    -0.365 A  
HETATM   13  C   UNL     1     -11.163  11.949  67.402  1.00  0.00    -0.305 A  
HETATM   14  N   UNL     1     -13.110  10.961  71.723  1.00  0.00    -0.480 NA 
HETATM   15  C   UNL     1     -10.388  10.805  67.086  1.00  0.00    -0.224 A  
HETATM   16 CL   UNL     1      -9.494  10.762  65.598  1.00  0.00    -0.232 Cl 
BRANCH  13  17
HETATM   17  N   UNL     1     -11.253  13.049  66.506  1.00  0.00    -0.292 N  
HETATM   18  C   UNL     1     -12.077  13.127  65.395  1.00  0.00    -0.433 C  
HETATM   19  H   UNL     1     -10.658  13.854  66.700  1.00  0.00     0.000 HD 
HETATM   20  O   UNL     1     -12.941  12.344  65.016  1.00  0.00    -0.705 OA 
HETATM   21  C   UNL     1     -11.892  14.388  64.541  1.00  0.00    -0.449 C  
HETATM   22  O   UNL     1     -12.760  14.398  63.510  1.00  0.00    -0.742 OA 
HETATM   23  O   UNL     1     -11.060  15.236  64.796  1.00  0.00    -0.407 OA 
ENDBRANCH  13  17
ENDBRANCH   6   8
TORSDOF 2
ENDMDL
MODEL       29
REMARK 921   NORMALIZED FREE ENERGY PREDICTED BY IDOCK:   -6.14 KCAL/MOL
REMARK 922        TOTAL FREE ENERGY PREDICTED BY IDOCK:   -7.39 KCAL/MOL
REMARK 923 INTER-LIGAND FREE ENERGY PREDICTED BY IDOCK:   -7.02 KCAL/MOL
REMARK 924 INTRA-LIGAND FREE ENERGY PREDICTED BY IDOCK:   -0.36 KCAL/MOL
REMARK 927      BINDING AFFINITY PREDICTED BY RF-SCORE:    0.00 PKD
ROOT
HETATM    1  O   UNL     1     -11.908  10.485  71.081  1.00  0.00    -0.346 OA 
HETATM    2  C   UNL     1     -12.322  11.736  70.810  1.00  0.00    -0.337 C  
HETATM    3  O   UNL     1     -12.981  12.454  71.536  1.00  0.00    -0.383 OA 
HETATM    4  C   UNL     1     -11.833  12.187  69.429  1.00  0.00    -0.309 C  
HETATM    5  O   UNL     1     -11.223  11.350  68.772  1.00  0.00    -0.204 OA 
HETATM    6  N   UNL     1     -12.108  13.510  69.124  1.00  0.00    -0.320 N  
HETATM    7  H   UNL     1     -12.607  14.053  69.829  1.00  0.00     0.000 HD 
ENDROOT
BRANCH   6   8
HETATM    8  C   UNL     1     -11.761  14.181  67.922  1.00  0.00    -0.367 A  
HETATM    9  C   UNL     1     -12.132  13.653  66.681  1.00  0.00    -0.459 A  
HETATM   10  C   UNL     1     -11.755  14.281  65.497  1.00  0.00    -0.353 A  
HETATM   11  C   UNL     1     -12.121  13.710  64.240  1.00  0.00    -0.434 C  
HETATM   12  C   UNL     1     -11.013  15.459  65.534  1.00  0.00    -0.350 A  
HETATM   13  C   UNL     1     -10.657  16.051  66.752  1.00  0.00    -0.297 A  
HETATM   14  N   UNL     1     -12.418  13.249  63.219  1.00  0.00    -0.709 NA 
HETATM   15  C   UNL     1     -11.036  15.399  67.952  1.00  0.00    -0.310 A  
HETATM   16 CL   UNL     1     -10.607  16.101  69.481  1.00  0.00    -0.283 Cl 
BRANCH  13  17
HETATM   17  N   UNL     1      -9.899  17.253  66.774  1.00  0.00    -0.281 N  
HETATM   18  C   UNL     1      -8.529  17.353  66.597  1.00  0.00    -0.261 C  
HETATM   19  H   UNL     1     -10.410  18.120  66.935  1.00  0.00     0.000 HD 
HETATM   20  O   UNL     1      -7.722  16.480  66.295  1.00  0.00    -0.291 OA 
HETATM   21  C   UNL     1      -7.955  18.764  66.779  1.00  0.00    -0.255 C  
HETATM   22  O   UNL     1      -6.626  18.773  66.547  1.00  0.00    -0.186 OA 
HETATM   23  O   UNL     1      -8.641  19.716  67.093  1.00  0.00    -0.288 OA 
ENDBRANCH  13  17
ENDBRANCH   6   8
TORSDOF 2
ENDMDL
MODEL       30
REMARK 921   NORMALIZED FREE ENERGY PREDICTED BY IDOCK:   -6.12 KCAL/MOL
REMARK 922        TOTAL FREE ENERGY PREDICTED BY IDOCK:   -7.37 KCAL/MOL
REMARK 923 INTER-LIGAND FREE ENERGY PREDICTED BY IDOCK:   -6.83 KCAL/MOL
REMARK 924 INTRA-LIGAND FREE ENERGY PREDICTED BY IDOCK:   -0.54 KCAL/MOL
REMARK 927      BINDING AFFINITY PREDICTED BY RF-SCORE:    0.00 PKD
ROOT
HETATM    1  O   UNL     1      -8.987   6.981  67.543  1.00  0.00    -0.118 OA 
HETATM    2  C   UNL     1     -10.211   7.540  67.580  1.00  0.00    -0.213 C  
HETATM    3  O   UNL     1     -11.275   6.955  67.570  1.00  0.00    -0.245 OA 
HETATM    4  C   UNL     1     -10.111   9.068  67.660  1.00  0.00    -0.216 C  
HETATM    5  O   UNL     1      -8.980   9.538  67.608  1.00  0.00    -0.119 OA 
HETATM    6  N   UNL     1     -11.323   9.715  67.830  1.00  0.00    -0.446 N  
HETATM    7  H   UNL     1     -12.157   9.130  67.880  1.00  0.00     0.000 HD 
ENDROOT
BRANCH   6   8
HETATM    8  C   UNL     1     -11.514  11.118  67.943  1.00  0.00    -0.284 A  
HETATM    9  C   UNL     1     -11.663  11.908  66.798  1.00  0.00    -0.281 A  
HETATM   10  C   UNL     1     -11.803  13.290  66.898  1.00  0.00    -0.446 A  
HETATM   11  C   UNL     1     -11.927  14.081  65.716  1.00  0.00    -0.404 C  
HETATM   12  C   UNL     1     -11.813  13.904  68.149  1.00  0.00    -0.407 A  
HETATM   13  C   UNL     1     -11.714  13.151  69.325  1.00  0.00    -0.321 A  
HETATM   14  N   UNL     1     -12.028  14.725  64.758  1.00  0.00    -0.417 NA 
HETATM   15  C   UNL     1     -11.560  11.747  69.213  1.00  0.00    -0.315 A  
HETATM   16 CL   UNL     1     -11.428  10.782  70.650  1.00  0.00    -0.387 Cl 
BRANCH  13  17
HETATM   17  N   UNL     1     -11.725  13.792  70.593  1.00  0.00    -0.527 N  
HETATM   18  C   UNL     1     -12.852  14.123  71.328  1.00  0.00    -0.359 C  
HETATM   19  H   UNL     1     -10.821  14.030  71.000  1.00  0.00     0.000 HD 
HETATM   20  O   UNL     1     -14.028  13.856  71.103  1.00  0.00    -0.105 OA 
HETATM   21  C   UNL     1     -12.576  14.909  72.617  1.00  0.00    -0.367 C  
HETATM   22  O   UNL     1     -13.723  15.149  73.284  1.00  0.00    -0.435 OA 
HETATM   23  O   UNL     1     -11.459  15.251  72.949  1.00  0.00    -0.413 OA 
ENDBRANCH  13  17
ENDBRANCH   6   8
TORSDOF 2
ENDMDL
MODEL       31
REMARK 921   NORMALIZED FREE ENERGY PREDICTED BY IDOCK:   -6.11 KCAL/MOL
REMARK 922        TOTAL FREE ENERGY PREDICTED BY IDOCK:   -7.36 KCAL/MOL
REMARK 923 INTER-LIGAND FREE ENERGY PREDICTED BY IDOCK:   -6.83 KCAL/MOL
REMARK 924 INTRA-LIGAND FREE ENERGY PREDICTED BY IDOCK:   -0.53 KCAL/MOL
REMARK 927      BINDING AFFINITY PREDICTED BY RF-SCORE:    0.00 PKD
ROOT
HETATM    1  O   UNL     1      -8.853  19.714  67.004  1.00  0.00    -0.293 OA 
HETATM    2  C   UNL     1      -9.846  18.856  66.703  1.00  0.00    -0.358 C  
HETATM    3  O   UNL     1     -10.509  18.843  65.686  1.00  0.00    -0.569 OA 
HETATM    4  C   UNL     1     -10.044  17.834  67.829  1.00  0.00    -0.345 C  
HETATM    5  O   UNL     1      -9.348  17.988  68.827  1.00  0.00    -0.297 OA 
HETATM    6  N   UNL     1     -10.961  16.836  67.545  1.00  0.00    -0.205 N  
HETATM    7  H   UNL     1     -11.417  16.872  66.633  1.00  0.00     0.000 HD 
ENDROOT
BRANCH   6   8
HETATM    8  C   UNL     1     -11.325  15.766  68.404  1.00  0.00    -0.372 A  
HETATM    9  C   UNL     1     -12.249  15.965  69.435  1.00  0.00    -0.080 A  
HETATM   10  C   UNL     1     -12.576  14.933  70.310  1.00  0.00    -0.361 A  
HETATM   11  C   UNL     1     -13.501  15.166  71.373  1.00  0.00    -0.481 C  
HETATM   12  C   UNL     1     -11.995  13.676  70.158  1.00  0.00    -0.407 A  
HETATM   13  C   UNL     1     -11.101  13.414  69.114  1.00  0.00    -0.213 A  
HETATM   14  N   UNL     1     -14.253  15.353  72.236  1.00  0.00    -0.561 NA 
HETATM   15  C   UNL     1     -10.766  14.474  68.235  1.00  0.00    -0.240 A  
HETATM   16 CL   UNL     1      -9.655  14.187  66.932  1.00  0.00    -0.262 Cl 
BRANCH  13  17
HETATM   17  N   UNL     1     -10.516  12.126  68.973  1.00  0.00    -0.418 N  
HETATM   18  C   UNL     1     -10.952  11.124  68.122  1.00  0.00    -0.238 C  
HETATM   19  H   UNL     1      -9.701  11.922  69.550  1.00  0.00     0.000 HD 
HETATM   20  O   UNL     1     -11.835  11.161  67.272  1.00  0.00    -0.525 OA 
HETATM   21  C   UNL     1     -10.201   9.792  68.253  1.00  0.00    -0.183 C  
HETATM   22  O   UNL     1     -10.664   8.893  67.361  1.00  0.00    -0.272 OA 
HETATM   23  O   UNL     1      -9.316   9.616  69.067  1.00  0.00    -0.148 OA 
ENDBRANCH  13  17
ENDBRANCH   6   8
TORSDOF 2
ENDMDL
MODEL       32
REMARK 921   NORMALIZED FREE ENERGY PREDICTED BY IDOCK:   -6.10 KCAL/MOL
REMARK 922        TOTAL FREE ENERGY PREDICTED BY IDOCK:   -7.35 KCAL/MOL
REMARK 923 INTER-LIGAND FREE ENERGY PREDICTED BY IDOCK:   -6.82 KCAL/MOL
REMARK 924 INTRA-LIGAND FREE ENERGY PREDICTED BY IDOCK:   -0.53 KCAL/MOL
REMARK 927      BINDING AFFINITY PREDICTED BY RF-SCORE:    0.00 PKD
ROOT
HETATM    1  O   UNL     1     -12.813  14.593  63.590  1.00  0.00    -0.637 OA 
HETATM    2  C   UNL     1     -11.849  14.442  64.517  1.00  0.00    -0.449 C  
HETATM    3  O   UNL     1     -10.927  15.203  64.734  1.00  0.00    -0.399 OA 
HETATM    4  C   UNL     1     -12.060  13.153  65.320  1.00  0.00    -0.429 C  
HETATM    5  O   UNL     1     -12.996  12.444  64.966  1.00  0.00    -0.705 OA 
HETATM    6  N   UNL     1     -11.183  12.985  66.379  1.00  0.00    -0.291 N  
HETATM    7  H   UNL     1     -10.486  13.715  66.523  1.00  0.00     0.000 HD 
ENDROOT
BRANCH   6   8
HETATM    8  C   UNL     1     -11.165  11.890  67.283  1.00  0.00    -0.317 A  
HETATM    9  C   UNL     1     -11.844  11.965  68.503  1.00  0.00    -0.357 A  
HETATM   10  C   UNL     1     -11.792  10.914  69.415  1.00  0.00    -0.400 A  
HETATM   11  C   UNL     1     -12.471  11.022  70.666  1.00  0.00    -0.373 C  
HETATM   12  C   UNL     1     -11.071   9.761  69.113  1.00  0.00    -0.158 A  
HETATM   13  C   UNL     1     -10.413   9.620  67.886  1.00  0.00    -0.246 A  
HETATM   14  N   UNL     1     -13.022  11.108  71.683  1.00  0.00    -0.462 NA 
HETATM   15  C   UNL     1     -10.462  10.699  66.969  1.00  0.00    -0.243 A  
HETATM   16 CL   UNL     1      -9.652  10.562  65.439  1.00  0.00    -0.268 Cl 
BRANCH  13  17
HETATM   17  N   UNL     1      -9.680   8.437  67.594  1.00  0.00    -0.153 N  
HETATM   18  C   UNL     1     -10.221   7.213  67.238  1.00  0.00    -0.245 C  
HETATM   19  H   UNL     1      -8.664   8.496  67.650  1.00  0.00     0.000 HD 
HETATM   20  O   UNL     1     -11.390   6.920  67.009  1.00  0.00    -0.304 OA 
HETATM   21  C   UNL     1      -9.202   6.076  67.085  1.00  0.00    -0.117 C  
HETATM   22  O   UNL     1      -9.812   4.937  66.698  1.00  0.00    -0.162 OA 
HETATM   23  O   UNL     1      -8.015   6.226  67.297  1.00  0.00    -0.107 OA 
ENDBRANCH  13  17
ENDBRANCH   6   8
TORSDOF 2
ENDMDL
MODEL       33
REMARK 921   NORMALIZED FREE ENERGY PREDICTED BY IDOCK:   -6.09 KCAL/MOL
REMARK 922        TOTAL FREE ENERGY PREDICTED BY IDOCK:   -7.34 KCAL/MOL
REMARK 923 INTER-LIGAND FREE ENERGY PREDICTED BY IDOCK:   -7.14 KCAL/MOL
REMARK 924 INTRA-LIGAND FREE ENERGY PREDICTED BY IDOCK:   -0.20 KCAL/MOL
REMARK 927      BINDING AFFINITY PREDICTED BY RF-SCORE:    0.00 PKD
ROOT
HETATM    1  O   UNL     1     -11.107   9.481  71.599  1.00  0.00    -0.371 OA 
HETATM    2  C   UNL     1     -11.974  10.229  70.891  1.00  0.00    -0.375 C  
HETATM    3  O   UNL     1     -13.146  10.418  71.148  1.00  0.00    -0.379 OA 
HETATM    4  C   UNL     1     -11.284  10.864  69.678  1.00  0.00    -0.282 C  
HETATM    5  O   UNL     1     -10.111  10.552  69.499  1.00  0.00    -0.222 OA 
HETATM    6  N   UNL     1     -12.073  11.752  68.967  1.00  0.00    -0.276 N  
HETATM    7  H   UNL     1     -13.025  11.897  69.303  1.00  0.00     0.000 HD 
ENDROOT
BRANCH   6   8
HETATM    8  C   UNL     1     -11.680  12.481  67.813  1.00  0.00    -0.359 A  
HETATM    9  C   UNL     1     -11.403  11.817  66.614  1.00  0.00    -0.381 A  
HETATM   10  C   UNL     1     -10.974  12.520  65.491  1.00  0.00    -0.322 A  
HETATM   11  C   UNL     1     -10.670  11.819  64.285  1.00  0.00    -0.342 C  
HETATM   12  C   UNL     1     -10.828  13.904  65.546  1.00  0.00    -0.306 A  
HETATM   13  C   UNL     1     -11.138  14.619  66.709  1.00  0.00    -0.335 A  
HETATM   14  N   UNL     1     -10.424  11.252  63.304  1.00  0.00    -0.350 NA 
HETATM   15  C   UNL     1     -11.564  13.894  67.849  1.00  0.00    -0.342 A  
HETATM   16 CL   UNL     1     -11.951  14.747  69.311  1.00  0.00    -0.340 Cl 
BRANCH  13  17
HETATM   17  N   UNL     1     -10.984  16.031  66.749  1.00  0.00    -0.188 N  
HETATM   18  C   UNL     1      -9.896  16.745  66.273  1.00  0.00    -0.309 C  
HETATM   19  H   UNL     1     -11.744  16.568  67.165  1.00  0.00     0.000 HD 
HETATM   20  O   UNL     1      -8.919  16.341  65.651  1.00  0.00    -0.403 OA 
HETATM   21  C   UNL     1      -9.944  18.254  66.544  1.00  0.00    -0.373 C  
HETATM   22  O   UNL     1      -8.869  18.869  66.011  1.00  0.00    -0.464 OA 
HETATM   23  O   UNL     1     -10.847  18.781  67.163  1.00  0.00    -0.421 OA 
ENDBRANCH  13  17
ENDBRANCH   6   8
TORSDOF 2
ENDMDL
MODEL       34
REMARK 921   NORMALIZED FREE ENERGY PREDICTED BY IDOCK:   -6.09 KCAL/MOL
REMARK 922        TOTAL FREE ENERGY PREDICTED BY IDOCK:   -7.33 KCAL/MOL
REMARK 923 INTER-LIGAND FREE ENERGY PREDICTED BY IDOCK:   -6.83 KCAL/MOL
REMARK 924 INTRA-LIGAND FREE ENERGY PREDICTED BY IDOCK:   -0.50 KCAL/MOL
REMARK 927      BINDING AFFINITY PREDICTED BY RF-SCORE:    0.00 PKD
ROOT
HETATM    1  O   UNL     1     -11.163  16.845  64.213  1.00  0.00    -1.204 OA 
HETATM    2  C   UNL     1     -11.883  15.711  64.301  1.00  0.00    -0.146 C  
HETATM    3  O   UNL     1     -13.006  15.531  63.876  1.00  0.00    -0.478 OA 
HETATM    4  C   UNL     1     -11.084  14.611  65.011  1.00  0.00    -0.394 C  
HETATM    5  O   UNL     1      -9.982  14.936  65.440  1.00  0.00    -0.349 OA 
HETATM    6  N   UNL     1     -11.703  13.372  65.031  1.00  0.00    -0.314 N  
HETATM    7  H   UNL     1     -12.618  13.305  64.585  1.00  0.00     0.000 HD 
ENDROOT
BRANCH   6   8
HETATM    8  C   UNL     1     -11.182  12.187  65.613  1.00  0.00    -0.335 A  
HETATM    9  C   UNL     1     -11.346  11.935  66.979  1.00  0.00    -0.392 A  
HETATM   10  C   UNL     1     -10.798  10.797  67.566  1.00  0.00    -0.342 A  
HETATM   11  C   UNL     1     -10.954  10.573  68.967  1.00  0.00    -0.243 C  
HETATM   12  C   UNL     1     -10.089   9.882  66.791  1.00  0.00    -0.292 A  
HETATM   13  C   UNL     1      -9.938  10.066  65.411  1.00  0.00    -0.294 A  
HETATM   14  N   UNL     1     -11.080  10.388  70.105  1.00  0.00    -0.300 NA 
HETATM   15  C   UNL     1     -10.489  11.233  64.825  1.00  0.00    -0.323 A  
HETATM   16 CL   UNL     1     -10.316  11.497  63.118  1.00  0.00    -0.391 Cl 
BRANCH  13  17
HETATM   17  N   UNL     1      -9.211   9.124  64.634  1.00  0.00    -0.441 N  
HETATM   18  C   UNL     1      -7.918   9.283  64.162  1.00  0.00    -0.136 C  
HETATM   19  H   UNL     1      -9.684   8.251  64.403  1.00  0.00     0.000 HD 
HETATM   20  O   UNL     1      -7.119  10.186  64.387  1.00  0.00    -0.135 OA 
HETATM   21  C   UNL     1      -7.417   8.152  63.255  1.00  0.00    -0.120 C  
HETATM   22  O   UNL     1      -6.141   8.371  62.880  1.00  0.00    -0.084 OA 
HETATM   23  O   UNL     1      -8.112   7.207  62.941  1.00  0.00    -0.118 OA 
ENDBRANCH  13  17
ENDBRANCH   6   8
TORSDOF 2
ENDMDL
MODEL       35
REMARK 921   NORMALIZED FREE ENERGY PREDICTED BY IDOCK:   -6.09 KCAL/MOL
REMARK 922        TOTAL FREE ENERGY PREDICTED BY IDOCK:   -7.33 KCAL/MOL
REMARK 923 INTER-LIGAND FREE ENERGY PREDICTED BY IDOCK:   -6.86 KCAL/MOL
REMARK 924 INTRA-LIGAND FREE ENERGY PREDICTED BY IDOCK:   -0.47 KCAL/MOL
REMARK 927      BINDING AFFINITY PREDICTED BY RF-SCORE:    0.00 PKD
ROOT
HETATM    1  O   UNL     1     -11.442   9.288  71.619  1.00  0.00    -0.355 OA 
HETATM    2  C   UNL     1     -10.578   9.862  70.762  1.00  0.00    -0.239 C  
HETATM    3  O   UNL     1      -9.388   9.639  70.674  1.00  0.00    -0.239 OA 
HETATM    4  C   UNL     1     -11.298  10.864  69.851  1.00  0.00    -0.305 C  
HETATM    5  O   UNL     1     -12.491  11.039  70.077  1.00  0.00    -0.305 OA 
HETATM    6  N   UNL     1     -10.505  11.407  68.854  1.00  0.00    -0.232 N  
HETATM    7  H   UNL     1      -9.532  11.103  68.819  1.00  0.00     0.000 HD 
ENDROOT
BRANCH   6   8
HETATM    8  C   UNL     1     -10.921  12.348  67.875  1.00  0.00    -0.228 A  
HETATM    9  C   UNL     1     -11.522  11.918  66.687  1.00  0.00    -0.382 A  
HETATM   10  C   UNL     1     -11.890  12.831  65.703  1.00  0.00    -0.472 A  
HETATM   11  C   UNL     1     -12.478  12.369  64.486  1.00  0.00    -0.435 C  
HETATM   12  C   UNL     1     -11.677  14.195  65.897  1.00  0.00    -0.369 A  
HETATM   13  C   UNL     1     -11.121  14.677  67.087  1.00  0.00    -0.326 A  
HETATM   14  N   UNL     1     -12.956  11.996  63.498  1.00  0.00    -0.750 NA 
HETATM   15  C   UNL     1     -10.739  13.739  68.079  1.00  0.00    -0.250 A  
HETATM   16 CL   UNL     1     -10.041  14.301  69.566  1.00  0.00     0.108 Cl 
BRANCH  13  17
HETATM   17  N   UNL     1     -10.908  16.070  67.270  1.00  0.00    -0.293 N  
HETATM   18  C   UNL     1      -9.970  16.844  66.607  1.00  0.00    -0.296 C  
HETATM   19  H   UNL     1     -11.501  16.544  67.951  1.00  0.00     0.000 HD 
HETATM   20  O   UNL     1      -9.220  16.531  65.688  1.00  0.00    -0.481 OA 
HETATM   21  C   UNL     1      -9.883  18.301  67.079  1.00  0.00    -0.326 C  
HETATM   22  O   UNL     1      -8.976  18.985  66.352  1.00  0.00    -0.322 OA 
HETATM   23  O   UNL     1     -10.557  18.736  67.991  1.00  0.00    -0.367 OA 
ENDBRANCH  13  17
ENDBRANCH   6   8
TORSDOF 2
ENDMDL
MODEL       36
REMARK 921   NORMALIZED FREE ENERGY PREDICTED BY IDOCK:   -6.08 KCAL/MOL
REMARK 922        TOTAL FREE ENERGY PREDICTED BY IDOCK:   -7.33 KCAL/MOL
REMARK 923 INTER-LIGAND FREE ENERGY PREDICTED BY IDOCK:   -7.12 KCAL/MOL
REMARK 924 INTRA-LIGAND FREE ENERGY PREDICTED BY IDOCK:   -0.21 KCAL/MOL
REMARK 927      BINDING AFFINITY PREDICTED BY RF-SCORE:    0.00 PKD
ROOT
HETATM    1  O   UNL     1     -12.258   7.789  71.119  1.00  0.00    -0.308 OA 
HETATM    2  C   UNL     1     -11.380   8.739  70.748  1.00  0.00    -0.272 C  
HETATM    3  O   UNL     1     -10.197   8.583  70.523  1.00  0.00    -0.188 OA 
HETATM    4  C   UNL     1     -12.073  10.100  70.613  1.00  0.00    -0.319 C  
HETATM    5  O   UNL     1     -13.260  10.135  70.921  1.00  0.00    -0.395 OA 
HETATM    6  N   UNL     1     -11.267  11.108  70.111  1.00  0.00    -0.480 N  
HETATM    7  H   UNL     1     -10.303  10.861  69.886  1.00  0.00     0.000 HD 
ENDROOT
BRANCH   6   8
HETATM    8  C   UNL     1     -11.657  12.454  69.880  1.00  0.00    -0.186 A  
HETATM    9  C   UNL     1     -12.440  13.137  70.816  1.00  0.00    -0.389 A  
HETATM   10  C   UNL     1     -12.865  14.441  70.575  1.00  0.00    -0.353 A  
HETATM   11  C   UNL     1     -13.686  15.111  71.531  1.00  0.00    -0.494 C  
HETATM   12  C   UNL     1     -12.500  15.090  69.397  1.00  0.00    -0.076 A  
HETATM   13  C   UNL     1     -11.679  14.465  68.452  1.00  0.00    -0.332 A  
HETATM   14  N   UNL     1     -14.353  15.657  72.307  1.00  0.00    -0.504 NA 
HETATM   15  C   UNL     1     -11.260  13.134  68.700  1.00  0.00    -0.276 A  
HETATM   16 CL   UNL     1     -10.247  12.325  67.546  1.00  0.00    -0.207 Cl 
BRANCH  13  17
HETATM   17  N   UNL     1     -11.316  15.140  67.255  1.00  0.00    -0.330 N  
HETATM   18  C   UNL     1     -10.504  16.259  67.166  1.00  0.00    -0.297 C  
HETATM   19  H   UNL     1     -11.686  14.766  66.381  1.00  0.00     0.000 HD 
HETATM   20  O   UNL     1      -9.869  16.825  68.049  1.00  0.00    -0.252 OA 
HETATM   21  C   UNL     1     -10.366  16.848  65.756  1.00  0.00    -0.283 C  
HETATM   22  O   UNL     1      -9.528  17.905  65.760  1.00  0.00    -0.511 OA 
HETATM   23  O   UNL     1     -10.954  16.394  64.795  1.00  0.00    -0.664 OA 
ENDBRANCH  13  17
ENDBRANCH   6   8
TORSDOF 2
ENDMDL
MODEL       37
REMARK 921   NORMALIZED FREE ENERGY PREDICTED BY IDOCK:   -6.04 KCAL/MOL
REMARK 922        TOTAL FREE ENERGY PREDICTED BY IDOCK:   -7.28 KCAL/MOL
REMARK 923 INTER-LIGAND FREE ENERGY PREDICTED BY IDOCK:   -6.81 KCAL/MOL
REMARK 924 INTRA-LIGAND FREE ENERGY PREDICTED BY IDOCK:   -0.47 KCAL/MOL
REMARK 927      BINDING AFFINITY PREDICTED BY RF-SCORE:    0.00 PKD
ROOT
HETATM    1  O   UNL     1     -11.239  16.482  64.322  1.00  0.00    -0.992 OA 
HETATM    2  C   UNL     1     -11.838  15.278  64.383  1.00  0.00    -0.281 C  
HETATM    3  O   UNL     1     -12.644  14.829  63.592  1.00  0.00    -0.749 OA 
HETATM    4  C   UNL     1     -11.357  14.489  65.606  1.00  0.00    -0.336 C  
HETATM    5  O   UNL     1     -10.583  15.075  66.356  1.00  0.00    -0.295 OA 
HETATM    6  N   UNL     1     -11.829  13.189  65.674  1.00  0.00    -0.365 N  
HETATM    7  H   UNL     1     -12.446  12.881  64.924  1.00  0.00     0.000 HD 
ENDROOT
BRANCH   6   8
HETATM    8  C   UNL     1     -11.533  12.244  66.692  1.00  0.00    -0.373 A  
HETATM    9  C   UNL     1     -12.030  12.417  67.988  1.00  0.00    -0.264 A  
HETATM   10  C   UNL     1     -11.707  11.519  69.002  1.00  0.00    -0.400 A  
HETATM   11  C   UNL     1     -12.203  11.729  70.324  1.00  0.00    -0.299 C  
HETATM   12  C   UNL     1     -10.890  10.423  68.733  1.00  0.00    -0.269 A  
HETATM   13  C   UNL     1     -10.406  10.183  67.442  1.00  0.00    -0.238 A  
HETATM   14  N   UNL     1     -12.606  11.897  71.398  1.00  0.00    -0.295 NA 
HETATM   15  C   UNL     1     -10.731  11.107  66.418  1.00  0.00    -0.247 A  
HETATM   16 CL   UNL     1     -10.143  10.843  64.806  1.00  0.00    -0.355 Cl 
BRANCH  13  17
HETATM   17  N   UNL     1      -9.573   9.060  67.183  1.00  0.00    -0.158 N  
HETATM   18  C   UNL     1      -9.992   7.744  67.074  1.00  0.00    -0.244 C  
HETATM   19  H   UNL     1      -8.576   9.240  67.067  1.00  0.00     0.000 HD 
HETATM   20  O   UNL     1     -11.133   7.293  67.076  1.00  0.00    -0.308 OA 
HETATM   21  C   UNL     1      -8.864   6.718  66.900  1.00  0.00    -0.119 C  
HETATM   22  O   UNL     1      -9.367   5.475  66.760  1.00  0.00    -0.125 OA 
HETATM   23  O   UNL     1      -7.690   7.029  66.897  1.00  0.00    -0.099 OA 
ENDBRANCH  13  17
ENDBRANCH   6   8
TORSDOF 2
ENDMDL
MODEL       38
REMARK 921   NORMALIZED FREE ENERGY PREDICTED BY IDOCK:   -6.00 KCAL/MOL
REMARK 922        TOTAL FREE ENERGY PREDICTED BY IDOCK:   -7.23 KCAL/MOL
REMARK 923 INTER-LIGAND FREE ENERGY PREDICTED BY IDOCK:   -7.09 KCAL/MOL
REMARK 924 INTRA-LIGAND FREE ENERGY PREDICTED BY IDOCK:   -0.14 KCAL/MOL
REMARK 927      BINDING AFFINITY PREDICTED BY RF-SCORE:    0.00 PKD
ROOT
HETATM    1  O   UNL     1     -11.784   8.168  72.825  1.00  0.00    -0.403 OA 
HETATM    2  C   UNL     1     -12.519   8.780  71.878  1.00  0.00    -0.372 C  
HETATM    3  O   UNL     1     -13.727   8.739  71.760  1.00  0.00    -0.381 OA 
HETATM    4  C   UNL     1     -11.626   9.590  70.931  1.00  0.00    -0.326 C  
HETATM    5  O   UNL     1     -10.418   9.505  71.124  1.00  0.00    -0.313 OA 
HETATM    6  N   UNL     1     -12.314  10.353  70.003  1.00  0.00    -0.503 N  
HETATM    7  H   UNL     1     -13.333  10.306  70.029  1.00  0.00     0.000 HD 
ENDROOT
BRANCH   6   8
HETATM    8  C   UNL     1     -11.734  11.197  69.019  1.00  0.00    -0.339 A  
HETATM    9  C   UNL     1     -11.235  10.661  67.828  1.00  0.00    -0.383 A  
HETATM   10  C   UNL     1     -10.623  11.476  66.879  1.00  0.00    -0.284 A  
HETATM   11  C   UNL     1     -10.096  10.904  65.682  1.00  0.00    -0.261 C  
HETATM   12  C   UNL     1     -10.515  12.848  67.100  1.00  0.00    -0.241 A  
HETATM   13  C   UNL     1     -11.041  13.438  68.255  1.00  0.00    -0.262 A  
HETATM   14  N   UNL     1      -9.668  10.442  64.709  1.00  0.00    -0.295 NA 
HETATM   15  C   UNL     1     -11.652  12.599  69.220  1.00  0.00    -0.318 A  
HETATM   16 CL   UNL     1     -12.310  13.296  70.668  1.00  0.00    -0.434 Cl 
BRANCH  13  17
HETATM   17  N   UNL     1     -10.922  14.838  68.466  1.00  0.00    -0.249 N  
HETATM   18  C   UNL     1     -10.858  15.807  67.478  1.00  0.00    -0.315 C  
HETATM   19  H   UNL     1     -10.881  15.159  69.433  1.00  0.00     0.000 HD 
HETATM   20  O   UNL     1     -10.986  15.684  66.264  1.00  0.00    -0.295 OA 
HETATM   21  C   UNL     1     -10.621  17.235  67.987  1.00  0.00    -0.394 C  
HETATM   22  O   UNL     1     -10.615  18.112  66.962  1.00  0.00    -0.378 OA 
HETATM   23  O   UNL     1     -10.461  17.494  69.163  1.00  0.00    -0.347 OA 
ENDBRANCH  13  17
ENDBRANCH   6   8
TORSDOF 2
ENDMDL
MODEL       39
REMARK 921   NORMALIZED FREE ENERGY PREDICTED BY IDOCK:   -5.95 KCAL/MOL
REMARK 922        TOTAL FREE ENERGY PREDICTED BY IDOCK:   -7.17 KCAL/MOL
REMARK 923 INTER-LIGAND FREE ENERGY PREDICTED BY IDOCK:   -7.28 KCAL/MOL
REMARK 924 INTRA-LIGAND FREE ENERGY PREDICTED BY IDOCK:    0.11 KCAL/MOL
REMARK 927      BINDING AFFINITY PREDICTED BY RF-SCORE:    0.00 PKD
ROOT
HETATM    1  O   UNL     1     -13.369  16.353  73.838  1.00  0.00    -0.623 OA 
HETATM    2  C   UNL     1     -12.587  16.015  72.796  1.00  0.00    -0.472 C  
HETATM    3  O   UNL     1     -11.704  16.688  72.304  1.00  0.00    -0.460 OA 
HETATM    4  C   UNL     1     -12.934  14.611  72.286  1.00  0.00    -0.355 C  
HETATM    5  O   UNL     1     -13.881  14.056  72.833  1.00  0.00    -0.657 OA 
HETATM    6  N   UNL     1     -12.091  14.134  71.295  1.00  0.00    -0.420 N  
HETATM    7  H   UNL     1     -11.334  14.749  70.997  1.00  0.00     0.000 HD 
ENDROOT
BRANCH   6   8
HETATM    8  C   UNL     1     -12.182  12.869  70.658  1.00  0.00    -0.302 A  
HETATM    9  C   UNL     1     -12.672  11.757  71.352  1.00  0.00    -0.413 A  
HETATM   10  C   UNL     1     -12.721  10.504  70.747  1.00  0.00    -0.471 A  
HETATM   11  C   UNL     1     -13.199   9.377  71.483  1.00  0.00    -0.384 C  
HETATM   12  C   UNL     1     -12.295  10.344  69.431  1.00  0.00     0.110 A  
HETATM   13  C   UNL     1     -11.841  11.435  68.680  1.00  0.00    -0.310 A  
HETATM   14  N   UNL     1     -13.587   8.461  72.078  1.00  0.00    -0.359 NA 
HETATM   15  C   UNL     1     -11.784  12.705  69.307  1.00  0.00    -0.322 A  
HETATM   16 CL   UNL     1     -11.220  14.079  68.408  1.00  0.00    -0.275 Cl 
BRANCH  13  17
HETATM   17  N   UNL     1     -11.409  11.255  67.338  1.00  0.00    -0.299 N  
HETATM   18  C   UNL     1     -10.533  10.281  66.889  1.00  0.00    -0.229 C  
HETATM   19  H   UNL     1     -11.778  11.903  66.642  1.00  0.00     0.000 HD 
HETATM   20  O   UNL     1     -10.039   9.341  67.504  1.00  0.00    -0.189 OA 
HETATM   21  C   UNL     1     -10.153  10.386  65.406  1.00  0.00    -0.284 C  
HETATM   22  O   UNL     1      -9.334   9.376  65.050  1.00  0.00    -0.251 OA 
HETATM   23  O   UNL     1     -10.559  11.278  64.687  1.00  0.00    -0.311 OA 
ENDBRANCH  13  17
ENDBRANCH   6   8
TORSDOF 2
ENDMDL
MODEL       40
REMARK 921   NORMALIZED FREE ENERGY PREDICTED BY IDOCK:   -5.93 KCAL/MOL
REMARK 922        TOTAL FREE ENERGY PREDICTED BY IDOCK:   -7.16 KCAL/MOL
REMARK 923 INTER-LIGAND FREE ENERGY PREDICTED BY IDOCK:   -6.76 KCAL/MOL
REMARK 924 INTRA-LIGAND FREE ENERGY PREDICTED BY IDOCK:   -0.39 KCAL/MOL
REMARK 927      BINDING AFFINITY PREDICTED BY RF-SCORE:    0.00 PKD
ROOT
HETATM    1  O   UNL     1     -10.637  12.671  65.009  1.00  0.00    -0.286 OA 
HETATM    2  C   UNL     1     -10.081  12.028  66.052  1.00  0.00    -0.230 C  
HETATM    3  O   UNL     1      -8.924  11.672  66.151  1.00  0.00    -0.209 OA 
HETATM    4  C   UNL     1     -11.111  11.799  67.165  1.00  0.00    -0.296 C  
HETATM    5  O   UNL     1     -12.258  12.156  66.920  1.00  0.00    -0.537 OA 
HETATM    6  N   UNL     1     -10.590  11.256  68.328  1.00  0.00    -0.187 N  
HETATM    7  H   UNL     1      -9.591  11.055  68.337  1.00  0.00     0.000 HD 
ENDROOT
BRANCH   6   8
HETATM    8  C   UNL     1     -11.319  10.952  69.508  1.00  0.00    -0.283 A  
HETATM    9  C   UNL     1     -12.034  11.951  70.178  1.00  0.00    -0.413 A  
HETATM   10  C   UNL     1     -12.713  11.671  71.360  1.00  0.00    -0.445 A  
HETATM   11  C   UNL     1     -13.415  12.711  72.042  1.00  0.00    -0.418 C  
HETATM   12  C   UNL     1     -12.701  10.380  71.886  1.00  0.00    -0.459 A  
HETATM   13  C   UNL     1     -12.039   9.338  71.228  1.00  0.00    -0.337 A  
HETATM   14  N   UNL     1     -13.985  13.553  72.598  1.00  0.00    -0.754 NA 
HETATM   15  C   UNL     1     -11.341   9.634  70.031  1.00  0.00    -0.195 A  
HETATM   16 CL   UNL     1     -10.503   8.367  69.191  1.00  0.00    -0.229 Cl 
BRANCH  13  17
HETATM   17  N   UNL     1     -12.035   8.027  71.778  1.00  0.00    -0.286 N  
HETATM   18  C   UNL     1     -11.096   7.517  72.659  1.00  0.00    -0.347 C  
HETATM   19  H   UNL     1     -12.793   7.405  71.498  1.00  0.00     0.000 HD 
HETATM   20  O   UNL     1     -10.162   8.090  73.211  1.00  0.00    -0.304 OA 
HETATM   21  C   UNL     1     -11.274   6.033  73.007  1.00  0.00    -0.197 C  
HETATM   22  O   UNL     1     -10.343   5.637  73.899  1.00  0.00    -0.222 OA 
HETATM   23  O   UNL     1     -12.148   5.346  72.518  1.00  0.00    -0.130 OA 
ENDBRANCH  13  17
ENDBRANCH   6   8
TORSDOF 2
ENDMDL
MODEL       41
REMARK 921   NORMALIZED FREE ENERGY PREDICTED BY IDOCK:   -5.86 KCAL/MOL
REMARK 922        TOTAL FREE ENERGY PREDICTED BY IDOCK:   -7.07 KCAL/MOL
REMARK 923 INTER-LIGAND FREE ENERGY PREDICTED BY IDOCK:   -6.64 KCAL/MOL
REMARK 924 INTRA-LIGAND FREE ENERGY PREDICTED BY IDOCK:   -0.44 KCAL/MOL
REMARK 927      BINDING AFFINITY PREDICTED BY RF-SCORE:    0.00 PKD
ROOT
HETATM    1  O   UNL     1     -11.466   9.315  71.948  1.00  0.00    -0.372 OA 
HETATM    2  C   UNL     1     -12.179   9.849  70.940  1.00  0.00    -0.328 C  
HETATM    3  O   UNL     1     -13.376  10.055  70.929  1.00  0.00    -0.382 OA 
HETATM    4  C   UNL     1     -11.270  10.206  69.757  1.00  0.00    -0.272 C  
HETATM    5  O   UNL     1     -10.089   9.899  69.872  1.00  0.00    -0.230 OA 
HETATM    6  N   UNL     1     -11.905  10.879  68.727  1.00  0.00    -0.434 N  
HETATM    7  H   UNL     1     -12.901  11.067  68.841  1.00  0.00     0.000 HD 
ENDROOT
BRANCH   6   8
HETATM    8  C   UNL     1     -11.299  11.331  67.525  1.00  0.00    -0.288 A  
HETATM    9  C   UNL     1     -10.694  10.423  66.649  1.00  0.00    -0.198 A  
HETATM   10  C   UNL     1     -10.058  10.864  65.492  1.00  0.00    -0.325 A  
HETATM   11  C   UNL     1      -9.423   9.923  64.625  1.00  0.00    -0.278 C  
HETATM   12  C   UNL     1     -10.029  12.222  65.182  1.00  0.00    -0.236 A  
HETATM   13  C   UNL     1     -10.660  13.163  66.003  1.00  0.00    -0.281 A  
HETATM   14  N   UNL     1      -8.908   9.160  63.920  1.00  0.00    -0.138 NA 
HETATM   15  C   UNL     1     -11.296  12.707  67.184  1.00  0.00    -0.319 A  
HETATM   16 CL   UNL     1     -12.083  13.848  68.229  1.00  0.00    -0.381 Cl 
BRANCH  13  17
HETATM   17  N   UNL     1     -10.621  14.546  65.674  1.00  0.00    -0.313 N  
HETATM   18  C   UNL     1      -9.650  15.450  66.072  1.00  0.00    -0.347 C  
HETATM   19  H   UNL     1     -11.378  14.905  65.092  1.00  0.00     0.000 HD 
HETATM   20  O   UNL     1      -8.606  15.245  66.682  1.00  0.00    -0.262 OA 
HETATM   21  C   UNL     1      -9.915  16.905  65.664  1.00  0.00    -0.099 C  
HETATM   22  O   UNL     1      -8.900  17.703  66.055  1.00  0.00    -0.502 OA 
HETATM   23  O   UNL     1     -10.918  17.247  65.070  1.00  0.00    -0.648 OA 
ENDBRANCH  13  17
ENDBRANCH   6   8
TORSDOF 2
ENDMDL
MODEL       42
REMARK 921   NORMALIZED FREE ENERGY PREDICTED BY IDOCK:   -5.83 KCAL/MOL
REMARK 922        TOTAL FREE ENERGY PREDICTED BY IDOCK:   -7.05 KCAL/MOL
REMARK 923 INTER-LIGAND FREE ENERGY PREDICTED BY IDOCK:   -6.86 KCAL/MOL
REMARK 924 INTRA-LIGAND FREE ENERGY PREDICTED BY IDOCK:   -0.18 KCAL/MOL
REMARK 927      BINDING AFFINITY PREDICTED BY RF-SCORE:    0.00 PKD
ROOT
HETATM    1  O   UNL     1      -9.094   7.120  67.425  1.00  0.00    -0.120 OA 
HETATM    2  C   UNL     1     -10.289   7.730  67.319  1.00  0.00    -0.301 C  
HETATM    3  O   UNL     1     -11.342   7.212  67.007  1.00  0.00    -0.153 OA 
HETATM    4  C   UNL     1     -10.175   9.219  67.670  1.00  0.00    -0.230 C  
HETATM    5  O   UNL     1      -9.047   9.631  67.915  1.00  0.00    -0.126 OA 
HETATM    6  N   UNL     1     -11.384   9.894  67.709  1.00  0.00    -0.447 N  
HETATM    7  H   UNL     1     -12.223   9.354  67.500  1.00  0.00     0.000 HD 
ENDROOT
BRANCH   6   8
HETATM    8  C   UNL     1     -11.563  11.269  68.015  1.00  0.00    -0.272 A  
HETATM    9  C   UNL     1     -11.987  11.665  69.288  1.00  0.00    -0.382 A  
HETATM   10  C   UNL     1     -12.209  13.007  69.581  1.00  0.00    -0.219 A  
HETATM   11  C   UNL     1     -12.668  13.387  70.879  1.00  0.00    -0.272 C  
HETATM   12  C   UNL     1     -11.997  13.981  68.607  1.00  0.00    -0.389 A  
HETATM   13  C   UNL     1     -11.529  13.639  67.333  1.00  0.00    -0.336 A  
HETATM   14  N   UNL     1     -13.039  13.697  71.932  1.00  0.00    -0.377 NA 
HETATM   15  C   UNL     1     -11.315  12.269  67.041  1.00  0.00    -0.334 A  
HETATM   16 CL   UNL     1     -10.741  11.808  65.469  1.00  0.00    -0.318 Cl 
BRANCH  13  17
HETATM   17  N   UNL     1     -11.317  14.644  66.351  1.00  0.00    -0.345 N  
HETATM   18  C   UNL     1     -10.846  15.926  66.586  1.00  0.00    -0.213 C  
HETATM   19  H   UNL     1     -11.531  14.400  65.384  1.00  0.00     0.000 HD 
HETATM   20  O   UNL     1     -10.432  16.418  67.630  1.00  0.00    -0.288 OA 
HETATM   21  C   UNL     1     -10.818  16.841  65.354  1.00  0.00    -0.141 C  
HETATM   22  O   UNL     1     -10.308  18.049  65.669  1.00  0.00    -0.611 OA 
HETATM   23  O   UNL     1     -11.214  16.483  64.263  1.00  0.00    -0.992 OA 
ENDBRANCH  13  17
ENDBRANCH   6   8
TORSDOF 2
ENDMDL
MODEL       43
REMARK 921   NORMALIZED FREE ENERGY PREDICTED BY IDOCK:   -5.76 KCAL/MOL
REMARK 922        TOTAL FREE ENERGY PREDICTED BY IDOCK:   -6.97 KCAL/MOL
REMARK 923 INTER-LIGAND FREE ENERGY PREDICTED BY IDOCK:   -6.87 KCAL/MOL
REMARK 924 INTRA-LIGAND FREE ENERGY PREDICTED BY IDOCK:   -0.09 KCAL/MOL
REMARK 927      BINDING AFFINITY PREDICTED BY RF-SCORE:    0.00 PKD
ROOT
HETATM    1  O   UNL     1     -10.695   7.063  71.271  1.00  0.00    -0.219 OA 
HETATM    2  C   UNL     1     -11.311   8.092  70.661  1.00  0.00    -0.249 C  
HETATM    3  O   UNL     1     -12.274   8.707  71.073  1.00  0.00    -0.273 OA 
HETATM    4  C   UNL     1     -10.621   8.434  69.335  1.00  0.00    -0.197 C  
HETATM    5  O   UNL     1      -9.692   7.704  69.006  1.00  0.00    -0.157 OA 
HETATM    6  N   UNL     1     -11.115   9.564  68.704  1.00  0.00    -0.461 N  
HETATM    7  H   UNL     1     -11.881  10.054  69.165  1.00  0.00     0.000 HD 
ENDROOT
BRANCH   6   8
HETATM    8  C   UNL     1     -10.653  10.104  67.475  1.00  0.00    -0.273 A  
HETATM    9  C   UNL     1      -9.982   9.296  66.551  1.00  0.00    -0.344 A  
HETATM   10  C   UNL     1      -9.486   9.829  65.364  1.00  0.00    -0.333 A  
HETATM   11  C   UNL     1      -8.781   8.992  64.447  1.00  0.00    -0.118 C  
HETATM   12  C   UNL     1      -9.666  11.179  65.074  1.00  0.00    -0.298 A  
HETATM   13  C   UNL     1     -10.371  12.018  65.945  1.00  0.00    -0.244 A  
HETATM   14  N   UNL     1      -8.208   8.314  63.701  1.00  0.00    -0.126 NA 
HETATM   15  C   UNL     1     -10.863  11.469  67.155  1.00  0.00    -0.268 A  
HETATM   16 CL   UNL     1     -11.736  12.482  68.262  1.00  0.00    -0.373 Cl 
BRANCH  13  17
HETATM   17  N   UNL     1     -10.546  13.394  65.635  1.00  0.00    -0.277 N  
HETATM   18  C   UNL     1     -11.577  13.934  64.884  1.00  0.00    -0.359 C  
HETATM   19  H   UNL     1      -9.849  14.043  65.999  1.00  0.00     0.000 HD 
HETATM   20  O   UNL     1     -12.573  13.382  64.428  1.00  0.00    -0.612 OA 
HETATM   21  C   UNL     1     -11.459  15.440  64.612  1.00  0.00    -0.337 C  
HETATM   22  O   UNL     1     -12.524  15.883  63.913  1.00  0.00    -0.760 OA 
HETATM   23  O   UNL     1     -10.515  16.103  64.992  1.00  0.00    -0.595 OA 
ENDBRANCH  13  17
ENDBRANCH   6   8
TORSDOF 2
ENDMDL
MODEL       44
REMARK 921   NORMALIZED FREE ENERGY PREDICTED BY IDOCK:   -5.73 KCAL/MOL
REMARK 922        TOTAL FREE ENERGY PREDICTED BY IDOCK:   -6.93 KCAL/MOL
REMARK 923 INTER-LIGAND FREE ENERGY PREDICTED BY IDOCK:   -6.47 KCAL/MOL
REMARK 924 INTRA-LIGAND FREE ENERGY PREDICTED BY IDOCK:   -0.46 KCAL/MOL
REMARK 927      BINDING AFFINITY PREDICTED BY RF-SCORE:    0.00 PKD
ROOT
HETATM    1  O   UNL     1     -13.216  13.907  72.219  1.00  0.00    -0.403 OA 
HETATM    2  C   UNL     1     -13.062  14.563  71.054  1.00  0.00    -0.366 C  
HETATM    3  O   UNL     1     -13.380  15.712  70.822  1.00  0.00    -0.535 OA 
HETATM    4  C   UNL     1     -12.393  13.666  70.006  1.00  0.00    -0.278 C  
HETATM    5  O   UNL     1     -12.171  12.509  70.348  1.00  0.00    -0.348 OA 
HETATM    6  N   UNL     1     -12.082  14.303  68.816  1.00  0.00    -0.511 N  
HETATM    7  H   UNL     1     -12.327  15.291  68.743  1.00  0.00     0.000 HD 
ENDROOT
BRANCH   6   8
HETATM    8  C   UNL     1     -11.454  13.711  67.689  1.00  0.00    -0.325 A  
HETATM    9  C   UNL     1     -12.202  13.364  66.559  1.00  0.00    -0.414 A  
HETATM   10  C   UNL     1     -11.601  12.741  65.469  1.00  0.00    -0.400 A  
HETATM   11  C   UNL     1     -12.389  12.371  64.337  1.00  0.00    -0.447 C  
HETATM   12  C   UNL     1     -10.235  12.467  65.484  1.00  0.00    -0.295 A  
HETATM   13  C   UNL     1      -9.436  12.837  66.572  1.00  0.00    -0.253 A  
HETATM   14  N   UNL     1     -13.026  12.070  63.416  1.00  0.00    -0.728 NA 
HETATM   15  C   UNL     1     -10.058  13.461  67.682  1.00  0.00    -0.229 A  
HETATM   16 CL   UNL     1      -9.098  13.928  69.051  1.00  0.00     0.111 Cl 
BRANCH  13  17
HETATM   17  N   UNL     1      -8.044  12.551  66.572  1.00  0.00    -0.389 N  
HETATM   18  C   UNL     1      -7.425  11.520  67.261  1.00  0.00    -0.139 C  
HETATM   19  H   UNL     1      -7.445  13.159  66.015  1.00  0.00     0.000 HD 
HETATM   20  O   UNL     1      -7.932  10.610  67.910  1.00  0.00    -0.104 OA 
HETATM   21  C   UNL     1      -5.894  11.509  67.171  1.00  0.00    -0.110 C  
HETATM   22  O   UNL     1      -5.384  10.451  67.834  1.00  0.00    -0.038 OA 
HETATM   23  O   UNL     1      -5.266  12.361  66.574  1.00  0.00    -0.266 OA 
ENDBRANCH  13  17
ENDBRANCH   6   8
TORSDOF 2
ENDMDL
MODEL       45
REMARK 921   NORMALIZED FREE ENERGY PREDICTED BY IDOCK:   -5.70 KCAL/MOL
REMARK 922        TOTAL FREE ENERGY PREDICTED BY IDOCK:   -6.89 KCAL/MOL
REMARK 923 INTER-LIGAND FREE ENERGY PREDICTED BY IDOCK:   -6.92 KCAL/MOL
REMARK 924 INTRA-LIGAND FREE ENERGY PREDICTED BY IDOCK:    0.02 KCAL/MOL
REMARK 927      BINDING AFFINITY PREDICTED BY RF-SCORE:    0.00 PKD
ROOT
HETATM    1  O   UNL     1      -9.768  10.285  62.417  1.00  0.00    -0.229 OA 
HETATM    2  C   UNL     1      -9.258  10.588  63.625  1.00  0.00    -0.270 C  
HETATM    3  O   UNL     1      -8.256  10.119  64.127  1.00  0.00    -0.156 OA 
HETATM    4  C   UNL     1     -10.108  11.655  64.325  1.00  0.00    -0.287 C  
HETATM    5  O   UNL     1     -11.124  12.008  63.736  1.00  0.00    -0.363 OA 
HETATM    6  N   UNL     1      -9.582  12.118  65.520  1.00  0.00    -0.390 N  
HETATM    7  H   UNL     1      -8.698  11.711  65.824  1.00  0.00     0.000 HD 
ENDROOT
BRANCH   6   8
HETATM    8  C   UNL     1     -10.159  13.106  66.361  1.00  0.00    -0.281 A  
HETATM    9  C   UNL     1     -10.033  14.464  66.051  1.00  0.00    -0.337 A  
HETATM   10  C   UNL     1     -10.556  15.440  66.895  1.00  0.00    -0.309 A  
HETATM   11  C   UNL     1     -10.392  16.821  66.574  1.00  0.00    -0.301 C  
HETATM   12  C   UNL     1     -11.231  15.072  68.058  1.00  0.00    -0.324 A  
HETATM   13  C   UNL     1     -11.423  13.725  68.386  1.00  0.00    -0.316 A  
HETATM   14  N   UNL     1     -10.261  17.944  66.315  1.00  0.00    -0.375 NA 
HETATM   15  C   UNL     1     -10.878  12.739  67.527  1.00  0.00    -0.239 A  
HETATM   16 CL   UNL     1     -11.092  11.059  67.907  1.00  0.00    -0.318 Cl 
BRANCH  13  17
HETATM   17  N   UNL     1     -12.113  13.366  69.576  1.00  0.00    -0.304 N  
HETATM   18  C   UNL     1     -12.617  14.245  70.521  1.00  0.00    -0.353 C  
HETATM   19  H   UNL     1     -12.250  12.371  69.750  1.00  0.00     0.000 HD 
HETATM   20  O   UNL     1     -12.665  15.470  70.489  1.00  0.00    -0.434 OA 
HETATM   21  C   UNL     1     -13.220  13.580  71.765  1.00  0.00    -0.404 C  
HETATM   22  O   UNL     1     -13.721  14.508  72.606  1.00  0.00    -0.465 OA 
HETATM   23  O   UNL     1     -13.223  12.377  71.930  1.00  0.00    -0.464 OA 
ENDBRANCH  13  17
ENDBRANCH   6   8
TORSDOF 2
ENDMDL
MODEL       46
REMARK 921   NORMALIZED FREE ENERGY PREDICTED BY IDOCK:   -5.68 KCAL/MOL
REMARK 922        TOTAL FREE ENERGY PREDICTED BY IDOCK:   -6.87 KCAL/MOL
REMARK 923 INTER-LIGAND FREE ENERGY PREDICTED BY IDOCK:   -6.32 KCAL/MOL
REMARK 924 INTRA-LIGAND FREE ENERGY PREDICTED BY IDOCK:   -0.55 KCAL/MOL
REMARK 927      BINDING AFFINITY PREDICTED BY RF-SCORE:    0.00 PKD
ROOT
HETATM    1  O   UNL     1      -9.011  19.444  65.970  1.00  0.00    -0.413 OA 
HETATM    2  C   UNL     1      -9.895  18.719  66.681  1.00  0.00    -0.356 C  
HETATM    3  O   UNL     1     -10.735  19.149  67.445  1.00  0.00    -0.462 OA 
HETATM    4  C   UNL     1      -9.731  17.222  66.392  1.00  0.00    -0.290 C  
HETATM    5  O   UNL     1      -8.811  16.914  65.643  1.00  0.00    -0.472 OA 
HETATM    6  N   UNL     1     -10.686  16.414  66.987  1.00  0.00    -0.268 N  
HETATM    7  H   UNL     1     -11.394  16.877  67.556  1.00  0.00     0.000 HD 
ENDROOT
BRANCH   6   8
HETATM    8  C   UNL     1     -10.772  15.001  66.877  1.00  0.00    -0.308 A  
HETATM    9  C   UNL     1     -11.557  14.412  65.881  1.00  0.00    -0.361 A  
HETATM   10  C   UNL     1     -11.682  13.028  65.795  1.00  0.00    -0.427 A  
HETATM   11  C   UNL     1     -12.511  12.449  64.788  1.00  0.00    -0.401 C  
HETATM   12  C   UNL     1     -11.010  12.207  66.698  1.00  0.00    -0.325 A  
HETATM   13  C   UNL     1     -10.175  12.748  67.683  1.00  0.00    -0.219 A  
HETATM   14  N   UNL     1     -13.182  11.976  63.969  1.00  0.00    -0.677 NA 
HETATM   15  C   UNL     1     -10.062  14.158  67.769  1.00  0.00    -0.239 A  
HETATM   16 CL   UNL     1      -9.041  14.863  68.983  1.00  0.00    -0.194 Cl 
BRANCH  13  17
HETATM   17  N   UNL     1      -9.496  11.897  68.598  1.00  0.00    -0.364 N  
HETATM   18  C   UNL     1      -8.203  11.420  68.459  1.00  0.00    -0.153 C  
HETATM   19  H   UNL     1     -10.008  11.612  69.433  1.00  0.00     0.000 HD 
HETATM   20  O   UNL     1      -7.364  11.696  67.607  1.00  0.00    -0.095 OA 
HETATM   21  C   UNL     1      -7.759  10.429  69.542  1.00  0.00    -0.156 C  
HETATM   22  O   UNL     1      -6.478  10.053  69.350  1.00  0.00    -0.044 OA 
HETATM   23  O   UNL     1      -8.496  10.059  70.434  1.00  0.00    -0.101 OA 
ENDBRANCH  13  17
ENDBRANCH   6   8
TORSDOF 2
ENDMDL
MODEL       47
REMARK 921   NORMALIZED FREE ENERGY PREDICTED BY IDOCK:   -5.67 KCAL/MOL
REMARK 922        TOTAL FREE ENERGY PREDICTED BY IDOCK:   -6.86 KCAL/MOL
REMARK 923 INTER-LIGAND FREE ENERGY PREDICTED BY IDOCK:   -6.34 KCAL/MOL
REMARK 924 INTRA-LIGAND FREE ENERGY PREDICTED BY IDOCK:   -0.52 KCAL/MOL
REMARK 927      BINDING AFFINITY PREDICTED BY RF-SCORE:    0.00 PKD
ROOT
HETATM    1  O   UNL     1      -6.591  10.344  66.582  1.00  0.00    -0.072 OA 
HETATM    2  C   UNL     1      -7.744  10.830  66.087  1.00  0.00    -0.149 C  
HETATM    3  O   UNL     1      -8.382  10.376  65.159  1.00  0.00    -0.160 OA 
HETATM    4  C   UNL     1      -8.197  12.067  66.872  1.00  0.00    -0.146 C  
HETATM    5  O   UNL     1      -7.437  12.457  67.752  1.00  0.00    -0.104 OA 
HETATM    6  N   UNL     1      -9.442  12.554  66.510  1.00  0.00    -0.238 N  
HETATM    7  H   UNL     1      -9.933  12.061  65.764  1.00  0.00     0.000 HD 
ENDROOT
BRANCH   6   8
HETATM    8  C   UNL     1     -10.099  13.677  67.079  1.00  0.00    -0.248 A  
HETATM    9  C   UNL     1      -9.899  14.958  66.555  1.00  0.00    -0.281 A  
HETATM   10  C   UNL     1     -10.503  16.069  67.137  1.00  0.00    -0.308 A  
HETATM   11  C   UNL     1     -10.264  17.372  66.603  1.00  0.00    -0.324 C  
HETATM   12  C   UNL     1     -11.332  15.915  68.246  1.00  0.00    -0.342 A  
HETATM   13  C   UNL     1     -11.600  14.649  68.777  1.00  0.00    -0.317 A  
HETATM   14  N   UNL     1     -10.071  18.430  66.170  1.00  0.00    -0.506 NA 
HETATM   15  C   UNL     1     -10.972  13.525  68.186  1.00  0.00    -0.254 A  
HETATM   16 CL   UNL     1     -11.277  11.939  68.823  1.00  0.00    -0.284 Cl 
BRANCH  13  17
HETATM   17  N   UNL     1     -12.448  14.508  69.910  1.00  0.00    -0.492 N  
HETATM   18  C   UNL     1     -12.115  14.816  71.219  1.00  0.00    -0.341 C  
HETATM   19  H   UNL     1     -13.387  14.148  69.743  1.00  0.00     0.000 HD 
HETATM   20  O   UNL     1     -11.099  15.348  71.653  1.00  0.00    -0.363 OA 
HETATM   21  C   UNL     1     -13.186  14.462  72.259  1.00  0.00    -0.406 C  
HETATM   22  O   UNL     1     -12.794  14.835  73.494  1.00  0.00    -0.520 OA 
HETATM   23  O   UNL     1     -14.231  13.918  71.964  1.00  0.00    -0.488 OA 
ENDBRANCH  13  17
ENDBRANCH   6   8
TORSDOF 2
ENDMDL
MODEL       48
REMARK 921   NORMALIZED FREE ENERGY PREDICTED BY IDOCK:   -5.64 KCAL/MOL
REMARK 922        TOTAL FREE ENERGY PREDICTED BY IDOCK:   -6.83 KCAL/MOL
REMARK 923 INTER-LIGAND FREE ENERGY PREDICTED BY IDOCK:   -6.37 KCAL/MOL
REMARK 924 INTRA-LIGAND FREE ENERGY PREDICTED BY IDOCK:   -0.46 KCAL/MOL
REMARK 927      BINDING AFFINITY PREDICTED BY RF-SCORE:    0.00 PKD
ROOT
HETATM    1  O   UNL     1      -9.455  10.377  62.404  1.00  0.00    -0.280 OA 
HETATM    2  C   UNL     1      -9.014  10.345  63.675  1.00  0.00    -0.231 C  
HETATM    3  O   UNL     1      -7.920   9.976  64.053  1.00  0.00    -0.143 OA 
HETATM    4  C   UNL     1     -10.085  10.869  64.639  1.00  0.00    -0.328 C  
HETATM    5  O   UNL     1     -11.166  11.159  64.138  1.00  0.00    -0.259 OA 
HETATM    6  N   UNL     1      -9.667  10.989  65.953  1.00  0.00    -0.214 N  
HETATM    7  H   UNL     1      -8.705  10.718  66.160  1.00  0.00     0.000 HD 
ENDROOT
BRANCH   6   8
HETATM    8  C   UNL     1     -10.451  11.454  67.041  1.00  0.00    -0.236 A  
HETATM    9  C   UNL     1     -10.701  12.821  67.204  1.00  0.00    -0.264 A  
HETATM   10  C   UNL     1     -11.431  13.289  68.293  1.00  0.00    -0.351 A  
HETATM   11  C   UNL     1     -11.650  14.690  68.455  1.00  0.00    -0.323 C  
HETATM   12  C   UNL     1     -11.938  12.394  69.233  1.00  0.00    -0.308 A  
HETATM   13  C   UNL     1     -11.755  11.014  69.088  1.00  0.00    -0.333 A  
HETATM   14  N   UNL     1     -11.831  15.828  68.587  1.00  0.00    -0.354 NA 
HETATM   15  C   UNL     1     -11.001  10.547  67.982  1.00  0.00    -0.290 A  
HETATM   16 CL   UNL     1     -10.749   8.842  67.775  1.00  0.00    -0.254 Cl 
BRANCH  13  17
HETATM   17  N   UNL     1     -12.278  10.113  70.056  1.00  0.00    -0.494 N  
HETATM   18  C   UNL     1     -11.547   9.444  71.024  1.00  0.00    -0.330 C  
HETATM   19  H   UNL     1     -13.283   9.944  70.035  1.00  0.00     0.000 HD 
HETATM   20  O   UNL     1     -10.359   9.555  71.311  1.00  0.00    -0.312 OA 
HETATM   21  C   UNL     1     -12.351   8.447  71.869  1.00  0.00    -0.347 C  
HETATM   22  O   UNL     1     -11.570   7.878  72.808  1.00  0.00    -0.383 OA 
HETATM   23  O   UNL     1     -13.531   8.230  71.679  1.00  0.00    -0.335 OA 
ENDBRANCH  13  17
ENDBRANCH   6   8
TORSDOF 2
ENDMDL
MODEL       49
REMARK 921   NORMALIZED FREE ENERGY PREDICTED BY IDOCK:   -5.64 KCAL/MOL
REMARK 922        TOTAL FREE ENERGY PREDICTED BY IDOCK:   -6.83 KCAL/MOL
REMARK 923 INTER-LIGAND FREE ENERGY PREDICTED BY IDOCK:   -6.50 KCAL/MOL
REMARK 924 INTRA-LIGAND FREE ENERGY PREDICTED BY IDOCK:   -0.33 KCAL/MOL
REMARK 927      BINDING AFFINITY PREDICTED BY RF-SCORE:    0.00 PKD
ROOT
HETATM    1  O   UNL     1     -13.315  15.186  72.322  1.00  0.00    -0.343 OA 
HETATM    2  C   UNL     1     -13.445  13.861  72.125  1.00  0.00    -0.485 C  
HETATM    3  O   UNL     1     -14.224  13.119  72.687  1.00  0.00    -0.677 OA 
HETATM    4  C   UNL     1     -12.470  13.371  71.048  1.00  0.00    -0.353 C  
HETATM    5  O   UNL     1     -11.698  14.210  70.596  1.00  0.00    -0.277 OA 
HETATM    6  N   UNL     1     -12.626  12.041  70.693  1.00  0.00    -0.222 N  
HETATM    7  H   UNL     1     -13.357  11.517  71.174  1.00  0.00     0.000 HD 
ENDROOT
BRANCH   6   8
HETATM    8  C   UNL     1     -11.864  11.340  69.721  1.00  0.00    -0.364 A  
HETATM    9  C   UNL     1     -11.753  11.831  68.416  1.00  0.00    -0.389 A  
HETATM   10  C   UNL     1     -11.045  11.126  67.446  1.00  0.00    -0.370 A  
HETATM   11  C   UNL     1     -10.967  11.632  66.113  1.00  0.00    -0.288 C  
HETATM   12  C   UNL     1     -10.424   9.922  67.770  1.00  0.00    -0.292 A  
HETATM   13  C   UNL     1     -10.468   9.413  69.073  1.00  0.00    -0.217 A  
HETATM   14  N   UNL     1     -10.901  12.041  65.031  1.00  0.00    -0.294 NA 
HETATM   15  C   UNL     1     -11.199  10.132  70.051  1.00  0.00    -0.299 A  
HETATM   16 CL   UNL     1     -11.280   9.527  71.677  1.00  0.00    -0.437 Cl 
BRANCH  13  17
HETATM   17  N   UNL     1      -9.829   8.183  69.388  1.00  0.00    -0.178 N  
HETATM   18  C   UNL     1     -10.455   6.956  69.536  1.00  0.00    -0.223 C  
HETATM   19  H   UNL     1      -8.818   8.206  69.516  1.00  0.00     0.000 HD 
HETATM   20  O   UNL     1     -11.628   6.657  69.338  1.00  0.00    -0.274 OA 
HETATM   21  C   UNL     1      -9.536   5.812  69.985  1.00  0.00    -0.164 C  
HETATM   22  O   UNL     1     -10.221   4.652  70.062  1.00  0.00    -0.234 OA 
HETATM   23  O   UNL     1      -8.358   5.975  70.231  1.00  0.00    -0.119 OA 
ENDBRANCH  13  17
ENDBRANCH   6   8
TORSDOF 2
ENDMDL
MODEL       50
REMARK 921   NORMALIZED FREE ENERGY PREDICTED BY IDOCK:   -5.63 KCAL/MOL
REMARK 922        TOTAL FREE ENERGY PREDICTED BY IDOCK:   -6.82 KCAL/MOL
REMARK 923 INTER-LIGAND FREE ENERGY PREDICTED BY IDOCK:   -6.50 KCAL/MOL
REMARK 924 INTRA-LIGAND FREE ENERGY PREDICTED BY IDOCK:   -0.32 KCAL/MOL
REMARK 927      BINDING AFFINITY PREDICTED BY RF-SCORE:    0.00 PKD
ROOT
HETATM    1  O   UNL     1     -12.450   7.859  72.848  1.00  0.00    -0.007 OA 
HETATM    2  C   UNL     1     -11.497   8.354  72.036  1.00  0.00    -0.349 C  
HETATM    3  O   UNL     1     -10.390   7.890  71.852  1.00  0.00    -0.199 OA 
HETATM    4  C   UNL     1     -11.992   9.615  71.319  1.00  0.00    -0.380 C  
HETATM    5  O   UNL     1     -13.110  10.011  71.632  1.00  0.00    -0.381 OA 
HETATM    6  N   UNL     1     -11.119  10.116  70.367  1.00  0.00    -0.306 N  
HETATM    7  H   UNL     1     -10.241   9.615  70.236  1.00  0.00     0.000 HD 
ENDROOT
BRANCH   6   8
HETATM    8  C   UNL     1     -11.333  11.262  69.557  1.00  0.00    -0.294 A  
HETATM    9  C   UNL     1     -11.567  12.512  70.141  1.00  0.00    -0.150 A  
HETATM   10  C   UNL     1     -11.823  13.631  69.354  1.00  0.00    -0.392 A  
HETATM   11  C   UNL     1     -12.087  14.891  69.972  1.00  0.00    -0.338 C  
HETATM   12  C   UNL     1     -11.834  13.522  67.965  1.00  0.00    -0.400 A  
HETATM   13  C   UNL     1     -11.560  12.304  67.333  1.00  0.00    -0.355 A  
HETATM   14  N   UNL     1     -12.300  15.915  70.471  1.00  0.00    -0.334 NA 
HETATM   15  C   UNL     1     -11.311  11.168  68.143  1.00  0.00    -0.309 A  
HETATM   16 CL   UNL     1     -10.973   9.639  67.393  1.00  0.00    -0.246 Cl 
BRANCH  13  17
HETATM   17  N   UNL     1     -11.575  12.209  65.915  1.00  0.00    -0.384 N  
HETATM   18  C   UNL     1     -10.466  12.067  65.097  1.00  0.00    -0.289 C  
HETATM   19  H   UNL     1     -12.486  12.250  65.458  1.00  0.00     0.000 HD 
HETATM   20  O   UNL     1      -9.292  11.897  65.409  1.00  0.00    -0.164 OA 
HETATM   21  C   UNL     1     -10.764  12.101  63.592  1.00  0.00    -0.467 C  
HETATM   22  O   UNL     1      -9.635  11.913  62.878  1.00  0.00    -0.367 OA 
HETATM   23  O   UNL     1     -11.881  12.278  63.149  1.00  0.00    -0.389 OA 
ENDBRANCH  13  17
ENDBRANCH   6   8
TORSDOF 2
ENDMDL
MODEL       51
REMARK 921   NORMALIZED FREE ENERGY PREDICTED BY IDOCK:   -5.62 KCAL/MOL
REMARK 922        TOTAL FREE ENERGY PREDICTED BY IDOCK:   -6.81 KCAL/MOL
REMARK 923 INTER-LIGAND FREE ENERGY PREDICTED BY IDOCK:   -6.26 KCAL/MOL
REMARK 924 INTRA-LIGAND FREE ENERGY PREDICTED BY IDOCK:   -0.55 KCAL/MOL
REMARK 927      BINDING AFFINITY PREDICTED BY RF-SCORE:    0.00 PKD
ROOT
HETATM    1  O   UNL     1     -10.701  10.529  64.754  1.00  0.00    -0.159 OA 
HETATM    2  C   UNL     1     -10.273  10.735  66.013  1.00  0.00    -0.251 C  
HETATM    3  O   UNL     1      -9.495  10.042  66.637  1.00  0.00    -0.161 OA 
HETATM    4  C   UNL     1     -10.887  12.013  66.596  1.00  0.00    -0.272 C  
HETATM    5  O   UNL     1     -11.700  12.595  65.885  1.00  0.00    -0.375 OA 
HETATM    6  N   UNL     1     -10.400  12.369  67.843  1.00  0.00    -0.205 N  
HETATM    7  H   UNL     1      -9.695  11.758  68.256  1.00  0.00     0.000 HD 
ENDROOT
BRANCH   6   8
HETATM    8  C   UNL     1     -10.791  13.505  68.600  1.00  0.00    -0.259 A  
HETATM    9  C   UNL     1     -11.881  13.436  69.474  1.00  0.00    -0.391 A  
HETATM   10  C   UNL     1     -12.297  14.558  70.185  1.00  0.00    -0.398 A  
HETATM   11  C   UNL     1     -13.429  14.472  71.051  1.00  0.00    -0.289 C  
HETATM   12  C   UNL     1     -11.619  15.767  70.046  1.00  0.00    -0.361 A  
HETATM   13  C   UNL     1     -10.495  15.874  69.219  1.00  0.00    -0.253 A  
HETATM   14  N   UNL     1     -14.348  14.405  71.756  1.00  0.00    -0.497 NA 
HETATM   15  C   UNL     1     -10.085  14.730  68.491  1.00  0.00    -0.230 A  
HETATM   16 CL   UNL     1      -8.698  14.828  67.451  1.00  0.00    -0.195 Cl 
BRANCH  13  17
HETATM   17  N   UNL     1      -9.814  17.115  69.087  1.00  0.00    -0.230 N  
HETATM   18  C   UNL     1     -10.035  18.063  68.101  1.00  0.00    -0.353 C  
HETATM   19  H   UNL     1      -9.098  17.327  69.781  1.00  0.00     0.000 HD 
HETATM   20  O   UNL     1     -10.896  18.084  67.227  1.00  0.00    -0.334 OA 
HETATM   21  C   UNL     1      -9.081  19.264  68.133  1.00  0.00    -0.331 C  
HETATM   22  O   UNL     1      -9.397  20.151  67.168  1.00  0.00    -0.349 OA 
HETATM   23  O   UNL     1      -8.175  19.360  68.936  1.00  0.00    -0.363 OA 
ENDBRANCH  13  17
ENDBRANCH   6   8
TORSDOF 2
ENDMDL
MODEL       52
REMARK 921   NORMALIZED FREE ENERGY PREDICTED BY IDOCK:   -5.56 KCAL/MOL
REMARK 922        TOTAL FREE ENERGY PREDICTED BY IDOCK:   -6.74 KCAL/MOL
REMARK 923 INTER-LIGAND FREE ENERGY PREDICTED BY IDOCK:   -6.60 KCAL/MOL
REMARK 924 INTRA-LIGAND FREE ENERGY PREDICTED BY IDOCK:   -0.14 KCAL/MOL
REMARK 927      BINDING AFFINITY PREDICTED BY RF-SCORE:    0.00 PKD
ROOT
HETATM    1  O   UNL     1      -9.082   8.697  70.414  1.00  0.00    -0.144 OA 
HETATM    2  C   UNL     1      -8.641   9.917  70.053  1.00  0.00    -0.167 C  
HETATM    3  O   UNL     1      -7.552  10.395  70.298  1.00  0.00    -0.180 OA 
HETATM    4  C   UNL     1      -9.706  10.665  69.243  1.00  0.00    -0.160 C  
HETATM    5  O   UNL     1     -10.784  10.095  69.110  1.00  0.00    -0.203 OA 
HETATM    6  N   UNL     1      -9.286  11.878  68.723  1.00  0.00    -0.395 N  
HETATM    7  H   UNL     1      -8.328  12.162  68.927  1.00  0.00     0.000 HD 
ENDROOT
BRANCH   6   8
HETATM    8  C   UNL     1     -10.065  12.764  67.932  1.00  0.00    -0.231 A  
HETATM    9  C   UNL     1     -10.915  12.268  66.938  1.00  0.00    -0.312 A  
HETATM   10  C   UNL     1     -11.647  13.132  66.129  1.00  0.00    -0.396 A  
HETATM   11  C   UNL     1     -12.488  12.605  65.102  1.00  0.00    -0.463 C  
HETATM   12  C   UNL     1     -11.553  14.510  66.310  1.00  0.00    -0.364 A  
HETATM   13  C   UNL     1     -10.752  15.053  67.322  1.00  0.00    -0.298 A  
HETATM   14  N   UNL     1     -13.172  12.180  64.268  1.00  0.00    -0.725 NA 
HETATM   15  C   UNL     1     -10.002  14.166  68.134  1.00  0.00    -0.232 A  
HETATM   16 CL   UNL     1      -8.993  14.804  69.395  1.00  0.00    -0.033 Cl 
BRANCH  13  17
HETATM   17  N   UNL     1     -10.666  16.461  67.494  1.00  0.00    -0.320 N  
HETATM   18  C   UNL     1     -10.106  17.358  66.599  1.00  0.00    -0.317 C  
HETATM   19  H   UNL     1     -11.052  16.847  68.356  1.00  0.00     0.000 HD 
HETATM   20  O   UNL     1      -9.674  17.154  65.469  1.00  0.00    -0.532 OA 
HETATM   21  C   UNL     1     -10.049  18.810  67.089  1.00  0.00    -0.354 C  
HETATM   22  O   UNL     1      -9.529  19.614  66.139  1.00  0.00    -0.380 OA 
HETATM   23  O   UNL     1     -10.428  19.146  68.193  1.00  0.00    -0.390 OA 
ENDBRANCH  13  17
ENDBRANCH   6   8
TORSDOF 2
ENDMDL
MODEL       53
REMARK 921   NORMALIZED FREE ENERGY PREDICTED BY IDOCK:   -5.56 KCAL/MOL
REMARK 922        TOTAL FREE ENERGY PREDICTED BY IDOCK:   -6.74 KCAL/MOL
REMARK 923 INTER-LIGAND FREE ENERGY PREDICTED BY IDOCK:   -6.33 KCAL/MOL
REMARK 924 INTRA-LIGAND FREE ENERGY PREDICTED BY IDOCK:   -0.41 KCAL/MOL
REMARK 927      BINDING AFFINITY PREDICTED BY RF-SCORE:    0.00 PKD
ROOT
HETATM    1  O   UNL     1     -14.081  13.679  72.424  1.00  0.00    -0.637 OA 
HETATM    2  C   UNL     1     -13.698  14.627  71.549  1.00  0.00    -0.419 C  
HETATM    3  O   UNL     1     -14.210  15.717  71.391  1.00  0.00    -0.535 OA 
HETATM    4  C   UNL     1     -12.472  14.169  70.750  1.00  0.00    -0.366 C  
HETATM    5  O   UNL     1     -12.083  13.026  70.966  1.00  0.00    -0.246 OA 
HETATM    6  N   UNL     1     -11.935  15.135  69.916  1.00  0.00    -0.317 N  
HETATM    7  H   UNL     1     -12.397  16.045  69.904  1.00  0.00     0.000 HD 
ENDROOT
BRANCH   6   8
HETATM    8  C   UNL     1     -10.801  14.978  69.076  1.00  0.00    -0.242 A  
HETATM    9  C   UNL     1      -9.572  15.544  69.429  1.00  0.00    -0.279 A  
HETATM   10  C   UNL     1      -8.467  15.433  68.588  1.00  0.00    -0.170 A  
HETATM   11  C   UNL     1      -7.229  16.042  68.955  1.00  0.00    -0.182 C  
HETATM   12  C   UNL     1      -8.571  14.740  67.384  1.00  0.00    -0.210 A  
HETATM   13  C   UNL     1      -9.767  14.117  67.009  1.00  0.00    -0.258 A  
HETATM   14  N   UNL     1      -6.222  16.534  69.251  1.00  0.00    -0.170 NA 
HETATM   15  C   UNL     1     -10.888  14.244  67.866  1.00  0.00    -0.253 A  
HETATM   16 CL   UNL     1     -12.390  13.489  67.429  1.00  0.00    -0.248 Cl 
BRANCH  13  17
HETATM   17  N   UNL     1      -9.856  13.413  65.777  1.00  0.00    -0.428 N  
HETATM   18  C   UNL     1      -9.883  12.037  65.627  1.00  0.00    -0.243 C  
HETATM   19  H   UNL     1      -9.906  13.973  64.927  1.00  0.00     0.000 HD 
HETATM   20  O   UNL     1      -9.935  11.165  66.488  1.00  0.00    -0.202 OA 
HETATM   21  C   UNL     1      -9.873  11.544  64.173  1.00  0.00    -0.255 C  
HETATM   22  O   UNL     1      -9.943  10.199  64.125  1.00  0.00    -0.278 OA 
HETATM   23  O   UNL     1      -9.807  12.301  63.225  1.00  0.00    -0.390 OA 
ENDBRANCH  13  17
ENDBRANCH   6   8
TORSDOF 2
ENDMDL
MODEL       54
REMARK 921   NORMALIZED FREE ENERGY PREDICTED BY IDOCK:   -5.56 KCAL/MOL
REMARK 922        TOTAL FREE ENERGY PREDICTED BY IDOCK:   -6.74 KCAL/MOL
REMARK 923 INTER-LIGAND FREE ENERGY PREDICTED BY IDOCK:   -6.26 KCAL/MOL
REMARK 924 INTRA-LIGAND FREE ENERGY PREDICTED BY IDOCK:   -0.48 KCAL/MOL
REMARK 927      BINDING AFFINITY PREDICTED BY RF-SCORE:    0.00 PKD
ROOT
HETATM    1  O   UNL     1     -12.317  12.231  63.445  1.00  0.00    -0.538 OA 
HETATM    2  C   UNL     1     -12.282  13.097  64.474  1.00  0.00    -0.406 C  
HETATM    3  O   UNL     1     -13.232  13.502  65.114  1.00  0.00    -0.720 OA 
HETATM    4  C   UNL     1     -10.841  13.522  64.781  1.00  0.00    -0.381 C  
HETATM    5  O   UNL     1      -9.977  13.085  64.028  1.00  0.00    -0.308 OA 
HETATM    6  N   UNL     1     -10.702  14.314  65.909  1.00  0.00    -0.296 N  
HETATM    7  H   UNL     1     -11.554  14.544  66.420  1.00  0.00     0.000 HD 
ENDROOT
BRANCH   6   8
HETATM    8  C   UNL     1      -9.484  14.836  66.420  1.00  0.00    -0.301 A  
HETATM    9  C   UNL     1      -8.510  13.981  66.945  1.00  0.00    -0.102 A  
HETATM   10  C   UNL     1      -7.333  14.488  67.489  1.00  0.00    -0.212 A  
HETATM   11  C   UNL     1      -6.364  13.599  68.044  1.00  0.00    -0.139 C  
HETATM   12  C   UNL     1      -7.104  15.863  67.504  1.00  0.00    -0.207 A  
HETATM   13  C   UNL     1      -8.028  16.755  66.949  1.00  0.00    -0.213 A  
HETATM   14  N   UNL     1      -5.575  12.879  68.495  1.00  0.00    -0.064 NA 
HETATM   15  C   UNL     1      -9.228  16.230  66.406  1.00  0.00    -0.299 A  
HETATM   16 CL   UNL     1     -10.399  17.309  65.715  1.00  0.00    -0.306 Cl 
BRANCH  13  17
HETATM   17  N   UNL     1      -7.780  18.155  66.972  1.00  0.00    -0.215 N  
HETATM   18  C   UNL     1      -7.130  18.882  65.989  1.00  0.00    -0.266 C  
HETATM   19  H   UNL     1      -8.112  18.670  67.787  1.00  0.00     0.000 HD 
HETATM   20  O   UNL     1      -6.734  18.513  64.888  1.00  0.00    -0.463 OA 
HETATM   21  C   UNL     1      -6.903  20.362  66.323  1.00  0.00    -0.238 C  
HETATM   22  O   UNL     1      -6.303  20.997  65.295  1.00  0.00    -0.238 OA 
HETATM   23  O   UNL     1      -7.232  20.853  67.384  1.00  0.00    -0.348 OA 
ENDBRANCH  13  17
ENDBRANCH   6   8
TORSDOF 2
ENDMDL
MODEL       55
REMARK 921   NORMALIZED FREE ENERGY PREDICTED BY IDOCK:   -5.55 KCAL/MOL
REMARK 922        TOTAL FREE ENERGY PREDICTED BY IDOCK:   -6.73 KCAL/MOL
REMARK 923 INTER-LIGAND FREE ENERGY PREDICTED BY IDOCK:   -6.23 KCAL/MOL
REMARK 924 INTRA-LIGAND FREE ENERGY PREDICTED BY IDOCK:   -0.50 KCAL/MOL
REMARK 927      BINDING AFFINITY PREDICTED BY RF-SCORE:    0.00 PKD
ROOT
HETATM    1  O   UNL     1     -12.906  14.818  65.040  1.00  0.00    -0.359 OA 
HETATM    2  C   UNL     1     -11.915  14.432  65.864  1.00  0.00    -0.359 C  
HETATM    3  O   UNL     1     -11.166  15.158  66.487  1.00  0.00    -0.341 OA 
HETATM    4  C   UNL     1     -11.843  12.903  65.953  1.00  0.00    -0.424 C  
HETATM    5  O   UNL     1     -12.619  12.283  65.234  1.00  0.00    -0.583 OA 
HETATM    6  N   UNL     1     -10.932  12.422  66.879  1.00  0.00    -0.255 N  
HETATM    7  H   UNL     1     -10.398  13.114  67.404  1.00  0.00     0.000 HD 
ENDROOT
BRANCH   6   8
HETATM    8  C   UNL     1     -10.673  11.056  67.167  1.00  0.00    -0.265 A  
HETATM    9  C   UNL     1      -9.912  10.277  66.288  1.00  0.00    -0.295 A  
HETATM   10  C   UNL     1      -9.693   8.926  66.540  1.00  0.00    -0.322 A  
HETATM   11  C   UNL     1      -8.937   8.143  65.617  1.00  0.00    -0.080 C  
HETATM   12  C   UNL     1     -10.219   8.332  67.686  1.00  0.00    -0.294 A  
HETATM   13  C   UNL     1     -10.948   9.081  68.618  1.00  0.00     0.080 A  
HETATM   14  N   UNL     1      -8.322   7.505  64.869  1.00  0.00    -0.089 NA 
HETATM   15  C   UNL     1     -11.175  10.453  68.348  1.00  0.00    -0.258 A  
HETATM   16 CL   UNL     1     -12.080  11.411  69.479  1.00  0.00    -0.378 Cl 
BRANCH  13  17
HETATM   17  N   UNL     1     -11.479   8.461  69.782  1.00  0.00    -0.431 N  
HETATM   18  C   UNL     1     -10.941   8.528  71.056  1.00  0.00    -0.249 C  
HETATM   19  H   UNL     1     -12.334   7.918  69.668  1.00  0.00     0.000 HD 
HETATM   20  O   UNL     1      -9.990   9.188  71.461  1.00  0.00    -0.312 OA 
HETATM   21  C   UNL     1     -11.660   7.672  72.107  1.00  0.00    -0.308 C  
HETATM   22  O   UNL     1     -11.095   7.832  73.321  1.00  0.00    -0.373 OA 
HETATM   23  O   UNL     1     -12.605   6.959  71.837  1.00  0.00    -0.339 OA 
ENDBRANCH  13  17
ENDBRANCH   6   8
TORSDOF 2
ENDMDL
MODEL       56
REMARK 921   NORMALIZED FREE ENERGY PREDICTED BY IDOCK:   -5.48 KCAL/MOL
REMARK 922        TOTAL FREE ENERGY PREDICTED BY IDOCK:   -6.65 KCAL/MOL
REMARK 923 INTER-LIGAND FREE ENERGY PREDICTED BY IDOCK:   -6.15 KCAL/MOL
REMARK 924 INTRA-LIGAND FREE ENERGY PREDICTED BY IDOCK:   -0.51 KCAL/MOL
REMARK 927      BINDING AFFINITY PREDICTED BY RF-SCORE:    0.00 PKD
ROOT
HETATM    1  O   UNL     1     -12.386  14.162  65.857  1.00  0.00    -0.448 OA 
HETATM    2  C   UNL     1     -11.988  14.155  67.143  1.00  0.00    -0.426 C  
HETATM    3  O   UNL     1     -11.735  15.126  67.828  1.00  0.00    -0.331 OA 
HETATM    4  C   UNL     1     -11.903  12.722  67.682  1.00  0.00    -0.339 C  
HETATM    5  O   UNL     1     -12.131  11.828  66.874  1.00  0.00    -0.566 OA 
HETATM    6  N   UNL     1     -11.624  12.632  69.035  1.00  0.00    -0.297 N  
HETATM    7  H   UNL     1     -11.496  13.508  69.541  1.00  0.00     0.000 HD 
ENDROOT
BRANCH   6   8
HETATM    8  C   UNL     1     -11.499  11.432  69.785  1.00  0.00    -0.300 A  
HETATM    9  C   UNL     1     -12.550  10.986  70.592  1.00  0.00    -0.427 A  
HETATM   10  C   UNL     1     -12.418   9.836  71.365  1.00  0.00    -0.482 A  
HETATM   11  C   UNL     1     -13.494   9.413  72.203  1.00  0.00    -0.471 C  
HETATM   12  C   UNL     1     -11.234   9.102  71.332  1.00  0.00    -0.419 A  
HETATM   13  C   UNL     1     -10.171   9.482  70.504  1.00  0.00    -0.287 A  
HETATM   14  N   UNL     1     -14.367   9.068  72.884  1.00  0.00    -0.443 NA 
HETATM   15  C   UNL     1     -10.311  10.660  69.729  1.00  0.00    -0.100 A  
HETATM   16 CL   UNL     1      -9.010  11.165  68.696  1.00  0.00    -0.171 Cl 
BRANCH  13  17
HETATM   17  N   UNL     1      -8.969   8.723  70.482  1.00  0.00    -0.161 N  
HETATM   18  C   UNL     1      -8.691   7.665  69.633  1.00  0.00    -0.136 C  
HETATM   19  H   UNL     1      -8.246   8.982  71.152  1.00  0.00     0.000 HD 
HETATM   20  O   UNL     1      -9.350   7.236  68.691  1.00  0.00    -0.140 OA 
HETATM   21  C   UNL     1      -7.358   6.953  69.900  1.00  0.00    -0.088 C  
HETATM   22  O   UNL     1      -7.154   5.968  69.002  1.00  0.00    -0.069 OA 
HETATM   23  O   UNL     1      -6.619   7.268  70.811  1.00  0.00    -0.043 OA 
ENDBRANCH  13  17
ENDBRANCH   6   8
TORSDOF 2
ENDMDL
MODEL       57
REMARK 921   NORMALIZED FREE ENERGY PREDICTED BY IDOCK:   -5.45 KCAL/MOL
REMARK 922        TOTAL FREE ENERGY PREDICTED BY IDOCK:   -6.62 KCAL/MOL
REMARK 923 INTER-LIGAND FREE ENERGY PREDICTED BY IDOCK:   -6.39 KCAL/MOL
REMARK 924 INTRA-LIGAND FREE ENERGY PREDICTED BY IDOCK:   -0.22 KCAL/MOL
REMARK 927      BINDING AFFINITY PREDICTED BY RF-SCORE:    0.00 PKD
ROOT
HETATM    1  O   UNL     1     -11.944   5.818  72.527  1.00  0.00    -0.275 OA 
HETATM    2  C   UNL     1     -11.338   7.000  72.309  1.00  0.00    -0.268 C  
HETATM    3  O   UNL     1     -10.818   7.713  73.143  1.00  0.00    -0.382 OA 
HETATM    4  C   UNL     1     -11.359   7.357  70.817  1.00  0.00    -0.280 C  
HETATM    5  O   UNL     1     -11.962   6.580  70.085  1.00  0.00    -0.383 OA 
HETATM    6  N   UNL     1     -10.644   8.497  70.489  1.00  0.00    -0.208 N  
HETATM    7  H   UNL     1     -10.183   8.990  71.253  1.00  0.00     0.000 HD 
ENDROOT
BRANCH   6   8
HETATM    8  C   UNL     1     -10.493   9.043  69.187  1.00  0.00    -0.225 A  
HETATM    9  C   UNL     1      -9.846   8.316  68.182  1.00  0.00    -0.198 A  
HETATM   10  C   UNL     1      -9.654   8.863  66.916  1.00  0.00    -0.248 A  
HETATM   11  C   UNL     1      -8.967   8.115  65.913  1.00  0.00    -0.151 C  
HETATM   12  C   UNL     1     -10.121  10.144  66.629  1.00  0.00    -0.283 A  
HETATM   13  C   UNL     1     -10.816  10.892  67.587  1.00  0.00    -0.266 A  
HETATM   14  N   UNL     1      -8.410   7.508  65.097  1.00  0.00    -0.120 NA 
HETATM   15  C   UNL     1     -10.997  10.331  68.876  1.00  0.00    -0.238 A  
HETATM   16 CL   UNL     1     -11.848  11.233  70.090  1.00  0.00    -0.420 Cl 
BRANCH  13  17
HETATM   17  N   UNL     1     -11.286  12.198  67.278  1.00  0.00    -0.286 N  
HETATM   18  C   UNL     1     -11.967  12.567  66.130  1.00  0.00    -0.366 C  
HETATM   19  H   UNL     1     -11.105  12.929  67.965  1.00  0.00     0.000 HD 
HETATM   20  O   UNL     1     -12.383  11.861  65.217  1.00  0.00    -0.344 OA 
HETATM   21  C   UNL     1     -12.259  14.068  66.006  1.00  0.00    -0.458 C  
HETATM   22  O   UNL     1     -12.959  14.327  64.883  1.00  0.00    -0.682 OA 
HETATM   23  O   UNL     1     -11.889  14.878  66.832  1.00  0.00    -0.315 OA 
ENDBRANCH  13  17
ENDBRANCH   6   8
TORSDOF 2
ENDMDL
MODEL       58
REMARK 921   NORMALIZED FREE ENERGY PREDICTED BY IDOCK:   -5.40 KCAL/MOL
REMARK 922        TOTAL FREE ENERGY PREDICTED BY IDOCK:   -6.56 KCAL/MOL
REMARK 923 INTER-LIGAND FREE ENERGY PREDICTED BY IDOCK:   -6.07 KCAL/MOL
REMARK 924 INTRA-LIGAND FREE ENERGY PREDICTED BY IDOCK:   -0.49 KCAL/MOL
REMARK 927      BINDING AFFINITY PREDICTED BY RF-SCORE:    0.00 PKD
ROOT
HETATM    1  O   UNL     1      -9.014   6.547  70.967  1.00  0.00    -0.145 OA 
HETATM    2  C   UNL     1     -10.038   6.923  70.179  1.00  0.00    -0.182 C  
HETATM    3  O   UNL     1     -10.979   6.235  69.837  1.00  0.00    -0.296 OA 
HETATM    4  C   UNL     1      -9.891   8.389  69.755  1.00  0.00    -0.187 C  
HETATM    5  O   UNL     1      -8.868   8.958  70.122  1.00  0.00    -0.141 OA 
HETATM    6  N   UNL     1     -10.969   8.893  69.046  1.00  0.00    -0.432 N  
HETATM    7  H   UNL     1     -11.745   8.256  68.868  1.00  0.00     0.000 HD 
ENDROOT
BRANCH   6   8
HETATM    8  C   UNL     1     -11.095  10.216  68.544  1.00  0.00    -0.214 A  
HETATM    9  C   UNL     1     -10.648  10.533  67.257  1.00  0.00    -0.317 A  
HETATM   10  C   UNL     1     -10.726  11.837  66.775  1.00  0.00    -0.289 A  
HETATM   11  C   UNL     1     -10.239  12.144  65.469  1.00  0.00    -0.265 C  
HETATM   12  C   UNL     1     -11.267  12.845  67.570  1.00  0.00    -0.329 A  
HETATM   13  C   UNL     1     -11.770  12.568  68.846  1.00  0.00    -0.322 A  
HETATM   14  N   UNL     1      -9.845  12.395  64.408  1.00  0.00    -0.151 NA 
HETATM   15  C   UNL     1     -11.677  11.241  69.332  1.00  0.00    -0.339 A  
HETATM   16 CL   UNL     1     -12.285  10.863  70.914  1.00  0.00    -0.464 Cl 
BRANCH  13  17
HETATM   17  N   UNL     1     -12.319  13.609  69.645  1.00  0.00    -0.260 N  
HETATM   18  C   UNL     1     -11.610  14.644  70.232  1.00  0.00    -0.280 C  
HETATM   19  H   UNL     1     -13.327  13.591  69.799  1.00  0.00     0.000 HD 
HETATM   20  O   UNL     1     -10.424  14.934  70.113  1.00  0.00    -0.127 OA 
HETATM   21  C   UNL     1     -12.441  15.567  71.133  1.00  0.00    -0.432 C  
HETATM   22  O   UNL     1     -11.679  16.565  71.625  1.00  0.00    -0.415 OA 
HETATM   23  O   UNL     1     -13.622  15.383  71.348  1.00  0.00    -0.479 OA 
ENDBRANCH  13  17
ENDBRANCH   6   8
TORSDOF 2
ENDMDL
MODEL       59
REMARK 921   NORMALIZED FREE ENERGY PREDICTED BY IDOCK:   -5.33 KCAL/MOL
REMARK 922        TOTAL FREE ENERGY PREDICTED BY IDOCK:   -6.48 KCAL/MOL
REMARK 923 INTER-LIGAND FREE ENERGY PREDICTED BY IDOCK:   -5.98 KCAL/MOL
REMARK 924 INTRA-LIGAND FREE ENERGY PREDICTED BY IDOCK:   -0.50 KCAL/MOL
REMARK 927      BINDING AFFINITY PREDICTED BY RF-SCORE:    0.00 PKD
ROOT
HETATM    1  O   UNL     1     -13.031  12.561  63.561  1.00  0.00    -0.719 OA 
HETATM    2  C   UNL     1     -12.646  13.045  64.756  1.00  0.00    -0.397 C  
HETATM    3  O   UNL     1     -13.174  13.945  65.377  1.00  0.00    -0.750 OA 
HETATM    4  C   UNL     1     -11.421  12.287  65.283  1.00  0.00    -0.351 C  
HETATM    5  O   UNL     1     -10.950  11.436  64.536  1.00  0.00    -0.326 OA 
HETATM    6  N   UNL     1     -11.037  12.637  66.567  1.00  0.00    -0.270 N  
HETATM    7  H   UNL     1     -11.587  13.357  67.034  1.00  0.00     0.000 HD 
ENDROOT
BRANCH   6   8
HETATM    8  C   UNL     1      -9.948  12.087  67.293  1.00  0.00    -0.194 A  
HETATM    9  C   UNL     1      -8.630  12.336  66.894  1.00  0.00    -0.182 A  
HETATM   10  C   UNL     1      -7.559  11.762  67.573  1.00  0.00    -0.135 A  
HETATM   11  C   UNL     1      -6.223  12.007  67.132  1.00  0.00    -0.151 C  
HETATM   12  C   UNL     1      -7.787  10.941  68.675  1.00  0.00    -0.126 A  
HETATM   13  C   UNL     1      -9.085  10.700  69.140  1.00  0.00    -0.139 A  
HETATM   14  N   UNL     1      -5.137  12.205  66.777  1.00  0.00    -0.331 NA 
HETATM   15  C   UNL     1     -10.170  11.279  68.436  1.00  0.00    -0.195 A  
HETATM   16 CL   UNL     1     -11.793  10.996  68.982  1.00  0.00    -0.395 Cl 
BRANCH  13  17
HETATM   17  N   UNL     1      -9.301   9.859  70.266  1.00  0.00    -0.380 N  
HETATM   18  C   UNL     1      -9.497   8.488  70.232  1.00  0.00    -0.166 C  
HETATM   19  H   UNL     1      -9.313  10.306  71.182  1.00  0.00     0.000 HD 
HETATM   20  O   UNL     1      -9.429   7.721  69.277  1.00  0.00    -0.155 OA 
HETATM   21  C   UNL     1      -9.817   7.847  71.588  1.00  0.00    -0.167 C  
HETATM   22  O   UNL     1      -9.950   6.510  71.464  1.00  0.00    -0.176 OA 
HETATM   23  O   UNL     1      -9.929   8.494  72.609  1.00  0.00    -0.278 OA 
ENDBRANCH  13  17
ENDBRANCH   6   8
TORSDOF 2
ENDMDL
MODEL       60
REMARK 921   NORMALIZED FREE ENERGY PREDICTED BY IDOCK:   -5.28 KCAL/MOL
REMARK 922        TOTAL FREE ENERGY PREDICTED BY IDOCK:   -6.42 KCAL/MOL
REMARK 923 INTER-LIGAND FREE ENERGY PREDICTED BY IDOCK:   -6.34 KCAL/MOL
REMARK 924 INTRA-LIGAND FREE ENERGY PREDICTED BY IDOCK:   -0.08 KCAL/MOL
REMARK 927      BINDING AFFINITY PREDICTED BY RF-SCORE:    0.00 PKD
ROOT
HETATM    1  O   UNL     1     -10.156  10.041  63.879  1.00  0.00     0.021 OA 
HETATM    2  C   UNL     1     -10.147  10.169  65.219  1.00  0.00    -0.274 C  
HETATM    3  O   UNL     1      -9.878   9.304  66.027  1.00  0.00    -0.277 OA 
HETATM    4  C   UNL     1     -10.512  11.600  65.633  1.00  0.00    -0.268 C  
HETATM    5  O   UNL     1     -10.815  12.365  64.724  1.00  0.00    -0.282 OA 
HETATM    6  N   UNL     1     -10.402  11.852  66.991  1.00  0.00    -0.210 N  
HETATM    7  H   UNL     1     -10.100  11.077  67.582  1.00  0.00     0.000 HD 
ENDROOT
BRANCH   6   8
HETATM    8  C   UNL     1     -10.669  13.087  67.636  1.00  0.00    -0.227 A  
HETATM    9  C   UNL     1     -10.109  14.276  67.156  1.00  0.00    -0.254 A  
HETATM   10  C   UNL     1     -10.329  15.484  67.811  1.00  0.00    -0.263 A  
HETATM   11  C   UNL     1      -9.725  16.681  67.320  1.00  0.00    -0.245 C  
HETATM   12  C   UNL     1     -11.129  15.527  68.951  1.00  0.00    -0.282 A  
HETATM   13  C   UNL     1     -11.749  14.373  69.443  1.00  0.00    -0.317 A  
HETATM   14  N   UNL     1      -9.237  17.655  66.922  1.00  0.00    -0.256 NA 
HETATM   15  C   UNL     1     -11.510  13.146  68.776  1.00  0.00    -0.307 A  
HETATM   16 CL   UNL     1     -12.259  11.693  69.362  1.00  0.00    -0.292 Cl 
BRANCH  13  17
HETATM   17  N   UNL     1     -12.562  14.433  70.608  1.00  0.00    -0.341 N  
HETATM   18  C   UNL     1     -12.215  15.024  71.812  1.00  0.00    -0.350 C  
HETATM   19  H   UNL     1     -13.484  14.002  70.552  1.00  0.00     0.000 HD 
HETATM   20  O   UNL     1     -11.219  15.682  72.092  1.00  0.00    -0.340 OA 
HETATM   21  C   UNL     1     -13.242  14.846  72.939  1.00  0.00    -0.492 C  
HETATM   22  O   UNL     1     -12.840  15.487  74.055  1.00  0.00    -0.531 OA 
HETATM   23  O   UNL     1     -14.263  14.204  72.800  1.00  0.00    -0.556 OA 
ENDBRANCH  13  17
ENDBRANCH   6   8
TORSDOF 2
ENDMDL
MODEL       61
REMARK 921   NORMALIZED FREE ENERGY PREDICTED BY IDOCK:   -5.24 KCAL/MOL
REMARK 922        TOTAL FREE ENERGY PREDICTED BY IDOCK:   -6.38 KCAL/MOL
REMARK 923 INTER-LIGAND FREE ENERGY PREDICTED BY IDOCK:   -5.85 KCAL/MOL
REMARK 924 INTRA-LIGAND FREE ENERGY PREDICTED BY IDOCK:   -0.53 KCAL/MOL
REMARK 927      BINDING AFFINITY PREDICTED BY RF-SCORE:    0.00 PKD
ROOT
HETATM    1  O   UNL     1      -8.959  19.328  66.282  1.00  0.00    -0.341 OA 
HETATM    2  C   UNL     1     -10.065  18.574  66.141  1.00  0.00    -0.368 C  
HETATM    3  O   UNL     1     -10.931  18.708  65.300  1.00  0.00    -0.536 OA 
HETATM    4  C   UNL     1     -10.105  17.460  67.195  1.00  0.00    -0.307 C  
HETATM    5  O   UNL     1      -9.198  17.466  68.020  1.00  0.00    -0.253 OA 
HETATM    6  N   UNL     1     -11.146  16.560  67.041  1.00  0.00     0.002 N  
HETATM    7  H   UNL     1     -11.783  16.718  66.260  1.00  0.00     0.000 HD 
ENDROOT
BRANCH   6   8
HETATM    8  C   UNL     1     -11.409  15.437  67.868  1.00  0.00    -0.325 A  
HETATM    9  C   UNL     1     -12.032  15.599  69.110  1.00  0.00    -0.329 A  
HETATM   10  C   UNL     1     -12.252  14.508  69.947  1.00  0.00    -0.379 A  
HETATM   11  C   UNL     1     -12.864  14.700  71.222  1.00  0.00    -0.335 C  
HETATM   12  C   UNL     1     -11.865  13.231  69.548  1.00  0.00    -0.388 A  
HETATM   13  C   UNL     1     -11.280  13.011  68.295  1.00  0.00    -0.275 A  
HETATM   14  N   UNL     1     -13.362  14.854  72.258  1.00  0.00    -0.356 NA 
HETATM   15  C   UNL     1     -11.051  14.129  67.455  1.00  0.00    -0.306 A  
HETATM   16 CL   UNL     1     -10.322  13.894  65.896  1.00  0.00    -0.305 Cl 
BRANCH  13  17
HETATM   17  N   UNL     1     -10.891  11.701  67.902  1.00  0.00    -0.199 N  
HETATM   18  C   UNL     1      -9.632  11.145  68.062  1.00  0.00    -0.176 C  
HETATM   19  H   UNL     1     -11.603  11.118  67.464  1.00  0.00     0.000 HD 
HETATM   20  O   UNL     1      -8.652  11.602  68.641  1.00  0.00    -0.152 OA 
HETATM   21  C   UNL     1      -9.459   9.750  67.447  1.00  0.00    -0.152 C  
HETATM   22  O   UNL     1      -8.221   9.273  67.687  1.00  0.00    -0.114 OA 
HETATM   23  O   UNL     1     -10.345   9.190  66.833  1.00  0.00    -0.254 OA 
ENDBRANCH  13  17
ENDBRANCH   6   8
TORSDOF 2
ENDMDL
MODEL       62
REMARK 921   NORMALIZED FREE ENERGY PREDICTED BY IDOCK:   -5.21 KCAL/MOL
REMARK 922        TOTAL FREE ENERGY PREDICTED BY IDOCK:   -6.35 KCAL/MOL
REMARK 923 INTER-LIGAND FREE ENERGY PREDICTED BY IDOCK:   -5.79 KCAL/MOL
REMARK 924 INTRA-LIGAND FREE ENERGY PREDICTED BY IDOCK:   -0.56 KCAL/MOL
REMARK 927      BINDING AFFINITY PREDICTED BY RF-SCORE:    0.00 PKD
ROOT
HETATM    1  O   UNL     1      -9.761   6.469  71.216  1.00  0.00    -0.173 OA 
HETATM    2  C   UNL     1     -10.680   6.858  70.312  1.00  0.00    -0.242 C  
HETATM    3  O   UNL     1     -11.782   6.376  70.147  1.00  0.00    -0.422 OA 
HETATM    4  C   UNL     1     -10.166   8.044  69.487  1.00  0.00    -0.209 C  
HETATM    5  O   UNL     1      -9.015   8.402  69.715  1.00  0.00    -0.143 OA 
HETATM    6  N   UNL     1     -11.099   8.588  68.620  1.00  0.00    -0.377 N  
HETATM    7  H   UNL     1     -12.023   8.156  68.604  1.00  0.00     0.000 HD 
ENDROOT
BRANCH   6   8
HETATM    8  C   UNL     1     -10.889   9.691  67.751  1.00  0.00    -0.217 A  
HETATM    9  C   UNL     1     -10.403   9.493  66.455  1.00  0.00    -0.263 A  
HETATM   10  C   UNL     1     -10.151  10.573  65.614  1.00  0.00    -0.333 A  
HETATM   11  C   UNL     1      -9.629  10.350  64.304  1.00  0.00    -0.318 C  
HETATM   12  C   UNL     1     -10.397  11.873  66.051  1.00  0.00    -0.268 A  
HETATM   13  C   UNL     1     -10.928  12.120  67.322  1.00  0.00    -0.260 A  
HETATM   14  N   UNL     1      -9.205  10.171  63.240  1.00  0.00    -0.273 NA 
HETATM   15  C   UNL     1     -11.171  11.015  68.176  1.00  0.00    -0.302 A  
HETATM   16 CL   UNL     1     -11.823  11.284  69.762  1.00  0.00    -0.397 Cl 
BRANCH  13  17
HETATM   17  N   UNL     1     -11.173  13.452  67.754  1.00  0.00    -0.267 N  
HETATM   18  C   UNL     1     -10.247  14.302  68.336  1.00  0.00    -0.245 C  
HETATM   19  H   UNL     1     -12.117  13.815  67.623  1.00  0.00     0.000 HD 
HETATM   20  O   UNL     1      -9.044  14.135  68.506  1.00  0.00    -0.192 OA 
HETATM   21  C   UNL     1     -10.811  15.649  68.806  1.00  0.00    -0.262 C  
HETATM   22  O   UNL     1      -9.833  16.424  69.319  1.00  0.00    -0.259 OA 
HETATM   23  O   UNL     1     -11.988  15.936  68.711  1.00  0.00    -0.368 OA 
ENDBRANCH  13  17
ENDBRANCH   6   8
TORSDOF 2
ENDMDL
MODEL       63
REMARK 921   NORMALIZED FREE ENERGY PREDICTED BY IDOCK:   -5.19 KCAL/MOL
REMARK 922        TOTAL FREE ENERGY PREDICTED BY IDOCK:   -6.33 KCAL/MOL
REMARK 923 INTER-LIGAND FREE ENERGY PREDICTED BY IDOCK:   -5.82 KCAL/MOL
REMARK 924 INTRA-LIGAND FREE ENERGY PREDICTED BY IDOCK:   -0.51 KCAL/MOL
REMARK 927      BINDING AFFINITY PREDICTED BY RF-SCORE:    0.00 PKD
ROOT
HETATM    1  O   UNL     1     -11.436  16.715  64.244  1.00  0.00    -1.075 OA 
HETATM    2  C   UNL     1     -11.884  15.453  64.378  1.00  0.00    -0.256 C  
HETATM    3  O   UNL     1     -12.583  14.845  63.593  1.00  0.00    -0.724 OA 
HETATM    4  C   UNL     1     -11.376  14.830  65.683  1.00  0.00    -0.343 C  
HETATM    5  O   UNL     1     -10.723  15.566  66.416  1.00  0.00    -0.305 OA 
HETATM    6  N   UNL     1     -11.686  13.489  65.839  1.00  0.00    -0.337 N  
HETATM    7  H   UNL     1     -12.218  13.047  65.090  1.00  0.00     0.000 HD 
ENDROOT
BRANCH   6   8
HETATM    8  C   UNL     1     -11.330  12.671  66.944  1.00  0.00    -0.320 A  
HETATM    9  C   UNL     1     -12.048  12.747  68.143  1.00  0.00    -0.158 A  
HETATM   10  C   UNL     1     -11.677  11.982  69.246  1.00  0.00    -0.389 A  
HETATM   11  C   UNL     1     -12.406  12.094  70.468  1.00  0.00    -0.272 C  
HETATM   12  C   UNL     1     -10.589  11.116  69.163  1.00  0.00    -0.238 A  
HETATM   13  C   UNL     1      -9.869  10.971  67.972  1.00  0.00    -0.171 A  
HETATM   14  N   UNL     1     -12.997  12.183  71.462  1.00  0.00    -0.360 NA 
HETATM   15  C   UNL     1     -10.247  11.761  66.858  1.00  0.00    -0.209 A  
HETATM   16 CL   UNL     1      -9.372  11.612  65.366  1.00  0.00    -0.190 Cl 
BRANCH  13  17
HETATM   17  N   UNL     1      -8.761  10.083  67.904  1.00  0.00    -0.125 N  
HETATM   18  C   UNL     1      -7.500  10.314  68.429  1.00  0.00    -0.090 C  
HETATM   19  H   UNL     1      -8.907   9.195  67.424  1.00  0.00     0.000 HD 
HETATM   20  O   UNL     1      -7.110  11.247  69.124  1.00  0.00    -0.107 OA 
HETATM   21  C   UNL     1      -6.460   9.231  68.114  1.00  0.00    -0.058 C  
HETATM   22  O   UNL     1      -5.279   9.518  68.700  1.00  0.00    -0.034 OA 
HETATM   23  O   UNL     1      -6.710   8.263  67.425  1.00  0.00    -0.061 OA 
ENDBRANCH  13  17
ENDBRANCH   6   8
TORSDOF 2
ENDMDL
MODEL       64
REMARK 921   NORMALIZED FREE ENERGY PREDICTED BY IDOCK:   -5.17 KCAL/MOL
REMARK 922        TOTAL FREE ENERGY PREDICTED BY IDOCK:   -6.30 KCAL/MOL
REMARK 923 INTER-LIGAND FREE ENERGY PREDICTED BY IDOCK:   -5.88 KCAL/MOL
REMARK 924 INTRA-LIGAND FREE ENERGY PREDICTED BY IDOCK:   -0.43 KCAL/MOL
REMARK 927      BINDING AFFINITY PREDICTED BY RF-SCORE:    0.00 PKD
ROOT
HETATM    1  O   UNL     1      -6.442  20.186  67.800  1.00  0.00    -0.221 OA 
HETATM    2  C   UNL     1      -7.313  19.390  68.449  1.00  0.00    -0.312 C  
HETATM    3  O   UNL     1      -8.009  19.697  69.395  1.00  0.00    -0.208 OA 
HETATM    4  C   UNL     1      -7.346  17.991  67.820  1.00  0.00    -0.213 C  
HETATM    5  O   UNL     1      -6.555  17.792  66.904  1.00  0.00    -0.153 OA 
HETATM    6  N   UNL     1      -8.309  17.147  68.347  1.00  0.00    -0.242 N  
HETATM    7  H   UNL     1      -8.893  17.521  69.095  1.00  0.00     0.000 HD 
ENDROOT
BRANCH   6   8
HETATM    8  C   UNL     1      -8.558  15.808  67.944  1.00  0.00    -0.159 A  
HETATM    9  C   UNL     1      -7.898  14.744  68.566  1.00  0.00    -0.130 A  
HETATM   10  C   UNL     1      -8.103  13.433  68.145  1.00  0.00    -0.155 A  
HETATM   11  C   UNL     1      -7.398  12.363  68.777  1.00  0.00    -0.076 C  
HETATM   12  C   UNL     1      -8.986  13.162  67.102  1.00  0.00    -0.228 A  
HETATM   13  C   UNL     1      -9.705  14.189  66.479  1.00  0.00    -0.295 A  
HETATM   14  N   UNL     1      -6.828  11.493  69.288  1.00  0.00    -0.114 NA 
HETATM   15  C   UNL     1      -9.482  15.521  66.907  1.00  0.00    -0.228 A  
HETATM   16 CL   UNL     1     -10.351  16.821  66.152  1.00  0.00    -0.342 Cl 
BRANCH  13  17
HETATM   17  N   UNL     1     -10.602  13.897  65.415  1.00  0.00    -0.318 N  
HETATM   18  C   UNL     1     -11.695  13.049  65.483  1.00  0.00    -0.368 C  
HETATM   19  H   UNL     1     -10.424  14.354  64.521  1.00  0.00     0.000 HD 
HETATM   20  O   UNL     1     -12.166  12.471  66.456  1.00  0.00    -0.569 OA 
HETATM   21  C   UNL     1     -12.428  12.832  64.152  1.00  0.00    -0.369 C  
HETATM   22  O   UNL     1     -13.498  12.029  64.323  1.00  0.00    -0.654 OA 
HETATM   23  O   UNL     1     -12.057  13.332  63.110  1.00  0.00    -0.523 OA 
ENDBRANCH  13  17
ENDBRANCH   6   8
TORSDOF 2
ENDMDL
MODEL       65
REMARK 921   NORMALIZED FREE ENERGY PREDICTED BY IDOCK:   -5.17 KCAL/MOL
REMARK 922        TOTAL FREE ENERGY PREDICTED BY IDOCK:   -6.30 KCAL/MOL
REMARK 923 INTER-LIGAND FREE ENERGY PREDICTED BY IDOCK:   -5.88 KCAL/MOL
REMARK 924 INTRA-LIGAND FREE ENERGY PREDICTED BY IDOCK:   -0.43 KCAL/MOL
REMARK 927      BINDING AFFINITY PREDICTED BY RF-SCORE:    0.00 PKD
ROOT
HETATM    1  O   UNL     1      -9.717  17.088  68.252  1.00  0.00    -0.256 OA 
HETATM    2  C   UNL     1     -10.736  16.224  68.413  1.00  0.00    -0.311 C  
HETATM    3  O   UNL     1     -11.898  16.505  68.624  1.00  0.00    -0.089 OA 
HETATM    4  C   UNL     1     -10.250  14.776  68.278  1.00  0.00    -0.227 C  
HETATM    5  O   UNL     1      -9.044  14.623  68.120  1.00  0.00    -0.176 OA 
HETATM    6  N   UNL     1     -11.258  13.826  68.304  1.00  0.00    -0.259 N  
HETATM    7  H   UNL     1     -12.213  14.168  68.415  1.00  0.00     0.000 HD 
ENDROOT
BRANCH   6   8
HETATM    8  C   UNL     1     -11.087  12.421  68.190  1.00  0.00    -0.247 A  
HETATM    9  C   UNL     1     -10.498  11.868  67.049  1.00  0.00    -0.253 A  
HETATM   10  C   UNL     1     -10.368  10.488  66.910  1.00  0.00    -0.293 A  
HETATM   11  C   UNL     1      -9.789   9.943  65.725  1.00  0.00    -0.287 C  
HETATM   12  C   UNL     1     -10.813   9.638  67.920  1.00  0.00    -0.272 A  
HETATM   13  C   UNL     1     -11.367  10.146  69.101  1.00  0.00    -0.143 A  
HETATM   14  N   UNL     1      -9.317   9.498  64.763  1.00  0.00    -0.223 NA 
HETATM   15  C   UNL     1     -11.505  11.551  69.229  1.00  0.00    -0.305 A  
HETATM   16 CL   UNL     1     -12.193  12.216  70.677  1.00  0.00    -0.452 Cl 
BRANCH  13  17
HETATM   17  N   UNL     1     -11.817   9.266  70.122  1.00  0.00    -0.462 N  
HETATM   18  C   UNL     1     -11.078   8.844  71.216  1.00  0.00    -0.297 C  
HETATM   19  H   UNL     1     -12.770   8.913  70.043  1.00  0.00     0.000 HD 
HETATM   20  O   UNL     1      -9.962   9.200  71.580  1.00  0.00    -0.312 OA 
HETATM   21  C   UNL     1     -11.775   7.805  72.105  1.00  0.00    -0.320 C  
HETATM   22  O   UNL     1     -11.001   7.486  73.162  1.00  0.00    -0.376 OA 
HETATM   23  O   UNL     1     -12.874   7.356  71.850  1.00  0.00    -0.317 OA 
ENDBRANCH  13  17
ENDBRANCH   6   8
TORSDOF 2
ENDMDL
MODEL       66
REMARK 921   NORMALIZED FREE ENERGY PREDICTED BY IDOCK:   -5.14 KCAL/MOL
REMARK 922        TOTAL FREE ENERGY PREDICTED BY IDOCK:   -6.27 KCAL/MOL
REMARK 923 INTER-LIGAND FREE ENERGY PREDICTED BY IDOCK:   -5.74 KCAL/MOL
REMARK 924 INTRA-LIGAND FREE ENERGY PREDICTED BY IDOCK:   -0.54 KCAL/MOL
REMARK 927      BINDING AFFINITY PREDICTED BY RF-SCORE:    0.00 PKD
ROOT
HETATM    1  O   UNL     1      -9.063   3.537  64.410  1.00  0.00    -0.118 OA 
HETATM    2  C   UNL     1     -10.131   4.230  64.846  1.00  0.00    -0.169 C  
HETATM    3  O   UNL     1     -11.250   4.207  64.376  1.00  0.00    -0.309 OA 
HETATM    4  C   UNL     1      -9.768   5.078  66.071  1.00  0.00    -0.180 C  
HETATM    5  O   UNL     1      -8.591   5.055  66.415  1.00  0.00    -0.111 OA 
HETATM    6  N   UNL     1     -10.842   5.725  66.661  1.00  0.00    -0.596 N  
HETATM    7  H   UNL     1     -11.757   5.588  66.232  1.00  0.00     0.000 HD 
ENDROOT
BRANCH   6   8
HETATM    8  C   UNL     1     -10.787   6.562  67.806  1.00  0.00    -0.314 A  
HETATM    9  C   UNL     1     -11.019   6.036  69.082  1.00  0.00    -0.429 A  
HETATM   10  C   UNL     1     -11.012   6.859  70.205  1.00  0.00    -0.322 A  
HETATM   11  C   UNL     1     -11.279   6.307  71.494  1.00  0.00    -0.290 C  
HETATM   12  C   UNL     1     -10.757   8.223  70.073  1.00  0.00    -0.239 A  
HETATM   13  C   UNL     1     -10.473   8.787  68.823  1.00  0.00    -0.191 A  
HETATM   14  N   UNL     1     -11.494   5.861  72.542  1.00  0.00    -0.302 NA 
HETATM   15  C   UNL     1     -10.493   7.944  67.685  1.00  0.00    -0.234 A  
HETATM   16 CL   UNL     1     -10.152   8.611  66.119  1.00  0.00    -0.240 Cl 
BRANCH  13  17
HETATM   17  N   UNL     1     -10.216  10.180  68.705  1.00  0.00    -0.168 N  
HETATM   18  C   UNL     1     -11.165  11.169  68.505  1.00  0.00    -0.258 C  
HETATM   19  H   UNL     1      -9.243  10.478  68.773  1.00  0.00     0.000 HD 
HETATM   20  O   UNL     1     -12.388  11.075  68.489  1.00  0.00    -0.536 OA 
HETATM   21  C   UNL     1     -10.597  12.579  68.304  1.00  0.00    -0.231 C  
HETATM   22  O   UNL     1     -11.591  13.479  68.160  1.00  0.00    -0.291 OA 
HETATM   23  O   UNL     1      -9.404  12.809  68.281  1.00  0.00    -0.209 OA 
ENDBRANCH  13  17
ENDBRANCH   6   8
TORSDOF 2
ENDMDL
MODEL       67
REMARK 921   NORMALIZED FREE ENERGY PREDICTED BY IDOCK:   -5.11 KCAL/MOL
REMARK 922        TOTAL FREE ENERGY PREDICTED BY IDOCK:   -6.24 KCAL/MOL
REMARK 923 INTER-LIGAND FREE ENERGY PREDICTED BY IDOCK:   -5.86 KCAL/MOL
REMARK 924 INTRA-LIGAND FREE ENERGY PREDICTED BY IDOCK:   -0.39 KCAL/MOL
REMARK 927      BINDING AFFINITY PREDICTED BY RF-SCORE:    0.00 PKD
ROOT
HETATM    1  O   UNL     1     -11.275   9.978  69.466  1.00  0.00    -0.234 OA 
HETATM    2  C   UNL     1     -10.203  10.472  68.819  1.00  0.00    -0.190 C  
HETATM    3  O   UNL     1      -9.203   9.859  68.503  1.00  0.00    -0.132 OA 
HETATM    4  C   UNL     1     -10.399  11.956  68.490  1.00  0.00    -0.218 C  
HETATM    5  O   UNL     1     -11.429  12.471  68.911  1.00  0.00    -0.263 OA 
HETATM    6  N   UNL     1      -9.397  12.510  67.711  1.00  0.00    -0.190 N  
HETATM    7  H   UNL     1      -8.631  11.895  67.437  1.00  0.00     0.000 HD 
ENDROOT
BRANCH   6   8
HETATM    8  C   UNL     1      -9.336  13.855  67.259  1.00  0.00    -0.231 A  
HETATM    9  C   UNL     1     -10.208  14.310  66.264  1.00  0.00    -0.307 A  
HETATM   10  C   UNL     1     -10.123  15.613  65.783  1.00  0.00    -0.394 A  
HETATM   11  C   UNL     1     -11.005  16.049  64.747  1.00  0.00    -0.356 C  
HETATM   12  C   UNL     1      -9.173  16.491  66.301  1.00  0.00    -0.345 A  
HETATM   13  C   UNL     1      -8.310  16.097  67.329  1.00  0.00    -0.180 A  
HETATM   14  N   UNL     1     -11.721  16.405  63.908  1.00  0.00    -1.024 NA 
HETATM   15  C   UNL     1      -8.396  14.765  67.805  1.00  0.00    -0.159 A  
HETATM   16 CL   UNL     1      -7.336  14.239  69.076  1.00  0.00    -0.126 Cl 
BRANCH  13  17
HETATM   17  N   UNL     1      -7.346  17.004  67.847  1.00  0.00    -0.166 N  
HETATM   18  C   UNL     1      -7.614  18.232  68.428  1.00  0.00    -0.290 C  
HETATM   19  H   UNL     1      -6.367  16.724  67.785  1.00  0.00     0.000 HD 
HETATM   20  O   UNL     1      -8.697  18.738  68.703  1.00  0.00    -0.337 OA 
HETATM   21  C   UNL     1      -6.374  19.056  68.802  1.00  0.00    -0.247 C  
HETATM   22  O   UNL     1      -6.731  20.212  69.397  1.00  0.00    -0.295 OA 
HETATM   23  O   UNL     1      -5.243  18.679  68.571  1.00  0.00    -0.172 OA 
ENDBRANCH  13  17
ENDBRANCH   6   8
TORSDOF 2
ENDMDL
MODEL       68
REMARK 921   NORMALIZED FREE ENERGY PREDICTED BY IDOCK:   -5.10 KCAL/MOL
REMARK 922        TOTAL FREE ENERGY PREDICTED BY IDOCK:   -6.23 KCAL/MOL
REMARK 923 INTER-LIGAND FREE ENERGY PREDICTED BY IDOCK:   -6.22 KCAL/MOL
REMARK 924 INTRA-LIGAND FREE ENERGY PREDICTED BY IDOCK:   -0.00 KCAL/MOL
REMARK 927      BINDING AFFINITY PREDICTED BY RF-SCORE:    0.00 PKD
ROOT
HETATM    1  O   UNL     1     -11.410  12.815  63.376  1.00  0.00    -0.472 OA 
HETATM    2  C   UNL     1     -10.987  11.781  64.126  1.00  0.00    -0.374 C  
HETATM    3  O   UNL     1     -10.363  10.814  63.741  1.00  0.00    -0.336 OA 
HETATM    4  C   UNL     1     -11.381  11.976  65.595  1.00  0.00    -0.329 C  
HETATM    5  O   UNL     1     -12.057  12.968  65.846  1.00  0.00    -0.412 OA 
HETATM    6  N   UNL     1     -10.875  11.018  66.458  1.00  0.00    -0.243 N  
HETATM    7  H   UNL     1     -10.301  10.282  66.047  1.00  0.00     0.000 HD 
ENDROOT
BRANCH   6   8
HETATM    8  C   UNL     1     -11.078  10.967  67.863  1.00  0.00    -0.302 A  
HETATM    9  C   UNL     1     -11.686  12.034  68.532  1.00  0.00    -0.387 A  
HETATM   10  C   UNL     1     -11.848  12.010  69.915  1.00  0.00    -0.405 A  
HETATM   11  C   UNL     1     -12.447  13.122  70.581  1.00  0.00    -0.286 C  
HETATM   12  C   UNL     1     -11.416  10.909  70.651  1.00  0.00    -0.227 A  
HETATM   13  C   UNL     1     -10.844   9.798  70.022  1.00  0.00    -0.278 A  
HETATM   14  N   UNL     1     -12.933  14.023  71.124  1.00  0.00    -0.337 NA 
HETATM   15  C   UNL     1     -10.674   9.835  68.615  1.00  0.00    -0.216 A  
HETATM   16 CL   UNL     1      -9.963   8.476  67.802  1.00  0.00    -0.222 Cl 
BRANCH  13  17
HETATM   17  N   UNL     1     -10.409   8.682  70.787  1.00  0.00    -0.196 N  
HETATM   18  C   UNL     1     -11.211   7.658  71.264  1.00  0.00    -0.254 C  
HETATM   19  H   UNL     1      -9.414   8.630  71.006  1.00  0.00     0.000 HD 
HETATM   20  O   UNL     1     -12.401   7.447  71.053  1.00  0.00    -0.318 OA 
HETATM   21  C   UNL     1     -10.495   6.637  72.157  1.00  0.00    -0.204 C  
HETATM   22  O   UNL     1     -11.343   5.659  72.537  1.00  0.00    -0.283 OA 
HETATM   23  O   UNL     1      -9.323   6.737  72.457  1.00  0.00    -0.141 OA 
ENDBRANCH  13  17
ENDBRANCH   6   8
TORSDOF 2
ENDMDL
MODEL       69
REMARK 921   NORMALIZED FREE ENERGY PREDICTED BY IDOCK:   -5.04 KCAL/MOL
REMARK 922        TOTAL FREE ENERGY PREDICTED BY IDOCK:   -6.17 KCAL/MOL
REMARK 923 INTER-LIGAND FREE ENERGY PREDICTED BY IDOCK:   -5.66 KCAL/MOL
REMARK 924 INTRA-LIGAND FREE ENERGY PREDICTED BY IDOCK:   -0.51 KCAL/MOL
REMARK 927      BINDING AFFINITY PREDICTED BY RF-SCORE:    0.00 PKD
ROOT
HETATM    1  O   UNL     1     -11.665  13.549  66.204  1.00  0.00    -0.335 OA 
HETATM    2  C   UNL     1     -10.980  13.384  67.351  1.00  0.00    -0.272 C  
HETATM    3  O   UNL     1     -10.202  14.172  67.849  1.00  0.00    -0.229 OA 
HETATM    4  C   UNL     1     -11.319  12.038  68.001  1.00  0.00    -0.296 C  
HETATM    5  O   UNL     1     -12.078  11.309  67.371  1.00  0.00    -0.450 OA 
HETATM    6  N   UNL     1     -10.754  11.844  69.251  1.00  0.00    -0.438 N  
HETATM    7  H   UNL     1     -10.170  12.595  69.616  1.00  0.00     0.000 HD 
ENDROOT
BRANCH   6   8
HETATM    8  C   UNL     1     -10.912  10.695  70.071  1.00  0.00    -0.259 A  
HETATM    9  C   UNL     1     -12.088  10.502  70.803  1.00  0.00    -0.470 A  
HETATM   10  C   UNL     1     -12.232   9.402  71.644  1.00  0.00    -0.467 A  
HETATM   11  C   UNL     1     -13.430   9.238  72.404  1.00  0.00    -0.459 C  
HETATM   12  C   UNL     1     -11.206   8.467  71.757  1.00  0.00    -0.360 A  
HETATM   13  C   UNL     1     -10.029   8.592  71.009  1.00  0.00    -0.215 A  
HETATM   14  N   UNL     1     -14.403   9.103  73.020  1.00  0.00    -0.290 NA 
HETATM   15  C   UNL     1      -9.887   9.720  70.163  1.00  0.00    -0.255 A  
HETATM   16 CL   UNL     1      -8.438   9.911  69.226  1.00  0.00    -0.144 Cl 
BRANCH  13  17
HETATM   17  N   UNL     1      -8.991   7.630  71.135  1.00  0.00    -0.137 N  
HETATM   18  C   UNL     1      -7.850   7.760  71.910  1.00  0.00    -0.095 C  
HETATM   19  H   UNL     1      -9.095   6.764  70.606  1.00  0.00     0.000 HD 
HETATM   20  O   UNL     1      -7.549   8.649  72.700  1.00  0.00    -0.325 OA 
HETATM   21  C   UNL     1      -6.841   6.613  71.774  1.00  0.00    -0.066 C  
HETATM   22  O   UNL     1      -5.787   6.804  72.594  1.00  0.00    -0.038 OA 
HETATM   23  O   UNL     1      -7.008   5.679  71.016  1.00  0.00    -0.061 OA 
ENDBRANCH  13  17
ENDBRANCH   6   8
TORSDOF 2
ENDMDL
MODEL       70
REMARK 921   NORMALIZED FREE ENERGY PREDICTED BY IDOCK:   -5.03 KCAL/MOL
REMARK 922        TOTAL FREE ENERGY PREDICTED BY IDOCK:   -6.15 KCAL/MOL
REMARK 923 INTER-LIGAND FREE ENERGY PREDICTED BY IDOCK:   -5.60 KCAL/MOL
REMARK 924 INTRA-LIGAND FREE ENERGY PREDICTED BY IDOCK:   -0.54 KCAL/MOL
REMARK 927      BINDING AFFINITY PREDICTED BY RF-SCORE:    0.00 PKD
ROOT
HETATM    1  O   UNL     1      -7.154  20.690  67.543  1.00  0.00    -0.309 OA 
HETATM    2  C   UNL     1      -7.016  19.579  68.291  1.00  0.00    -0.293 C  
HETATM    3  O   UNL     1      -6.141  19.357  69.103  1.00  0.00    -0.244 OA 
HETATM    4  C   UNL     1      -8.150  18.586  68.007  1.00  0.00    -0.271 C  
HETATM    5  O   UNL     1      -8.940  18.906  67.126  1.00  0.00    -0.276 OA 
HETATM    6  N   UNL     1      -8.155  17.470  68.827  1.00  0.00    -0.263 N  
HETATM    7  H   UNL     1      -7.416  17.407  69.528  1.00  0.00     0.000 HD 
ENDROOT
BRANCH   6   8
HETATM    8  C   UNL     1      -9.093  16.405  68.784  1.00  0.00    -0.244 A  
HETATM    9  C   UNL     1     -10.294  16.487  69.495  1.00  0.00    -0.266 A  
HETATM   10  C   UNL     1     -11.198  15.428  69.494  1.00  0.00    -0.289 A  
HETATM   11  C   UNL     1     -12.406  15.522  70.249  1.00  0.00    -0.396 C  
HETATM   12  C   UNL     1     -10.922  14.272  68.767  1.00  0.00    -0.271 A  
HETATM   13  C   UNL     1      -9.755  14.161  68.003  1.00  0.00    -0.226 A  
HETATM   14  N   UNL     1     -13.389  15.597  70.861  1.00  0.00    -0.545 NA 
HETATM   15  C   UNL     1      -8.835  15.239  68.018  1.00  0.00    -0.169 A  
HETATM   16 CL   UNL     1      -7.374  15.133  67.086  1.00  0.00    -0.209 Cl 
BRANCH  13  17
HETATM   17  N   UNL     1      -9.486  12.975  67.267  1.00  0.00    -0.217 N  
HETATM   18  C   UNL     1      -9.737  12.779  65.919  1.00  0.00    -0.198 C  
HETATM   19  H   UNL     1      -9.071  12.197  67.778  1.00  0.00     0.000 HD 
HETATM   20  O   UNL     1     -10.134  13.583  65.081  1.00  0.00    -0.309 OA 
HETATM   21  C   UNL     1      -9.451  11.362  65.406  1.00  0.00    -0.216 C  
HETATM   22  O   UNL     1      -9.683  11.277  64.080  1.00  0.00    -0.238 OA 
HETATM   23  O   UNL     1      -9.070  10.466  66.133  1.00  0.00    -0.154 OA 
ENDBRANCH  13  17
ENDBRANCH   6   8
TORSDOF 2
ENDMDL
MODEL       71
REMARK 921   NORMALIZED FREE ENERGY PREDICTED BY IDOCK:   -5.02 KCAL/MOL
REMARK 922        TOTAL FREE ENERGY PREDICTED BY IDOCK:   -6.13 KCAL/MOL
REMARK 923 INTER-LIGAND FREE ENERGY PREDICTED BY IDOCK:   -5.60 KCAL/MOL
REMARK 924 INTRA-LIGAND FREE ENERGY PREDICTED BY IDOCK:   -0.53 KCAL/MOL
REMARK 927      BINDING AFFINITY PREDICTED BY RF-SCORE:    0.00 PKD
ROOT
HETATM    1  O   UNL     1      -7.755  17.899  65.565  1.00  0.00    -0.505 OA 
HETATM    2  C   UNL     1      -7.559  17.033  66.576  1.00  0.00    -0.291 C  
HETATM    3  O   UNL     1      -6.541  16.895  67.224  1.00  0.00    -0.141 OA 
HETATM    4  C   UNL     1      -8.827  16.216  66.849  1.00  0.00    -0.219 C  
HETATM    5  O   UNL     1      -9.770  16.412  66.090  1.00  0.00    -0.290 OA 
HETATM    6  N   UNL     1      -8.751  15.390  67.958  1.00  0.00    -0.159 N  
HETATM    7  H   UNL     1      -7.875  15.395  68.480  1.00  0.00     0.000 HD 
ENDROOT
BRANCH   6   8
HETATM    8  C   UNL     1      -9.780  14.537  68.437  1.00  0.00    -0.224 A  
HETATM    9  C   UNL     1     -10.802  15.042  69.248  1.00  0.00    -0.263 A  
HETATM   10  C   UNL     1     -11.789  14.203  69.759  1.00  0.00    -0.381 A  
HETATM   11  C   UNL     1     -12.808  14.735  70.606  1.00  0.00    -0.343 C  
HETATM   12  C   UNL     1     -11.779  12.843  69.454  1.00  0.00    -0.382 A  
HETATM   13  C   UNL     1     -10.804  12.299  68.610  1.00  0.00    -0.236 A  
HETATM   14  N   UNL     1     -13.636  15.164  71.294  1.00  0.00    -0.466 NA 
HETATM   15  C   UNL     1      -9.798  13.159  68.103  1.00  0.00    -0.228 A  
HETATM   16 CL   UNL     1      -8.569  12.517  67.058  1.00  0.00    -0.197 Cl 
BRANCH  13  17
HETATM   17  N   UNL     1     -10.806  10.910  68.309  1.00  0.00    -0.207 N  
HETATM   18  C   UNL     1     -10.214   9.912  69.066  1.00  0.00    -0.200 C  
HETATM   19  H   UNL     1     -11.288  10.621  67.458  1.00  0.00     0.000 HD 
HETATM   20  O   UNL     1      -9.671   9.994  70.163  1.00  0.00    -0.233 OA 
HETATM   21  C   UNL     1     -10.277   8.509  68.449  1.00  0.00    -0.203 C  
HETATM   22  O   UNL     1      -9.715   7.600  69.272  1.00  0.00    -0.162 OA 
HETATM   23  O   UNL     1     -10.772   8.292  67.362  1.00  0.00    -0.270 OA 
ENDBRANCH  13  17
ENDBRANCH   6   8
TORSDOF 2
ENDMDL
MODEL       72
REMARK 921   NORMALIZED FREE ENERGY PREDICTED BY IDOCK:   -4.94 KCAL/MOL
REMARK 922        TOTAL FREE ENERGY PREDICTED BY IDOCK:   -6.05 KCAL/MOL
REMARK 923 INTER-LIGAND FREE ENERGY PREDICTED BY IDOCK:   -5.57 KCAL/MOL
REMARK 924 INTRA-LIGAND FREE ENERGY PREDICTED BY IDOCK:   -0.48 KCAL/MOL
REMARK 927      BINDING AFFINITY PREDICTED BY RF-SCORE:    0.00 PKD
ROOT
HETATM    1  O   UNL     1      -6.682   6.080  68.809  1.00  0.00    -0.059 OA 
HETATM    2  C   UNL     1      -7.052   6.878  69.828  1.00  0.00    -0.068 C  
HETATM    3  O   UNL     1      -6.424   7.093  70.844  1.00  0.00    -0.042 OA 
HETATM    4  C   UNL     1      -8.410   7.532  69.544  1.00  0.00    -0.131 C  
HETATM    5  O   UNL     1      -8.967   7.191  68.506  1.00  0.00    -0.128 OA 
HETATM    6  N   UNL     1      -8.805   8.468  70.485  1.00  0.00    -0.145 N  
HETATM    7  H   UNL     1      -8.175   8.630  71.270  1.00  0.00     0.000 HD 
ENDROOT
BRANCH   6   8
HETATM    8  C   UNL     1     -10.008   9.223  70.459  1.00  0.00    -0.249 A  
HETATM    9  C   UNL     1     -11.089   8.865  71.271  1.00  0.00    -0.367 A  
HETATM   10  C   UNL     1     -12.287   9.573  71.218  1.00  0.00    -0.430 A  
HETATM   11  C   UNL     1     -13.387   9.173  72.035  1.00  0.00    -0.445 C  
HETATM   12  C   UNL     1     -12.418  10.663  70.360  1.00  0.00    -0.421 A  
HETATM   13  C   UNL     1     -11.349  11.088  69.563  1.00  0.00    -0.287 A  
HETATM   14  N   UNL     1     -14.282   8.852  72.698  1.00  0.00    -0.561 NA 
HETATM   15  C   UNL     1     -10.138  10.355  69.616  1.00  0.00    -0.190 A  
HETATM   16 CL   UNL     1      -8.793  10.851  68.635  1.00  0.00    -0.153 Cl 
BRANCH  13  17
HETATM   17  N   UNL     1     -11.499  12.202  68.693  1.00  0.00    -0.270 N  
HETATM   18  C   UNL     1     -11.571  13.531  69.077  1.00  0.00    -0.311 C  
HETATM   19  H   UNL     1     -11.559  12.005  67.694  1.00  0.00     0.000 HD 
HETATM   20  O   UNL     1     -11.426  14.023  70.192  1.00  0.00    -0.229 OA 
HETATM   21  C   UNL     1     -11.844  14.521  67.937  1.00  0.00    -0.336 C  
HETATM   22  O   UNL     1     -11.854  15.788  68.397  1.00  0.00    -0.338 OA 
HETATM   23  O   UNL     1     -12.023  14.165  66.789  1.00  0.00    -0.411 OA 
ENDBRANCH  13  17
ENDBRANCH   6   8
TORSDOF 2
ENDMDL
MODEL       73
REMARK 921   NORMALIZED FREE ENERGY PREDICTED BY IDOCK:   -4.92 KCAL/MOL
REMARK 922        TOTAL FREE ENERGY PREDICTED BY IDOCK:   -6.02 KCAL/MOL
REMARK 923 INTER-LIGAND FREE ENERGY PREDICTED BY IDOCK:   -5.64 KCAL/MOL
REMARK 924 INTRA-LIGAND FREE ENERGY PREDICTED BY IDOCK:   -0.38 KCAL/MOL
REMARK 927      BINDING AFFINITY PREDICTED BY RF-SCORE:    0.00 PKD
ROOT
HETATM    1  O   UNL     1      -5.139  11.940  70.865  1.00  0.00    -0.110 OA 
HETATM    2  C   UNL     1      -5.775  13.126  70.896  1.00  0.00    -0.150 C  
HETATM    3  O   UNL     1      -5.835  13.892  71.836  1.00  0.00    -0.364 OA 
HETATM    4  C   UNL     1      -6.431  13.429  69.543  1.00  0.00    -0.083 C  
HETATM    5  O   UNL     1      -6.344  12.551  68.692  1.00  0.00    -0.064 OA 
HETATM    6  N   UNL     1      -6.999  14.689  69.449  1.00  0.00    -0.154 N  
HETATM    7  H   UNL     1      -6.937  15.287  70.273  1.00  0.00     0.000 HD 
ENDROOT
BRANCH   6   8
HETATM    8  C   UNL     1      -7.660  15.225  68.312  1.00  0.00    -0.112 A  
HETATM    9  C   UNL     1      -7.089  16.277  67.589  1.00  0.00    -0.164 A  
HETATM   10  C   UNL     1      -7.752  16.838  66.501  1.00  0.00    -0.334 A  
HETATM   11  C   UNL     1      -7.163  17.929  65.793  1.00  0.00    -0.145 C  
HETATM   12  C   UNL     1      -8.995  16.345  66.108  1.00  0.00    -0.367 A  
HETATM   13  C   UNL     1      -9.586  15.264  66.772  1.00  0.00    -0.241 A  
HETATM   14  N   UNL     1      -6.686  18.814  65.215  1.00  0.00    -0.500 NA 
HETATM   15  C   UNL     1      -8.909  14.706  67.885  1.00  0.00    -0.170 A  
HETATM   16 CL   UNL     1      -9.616  13.368  68.736  1.00  0.00    -0.043 Cl 
BRANCH  13  17
HETATM   17  N   UNL     1     -10.855  14.773  66.360  1.00  0.00    -0.316 N  
HETATM   18  C   UNL     1     -11.076  13.732  65.474  1.00  0.00    -0.298 C  
HETATM   19  H   UNL     1     -11.678  15.230  66.753  1.00  0.00     0.000 HD 
HETATM   20  O   UNL     1     -10.264  12.974  64.953  1.00  0.00    -0.311 OA 
HETATM   21  C   UNL     1     -12.548  13.483  65.122  1.00  0.00    -0.436 C  
HETATM   22  O   UNL     1     -12.669  12.428  64.291  1.00  0.00    -0.638 OA 
HETATM   23  O   UNL     1     -13.451  14.170  65.556  1.00  0.00    -0.643 OA 
ENDBRANCH  13  17
ENDBRANCH   6   8
TORSDOF 2
ENDMDL
MODEL       74
REMARK 921   NORMALIZED FREE ENERGY PREDICTED BY IDOCK:   -4.91 KCAL/MOL
REMARK 922        TOTAL FREE ENERGY PREDICTED BY IDOCK:   -6.01 KCAL/MOL
REMARK 923 INTER-LIGAND FREE ENERGY PREDICTED BY IDOCK:   -5.48 KCAL/MOL
REMARK 924 INTRA-LIGAND FREE ENERGY PREDICTED BY IDOCK:   -0.54 KCAL/MOL
REMARK 927      BINDING AFFINITY PREDICTED BY RF-SCORE:    0.00 PKD
ROOT
HETATM    1  O   UNL     1      -5.157  14.973  68.499  1.00  0.00    -0.090 OA 
HETATM    2  C   UNL     1      -6.235  14.526  69.170  1.00  0.00    -0.096 C  
HETATM    3  O   UNL     1      -6.492  14.721  70.341  1.00  0.00    -0.175 OA 
HETATM    4  C   UNL     1      -7.159  13.723  68.246  1.00  0.00    -0.109 C  
HETATM    5  O   UNL     1      -6.761  13.553  67.099  1.00  0.00    -0.165 OA 
HETATM    6  N   UNL     1      -8.356  13.335  68.826  1.00  0.00    -0.357 N  
HETATM    7  H   UNL     1      -8.509  13.607  69.797  1.00  0.00     0.000 HD 
ENDROOT
BRANCH   6   8
HETATM    8  C   UNL     1      -9.389  12.594  68.195  1.00  0.00    -0.210 A  
HETATM    9  C   UNL     1     -10.301  13.228  67.345  1.00  0.00    -0.243 A  
HETATM   10  C   UNL     1     -11.344  12.516  66.759  1.00  0.00    -0.390 A  
HETATM   11  C   UNL     1     -12.280  13.189  65.916  1.00  0.00    -0.436 C  
HETATM   12  C   UNL     1     -11.484  11.151  67.001  1.00  0.00    -0.109 A  
HETATM   13  C   UNL     1     -10.569  10.463  67.806  1.00  0.00    -0.250 A  
HETATM   14  N   UNL     1     -13.041  13.733  65.231  1.00  0.00    -0.744 NA 
HETATM   15  C   UNL     1      -9.517  11.198  68.407  1.00  0.00    -0.189 A  
HETATM   16 CL   UNL     1      -8.368  10.377  69.418  1.00  0.00    -0.167 Cl 
BRANCH  13  17
HETATM   17  N   UNL     1     -10.725   9.070  68.044  1.00  0.00    -0.435 N  
HETATM   18  C   UNL     1     -10.332   8.050  67.194  1.00  0.00    -0.325 C  
HETATM   19  H   UNL     1     -11.167   8.797  68.922  1.00  0.00     0.000 HD 
HETATM   20  O   UNL     1      -9.701   8.119  66.144  1.00  0.00    -0.187 OA 
HETATM   21  C   UNL     1     -10.722   6.639  67.652  1.00  0.00    -0.302 C  
HETATM   22  O   UNL     1     -10.263   5.712  66.787  1.00  0.00    -0.183 OA 
HETATM   23  O   UNL     1     -11.362   6.432  68.664  1.00  0.00    -0.313 OA 
ENDBRANCH  13  17
ENDBRANCH   6   8
TORSDOF 2
ENDMDL
MODEL       75
REMARK 921   NORMALIZED FREE ENERGY PREDICTED BY IDOCK:   -4.88 KCAL/MOL
REMARK 922        TOTAL FREE ENERGY PREDICTED BY IDOCK:   -5.99 KCAL/MOL
REMARK 923 INTER-LIGAND FREE ENERGY PREDICTED BY IDOCK:   -5.54 KCAL/MOL
REMARK 924 INTRA-LIGAND FREE ENERGY PREDICTED BY IDOCK:   -0.45 KCAL/MOL
REMARK 927      BINDING AFFINITY PREDICTED BY RF-SCORE:    0.00 PKD
ROOT
HETATM    1  O   UNL     1      -8.041   9.468  68.462  1.00  0.00    -0.099 OA 
HETATM    2  C   UNL     1      -7.492  10.530  67.844  1.00  0.00    -0.091 C  
HETATM    3  O   UNL     1      -6.347  10.626  67.449  1.00  0.00    -0.056 OA 
HETATM    4  C   UNL     1      -8.522  11.651  67.666  1.00  0.00    -0.142 C  
HETATM    5  O   UNL     1      -9.628  11.451  68.157  1.00  0.00    -0.176 OA 
HETATM    6  N   UNL     1      -8.074  12.732  66.925  1.00  0.00    -0.393 N  
HETATM    7  H   UNL     1      -7.117  12.689  66.576  1.00  0.00     0.000 HD 
ENDROOT
BRANCH   6   8
HETATM    8  C   UNL     1      -8.823  13.895  66.606  1.00  0.00    -0.081 A  
HETATM    9  C   UNL     1      -9.959  13.808  65.793  1.00  0.00    -0.293 A  
HETATM   10  C   UNL     1     -10.672  14.949  65.438  1.00  0.00    -0.391 A  
HETATM   11  C   UNL     1     -11.812  14.841  64.586  1.00  0.00    -0.436 C  
HETATM   12  C   UNL     1     -10.269  16.200  65.903  1.00  0.00    -0.381 A  
HETATM   13  C   UNL     1      -9.167  16.333  66.756  1.00  0.00    -0.230 A  
HETATM   14  N   UNL     1     -12.739  14.755  63.895  1.00  0.00    -0.705 NA 
HETATM   15  C   UNL     1      -8.441  15.166  67.103  1.00  0.00    -0.212 A  
HETATM   16 CL   UNL     1      -7.065  15.295  68.154  1.00  0.00    -0.114 Cl 
BRANCH  13  17
HETATM   17  N   UNL     1      -8.768  17.615  67.221  1.00  0.00    -0.232 N  
HETATM   18  C   UNL     1      -7.848  18.453  66.611  1.00  0.00    -0.248 C  
HETATM   19  H   UNL     1      -9.198  17.950  68.083  1.00  0.00     0.000 HD 
HETATM   20  O   UNL     1      -7.279  18.321  65.532  1.00  0.00    -0.536 OA 
HETATM   21  C   UNL     1      -7.524  19.734  67.389  1.00  0.00    -0.263 C  
HETATM   22  O   UNL     1      -6.656  20.504  66.702  1.00  0.00    -0.223 OA 
HETATM   23  O   UNL     1      -8.006  19.980  68.477  1.00  0.00    -0.236 OA 
ENDBRANCH  13  17
ENDBRANCH   6   8
TORSDOF 2
ENDMDL
MODEL       76
REMARK 921   NORMALIZED FREE ENERGY PREDICTED BY IDOCK:   -4.87 KCAL/MOL
REMARK 922        TOTAL FREE ENERGY PREDICTED BY IDOCK:   -5.97 KCAL/MOL
REMARK 923 INTER-LIGAND FREE ENERGY PREDICTED BY IDOCK:   -5.47 KCAL/MOL
REMARK 924 INTRA-LIGAND FREE ENERGY PREDICTED BY IDOCK:   -0.50 KCAL/MOL
REMARK 927      BINDING AFFINITY PREDICTED BY RF-SCORE:    0.00 PKD
ROOT
HETATM    1  O   UNL     1     -10.607  18.608  67.439  1.00  0.00    -0.416 OA 
HETATM    2  C   UNL     1     -10.635  17.362  67.947  1.00  0.00    -0.383 C  
HETATM    3  O   UNL     1     -10.812  17.058  69.109  1.00  0.00    -0.288 OA 
HETATM    4  C   UNL     1     -10.427  16.318  66.844  1.00  0.00    -0.302 C  
HETATM    5  O   UNL     1     -10.205  16.756  65.720  1.00  0.00    -0.461 OA 
HETATM    6  N   UNL     1     -10.568  15.005  67.261  1.00  0.00    -0.274 N  
HETATM    7  H   UNL     1     -10.787  14.853  68.246  1.00  0.00     0.000 HD 
ENDROOT
BRANCH   6   8
HETATM    8  C   UNL     1     -10.437  13.850  66.446  1.00  0.00    -0.284 A  
HETATM    9  C   UNL     1     -11.432  13.517  65.521  1.00  0.00    -0.320 A  
HETATM   10  C   UNL     1     -11.332  12.361  64.750  1.00  0.00    -0.360 A  
HETATM   11  C   UNL     1     -12.372  12.026  63.831  1.00  0.00    -0.450 C  
HETATM   12  C   UNL     1     -10.225  11.525  64.882  1.00  0.00    -0.324 A  
HETATM   13  C   UNL     1      -9.182  11.840  65.760  1.00  0.00    -0.139 A  
HETATM   14  N   UNL     1     -13.215  11.752  63.084  1.00  0.00    -0.386 NA 
HETATM   15  C   UNL     1      -9.297  13.012  66.548  1.00  0.00    -0.217 A  
HETATM   16 CL   UNL     1      -8.025  13.431  67.653  1.00  0.00    -0.160 Cl 
BRANCH  13  17
HETATM   17  N   UNL     1      -8.060  10.977  65.884  1.00  0.00    -0.298 N  
HETATM   18  C   UNL     1      -7.918   9.953  66.807  1.00  0.00    -0.116 C  
HETATM   19  H   UNL     1      -7.288  11.124  65.233  1.00  0.00     0.000 HD 
HETATM   20  O   UNL     1      -8.734   9.523  67.615  1.00  0.00    -0.122 OA 
HETATM   21  C   UNL     1      -6.555   9.249  66.788  1.00  0.00    -0.068 C  
HETATM   22  O   UNL     1      -6.524   8.244  67.687  1.00  0.00    -0.055 OA 
HETATM   23  O   UNL     1      -5.653   9.587  66.048  1.00  0.00    -0.046 OA 
ENDBRANCH  13  17
ENDBRANCH   6   8
TORSDOF 2
ENDMDL
MODEL       77
REMARK 921   NORMALIZED FREE ENERGY PREDICTED BY IDOCK:   -4.83 KCAL/MOL
REMARK 922        TOTAL FREE ENERGY PREDICTED BY IDOCK:   -5.93 KCAL/MOL
REMARK 923 INTER-LIGAND FREE ENERGY PREDICTED BY IDOCK:   -5.45 KCAL/MOL
REMARK 924 INTRA-LIGAND FREE ENERGY PREDICTED BY IDOCK:   -0.48 KCAL/MOL
REMARK 927      BINDING AFFINITY PREDICTED BY RF-SCORE:    0.00 PKD
ROOT
HETATM    1  O   UNL     1     -10.167  13.848  65.425  1.00  0.00    -0.321 OA 
HETATM    2  C   UNL     1     -11.009  13.093  66.155  1.00  0.00    -0.283 C  
HETATM    3  O   UNL     1     -12.169  13.345  66.413  1.00  0.00    -0.406 OA 
HETATM    4  C   UNL     1     -10.319  11.811  66.633  1.00  0.00    -0.218 C  
HETATM    5  O   UNL     1      -9.130  11.700  66.352  1.00  0.00    -0.198 OA 
HETATM    6  N   UNL     1     -11.152  10.917  67.285  1.00  0.00    -0.303 N  
HETATM    7  H   UNL     1     -12.129  11.189  67.392  1.00  0.00     0.000 HD 
ENDROOT
BRANCH   6   8
HETATM    8  C   UNL     1     -10.774   9.656  67.818  1.00  0.00    -0.257 A  
HETATM    9  C   UNL     1     -10.445   8.595  66.968  1.00  0.00    -0.354 A  
HETATM   10  C   UNL     1     -10.117   7.344  67.482  1.00  0.00    -0.250 A  
HETATM   11  C   UNL     1      -9.811   6.267  66.596  1.00  0.00    -0.154 C  
HETATM   12  C   UNL     1     -10.098   7.136  68.860  1.00  0.00    -0.177 A  
HETATM   13  C   UNL     1     -10.374   8.179  69.752  1.00  0.00    -0.216 A  
HETATM   14  N   UNL     1      -9.561   5.392  65.878  1.00  0.00    -0.134 NA 
HETATM   15  C   UNL     1     -10.717   9.446  69.219  1.00  0.00    -0.211 A  
HETATM   16 CL   UNL     1     -11.072  10.761  70.296  1.00  0.00    -0.312 Cl 
BRANCH  13  17
HETATM   17  N   UNL     1     -10.351   7.951  71.155  1.00  0.00    -0.199 N  
HETATM   18  C   UNL     1      -9.306   8.255  72.011  1.00  0.00    -0.230 C  
HETATM   19  H   UNL     1     -11.180   7.525  71.568  1.00  0.00     0.000 HD 
HETATM   20  O   UNL     1      -8.261   8.852  71.775  1.00  0.00    -0.318 OA 
HETATM   21  C   UNL     1      -9.506   7.800  73.463  1.00  0.00    -0.284 C  
HETATM   22  O   UNL     1      -8.461   8.174  74.229  1.00  0.00    -0.250 OA 
HETATM   23  O   UNL     1     -10.488   7.185  73.828  1.00  0.00    -0.371 OA 
ENDBRANCH  13  17
ENDBRANCH   6   8
TORSDOF 2
ENDMDL
MODEL       78
REMARK 921   NORMALIZED FREE ENERGY PREDICTED BY IDOCK:   -4.83 KCAL/MOL
REMARK 922        TOTAL FREE ENERGY PREDICTED BY IDOCK:   -5.92 KCAL/MOL
REMARK 923 INTER-LIGAND FREE ENERGY PREDICTED BY IDOCK:   -5.94 KCAL/MOL
REMARK 924 INTRA-LIGAND FREE ENERGY PREDICTED BY IDOCK:    0.02 KCAL/MOL
REMARK 927      BINDING AFFINITY PREDICTED BY RF-SCORE:    0.00 PKD
ROOT
HETATM    1  O   UNL     1      -8.960  19.444  67.921  1.00  0.00    -0.303 OA 
HETATM    2  C   UNL     1      -9.964  18.594  67.639  1.00  0.00    -0.341 C  
HETATM    3  O   UNL     1     -11.024  18.873  67.117  1.00  0.00    -0.410 OA 
HETATM    4  C   UNL     1      -9.598  17.162  68.048  1.00  0.00    -0.267 C  
HETATM    5  O   UNL     1      -8.519  17.021  68.614  1.00  0.00    -0.250 OA 
HETATM    6  N   UNL     1     -10.526  16.203  67.676  1.00  0.00    -0.286 N  
HETATM    7  H   UNL     1     -11.354  16.529  67.179  1.00  0.00     0.000 HD 
ENDROOT
BRANCH   6   8
HETATM    8  C   UNL     1     -10.430  14.808  67.923  1.00  0.00    -0.246 A  
HETATM    9  C   UNL     1      -9.619  13.999  67.120  1.00  0.00    -0.245 A  
HETATM   10  C   UNL     1      -9.556  12.623  67.327  1.00  0.00    -0.203 A  
HETATM   11  C   UNL     1      -8.742  11.812  66.479  1.00  0.00    -0.173 C  
HETATM   12  C   UNL     1     -10.293  12.034  68.351  1.00  0.00    -0.220 A  
HETATM   13  C   UNL     1     -11.083  12.808  69.210  1.00  0.00    -0.133 A  
HETATM   14  N   UNL     1      -8.082  11.152  65.792  1.00  0.00    -0.043 NA 
HETATM   15  C   UNL     1     -11.150  14.205  68.986  1.00  0.00    -0.263 A  
HETATM   16 CL   UNL     1     -12.125  15.195  70.027  1.00  0.00    -0.359 Cl 
BRANCH  13  17
HETATM   17  N   UNL     1     -11.830  12.192  70.251  1.00  0.00    -0.515 N  
HETATM   18  C   UNL     1     -12.026  10.831  70.416  1.00  0.00    -0.357 C  
HETATM   19  H   UNL     1     -12.261  12.809  70.939  1.00  0.00     0.000 HD 
HETATM   20  O   UNL     1     -11.536   9.897  69.789  1.00  0.00    -0.191 OA 
HETATM   21  C   UNL     1     -12.968  10.447  71.565  1.00  0.00    -0.458 C  
HETATM   22  O   UNL     1     -13.064   9.107  71.676  1.00  0.00    -0.332 OA 
HETATM   23  O   UNL     1     -13.531  11.274  72.254  1.00  0.00    -0.341 OA 
ENDBRANCH  13  17
ENDBRANCH   6   8
TORSDOF 2
ENDMDL
MODEL       79
REMARK 921   NORMALIZED FREE ENERGY PREDICTED BY IDOCK:   -4.82 KCAL/MOL
REMARK 922        TOTAL FREE ENERGY PREDICTED BY IDOCK:   -5.91 KCAL/MOL
REMARK 923 INTER-LIGAND FREE ENERGY PREDICTED BY IDOCK:   -5.37 KCAL/MOL
REMARK 924 INTRA-LIGAND FREE ENERGY PREDICTED BY IDOCK:   -0.54 KCAL/MOL
REMARK 927      BINDING AFFINITY PREDICTED BY RF-SCORE:    0.00 PKD
ROOT
HETATM    1  O   UNL     1     -10.982  13.541  67.923  1.00  0.00    -0.245 OA 
HETATM    2  C   UNL     1     -10.120  12.523  68.104  1.00  0.00    -0.225 C  
HETATM    3  O   UNL     1      -8.914  12.607  68.226  1.00  0.00    -0.194 OA 
HETATM    4  C   UNL     1     -10.862  11.183  68.162  1.00  0.00    -0.219 C  
HETATM    5  O   UNL     1     -12.073  11.227  67.972  1.00  0.00    -0.638 OA 
HETATM    6  N   UNL     1     -10.063  10.095  68.473  1.00  0.00    -0.162 N  
HETATM    7  H   UNL     1      -9.071  10.279  68.626  1.00  0.00     0.000 HD 
ENDROOT
BRANCH   6   8
HETATM    8  C   UNL     1     -10.495   8.749  68.599  1.00  0.00    -0.183 A  
HETATM    9  C   UNL     1     -10.898   8.245  69.840  1.00  0.00    -0.213 A  
HETATM   10  C   UNL     1     -11.280   6.913  69.980  1.00  0.00    -0.347 A  
HETATM   11  C   UNL     1     -11.662   6.413  71.261  1.00  0.00    -0.300 C  
HETATM   12  C   UNL     1     -11.278   6.064  68.875  1.00  0.00    -0.246 A  
HETATM   13  C   UNL     1     -10.927   6.534  67.604  1.00  0.00    -0.337 A  
HETATM   14  N   UNL     1     -11.974   6.004  72.300  1.00  0.00    -0.280 NA 
HETATM   15  C   UNL     1     -10.530   7.888  67.473  1.00  0.00    -0.262 A  
HETATM   16 CL   UNL     1     -10.082   8.502  65.912  1.00  0.00     0.058 Cl 
BRANCH  13  17
HETATM   17  N   UNL     1     -10.929   5.655  66.486  1.00  0.00    -0.695 N  
HETATM   18  C   UNL     1      -9.886   4.831  66.097  1.00  0.00    -0.219 C  
HETATM   19  H   UNL     1     -11.777   5.629  65.920  1.00  0.00     0.000 HD 
HETATM   20  O   UNL     1      -8.819   4.614  66.662  1.00  0.00    -0.111 OA 
HETATM   21  C   UNL     1     -10.119   4.067  64.787  1.00  0.00    -0.213 C  
HETATM   22  O   UNL     1      -9.073   3.262  64.510  1.00  0.00    -0.121 OA 
HETATM   23  O   UNL     1     -11.125   4.203  64.119  1.00  0.00    -0.217 OA 
ENDBRANCH  13  17
ENDBRANCH   6   8
TORSDOF 2
ENDMDL
MODEL       80
REMARK 921   NORMALIZED FREE ENERGY PREDICTED BY IDOCK:   -4.81 KCAL/MOL
REMARK 922        TOTAL FREE ENERGY PREDICTED BY IDOCK:   -5.90 KCAL/MOL
REMARK 923 INTER-LIGAND FREE ENERGY PREDICTED BY IDOCK:   -5.45 KCAL/MOL
REMARK 924 INTRA-LIGAND FREE ENERGY PREDICTED BY IDOCK:   -0.45 KCAL/MOL
REMARK 927      BINDING AFFINITY PREDICTED BY RF-SCORE:    0.00 PKD
ROOT
HETATM    1  O   UNL     1      -8.060   8.410  71.221  1.00  0.00    -0.104 OA 
HETATM    2  C   UNL     1      -7.758   9.399  70.360  1.00  0.00    -0.153 C  
HETATM    3  O   UNL     1      -7.155  10.422  70.615  1.00  0.00    -0.300 OA 
HETATM    4  C   UNL     1      -8.264   9.070  68.951  1.00  0.00    -0.120 C  
HETATM    5  O   UNL     1      -8.905   8.031  68.836  1.00  0.00    -0.140 OA 
HETATM    6  N   UNL     1      -7.883   9.977  67.976  1.00  0.00    -0.089 N  
HETATM    7  H   UNL     1      -7.317  10.770  68.278  1.00  0.00     0.000 HD 
ENDROOT
BRANCH   6   8
HETATM    8  C   UNL     1      -8.207   9.907  66.596  1.00  0.00    -0.121 A  
HETATM    9  C   UNL     1      -7.353   9.259  65.698  1.00  0.00    -0.093 A  
HETATM   10  C   UNL     1      -7.641   9.226  64.336  1.00  0.00    -0.115 A  
HETATM   11  C   UNL     1      -6.741   8.582  63.433  1.00  0.00    -0.089 C  
HETATM   12  C   UNL     1      -8.799   9.828  63.850  1.00  0.00    -0.259 A  
HETATM   13  C   UNL     1      -9.708  10.449  64.715  1.00  0.00    -0.320 A  
HETATM   14  N   UNL     1      -6.013   8.059  62.698  1.00  0.00    -0.072 NA 
HETATM   15  C   UNL     1      -9.402  10.487  66.098  1.00  0.00    -0.176 A  
HETATM   16 CL   UNL     1     -10.504  11.254  67.199  1.00  0.00    -0.247 Cl 
BRANCH  13  17
HETATM   17  N   UNL     1     -10.886  11.060  64.204  1.00  0.00    -0.429 N  
HETATM   18  C   UNL     1     -11.120  12.422  64.110  1.00  0.00    -0.372 C  
HETATM   19  H   UNL     1     -11.625  10.439  63.877  1.00  0.00     0.000 HD 
HETATM   20  O   UNL     1     -10.358  13.355  64.341  1.00  0.00    -0.425 OA 
HETATM   21  C   UNL     1     -12.523  12.805  63.620  1.00  0.00    -0.389 C  
HETATM   22  O   UNL     1     -12.644  14.144  63.520  1.00  0.00    -0.834 OA 
HETATM   23  O   UNL     1     -13.378  11.979  63.372  1.00  0.00    -0.601 OA 
ENDBRANCH  13  17
ENDBRANCH   6   8
TORSDOF 2
ENDMDL
MODEL       81
REMARK 921   NORMALIZED FREE ENERGY PREDICTED BY IDOCK:   -4.77 KCAL/MOL
REMARK 922        TOTAL FREE ENERGY PREDICTED BY IDOCK:   -5.86 KCAL/MOL
REMARK 923 INTER-LIGAND FREE ENERGY PREDICTED BY IDOCK:   -5.35 KCAL/MOL
REMARK 924 INTRA-LIGAND FREE ENERGY PREDICTED BY IDOCK:   -0.51 KCAL/MOL
REMARK 927      BINDING AFFINITY PREDICTED BY RF-SCORE:    0.00 PKD
ROOT
HETATM    1  O   UNL     1     -12.552  12.953  63.275  1.00  0.00    -0.685 OA 
HETATM    2  C   UNL     1     -12.413  13.724  64.369  1.00  0.00    -0.270 C  
HETATM    3  O   UNL     1     -13.298  14.313  64.957  1.00  0.00    -0.509 OA 
HETATM    4  C   UNL     1     -10.950  13.763  64.827  1.00  0.00    -0.392 C  
HETATM    5  O   UNL     1     -10.146  13.171  64.116  1.00  0.00    -0.335 OA 
HETATM    6  N   UNL     1     -10.740  14.432  66.022  1.00  0.00    -0.295 N  
HETATM    7  H   UNL     1     -11.558  14.834  66.477  1.00  0.00     0.000 HD 
ENDROOT
BRANCH   6   8
HETATM    8  C   UNL     1      -9.490  14.608  66.672  1.00  0.00    -0.278 A  
HETATM    9  C   UNL     1      -8.719  15.750  66.431  1.00  0.00    -0.372 A  
HETATM   10  C   UNL     1      -7.471  15.909  67.029  1.00  0.00    -0.254 A  
HETATM   11  C   UNL     1      -6.689  17.069  66.748  1.00  0.00    -0.230 C  
HETATM   12  C   UNL     1      -6.980  14.932  67.893  1.00  0.00    -0.170 A  
HETATM   13  C   UNL     1      -7.734  13.794  68.201  1.00  0.00    -0.140 A  
HETATM   14  N   UNL     1      -6.052  18.012  66.523  1.00  0.00    -0.164 NA 
HETATM   15  C   UNL     1      -8.998  13.636  67.579  1.00  0.00    -0.209 A  
HETATM   16 CL   UNL     1      -9.958  12.233  67.934  1.00  0.00    -0.197 Cl 
BRANCH  13  17
HETATM   17  N   UNL     1      -7.218  12.806  69.083  1.00  0.00    -0.299 N  
HETATM   18  C   UNL     1      -6.677  11.586  68.712  1.00  0.00    -0.079 C  
HETATM   19  H   UNL     1      -7.250  13.014  70.081  1.00  0.00     0.000 HD 
HETATM   20  O   UNL     1      -6.442  11.155  67.588  1.00  0.00    -0.061 OA 
HETATM   21  C   UNL     1      -6.297  10.665  69.878  1.00  0.00    -0.110 C  
HETATM   22  O   UNL     1      -5.741   9.523  69.424  1.00  0.00    -0.035 OA 
HETATM   23  O   UNL     1      -6.491  10.963  71.040  1.00  0.00    -0.265 OA 
ENDBRANCH  13  17
ENDBRANCH   6   8
TORSDOF 2
ENDMDL
MODEL       82
REMARK 921   NORMALIZED FREE ENERGY PREDICTED BY IDOCK:   -4.77 KCAL/MOL
REMARK 922        TOTAL FREE ENERGY PREDICTED BY IDOCK:   -5.85 KCAL/MOL
REMARK 923 INTER-LIGAND FREE ENERGY PREDICTED BY IDOCK:   -5.86 KCAL/MOL
REMARK 924 INTRA-LIGAND FREE ENERGY PREDICTED BY IDOCK:    0.00 KCAL/MOL
REMARK 927      BINDING AFFINITY PREDICTED BY RF-SCORE:    0.00 PKD
ROOT
HETATM    1  O   UNL     1      -8.689  10.465  63.922  1.00  0.00    -0.178 OA 
HETATM    2  C   UNL     1      -8.291  10.428  65.207  1.00  0.00    -0.166 C  
HETATM    3  O   UNL     1      -7.149  10.332  65.609  1.00  0.00    -0.126 OA 
HETATM    4  C   UNL     1      -9.491  10.545  66.154  1.00  0.00    -0.180 C  
HETATM    5  O   UNL     1     -10.597  10.581  65.623  1.00  0.00    -0.177 OA 
HETATM    6  N   UNL     1      -9.159  10.642  67.495  1.00  0.00    -0.139 N  
HETATM    7  H   UNL     1      -8.166  10.622  67.728  1.00  0.00     0.000 HD 
ENDROOT
BRANCH   6   8
HETATM    8  C   UNL     1     -10.071  10.768  68.576  1.00  0.00    -0.176 A  
HETATM    9  C   UNL     1     -10.507   9.637  69.273  1.00  0.00    -0.232 A  
HETATM   10  C   UNL     1     -11.436   9.748  70.304  1.00  0.00    -0.317 A  
HETATM   11  C   UNL     1     -11.888   8.577  70.984  1.00  0.00    -0.257 C  
HETATM   12  C   UNL     1     -11.935  10.997  70.666  1.00  0.00    -0.464 A  
HETATM   13  C   UNL     1     -11.494  12.163  70.029  1.00  0.00    -0.075 A  
HETATM   14  N   UNL     1     -12.256   7.628  71.539  1.00  0.00    -0.312 NA 
HETATM   15  C   UNL     1     -10.556  12.040  68.974  1.00  0.00    -0.098 A  
HETATM   16 CL   UNL     1      -9.992  13.465  68.158  1.00  0.00    -0.232 Cl 
BRANCH  13  17
HETATM   17  N   UNL     1     -12.012  13.431  70.409  1.00  0.00    -0.488 N  
HETATM   18  C   UNL     1     -13.005  13.655  71.349  1.00  0.00    -0.347 C  
HETATM   19  H   UNL     1     -11.617  14.250  69.949  1.00  0.00     0.000 HD 
HETATM   20  O   UNL     1     -13.557  12.855  72.097  1.00  0.00    -0.528 OA 
HETATM   21  C   UNL     1     -13.450  15.118  71.484  1.00  0.00    -0.462 C  
HETATM   22  O   UNL     1     -14.385  15.245  72.447  1.00  0.00    -0.514 OA 
HETATM   23  O   UNL     1     -12.995  16.007  70.793  1.00  0.00    -0.390 OA 
ENDBRANCH  13  17
ENDBRANCH   6   8
TORSDOF 2
ENDMDL
MODEL       83
REMARK 921   NORMALIZED FREE ENERGY PREDICTED BY IDOCK:   -4.76 KCAL/MOL
REMARK 922        TOTAL FREE ENERGY PREDICTED BY IDOCK:   -5.85 KCAL/MOL
REMARK 923 INTER-LIGAND FREE ENERGY PREDICTED BY IDOCK:   -5.50 KCAL/MOL
REMARK 924 INTRA-LIGAND FREE ENERGY PREDICTED BY IDOCK:   -0.35 KCAL/MOL
REMARK 927      BINDING AFFINITY PREDICTED BY RF-SCORE:    0.00 PKD
ROOT
HETATM    1  O   UNL     1      -5.125  14.313  70.413  1.00  0.00    -0.093 OA 
HETATM    2  C   UNL     1      -6.430  14.642  70.432  1.00  0.00    -0.110 C  
HETATM    3  O   UNL     1      -7.144  14.717  71.411  1.00  0.00     1.048 OA 
HETATM    4  C   UNL     1      -6.937  14.947  69.017  1.00  0.00    -0.120 C  
HETATM    5  O   UNL     1      -6.131  14.783  68.107  1.00  0.00    -0.117 OA 
HETATM    6  N   UNL     1      -8.238  15.418  68.961  1.00  0.00    -0.198 N  
HETATM    7  H   UNL     1      -8.735  15.513  69.847  1.00  0.00     0.000 HD 
ENDROOT
BRANCH   6   8
HETATM    8  C   UNL     1      -8.946  15.783  67.785  1.00  0.00    -0.176 A  
HETATM    9  C   UNL     1      -9.266  17.121  67.535  1.00  0.00    -0.233 A  
HETATM   10  C   UNL     1     -10.000  17.480  66.407  1.00  0.00    -0.330 A  
HETATM   11  C   UNL     1     -10.339  18.849  66.185  1.00  0.00    -0.460 C  
HETATM   12  C   UNL     1     -10.413  16.506  65.501  1.00  0.00    -0.320 A  
HETATM   13  C   UNL     1     -10.077  15.160  65.684  1.00  0.00    -0.363 A  
HETATM   14  N   UNL     1     -10.615  19.960  66.002  1.00  0.00    -0.467 NA 
HETATM   15  C   UNL     1      -9.340  14.802  66.840  1.00  0.00    -0.240 A  
HETATM   16 CL   UNL     1      -8.911  13.140  67.102  1.00  0.00    -0.220 Cl 
BRANCH  13  17
HETATM   17  N   UNL     1     -10.507  14.178  64.750  1.00  0.00    -0.476 N  
HETATM   18  C   UNL     1     -11.780  13.639  64.665  1.00  0.00    -0.388 C  
HETATM   19  H   UNL     1      -9.815  13.839  64.083  1.00  0.00     0.000 HD 
HETATM   20  O   UNL     1     -12.795  13.950  65.280  1.00  0.00    -0.689 OA 
HETATM   21  C   UNL     1     -11.939  12.514  63.633  1.00  0.00    -0.537 C  
HETATM   22  O   UNL     1     -13.215  12.082  63.590  1.00  0.00    -0.737 OA 
HETATM   23  O   UNL     1     -11.011  12.099  62.968  1.00  0.00    -0.273 OA 
ENDBRANCH  13  17
ENDBRANCH   6   8
TORSDOF 2
ENDMDL
MODEL       84
REMARK 921   NORMALIZED FREE ENERGY PREDICTED BY IDOCK:   -4.74 KCAL/MOL
REMARK 922        TOTAL FREE ENERGY PREDICTED BY IDOCK:   -5.82 KCAL/MOL
REMARK 923 INTER-LIGAND FREE ENERGY PREDICTED BY IDOCK:   -5.68 KCAL/MOL
REMARK 924 INTRA-LIGAND FREE ENERGY PREDICTED BY IDOCK:   -0.15 KCAL/MOL
REMARK 927      BINDING AFFINITY PREDICTED BY RF-SCORE:    0.00 PKD
ROOT
HETATM    1  O   UNL     1      -5.526  20.402  67.621  1.00  0.00    -0.178 OA 
HETATM    2  C   UNL     1      -6.306  19.597  68.365  1.00  0.00    -0.254 C  
HETATM    3  O   UNL     1      -6.468  19.654  69.567  1.00  0.00    -0.310 OA 
HETATM    4  C   UNL     1      -7.018  18.561  67.486  1.00  0.00    -0.205 C  
HETATM    5  O   UNL     1      -6.728  18.574  66.294  1.00  0.00    -0.196 OA 
HETATM    6  N   UNL     1      -7.939  17.773  68.156  1.00  0.00    -0.253 N  
HETATM    7  H   UNL     1      -8.055  17.945  69.155  1.00  0.00     0.000 HD 
ENDROOT
BRANCH   6   8
HETATM    8  C   UNL     1      -8.738  16.750  67.582  1.00  0.00    -0.204 A  
HETATM    9  C   UNL     1      -9.541  17.015  66.468  1.00  0.00    -0.295 A  
HETATM   10  C   UNL     1     -10.362  16.029  65.928  1.00  0.00    -0.386 A  
HETATM   11  C   UNL     1     -11.194  16.329  64.807  1.00  0.00    -0.259 C  
HETATM   12  C   UNL     1     -10.381  14.752  66.485  1.00  0.00    -0.287 A  
HETATM   13  C   UNL     1      -9.561  14.425  67.571  1.00  0.00    -0.215 A  
HETATM   14  N   UNL     1     -11.870  16.570  63.897  1.00  0.00    -0.908 NA 
HETATM   15  C   UNL     1      -8.737  15.438  68.121  1.00  0.00    -0.161 A  
HETATM   16 CL   UNL     1      -7.712  15.069  69.472  1.00  0.00    -0.193 Cl 
BRANCH  13  17
HETATM   17  N   UNL     1      -9.593  13.117  68.129  1.00  0.00    -0.223 N  
HETATM   18  C   UNL     1     -10.726  12.438  68.546  1.00  0.00    -0.238 C  
HETATM   19  H   UNL     1      -8.700  12.636  68.231  1.00  0.00     0.000 HD 
HETATM   20  O   UNL     1     -11.905  12.760  68.436  1.00  0.00    -0.314 OA 
HETATM   21  C   UNL     1     -10.459  11.082  69.212  1.00  0.00    -0.180 C  
HETATM   22  O   UNL     1     -11.617  10.477  69.545  1.00  0.00    -0.255 OA 
HETATM   23  O   UNL     1      -9.338  10.652  69.396  1.00  0.00    -0.163 OA 
ENDBRANCH  13  17
ENDBRANCH   6   8
TORSDOF 2
ENDMDL
MODEL       85
REMARK 921   NORMALIZED FREE ENERGY PREDICTED BY IDOCK:   -4.74 KCAL/MOL
REMARK 922        TOTAL FREE ENERGY PREDICTED BY IDOCK:   -5.82 KCAL/MOL
REMARK 923 INTER-LIGAND FREE ENERGY PREDICTED BY IDOCK:   -5.37 KCAL/MOL
REMARK 924 INTRA-LIGAND FREE ENERGY PREDICTED BY IDOCK:   -0.46 KCAL/MOL
REMARK 927      BINDING AFFINITY PREDICTED BY RF-SCORE:    0.00 PKD
ROOT
HETATM    1  O   UNL     1      -9.625   6.555  71.973  1.00  0.00    -0.152 OA 
HETATM    2  C   UNL     1      -9.415   7.883  71.896  1.00  0.00    -0.168 C  
HETATM    3  O   UNL     1      -9.266   8.647  72.828  1.00  0.00    -0.293 OA 
HETATM    4  C   UNL     1      -9.363   8.344  70.435  1.00  0.00    -0.161 C  
HETATM    5  O   UNL     1      -9.582   7.484  69.589  1.00  0.00    -0.160 OA 
HETATM    6  N   UNL     1      -9.025   9.676  70.264  1.00  0.00    -0.272 N  
HETATM    7  H   UNL     1      -8.850  10.221  71.108  1.00  0.00     0.000 HD 
ENDROOT
BRANCH   6   8
HETATM    8  C   UNL     1      -8.898  10.354  69.023  1.00  0.00    -0.172 A  
HETATM    9  C   UNL     1      -7.642  10.519  68.429  1.00  0.00    -0.097 A  
HETATM   10  C   UNL     1      -7.504  11.222  67.235  1.00  0.00    -0.126 A  
HETATM   11  C   UNL     1      -6.210  11.402  66.660  1.00  0.00    -0.137 C  
HETATM   12  C   UNL     1      -8.625  11.761  66.606  1.00  0.00    -0.170 A  
HETATM   13  C   UNL     1      -9.907  11.582  67.138  1.00  0.00    -0.191 A  
HETATM   14  N   UNL     1      -5.160  11.549  66.190  1.00  0.00    -0.314 NA 
HETATM   15  C   UNL     1     -10.037  10.874  68.358  1.00  0.00    -0.183 A  
HETATM   16 CL   UNL     1     -11.612  10.640  69.050  1.00  0.00    -0.339 Cl 
BRANCH  13  17
HETATM   17  N   UNL     1     -11.041  12.139  66.484  1.00  0.00    -0.291 N  
HETATM   18  C   UNL     1     -11.514  11.782  65.232  1.00  0.00    -0.186 C  
HETATM   19  H   UNL     1     -11.553  12.866  66.983  1.00  0.00     0.000 HD 
HETATM   20  O   UNL     1     -11.138  10.881  64.491  1.00  0.00    -0.128 OA 
HETATM   21  C   UNL     1     -12.693  12.623  64.723  1.00  0.00    -0.379 C  
HETATM   22  O   UNL     1     -13.112  12.179  63.521  1.00  0.00    -0.785 OA 
HETATM   23  O   UNL     1     -13.153  13.555  65.351  1.00  0.00    -0.663 OA 
ENDBRANCH  13  17
ENDBRANCH   6   8
TORSDOF 2
ENDMDL
MODEL       86
REMARK 921   NORMALIZED FREE ENERGY PREDICTED BY IDOCK:   -4.73 KCAL/MOL
REMARK 922        TOTAL FREE ENERGY PREDICTED BY IDOCK:   -5.82 KCAL/MOL
REMARK 923 INTER-LIGAND FREE ENERGY PREDICTED BY IDOCK:   -5.42 KCAL/MOL
REMARK 924 INTRA-LIGAND FREE ENERGY PREDICTED BY IDOCK:   -0.40 KCAL/MOL
REMARK 927      BINDING AFFINITY PREDICTED BY RF-SCORE:    0.00 PKD
ROOT
HETATM    1  O   UNL     1      -5.501  11.175  71.818  1.00  0.00    -0.340 OA 
HETATM    2  C   UNL     1      -5.782  11.725  70.622  1.00  0.00    -0.123 C  
HETATM    3  O   UNL     1      -5.256  12.705  70.133  1.00  0.00    -0.084 OA 
HETATM    4  C   UNL     1      -6.876  10.930  69.899  1.00  0.00    -0.125 C  
HETATM    5  O   UNL     1      -7.364   9.993  70.522  1.00  0.00    -0.261 OA 
HETATM    6  N   UNL     1      -7.136  11.354  68.606  1.00  0.00    -0.088 N  
HETATM    7  H   UNL     1      -6.592  12.144  68.260  1.00  0.00     0.000 HD 
ENDROOT
BRANCH   6   8
HETATM    8  C   UNL     1      -8.090  10.791  67.718  1.00  0.00    -0.111 A  
HETATM    9  C   UNL     1      -7.995   9.450  67.331  1.00  0.00    -0.106 A  
HETATM   10  C   UNL     1      -8.899   8.903  66.424  1.00  0.00    -0.178 A  
HETATM   11  C   UNL     1      -8.768   7.539  66.022  1.00  0.00    -0.158 C  
HETATM   12  C   UNL     1      -9.925   9.686  65.900  1.00  0.00    -0.351 A  
HETATM   13  C   UNL     1     -10.089  11.020  66.292  1.00  0.00    -0.235 A  
HETATM   14  N   UNL     1      -8.664   6.432  65.695  1.00  0.00    -0.133 NA 
HETATM   15  C   UNL     1      -9.158  11.571  67.207  1.00  0.00    -0.164 A  
HETATM   16 CL   UNL     1      -9.327  13.224  67.710  1.00  0.00    -0.200 Cl 
BRANCH  13  17
HETATM   17  N   UNL     1     -11.141  11.806  65.747  1.00  0.00    -0.313 N  
HETATM   18  C   UNL     1     -11.146  12.405  64.498  1.00  0.00    -0.316 C  
HETATM   19  H   UNL     1     -11.967  11.942  66.329  1.00  0.00     0.000 HD 
HETATM   20  O   UNL     1     -10.326  12.308  63.591  1.00  0.00    -0.412 OA 
HETATM   21  C   UNL     1     -12.366  13.289  64.210  1.00  0.00    -0.340 C  
HETATM   22  O   UNL     1     -12.305  13.794  62.960  1.00  0.00    -0.661 OA 
HETATM   23  O   UNL     1     -13.243  13.483  65.027  1.00  0.00    -0.721 OA 
ENDBRANCH  13  17
ENDBRANCH   6   8
TORSDOF 2
ENDMDL
MODEL       87
REMARK 921   NORMALIZED FREE ENERGY PREDICTED BY IDOCK:   -4.71 KCAL/MOL
REMARK 922        TOTAL FREE ENERGY PREDICTED BY IDOCK:   -5.80 KCAL/MOL
REMARK 923 INTER-LIGAND FREE ENERGY PREDICTED BY IDOCK:   -5.51 KCAL/MOL
REMARK 924 INTRA-LIGAND FREE ENERGY PREDICTED BY IDOCK:   -0.29 KCAL/MOL
REMARK 927      BINDING AFFINITY PREDICTED BY RF-SCORE:    0.00 PKD
ROOT
HETATM    1  O   UNL     1     -11.627  15.090  65.402  1.00  0.00    -0.318 OA 
HETATM    2  C   UNL     1     -12.111  13.863  65.674  1.00  0.00    -0.421 C  
HETATM    3  O   UNL     1     -12.918  13.240  65.015  1.00  0.00    -0.726 OA 
HETATM    4  C   UNL     1     -11.487  13.303  66.958  1.00  0.00    -0.339 C  
HETATM    5  O   UNL     1     -10.727  14.052  67.561  1.00  0.00    -0.264 OA 
HETATM    6  N   UNL     1     -11.835  11.992  67.242  1.00  0.00    -0.266 N  
HETATM    7  H   UNL     1     -12.466  11.529  66.588  1.00  0.00     0.000 HD 
ENDROOT
BRANCH   6   8
HETATM    8  C   UNL     1     -11.394  11.233  68.358  1.00  0.00    -0.281 A  
HETATM    9  C   UNL     1     -12.274  10.927  69.401  1.00  0.00    -0.293 A  
HETATM   10  C   UNL     1     -11.837  10.223  70.520  1.00  0.00    -0.419 A  
HETATM   11  C   UNL     1     -12.745   9.944  71.586  1.00  0.00    -0.429 C  
HETATM   12  C   UNL     1     -10.513   9.798  70.607  1.00  0.00    -0.358 A  
HETATM   13  C   UNL     1      -9.607  10.040  69.568  1.00  0.00    -0.230 A  
HETATM   14  N   UNL     1     -13.481   9.716  72.452  1.00  0.00    -0.402 NA 
HETATM   15  C   UNL     1     -10.057  10.767  68.438  1.00  0.00    -0.169 A  
HETATM   16 CL   UNL     1      -8.958  11.091  67.133  1.00  0.00    -0.142 Cl 
BRANCH  13  17
HETATM   17  N   UNL     1      -8.259   9.601  69.672  1.00  0.00    -0.128 N  
HETATM   18  C   UNL     1      -7.843   8.308  69.943  1.00  0.00    -0.102 C  
HETATM   19  H   UNL     1      -7.531  10.302  69.534  1.00  0.00     0.000 HD 
HETATM   20  O   UNL     1      -8.513   7.286  70.048  1.00  0.00    -0.136 OA 
HETATM   21  C   UNL     1      -6.327   8.137  70.108  1.00  0.00    -0.032 C  
HETATM   22  O   UNL     1      -6.013   6.844  70.326  1.00  0.00    -0.023 OA 
HETATM   23  O   UNL     1      -5.551   9.069  70.044  1.00  0.00    -0.028 OA 
ENDBRANCH  13  17
ENDBRANCH   6   8
TORSDOF 2
ENDMDL
MODEL       88
REMARK 921   NORMALIZED FREE ENERGY PREDICTED BY IDOCK:   -4.68 KCAL/MOL
REMARK 922        TOTAL FREE ENERGY PREDICTED BY IDOCK:   -5.75 KCAL/MOL
REMARK 923 INTER-LIGAND FREE ENERGY PREDICTED BY IDOCK:   -5.23 KCAL/MOL
REMARK 924 INTRA-LIGAND FREE ENERGY PREDICTED BY IDOCK:   -0.52 KCAL/MOL
REMARK 927      BINDING AFFINITY PREDICTED BY RF-SCORE:    0.00 PKD
ROOT
HETATM    1  O   UNL     1     -10.906   5.232  74.246  1.00  0.00    -0.285 OA 
HETATM    2  C   UNL     1     -10.005   5.734  73.381  1.00  0.00    -0.177 C  
HETATM    3  O   UNL     1      -8.824   5.920  73.592  1.00  0.00    -0.125 OA 
HETATM    4  C   UNL     1     -10.659   6.041  72.028  1.00  0.00    -0.223 C  
HETATM    5  O   UNL     1     -11.870   5.860  71.960  1.00  0.00    -0.267 OA 
HETATM    6  N   UNL     1      -9.776   6.442  71.040  1.00  0.00    -0.175 N  
HETATM    7  H   UNL     1      -8.790   6.501  71.297  1.00  0.00     0.000 HD 
ENDROOT
BRANCH   6   8
HETATM    8  C   UNL     1     -10.114   6.778  69.702  1.00  0.00    -0.183 A  
HETATM    9  C   UNL     1     -10.095   5.803  68.699  1.00  0.00    -0.227 A  
HETATM   10  C   UNL     1     -10.380   6.134  67.377  1.00  0.00    -0.262 A  
HETATM   11  C   UNL     1     -10.328   5.129  66.364  1.00  0.00    -0.288 C  
HETATM   12  C   UNL     1     -10.705   7.446  67.038  1.00  0.00    -0.389 A  
HETATM   13  C   UNL     1     -10.783   8.446  68.014  1.00  0.00    -0.055 A  
HETATM   14  N   UNL     1     -10.288   4.315  65.540  1.00  0.00    -0.224 NA 
HETATM   15  C   UNL     1     -10.480   8.103  69.355  1.00  0.00    -0.220 A  
HETATM   16 CL   UNL     1     -10.560   9.320  70.591  1.00  0.00    -0.296 Cl 
BRANCH  13  17
HETATM   17  N   UNL     1     -11.115   9.780  67.652  1.00  0.00    -0.455 N  
HETATM   18  C   UNL     1     -10.245  10.722  67.127  1.00  0.00    -0.213 C  
HETATM   19  H   UNL     1     -12.083  10.071  67.792  1.00  0.00     0.000 HD 
HETATM   20  O   UNL     1      -9.076  10.586  66.780  1.00  0.00    -0.149 OA 
HETATM   21  C   UNL     1     -10.847  12.120  66.930  1.00  0.00    -0.250 C  
HETATM   22  O   UNL     1      -9.943  12.955  66.378  1.00  0.00    -0.255 OA 
HETATM   23  O   UNL     1     -11.987  12.393  67.247  1.00  0.00    -0.516 OA 
ENDBRANCH  13  17
ENDBRANCH   6   8
TORSDOF 2
ENDMDL
MODEL       89
REMARK 921   NORMALIZED FREE ENERGY PREDICTED BY IDOCK:   -4.66 KCAL/MOL
REMARK 922        TOTAL FREE ENERGY PREDICTED BY IDOCK:   -5.74 KCAL/MOL
REMARK 923 INTER-LIGAND FREE ENERGY PREDICTED BY IDOCK:   -5.52 KCAL/MOL
REMARK 924 INTRA-LIGAND FREE ENERGY PREDICTED BY IDOCK:   -0.22 KCAL/MOL
REMARK 927      BINDING AFFINITY PREDICTED BY RF-SCORE:    0.00 PKD
ROOT
HETATM    1  O   UNL     1      -8.292  18.011  66.072  1.00  0.00    -0.494 OA 
HETATM    2  C   UNL     1      -9.397  17.284  66.324  1.00  0.00    -0.223 C  
HETATM    3  O   UNL     1     -10.541  17.690  66.349  1.00  0.00    -0.308 OA 
HETATM    4  C   UNL     1      -9.038  15.813  66.567  1.00  0.00    -0.293 C  
HETATM    5  O   UNL     1      -7.842  15.542  66.567  1.00  0.00    -0.135 OA 
HETATM    6  N   UNL     1     -10.129  14.971  66.708  1.00  0.00    -0.250 N  
HETATM    7  H   UNL     1     -11.054  15.397  66.644  1.00  0.00     0.000 HD 
ENDROOT
BRANCH   6   8
HETATM    8  C   UNL     1     -10.080  13.570  66.931  1.00  0.00    -0.256 A  
HETATM    9  C   UNL     1      -9.571  12.712  65.952  1.00  0.00    -0.158 A  
HETATM   10  C   UNL     1      -9.562  11.333  66.145  1.00  0.00    -0.241 A  
HETATM   11  C   UNL     1      -9.063  10.473  65.121  1.00  0.00    -0.197 C  
HETATM   12  C   UNL     1     -10.050  10.789  67.332  1.00  0.00    -0.227 A  
HETATM   13  C   UNL     1     -10.526  11.610  68.361  1.00  0.00    -0.213 A  
HETATM   14  N   UNL     1      -8.657   9.772  64.291  1.00  0.00    -0.172 NA 
HETATM   15  C   UNL     1     -10.541  13.011  68.150  1.00  0.00    -0.245 A  
HETATM   16 CL   UNL     1     -11.132  14.059  69.402  1.00  0.00    -0.271 Cl 
BRANCH  13  17
HETATM   17  N   UNL     1     -11.021  11.040  69.565  1.00  0.00    -0.305 N  
HETATM   18  C   UNL     1     -10.436  10.005  70.276  1.00  0.00    -0.272 C  
HETATM   19  H   UNL     1     -11.885  11.430  69.941  1.00  0.00     0.000 HD 
HETATM   20  O   UNL     1      -9.360   9.447  70.085  1.00  0.00    -0.205 OA 
HETATM   21  C   UNL     1     -11.243   9.513  71.485  1.00  0.00    -0.367 C  
HETATM   22  O   UNL     1     -10.579   8.537  72.137  1.00  0.00    -0.304 OA 
HETATM   23  O   UNL     1     -12.331   9.968  71.776  1.00  0.00    -0.390 OA 
ENDBRANCH  13  17
ENDBRANCH   6   8
TORSDOF 2
ENDMDL
MODEL       90
REMARK 921   NORMALIZED FREE ENERGY PREDICTED BY IDOCK:   -4.66 KCAL/MOL
REMARK 922        TOTAL FREE ENERGY PREDICTED BY IDOCK:   -5.73 KCAL/MOL
REMARK 923 INTER-LIGAND FREE ENERGY PREDICTED BY IDOCK:   -5.34 KCAL/MOL
REMARK 924 INTRA-LIGAND FREE ENERGY PREDICTED BY IDOCK:   -0.39 KCAL/MOL
REMARK 927      BINDING AFFINITY PREDICTED BY RF-SCORE:    0.00 PKD
ROOT
HETATM    1  O   UNL     1     -12.172   8.508  72.932  1.00  0.00    -0.270 OA 
HETATM    2  C   UNL     1     -12.811   8.981  71.846  1.00  0.00    -0.387 C  
HETATM    3  O   UNL     1     -14.010   8.980  71.653  1.00  0.00    -0.384 OA 
HETATM    4  C   UNL     1     -11.816   9.568  70.838  1.00  0.00    -0.309 C  
HETATM    5  O   UNL     1     -10.629   9.459  71.126  1.00  0.00    -0.295 OA 
HETATM    6  N   UNL     1     -12.400  10.191  69.748  1.00  0.00    -0.502 N  
HETATM    7  H   UNL     1     -13.420  10.198  69.711  1.00  0.00     0.000 HD 
ENDROOT
BRANCH   6   8
HETATM    8  C   UNL     1     -11.713  10.821  68.677  1.00  0.00    -0.219 A  
HETATM    9  C   UNL     1     -11.741  12.212  68.536  1.00  0.00    -0.382 A  
HETATM   10  C   UNL     1     -11.108  12.834  67.463  1.00  0.00    -0.300 A  
HETATM   11  C   UNL     1     -11.171  14.253  67.323  1.00  0.00    -0.318 C  
HETATM   12  C   UNL     1     -10.422  12.073  66.519  1.00  0.00    -0.253 A  
HETATM   13  C   UNL     1     -10.327  10.682  66.642  1.00  0.00    -0.241 A  
HETATM   14  N   UNL     1     -11.221  15.406  67.208  1.00  0.00    -0.308 NA 
HETATM   15  C   UNL     1     -10.983  10.057  67.732  1.00  0.00    -0.249 A  
HETATM   16 CL   UNL     1     -10.891   8.333  67.912  1.00  0.00    -0.117 Cl 
BRANCH  13  17
HETATM   17  N   UNL     1      -9.624   9.919  65.670  1.00  0.00    -0.236 N  
HETATM   18  C   UNL     1      -8.332   9.435  65.795  1.00  0.00    -0.122 C  
HETATM   19  H   UNL     1     -10.115   9.709  64.802  1.00  0.00     0.000 HD 
HETATM   20  O   UNL     1      -7.583   9.469  66.766  1.00  0.00    -0.096 OA 
HETATM   21  C   UNL     1      -7.780   8.735  64.545  1.00  0.00    -0.121 C  
HETATM   22  O   UNL     1      -6.538   8.262  64.773  1.00  0.00    -0.065 OA 
HETATM   23  O   UNL     1      -8.411   8.646  63.511  1.00  0.00    -0.169 OA 
ENDBRANCH  13  17
ENDBRANCH   6   8
TORSDOF 2
ENDMDL
MODEL       91
REMARK 921   NORMALIZED FREE ENERGY PREDICTED BY IDOCK:   -4.62 KCAL/MOL
REMARK 922        TOTAL FREE ENERGY PREDICTED BY IDOCK:   -5.69 KCAL/MOL
REMARK 923 INTER-LIGAND FREE ENERGY PREDICTED BY IDOCK:   -5.21 KCAL/MOL
REMARK 924 INTRA-LIGAND FREE ENERGY PREDICTED BY IDOCK:   -0.48 KCAL/MOL
REMARK 927      BINDING AFFINITY PREDICTED BY RF-SCORE:    0.00 PKD
ROOT
HETATM    1  O   UNL     1     -10.646  12.657  63.709  1.00  0.00    -0.417 OA 
HETATM    2  C   UNL     1     -10.377  13.112  64.947  1.00  0.00    -0.334 C  
HETATM    3  O   UNL     1     -10.389  14.271  65.311  1.00  0.00    -0.347 OA 
HETATM    4  C   UNL     1     -10.058  11.953  65.898  1.00  0.00    -0.234 C  
HETATM    5  O   UNL     1     -10.026  10.835  65.395  1.00  0.00    -0.238 OA 
HETATM    6  N   UNL     1      -9.895  12.324  67.222  1.00  0.00    -0.203 N  
HETATM    7  H   UNL     1      -9.993  13.315  67.441  1.00  0.00     0.000 HD 
ENDROOT
BRANCH   6   8
HETATM    8  C   UNL     1      -9.603  11.452  68.305  1.00  0.00    -0.192 A  
HETATM    9  C   UNL     1      -8.286  11.060  68.566  1.00  0.00    -0.149 A  
HETATM   10  C   UNL     1      -7.998  10.170  69.597  1.00  0.00    -0.181 A  
HETATM   11  C   UNL     1      -6.650   9.762  69.830  1.00  0.00    -0.060 C  
HETATM   12  C   UNL     1      -9.023   9.668  70.396  1.00  0.00    -0.239 A  
HETATM   13  C   UNL     1     -10.351  10.066  70.203  1.00  0.00    -0.266 A  
HETATM   14  N   UNL     1      -5.555   9.429  70.021  1.00  0.00    -0.034 NA 
HETATM   15  C   UNL     1     -10.636  10.964  69.144  1.00  0.00    -0.220 A  
HETATM   16 CL   UNL     1     -12.273  11.475  68.872  1.00  0.00    -0.252 Cl 
BRANCH  13  17
HETATM   17  N   UNL     1     -11.386   9.544  71.026  1.00  0.00    -0.321 N  
HETATM   18  C   UNL     1     -11.848   8.239  71.021  1.00  0.00    -0.255 C  
HETATM   19  H   UNL     1     -11.828  10.190  71.679  1.00  0.00     0.000 HD 
HETATM   20  O   UNL     1     -11.418   7.268  70.408  1.00  0.00    -0.284 OA 
HETATM   21  C   UNL     1     -13.051   7.975  71.937  1.00  0.00    -0.311 C  
HETATM   22  O   UNL     1     -13.404   6.674  71.899  1.00  0.00    -0.231 OA 
HETATM   23  O   UNL     1     -13.584   8.852  72.587  1.00  0.00    -0.439 OA 
ENDBRANCH  13  17
ENDBRANCH   6   8
TORSDOF 2
ENDMDL
MODEL       92
REMARK 921   NORMALIZED FREE ENERGY PREDICTED BY IDOCK:   -4.60 KCAL/MOL
REMARK 922        TOTAL FREE ENERGY PREDICTED BY IDOCK:   -5.67 KCAL/MOL
REMARK 923 INTER-LIGAND FREE ENERGY PREDICTED BY IDOCK:   -5.47 KCAL/MOL
REMARK 924 INTRA-LIGAND FREE ENERGY PREDICTED BY IDOCK:   -0.19 KCAL/MOL
REMARK 927      BINDING AFFINITY PREDICTED BY RF-SCORE:    0.00 PKD
ROOT
HETATM    1  O   UNL     1     -10.942   8.596  71.215  1.00  0.00    -0.238 OA 
HETATM    2  C   UNL     1      -9.947   9.304  70.650  1.00  0.00    -0.273 C  
HETATM    3  O   UNL     1      -8.755   9.120  70.794  1.00  0.00    -0.205 OA 
HETATM    4  C   UNL     1     -10.506  10.410  69.748  1.00  0.00    -0.240 C  
HETATM    5  O   UNL     1     -11.727  10.527  69.730  1.00  0.00    -0.263 OA 
HETATM    6  N   UNL     1      -9.549  11.105  69.028  1.00  0.00    -0.382 N  
HETATM    7  H   UNL     1      -8.577  10.829  69.165  1.00  0.00     0.000 HD 
ENDROOT
BRANCH   6   8
HETATM    8  C   UNL     1      -9.794  12.166  68.117  1.00  0.00    -0.207 A  
HETATM    9  C   UNL     1     -10.934  12.156  67.305  1.00  0.00    -0.308 A  
HETATM   10  C   UNL     1     -11.157  13.170  66.378  1.00  0.00    -0.311 A  
HETATM   11  C   UNL     1     -12.313  13.126  65.540  1.00  0.00    -0.474 C  
HETATM   12  C   UNL     1     -10.251  14.221  66.256  1.00  0.00    -0.307 A  
HETATM   13  C   UNL     1      -9.121  14.299  67.078  1.00  0.00    -0.233 A  
HETATM   14  N   UNL     1     -13.251  13.094  64.860  1.00  0.00    -0.590 NA 
HETATM   15  C   UNL     1      -8.895  13.257  68.012  1.00  0.00    -0.190 A  
HETATM   16 CL   UNL     1      -7.500  13.319  69.043  1.00  0.00     0.007 Cl 
BRANCH  13  17
HETATM   17  N   UNL     1      -8.205  15.377  66.941  1.00  0.00    -0.238 N  
HETATM   18  C   UNL     1      -8.254  16.579  67.629  1.00  0.00    -0.157 C  
HETATM   19  H   UNL     1      -7.441  15.255  66.277  1.00  0.00     0.000 HD 
HETATM   20  O   UNL     1      -9.005  16.919  68.538  1.00  0.00    -0.238 OA 
HETATM   21  C   UNL     1      -7.200  17.611  67.206  1.00  0.00    -0.181 C  
HETATM   22  O   UNL     1      -7.298  18.728  67.955  1.00  0.00    -0.234 OA 
HETATM   23  O   UNL     1      -6.407  17.407  66.309  1.00  0.00    -0.211 OA 
ENDBRANCH  13  17
ENDBRANCH   6   8
TORSDOF 2
ENDMDL
MODEL       93
REMARK 921   NORMALIZED FREE ENERGY PREDICTED BY IDOCK:   -4.58 KCAL/MOL
REMARK 922        TOTAL FREE ENERGY PREDICTED BY IDOCK:   -5.65 KCAL/MOL
REMARK 923 INTER-LIGAND FREE ENERGY PREDICTED BY IDOCK:   -5.67 KCAL/MOL
REMARK 924 INTRA-LIGAND FREE ENERGY PREDICTED BY IDOCK:    0.02 KCAL/MOL
REMARK 927      BINDING AFFINITY PREDICTED BY RF-SCORE:    0.00 PKD
ROOT
HETATM    1  O   UNL     1     -14.279  15.233  72.653  1.00  0.00    -0.459 OA 
HETATM    2  C   UNL     1     -13.707  15.009  71.455  1.00  0.00    -0.473 C  
HETATM    3  O   UNL     1     -13.627  15.794  70.532  1.00  0.00    -0.298 OA 
HETATM    4  C   UNL     1     -13.121  13.593  71.386  1.00  0.00    -0.319 C  
HETATM    5  O   UNL     1     -13.315  12.880  72.365  1.00  0.00    -0.528 OA 
HETATM    6  N   UNL     1     -12.402  13.324  70.233  1.00  0.00    -0.298 N  
HETATM    7  H   UNL     1     -12.334  14.073  69.545  1.00  0.00     0.000 HD 
ENDROOT
BRANCH   6   8
HETATM    8  C   UNL     1     -11.752  12.101  69.920  1.00  0.00    -0.287 A  
HETATM    9  C   UNL     1     -11.856  11.001  70.778  1.00  0.00    -0.383 A  
HETATM   10  C   UNL     1     -11.183   9.814  70.501  1.00  0.00    -0.381 A  
HETATM   11  C   UNL     1     -11.281   8.712  71.404  1.00  0.00    -0.277 C  
HETATM   12  C   UNL     1     -10.406   9.701  69.350  1.00  0.00    -0.226 A  
HETATM   13  C   UNL     1     -10.309  10.758  68.437  1.00  0.00    -0.180 A  
HETATM   14  N   UNL     1     -11.360   7.816  72.135  1.00  0.00    -0.282 NA 
HETATM   15  C   UNL     1     -10.988  11.966  68.733  1.00  0.00    -0.235 A  
HETATM   16 CL   UNL     1     -10.884  13.300  67.627  1.00  0.00    -0.266 Cl 
BRANCH  13  17
HETATM   17  N   UNL     1      -9.512  10.628  67.268  1.00  0.00    -0.158 N  
HETATM   18  C   UNL     1      -8.134  10.758  67.204  1.00  0.00    -0.124 C  
HETATM   19  H   UNL     1      -9.998  10.420  66.396  1.00  0.00     0.000 HD 
HETATM   20  O   UNL     1      -7.328  10.906  68.117  1.00  0.00    -0.084 OA 
HETATM   21  C   UNL     1      -7.541  10.677  65.791  1.00  0.00    -0.120 C  
HETATM   22  O   UNL     1      -6.197  10.771  65.831  1.00  0.00    -0.127 OA 
HETATM   23  O   UNL     1      -8.229  10.548  64.798  1.00  0.00    -0.162 OA 
ENDBRANCH  13  17
ENDBRANCH   6   8
TORSDOF 2
ENDMDL
MODEL       94
REMARK 921   NORMALIZED FREE ENERGY PREDICTED BY IDOCK:   -4.56 KCAL/MOL
REMARK 922        TOTAL FREE ENERGY PREDICTED BY IDOCK:   -5.63 KCAL/MOL
REMARK 923 INTER-LIGAND FREE ENERGY PREDICTED BY IDOCK:   -5.11 KCAL/MOL
REMARK 924 INTRA-LIGAND FREE ENERGY PREDICTED BY IDOCK:   -0.52 KCAL/MOL
REMARK 927      BINDING AFFINITY PREDICTED BY RF-SCORE:    0.00 PKD
ROOT
HETATM    1  O   UNL     1     -12.942  11.039  71.862  1.00  0.00    -0.457 OA 
HETATM    2  C   UNL     1     -13.200   9.720  71.922  1.00  0.00    -0.449 C  
HETATM    3  O   UNL     1     -14.187   9.196  72.397  1.00  0.00    -0.439 OA 
HETATM    4  C   UNL     1     -12.068   8.912  71.277  1.00  0.00    -0.306 C  
HETATM    5  O   UNL     1     -11.101   9.556  70.883  1.00  0.00    -0.279 OA 
HETATM    6  N   UNL     1     -12.313   7.552  71.183  1.00  0.00    -0.425 N  
HETATM    7  H   UNL     1     -13.204   7.216  71.549  1.00  0.00     0.000 HD 
ENDROOT
BRANCH   6   8
HETATM    8  C   UNL     1     -11.440   6.582  70.624  1.00  0.00    -0.374 A  
HETATM    9  C   UNL     1     -11.358   6.415  69.237  1.00  0.00    -0.405 A  
HETATM   10  C   UNL     1     -10.539   5.434  68.684  1.00  0.00    -0.167 A  
HETATM   11  C   UNL     1     -10.491   5.262  67.267  1.00  0.00    -0.173 C  
HETATM   12  C   UNL     1      -9.774   4.613  69.509  1.00  0.00    -0.278 A  
HETATM   13  C   UNL     1      -9.786   4.773  70.900  1.00  0.00    -0.209 A  
HETATM   14  N   UNL     1     -10.449   5.122  66.117  1.00  0.00    -0.265 NA 
HETATM   15  C   UNL     1     -10.631   5.766  71.455  1.00  0.00    -0.253 A  
HETATM   16 CL   UNL     1     -10.677   5.988  73.176  1.00  0.00    -0.269 Cl 
BRANCH  13  17
HETATM   17  N   UNL     1      -9.000   3.927  71.729  1.00  0.00    -0.107 N  
HETATM   18  C   UNL     1      -7.778   4.249  72.295  1.00  0.00    -0.081 C  
HETATM   19  H   UNL     1      -9.371   2.997  71.925  1.00  0.00     0.000 HD 
HETATM   20  O   UNL     1      -7.181   5.321  72.288  1.00  0.00    -0.085 OA 
HETATM   21  C   UNL     1      -7.096   3.106  73.057  1.00  0.00    -0.044 C  
HETATM   22  O   UNL     1      -5.937   3.523  73.606  1.00  0.00    -0.006 OA 
HETATM   23  O   UNL     1      -7.570   1.990  73.128  1.00  0.00    -0.039 OA 
ENDBRANCH  13  17
ENDBRANCH   6   8
TORSDOF 2
ENDMDL
MODEL       95
REMARK 921   NORMALIZED FREE ENERGY PREDICTED BY IDOCK:   -4.56 KCAL/MOL
REMARK 922        TOTAL FREE ENERGY PREDICTED BY IDOCK:   -5.62 KCAL/MOL
REMARK 923 INTER-LIGAND FREE ENERGY PREDICTED BY IDOCK:   -5.42 KCAL/MOL
REMARK 924 INTRA-LIGAND FREE ENERGY PREDICTED BY IDOCK:   -0.20 KCAL/MOL
REMARK 927      BINDING AFFINITY PREDICTED BY RF-SCORE:    0.00 PKD
ROOT
HETATM    1  O   UNL     1     -12.413  15.694  70.914  1.00  0.00    -0.410 OA 
HETATM    2  C   UNL     1     -11.594  15.823  69.854  1.00  0.00    -0.351 C  
HETATM    3  O   UNL     1     -10.895  16.781  69.590  1.00  0.00    -0.333 OA 
HETATM    4  C   UNL     1     -11.623  14.560  68.984  1.00  0.00    -0.298 C  
HETATM    5  O   UNL     1     -12.410  13.685  69.329  1.00  0.00    -0.288 OA 
HETATM    6  N   UNL     1     -10.712  14.559  67.941  1.00  0.00    -0.243 N  
HETATM    7  H   UNL     1     -10.119  15.383  67.843  1.00  0.00     0.000 HD 
ENDROOT
BRANCH   6   8
HETATM    8  C   UNL     1     -10.526  13.517  66.995  1.00  0.00    -0.265 A  
HETATM    9  C   UNL     1     -11.424  13.349  65.936  1.00  0.00    -0.344 A  
HETATM   10  C   UNL     1     -11.274  12.302  65.031  1.00  0.00    -0.367 A  
HETATM   11  C   UNL     1     -12.218  12.133  63.973  1.00  0.00    -0.446 C  
HETATM   12  C   UNL     1     -10.211  11.411  65.162  1.00  0.00    -0.328 A  
HETATM   13  C   UNL     1      -9.259  11.564  66.177  1.00  0.00    -0.219 A  
HETATM   14  N   UNL     1     -12.983  11.994  63.113  1.00  0.00    -0.556 NA 
HETATM   15  C   UNL     1      -9.427  12.627  67.100  1.00  0.00    -0.214 A  
HETATM   16 CL   UNL     1      -8.269  12.844  68.376  1.00  0.00    -0.145 Cl 
BRANCH  13  17
HETATM   17  N   UNL     1      -8.181  10.647  66.298  1.00  0.00    -0.148 N  
HETATM   18  C   UNL     1      -7.507  10.041  65.250  1.00  0.00    -0.137 C  
HETATM   19  H   UNL     1      -7.874  10.413  67.242  1.00  0.00     0.000 HD 
HETATM   20  O   UNL     1      -7.621  10.232  64.043  1.00  0.00    -0.142 OA 
HETATM   21  C   UNL     1      -6.454   9.007  65.669  1.00  0.00    -0.067 C  
HETATM   22  O   UNL     1      -5.823   8.503  64.589  1.00  0.00    -0.061 OA 
HETATM   23  O   UNL     1      -6.251   8.712  66.830  1.00  0.00    -0.056 OA 
ENDBRANCH  13  17
ENDBRANCH   6   8
TORSDOF 2
ENDMDL
MODEL       96
REMARK 921   NORMALIZED FREE ENERGY PREDICTED BY IDOCK:   -4.53 KCAL/MOL
REMARK 922        TOTAL FREE ENERGY PREDICTED BY IDOCK:   -5.59 KCAL/MOL
REMARK 923 INTER-LIGAND FREE ENERGY PREDICTED BY IDOCK:   -5.15 KCAL/MOL
REMARK 924 INTRA-LIGAND FREE ENERGY PREDICTED BY IDOCK:   -0.45 KCAL/MOL
REMARK 927      BINDING AFFINITY PREDICTED BY RF-SCORE:    0.00 PKD
ROOT
HETATM    1  O   UNL     1     -10.218   5.085  69.768  1.00  0.00    -0.260 OA 
HETATM    2  C   UNL     1      -9.832   6.373  69.709  1.00  0.00    -0.165 C  
HETATM    3  O   UNL     1      -9.349   7.027  70.611  1.00  0.00    -0.161 OA 
HETATM    4  C   UNL     1     -10.061   6.948  68.306  1.00  0.00    -0.167 C  
HETATM    5  O   UNL     1     -10.605   6.202  67.499  1.00  0.00    -0.205 OA 
HETATM    6  N   UNL     1      -9.573   8.232  68.123  1.00  0.00    -0.147 N  
HETATM    7  H   UNL     1      -9.120   8.672  68.924  1.00  0.00     0.000 HD 
ENDROOT
BRANCH   6   8
HETATM    8  C   UNL     1      -9.644   8.991  66.926  1.00  0.00    -0.185 A  
HETATM    9  C   UNL     1      -8.928   8.596  65.791  1.00  0.00    -0.244 A  
HETATM   10  C   UNL     1      -8.957   9.360  64.627  1.00  0.00    -0.233 A  
HETATM   11  C   UNL     1      -8.197   8.952  63.489  1.00  0.00    -0.177 C  
HETATM   12  C   UNL     1      -9.716  10.527  64.574  1.00  0.00    -0.375 A  
HETATM   13  C   UNL     1     -10.485  10.939  65.669  1.00  0.00    -0.208 A  
HETATM   14  N   UNL     1      -7.582   8.623  62.563  1.00  0.00    -0.109 NA 
HETATM   15  C   UNL     1     -10.441  10.161  66.852  1.00  0.00    -0.222 A  
HETATM   16 CL   UNL     1     -11.378  10.645  68.231  1.00  0.00    -0.361 Cl 
BRANCH  13  17
HETATM   17  N   UNL     1     -11.254  12.133  65.600  1.00  0.00    -0.324 N  
HETATM   18  C   UNL     1     -10.891  13.365  66.118  1.00  0.00    -0.281 C  
HETATM   19  H   UNL     1     -12.154  12.077  65.125  1.00  0.00     0.000 HD 
HETATM   20  O   UNL     1      -9.832  13.704  66.637  1.00  0.00    -0.267 OA 
HETATM   21  C   UNL     1     -11.960  14.458  65.997  1.00  0.00    -0.367 C  
HETATM   22  O   UNL     1     -11.505  15.629  66.488  1.00  0.00    -0.052 OA 
HETATM   23  O   UNL     1     -13.058  14.252  65.518  1.00  0.00    -0.639 OA 
ENDBRANCH  13  17
ENDBRANCH   6   8
TORSDOF 2
ENDMDL
MODEL       97
REMARK 921   NORMALIZED FREE ENERGY PREDICTED BY IDOCK:   -4.51 KCAL/MOL
REMARK 922        TOTAL FREE ENERGY PREDICTED BY IDOCK:   -5.57 KCAL/MOL
REMARK 923 INTER-LIGAND FREE ENERGY PREDICTED BY IDOCK:   -5.79 KCAL/MOL
REMARK 924 INTRA-LIGAND FREE ENERGY PREDICTED BY IDOCK:    0.22 KCAL/MOL
REMARK 927      BINDING AFFINITY PREDICTED BY RF-SCORE:    0.00 PKD
ROOT
HETATM    1  O   UNL     1     -13.554  11.953  72.241  1.00  0.00    -0.364 OA 
HETATM    2  C   UNL     1     -12.946  11.165  71.334  1.00  0.00    -0.403 C  
HETATM    3  O   UNL     1     -13.086   9.966  71.206  1.00  0.00    -0.366 OA 
HETATM    4  C   UNL     1     -12.030  11.990  70.422  1.00  0.00    -0.291 C  
HETATM    5  O   UNL     1     -11.935  13.183  70.688  1.00  0.00    -0.308 OA 
HETATM    6  N   UNL     1     -11.464  11.276  69.378  1.00  0.00    -0.272 N  
HETATM    7  H   UNL     1     -11.698  10.285  69.315  1.00  0.00     0.000 HD 
ENDROOT
BRANCH   6   8
HETATM    8  C   UNL     1     -10.589  11.795  68.388  1.00  0.00    -0.216 A  
HETATM    9  C   UNL     1      -9.351  11.190  68.146  1.00  0.00    -0.176 A  
HETATM   10  C   UNL     1      -8.469  11.721  67.209  1.00  0.00    -0.160 A  
HETATM   11  C   UNL     1      -7.199  11.103  66.997  1.00  0.00    -0.128 C  
HETATM   12  C   UNL     1      -8.816  12.859  66.485  1.00  0.00    -0.026 A  
HETATM   13  C   UNL     1     -10.062  13.473  66.658  1.00  0.00    -0.277 A  
HETATM   14  N   UNL     1      -6.168  10.603  66.823  1.00  0.00    -0.069 NA 
HETATM   15  C   UNL     1     -10.950  12.932  67.622  1.00  0.00    -0.247 A  
HETATM   16 CL   UNL     1     -12.502  13.672  67.868  1.00  0.00     0.037 Cl 
BRANCH  13  17
HETATM   17  N   UNL     1     -10.402  14.634  65.913  1.00  0.00    -0.303 N  
HETATM   18  C   UNL     1      -9.984  15.927  66.184  1.00  0.00    -0.314 C  
HETATM   19  H   UNL     1     -11.009  14.504  65.104  1.00  0.00     0.000 HD 
HETATM   20  O   UNL     1      -9.185  16.320  67.028  1.00  0.00    -0.205 OA 
HETATM   21  C   UNL     1     -10.592  17.007  65.280  1.00  0.00    -0.080 C  
HETATM   22  O   UNL     1     -10.097  18.223  65.589  1.00  0.00    -0.532 OA 
HETATM   23  O   UNL     1     -11.408  16.756  64.416  1.00  0.00    -1.089 OA 
ENDBRANCH  13  17
ENDBRANCH   6   8
TORSDOF 2
ENDMDL
MODEL       98
REMARK 921   NORMALIZED FREE ENERGY PREDICTED BY IDOCK:   -4.50 KCAL/MOL
REMARK 922        TOTAL FREE ENERGY PREDICTED BY IDOCK:   -5.56 KCAL/MOL
REMARK 923 INTER-LIGAND FREE ENERGY PREDICTED BY IDOCK:   -5.36 KCAL/MOL
REMARK 924 INTRA-LIGAND FREE ENERGY PREDICTED BY IDOCK:   -0.20 KCAL/MOL
REMARK 927      BINDING AFFINITY PREDICTED BY RF-SCORE:    0.00 PKD
ROOT
HETATM    1  O   UNL     1     -13.490  12.079  72.082  1.00  0.00    -0.476 OA 
HETATM    2  C   UNL     1     -12.619  11.509  71.229  1.00  0.00    -0.347 C  
HETATM    3  O   UNL     1     -11.980  12.072  70.362  1.00  0.00    -0.348 OA 
HETATM    4  C   UNL     1     -12.499  10.004  71.495  1.00  0.00    -0.419 C  
HETATM    5  O   UNL     1     -13.237   9.548  72.362  1.00  0.00    -0.431 OA 
HETATM    6  N   UNL     1     -11.527   9.362  70.745  1.00  0.00    -0.283 N  
HETATM    7  H   UNL     1     -10.994   9.936  70.092  1.00  0.00     0.000 HD 
ENDROOT
BRANCH   6   8
HETATM    8  C   UNL     1     -11.204   7.981  70.801  1.00  0.00    -0.265 A  
HETATM    9  C   UNL     1     -11.212   7.298  72.022  1.00  0.00    -0.285 A  
HETATM   10  C   UNL     1     -10.852   5.955  72.091  1.00  0.00    -0.290 A  
HETATM   11  C   UNL     1     -10.840   5.285  73.351  1.00  0.00    -0.302 C  
HETATM   12  C   UNL     1     -10.492   5.266  70.934  1.00  0.00    -0.285 A  
HETATM   13  C   UNL     1     -10.514   5.893  69.683  1.00  0.00    -0.277 A  
HETATM   14  N   UNL     1     -10.830   4.738  74.374  1.00  0.00    -0.325 NA 
HETATM   15  C   UNL     1     -10.872   7.263  69.624  1.00  0.00    -0.222 A  
HETATM   16 CL   UNL     1     -10.904   8.075  68.089  1.00  0.00    -0.069 Cl 
BRANCH  13  17
HETATM   17  N   UNL     1     -10.144   5.177  68.512  1.00  0.00    -0.164 N  
HETATM   18  C   UNL     1      -8.851   4.967  68.062  1.00  0.00    -0.103 C  
HETATM   19  H   UNL     1     -10.899   4.781  67.953  1.00  0.00     0.000 HD 
HETATM   20  O   UNL     1      -7.788   5.253  68.603  1.00  0.00    -0.085 OA 
HETATM   21  C   UNL     1      -8.746   4.253  66.708  1.00  0.00    -0.113 C  
HETATM   22  O   UNL     1      -7.455   4.055  66.372  1.00  0.00    -0.081 OA 
HETATM   23  O   UNL     1      -9.721   3.929  66.060  1.00  0.00    -0.191 OA 
ENDBRANCH  13  17
ENDBRANCH   6   8
TORSDOF 2
ENDMDL
MODEL       99
REMARK 921   NORMALIZED FREE ENERGY PREDICTED BY IDOCK:   -4.50 KCAL/MOL
REMARK 922        TOTAL FREE ENERGY PREDICTED BY IDOCK:   -5.55 KCAL/MOL
REMARK 923 INTER-LIGAND FREE ENERGY PREDICTED BY IDOCK:   -5.22 KCAL/MOL
REMARK 924 INTRA-LIGAND FREE ENERGY PREDICTED BY IDOCK:   -0.34 KCAL/MOL
REMARK 927      BINDING AFFINITY PREDICTED BY RF-SCORE:    0.00 PKD
ROOT
HETATM    1  O   UNL     1      -9.447   6.446  66.541  1.00  0.00    -0.159 OA 
HETATM    2  C   UNL     1     -10.224   7.380  67.119  1.00  0.00    -0.277 C  
HETATM    3  O   UNL     1     -10.995   7.212  68.042  1.00  0.00    -0.154 OA 
HETATM    4  C   UNL     1     -10.005   8.751  66.467  1.00  0.00    -0.290 C  
HETATM    5  O   UNL     1      -9.240   8.778  65.509  1.00  0.00    -0.203 OA 
HETATM    6  N   UNL     1     -10.673   9.795  67.086  1.00  0.00    -0.237 N  
HETATM    7  H   UNL     1     -11.243   9.563  67.899  1.00  0.00     0.000 HD 
ENDROOT
BRANCH   6   8
HETATM    8  C   UNL     1     -10.637  11.159  66.694  1.00  0.00    -0.264 A  
HETATM    9  C   UNL     1     -11.368  11.600  65.586  1.00  0.00    -0.233 A  
HETATM   10  C   UNL     1     -11.302  12.926  65.168  1.00  0.00    -0.331 A  
HETATM   11  C   UNL     1     -12.034  13.348  64.018  1.00  0.00    -0.464 C  
HETATM   12  C   UNL     1     -10.513  13.841  65.863  1.00  0.00    -0.300 A  
HETATM   13  C   UNL     1      -9.800  13.458  67.006  1.00  0.00    -0.250 A  
HETATM   14  N   UNL     1     -12.629  13.694  63.085  1.00  0.00    -0.688 NA 
HETATM   15  C   UNL     1      -9.865  12.104  67.417  1.00  0.00    -0.189 A  
HETATM   16 CL   UNL     1      -8.988  11.593  68.826  1.00  0.00    -0.077 Cl 
BRANCH  13  17
HETATM   17  N   UNL     1      -8.999  14.403  67.704  1.00  0.00    -0.184 N  
HETATM   18  C   UNL     1      -9.405  15.657  68.130  1.00  0.00    -0.194 C  
HETATM   19  H   UNL     1      -8.038  14.133  67.910  1.00  0.00     0.000 HD 
HETATM   20  O   UNL     1     -10.522  16.163  68.089  1.00  0.00    -0.259 OA 
HETATM   21  C   UNL     1      -8.302  16.514  68.764  1.00  0.00    -0.248 C  
HETATM   22  O   UNL     1      -8.797  17.696  69.184  1.00  0.00    -0.071 OA 
HETATM   23  O   UNL     1      -7.150  16.139  68.851  1.00  0.00    -0.143 OA 
ENDBRANCH  13  17
ENDBRANCH   6   8
TORSDOF 2
ENDMDL
MODEL      100
REMARK 921   NORMALIZED FREE ENERGY PREDICTED BY IDOCK:   -4.49 KCAL/MOL
REMARK 922        TOTAL FREE ENERGY PREDICTED BY IDOCK:   -5.55 KCAL/MOL
REMARK 923 INTER-LIGAND FREE ENERGY PREDICTED BY IDOCK:   -5.48 KCAL/MOL
REMARK 924 INTRA-LIGAND FREE ENERGY PREDICTED BY IDOCK:   -0.07 KCAL/MOL
REMARK 927      BINDING AFFINITY PREDICTED BY RF-SCORE:    0.00 PKD
ROOT
HETATM    1  O   UNL     1     -10.164  20.211  65.312  1.00  0.00    -0.220 OA 
HETATM    2  C   UNL     1      -9.926  19.775  66.563  1.00  0.00    -0.459 C  
HETATM    3  O   UNL     1      -9.569  20.448  67.509  1.00  0.00    -0.402 OA 
HETATM    4  C   UNL     1     -10.186  18.268  66.675  1.00  0.00    -0.384 C  
HETATM    5  O   UNL     1     -10.490  17.694  65.635  1.00  0.00    -0.606 OA 
HETATM    6  N   UNL     1     -10.088  17.762  67.960  1.00  0.00    -0.335 N  
HETATM    7  H   UNL     1      -9.850  18.421  68.701  1.00  0.00     0.000 HD 
ENDROOT
BRANCH   6   8
HETATM    8  C   UNL     1     -10.287  16.409  68.343  1.00  0.00    -0.282 A  
HETATM    9  C   UNL     1     -11.348  16.058  69.185  1.00  0.00    -0.352 A  
HETATM   10  C   UNL     1     -11.523  14.741  69.602  1.00  0.00    -0.327 A  
HETATM   11  C   UNL     1     -12.596  14.409  70.483  1.00  0.00    -0.353 C  
HETATM   12  C   UNL     1     -10.646  13.748  69.170  1.00  0.00    -0.099 A  
HETATM   13  C   UNL     1      -9.598  14.041  68.290  1.00  0.00    -0.224 A  
HETATM   14  N   UNL     1     -13.467  14.137  71.198  1.00  0.00    -0.281 NA 
HETATM   15  C   UNL     1      -9.422  15.386  67.880  1.00  0.00    -0.197 A  
HETATM   16 CL   UNL     1      -8.128  15.788  66.794  1.00  0.00    -0.291 Cl 
BRANCH  13  17
HETATM   17  N   UNL     1      -8.712  13.017  67.858  1.00  0.00    -0.179 N  
HETATM   18  C   UNL     1      -7.367  12.919  68.173  1.00  0.00    -0.119 C  
HETATM   19  H   UNL     1      -9.103  12.287  67.263  1.00  0.00     0.000 HD 
HETATM   20  O   UNL     1      -6.700  13.606  68.940  1.00  0.00    -0.098 OA 
HETATM   21  C   UNL     1      -6.623  11.769  67.481  1.00  0.00    -0.097 C  
HETATM   22  O   UNL     1      -5.335  11.727  67.879  1.00  0.00    -0.045 OA 
HETATM   23  O   UNL     1      -7.160  11.024  66.687  1.00  0.00    -0.125 OA 
ENDBRANCH  13  17
ENDBRANCH   6   8
TORSDOF 2
ENDMDL
MODEL      101
REMARK 921   NORMALIZED FREE ENERGY PREDICTED BY IDOCK:   -4.48 KCAL/MOL
REMARK 922        TOTAL FREE ENERGY PREDICTED BY IDOCK:   -5.53 KCAL/MOL
REMARK 923 INTER-LIGAND FREE ENERGY PREDICTED BY IDOCK:   -5.09 KCAL/MOL
REMARK 924 INTRA-LIGAND FREE ENERGY PREDICTED BY IDOCK:   -0.45 KCAL/MOL
REMARK 927      BINDING AFFINITY PREDICTED BY RF-SCORE:    0.00 PKD
ROOT
HETATM    1  O   UNL     1      -5.199  15.411  70.906  1.00  0.00    -0.140 OA 
HETATM    2  C   UNL     1      -5.894  14.259  70.953  1.00  0.00    -0.210 C  
HETATM    3  O   UNL     1      -6.129  13.595  71.942  1.00  0.00    -0.236 OA 
HETATM    4  C   UNL     1      -6.398  13.868  69.559  1.00  0.00    -0.118 C  
HETATM    5  O   UNL     1      -6.047  14.594  68.634  1.00  0.00    -0.082 OA 
HETATM    6  N   UNL     1      -7.230  12.761  69.537  1.00  0.00    -0.302 N  
HETATM    7  H   UNL     1      -7.425  12.311  70.432  1.00  0.00     0.000 HD 
ENDROOT
BRANCH   6   8
HETATM    8  C   UNL     1      -7.838  12.194  68.386  1.00  0.00    -0.149 A  
HETATM    9  C   UNL     1      -7.229  11.132  67.711  1.00  0.00    -0.091 A  
HETATM   10  C   UNL     1      -7.796  10.602  66.555  1.00  0.00    -0.140 A  
HETATM   11  C   UNL     1      -7.143   9.536  65.866  1.00  0.00    -0.096 C  
HETATM   12  C   UNL     1      -8.994  11.116  66.063  1.00  0.00    -0.210 A  
HETATM   13  C   UNL     1      -9.666  12.147  66.730  1.00  0.00    -0.207 A  
HETATM   14  N   UNL     1      -6.615   8.670  65.304  1.00  0.00    -0.063 NA 
HETATM   15  C   UNL     1      -9.075  12.688  67.900  1.00  0.00    -0.200 A  
HETATM   16 CL   UNL     1      -9.878  13.972  68.749  1.00  0.00    -0.185 Cl 
BRANCH  13  17
HETATM   17  N   UNL     1     -10.887  12.662  66.216  1.00  0.00    -0.268 N  
HETATM   18  C   UNL     1     -11.048  13.318  65.007  1.00  0.00    -0.309 C  
HETATM   19  H   UNL     1     -11.721  12.536  66.789  1.00  0.00     0.000 HD 
HETATM   20  O   UNL     1     -10.230  13.501  64.111  1.00  0.00    -0.344 OA 
HETATM   21  C   UNL     1     -12.458  13.865  64.750  1.00  0.00    -0.354 C  
HETATM   22  O   UNL     1     -12.531  14.448  63.537  1.00  0.00    -0.770 OA 
HETATM   23  O   UNL     1     -13.357  13.766  65.561  1.00  0.00    -0.613 OA 
ENDBRANCH  13  17
ENDBRANCH   6   8
TORSDOF 2
ENDMDL
MODEL      102
REMARK 921   NORMALIZED FREE ENERGY PREDICTED BY IDOCK:   -4.47 KCAL/MOL
REMARK 922        TOTAL FREE ENERGY PREDICTED BY IDOCK:   -5.52 KCAL/MOL
REMARK 923 INTER-LIGAND FREE ENERGY PREDICTED BY IDOCK:   -5.64 KCAL/MOL
REMARK 924 INTRA-LIGAND FREE ENERGY PREDICTED BY IDOCK:    0.12 KCAL/MOL
REMARK 927      BINDING AFFINITY PREDICTED BY RF-SCORE:    0.00 PKD
ROOT
HETATM    1  O   UNL     1     -12.594  12.451  63.115  1.00  0.00    -0.591 OA 
HETATM    2  C   UNL     1     -12.369  12.600  64.433  1.00  0.00    -0.446 C  
HETATM    3  O   UNL     1     -12.944  13.361  65.185  1.00  0.00    -0.710 OA 
HETATM    4  C   UNL     1     -11.269  11.644  64.911  1.00  0.00    -0.222 C  
HETATM    5  O   UNL     1     -10.729  10.966  64.043  1.00  0.00    -0.353 OA 
HETATM    6  N   UNL     1     -11.063  11.642  66.280  1.00  0.00    -0.304 N  
HETATM    7  H   UNL     1     -11.646  12.268  66.837  1.00  0.00     0.000 HD 
ENDROOT
BRANCH   6   8
HETATM    8  C   UNL     1     -10.117  10.850  66.983  1.00  0.00    -0.205 A  
HETATM    9  C   UNL     1      -8.915  10.474  66.375  1.00  0.00    -0.174 A  
HETATM   10  C   UNL     1      -8.003   9.659  67.041  1.00  0.00    -0.109 A  
HETATM   11  C   UNL     1      -6.794   9.265  66.392  1.00  0.00    -0.083 C  
HETATM   12  C   UNL     1      -8.273   9.218  68.335  1.00  0.00    -0.115 A  
HETATM   13  C   UNL     1      -9.441   9.605  69.002  1.00  0.00    -0.168 A  
HETATM   14  N   UNL     1      -5.811   8.945  65.868  1.00  0.00    -0.050 NA 
HETATM   15  C   UNL     1     -10.368  10.426  68.312  1.00  0.00    -0.171 A  
HETATM   16 CL   UNL     1     -11.830  10.920  69.107  1.00  0.00    -0.388 Cl 
BRANCH  13  17
HETATM   17  N   UNL     1      -9.702   9.146  70.321  1.00  0.00    -0.195 N  
HETATM   18  C   UNL     1      -8.776   9.049  71.347  1.00  0.00    -0.128 C  
HETATM   19  H   UNL     1     -10.658   8.862  70.532  1.00  0.00     0.000 HD 
HETATM   20  O   UNL     1      -7.606   9.417  71.370  1.00  0.00    -0.340 OA 
HETATM   21  C   UNL     1      -9.307   8.417  72.640  1.00  0.00    -0.264 C  
HETATM   22  O   UNL     1      -8.352   8.403  73.592  1.00  0.00    -0.320 OA 
HETATM   23  O   UNL     1     -10.442   7.996  72.747  1.00  0.00    -0.307 OA 
ENDBRANCH  13  17
ENDBRANCH   6   8
TORSDOF 2
ENDMDL
MODEL      103
REMARK 921   NORMALIZED FREE ENERGY PREDICTED BY IDOCK:   -4.46 KCAL/MOL
REMARK 922        TOTAL FREE ENERGY PREDICTED BY IDOCK:   -5.51 KCAL/MOL
REMARK 923 INTER-LIGAND FREE ENERGY PREDICTED BY IDOCK:   -4.96 KCAL/MOL
REMARK 924 INTRA-LIGAND FREE ENERGY PREDICTED BY IDOCK:   -0.55 KCAL/MOL
REMARK 927      BINDING AFFINITY PREDICTED BY RF-SCORE:    0.00 PKD
ROOT
HETATM    1  O   UNL     1     -12.351  14.081  66.645  1.00  0.00    -0.451 OA 
HETATM    2  C   UNL     1     -11.108  13.564  66.650  1.00  0.00    -0.298 C  
HETATM    3  O   UNL     1     -10.099  14.100  66.240  1.00  0.00    -0.281 OA 
HETATM    4  C   UNL     1     -11.101  12.166  67.280  1.00  0.00    -0.287 C  
HETATM    5  O   UNL     1     -12.194  11.715  67.606  1.00  0.00    -0.544 OA 
HETATM    6  N   UNL     1      -9.841  11.614  67.441  1.00  0.00    -0.183 N  
HETATM    7  H   UNL     1      -9.048  12.173  67.128  1.00  0.00     0.000 HD 
ENDROOT
BRANCH   6   8
HETATM    8  C   UNL     1      -9.551  10.343  68.003  1.00  0.00    -0.143 A  
HETATM    9  C   UNL     1      -9.441  10.186  69.388  1.00  0.00    -0.240 A  
HETATM   10  C   UNL     1      -9.111   8.953  69.944  1.00  0.00    -0.166 A  
HETATM   11  C   UNL     1      -8.978   8.822  71.359  1.00  0.00    -0.238 C  
HETATM   12  C   UNL     1      -8.901   7.848  69.121  1.00  0.00    -0.142 A  
HETATM   13  C   UNL     1      -9.045   7.944  67.732  1.00  0.00    -0.134 A  
HETATM   14  N   UNL     1      -8.869   8.713  72.508  1.00  0.00    -0.401 NA 
HETATM   15  C   UNL     1      -9.370   9.206  67.175  1.00  0.00    -0.143 A  
HETATM   16 CL   UNL     1      -9.550   9.362  65.455  1.00  0.00    -0.344 Cl 
BRANCH  13  17
HETATM   17  N   UNL     1      -8.826   6.808  66.906  1.00  0.00    -0.116 N  
HETATM   18  C   UNL     1      -9.792   5.909  66.486  1.00  0.00    -0.152 C  
HETATM   19  H   UNL     1      -7.870   6.640  66.593  1.00  0.00     0.000 HD 
HETATM   20  O   UNL     1     -11.008   5.950  66.645  1.00  0.00    -0.287 OA 
HETATM   21  C   UNL     1      -9.259   4.711  65.690  1.00  0.00    -0.151 C  
HETATM   22  O   UNL     1     -10.271   3.915  65.289  1.00  0.00    -0.159 OA 
HETATM   23  O   UNL     1      -8.075   4.541  65.475  1.00  0.00    -0.106 OA 
ENDBRANCH  13  17
ENDBRANCH   6   8
TORSDOF 2
ENDMDL
MODEL      104
REMARK 921   NORMALIZED FREE ENERGY PREDICTED BY IDOCK:   -4.42 KCAL/MOL
REMARK 922        TOTAL FREE ENERGY PREDICTED BY IDOCK:   -5.47 KCAL/MOL
REMARK 923 INTER-LIGAND FREE ENERGY PREDICTED BY IDOCK:   -5.03 KCAL/MOL
REMARK 924 INTRA-LIGAND FREE ENERGY PREDICTED BY IDOCK:   -0.44 KCAL/MOL
REMARK 927      BINDING AFFINITY PREDICTED BY RF-SCORE:    0.00 PKD
ROOT
HETATM    1  O   UNL     1     -13.038  10.410  72.105  1.00  0.00    -0.445 OA 
HETATM    2  C   UNL     1     -13.323   9.151  71.722  1.00  0.00    -0.406 C  
HETATM    3  O   UNL     1     -14.408   8.726  71.379  1.00  0.00    -0.356 OA 
HETATM    4  C   UNL     1     -12.065   8.274  71.749  1.00  0.00    -0.319 C  
HETATM    5  O   UNL     1     -11.043   8.809  72.166  1.00  0.00    -0.355 OA 
HETATM    6  N   UNL     1     -12.245   6.996  71.248  1.00  0.00    -0.359 N  
HETATM    7  H   UNL     1     -13.179   6.755  70.918  1.00  0.00     0.000 HD 
ENDROOT
BRANCH   6   8
HETATM    8  C   UNL     1     -11.249   5.989  71.149  1.00  0.00    -0.261 A  
HETATM    9  C   UNL     1     -10.800   5.319  72.293  1.00  0.00    -0.269 A  
HETATM   10  C   UNL     1      -9.791   4.363  72.210  1.00  0.00    -0.231 A  
HETATM   11  C   UNL     1      -9.329   3.711  73.393  1.00  0.00    -0.104 C  
HETATM   12  C   UNL     1      -9.223   4.049  70.977  1.00  0.00    -0.203 A  
HETATM   13  C   UNL     1      -9.671   4.658  69.799  1.00  0.00    -0.209 A  
HETATM   14  N   UNL     1      -8.953   3.180  74.353  1.00  0.00    -0.079 NA 
HETATM   15  C   UNL     1     -10.690   5.638  69.894  1.00  0.00    -0.329 A  
HETATM   16 CL   UNL     1     -11.265   6.418  68.454  1.00  0.00    -0.371 Cl 
BRANCH  13  17
HETATM   17  N   UNL     1      -9.080   4.328  68.549  1.00  0.00    -0.119 N  
HETATM   18  C   UNL     1      -9.122   3.088  67.932  1.00  0.00    -0.181 C  
HETATM   19  H   UNL     1      -8.581   5.071  68.061  1.00  0.00     0.000 HD 
HETATM   20  O   UNL     1      -9.735   2.079  68.265  1.00  0.00    -0.167 OA 
HETATM   21  C   UNL     1      -8.306   2.982  66.637  1.00  0.00    -0.094 C  
HETATM   22  O   UNL     1      -8.440   1.758  66.087  1.00  0.00    -0.094 OA 
HETATM   23  O   UNL     1      -7.641   3.902  66.204  1.00  0.00    -0.086 OA 
ENDBRANCH  13  17
ENDBRANCH   6   8
TORSDOF 2
ENDMDL
MODEL      105
REMARK 921   NORMALIZED FREE ENERGY PREDICTED BY IDOCK:   -4.36 KCAL/MOL
REMARK 922        TOTAL FREE ENERGY PREDICTED BY IDOCK:   -5.40 KCAL/MOL
REMARK 923 INTER-LIGAND FREE ENERGY PREDICTED BY IDOCK:   -4.87 KCAL/MOL
REMARK 924 INTRA-LIGAND FREE ENERGY PREDICTED BY IDOCK:   -0.53 KCAL/MOL
REMARK 927      BINDING AFFINITY PREDICTED BY RF-SCORE:    0.00 PKD
ROOT
HETATM    1  O   UNL     1     -10.392  15.063  65.631  1.00  0.00    -0.303 OA 
HETATM    2  C   UNL     1     -11.298  14.123  65.955  1.00  0.00    -0.323 C  
HETATM    3  O   UNL     1     -12.480  14.127  65.672  1.00  0.00    -0.457 OA 
HETATM    4  C   UNL     1     -10.643  12.980  66.740  1.00  0.00    -0.262 C  
HETATM    5  O   UNL     1      -9.455  13.121  67.008  1.00  0.00    -0.225 OA 
HETATM    6  N   UNL     1     -11.481  11.909  67.004  1.00  0.00    -0.328 N  
HETATM    7  H   UNL     1     -12.440  11.977  66.664  1.00  0.00     0.000 HD 
ENDROOT
BRANCH   6   8
HETATM    8  C   UNL     1     -11.128  10.724  67.702  1.00  0.00    -0.319 A  
HETATM    9  C   UNL     1     -11.477  10.562  69.047  1.00  0.00    -0.304 A  
HETATM   10  C   UNL     1     -11.095   9.423  69.751  1.00  0.00    -0.193 A  
HETATM   11  C   UNL     1     -11.438   9.291  71.131  1.00  0.00    -0.333 C  
HETATM   12  C   UNL     1     -10.369   8.418  69.117  1.00  0.00    -0.229 A  
HETATM   13  C   UNL     1     -10.036   8.513  67.760  1.00  0.00    -0.211 A  
HETATM   14  N   UNL     1     -11.717   9.180  72.251  1.00  0.00    -0.235 NA 
HETATM   15  C   UNL     1     -10.420   9.681  67.054  1.00  0.00    -0.232 A  
HETATM   16 CL   UNL     1     -10.019   9.835  65.372  1.00  0.00    -0.374 Cl 
BRANCH  13  17
HETATM   17  N   UNL     1      -9.294   7.479  67.127  1.00  0.00    -0.137 N  
HETATM   18  C   UNL     1      -7.915   7.418  67.016  1.00  0.00    -0.116 C  
HETATM   19  H   UNL     1      -9.826   6.712  66.717  1.00  0.00     0.000 HD 
HETATM   20  O   UNL     1      -7.066   8.157  67.506  1.00  0.00    -0.079 OA 
HETATM   21  C   UNL     1      -7.384   6.243  66.185  1.00  0.00    -0.080 C  
HETATM   22  O   UNL     1      -6.035   6.241  66.168  1.00  0.00    -0.027 OA 
HETATM   23  O   UNL     1      -8.116   5.448  65.632  1.00  0.00    -0.107 OA 
ENDBRANCH  13  17
ENDBRANCH   6   8
TORSDOF 2
ENDMDL
MODEL      106
REMARK 921   NORMALIZED FREE ENERGY PREDICTED BY IDOCK:   -4.26 KCAL/MOL
REMARK 922        TOTAL FREE ENERGY PREDICTED BY IDOCK:   -5.29 KCAL/MOL
REMARK 923 INTER-LIGAND FREE ENERGY PREDICTED BY IDOCK:   -5.05 KCAL/MOL
REMARK 924 INTRA-LIGAND FREE ENERGY PREDICTED BY IDOCK:   -0.23 KCAL/MOL
REMARK 927      BINDING AFFINITY PREDICTED BY RF-SCORE:    0.00 PKD
ROOT
HETATM    1  O   UNL     1     -11.814  11.688  70.463  1.00  0.00    -0.342 OA 
HETATM    2  C   UNL     1     -12.332  10.452  70.582  1.00  0.00    -0.346 C  
HETATM    3  O   UNL     1     -13.469  10.170  70.900  1.00  0.00    -0.345 OA 
HETATM    4  C   UNL     1     -11.285   9.386  70.236  1.00  0.00    -0.246 C  
HETATM    5  O   UNL     1     -10.158   9.798  69.982  1.00  0.00    -0.227 OA 
HETATM    6  N   UNL     1     -11.771   8.089  70.209  1.00  0.00    -0.474 N  
HETATM    7  H   UNL     1     -12.760   7.962  70.423  1.00  0.00     0.000 HD 
ENDROOT
BRANCH   6   8
HETATM    8  C   UNL     1     -11.022   6.921  69.910  1.00  0.00    -0.277 A  
HETATM    9  C   UNL     1     -10.834   5.930  70.880  1.00  0.00    -0.347 A  
HETATM   10  C   UNL     1     -10.062   4.804  70.609  1.00  0.00    -0.288 A  
HETATM   11  C   UNL     1      -9.861   3.818  71.622  1.00  0.00    -0.170 C  
HETATM   12  C   UNL     1      -9.476   4.642  69.356  1.00  0.00    -0.239 A  
HETATM   13  C   UNL     1      -9.673   5.582  68.338  1.00  0.00    -0.130 A  
HETATM   14  N   UNL     1      -9.696   3.016  72.443  1.00  0.00    -0.137 NA 
HETATM   15  C   UNL     1     -10.451   6.731  68.626  1.00  0.00    -0.206 A  
HETATM   16 CL   UNL     1     -10.711   7.922  67.390  1.00  0.00    -0.325 Cl 
BRANCH  13  17
HETATM   17  N   UNL     1      -9.067   5.403  67.065  1.00  0.00    -0.112 N  
HETATM   18  C   UNL     1      -9.703   4.958  65.917  1.00  0.00    -0.184 C  
HETATM   19  H   UNL     1      -8.075   5.622  66.989  1.00  0.00     0.000 HD 
HETATM   20  O   UNL     1     -10.894   4.729  65.732  1.00  0.00    -0.295 OA 
HETATM   21  C   UNL     1      -8.783   4.752  64.706  1.00  0.00    -0.153 C  
HETATM   22  O   UNL     1      -9.493   4.360  63.629  1.00  0.00    -0.138 OA 
HETATM   23  O   UNL     1      -7.583   4.927  64.758  1.00  0.00    -0.074 OA 
ENDBRANCH  13  17
ENDBRANCH   6   8
TORSDOF 2
ENDMDL
MODEL      107
REMARK 921   NORMALIZED FREE ENERGY PREDICTED BY IDOCK:   -4.25 KCAL/MOL
REMARK 922        TOTAL FREE ENERGY PREDICTED BY IDOCK:   -5.28 KCAL/MOL
REMARK 923 INTER-LIGAND FREE ENERGY PREDICTED BY IDOCK:   -4.75 KCAL/MOL
REMARK 924 INTRA-LIGAND FREE ENERGY PREDICTED BY IDOCK:   -0.52 KCAL/MOL
REMARK 927      BINDING AFFINITY PREDICTED BY RF-SCORE:    0.00 PKD
ROOT
HETATM    1  O   UNL     1     -11.022   5.228  74.175  1.00  0.00    -0.251 OA 
HETATM    2  C   UNL     1     -10.047   5.603  73.326  1.00  0.00    -0.186 C  
HETATM    3  O   UNL     1      -8.851   5.568  73.535  1.00  0.00    -0.123 OA 
HETATM    4  C   UNL     1     -10.638   6.082  71.994  1.00  0.00    -0.223 C  
HETATM    5  O   UNL     1     -11.862   6.120  71.929  1.00  0.00    -0.314 OA 
HETATM    6  N   UNL     1      -9.698   6.366  71.017  1.00  0.00    -0.175 N  
HETATM    7  H   UNL     1      -8.717   6.240  71.268  1.00  0.00     0.000 HD 
ENDROOT
BRANCH   6   8
HETATM    8  C   UNL     1      -9.972   6.817  69.699  1.00  0.00    -0.173 A  
HETATM    9  C   UNL     1     -10.111   8.183  69.430  1.00  0.00    -0.194 A  
HETATM   10  C   UNL     1     -10.425   8.630  68.149  1.00  0.00    -0.241 A  
HETATM   11  C   UNL     1     -10.589  10.026  67.902  1.00  0.00    -0.250 C  
HETATM   12  C   UNL     1     -10.592   7.716  67.110  1.00  0.00    -0.410 A  
HETATM   13  C   UNL     1     -10.417   6.344  67.320  1.00  0.00    -0.263 A  
HETATM   14  N   UNL     1     -10.722  11.160  67.699  1.00  0.00    -0.214 NA 
HETATM   15  C   UNL     1     -10.108   5.897  68.629  1.00  0.00    -0.168 A  
HETATM   16 CL   UNL     1      -9.891   4.201  68.927  1.00  0.00    -0.166 Cl 
BRANCH  13  17
HETATM   17  N   UNL     1     -10.591   5.424  66.250  1.00  0.00    -0.503 N  
HETATM   18  C   UNL     1      -9.578   4.830  65.515  1.00  0.00    -0.161 C  
HETATM   19  H   UNL     1     -11.549   5.180  66.000  1.00  0.00     0.000 HD 
HETATM   20  O   UNL     1      -8.364   4.886  65.685  1.00  0.00    -0.115 OA 
HETATM   21  C   UNL     1     -10.053   3.961  64.344  1.00  0.00    -0.215 C  
HETATM   22  O   UNL     1      -9.004   3.392  63.715  1.00  0.00    -0.092 OA 
HETATM   23  O   UNL     1     -11.226   3.833  64.056  1.00  0.00    -0.314 OA 
ENDBRANCH  13  17
ENDBRANCH   6   8
TORSDOF 2
ENDMDL
MODEL      108
REMARK 921   NORMALIZED FREE ENERGY PREDICTED BY IDOCK:   -4.24 KCAL/MOL
REMARK 922        TOTAL FREE ENERGY PREDICTED BY IDOCK:   -5.27 KCAL/MOL
REMARK 923 INTER-LIGAND FREE ENERGY PREDICTED BY IDOCK:   -4.88 KCAL/MOL
REMARK 924 INTRA-LIGAND FREE ENERGY PREDICTED BY IDOCK:   -0.39 KCAL/MOL
REMARK 927      BINDING AFFINITY PREDICTED BY RF-SCORE:    0.00 PKD
ROOT
HETATM    1  O   UNL     1      -9.879   3.775  65.111  1.00  0.00    -0.179 OA 
HETATM    2  C   UNL     1      -8.965   4.752  65.258  1.00  0.00    -0.151 C  
HETATM    3  O   UNL     1      -7.849   4.777  64.779  1.00  0.00    -0.087 OA 
HETATM    4  C   UNL     1      -9.518   5.893  66.120  1.00  0.00    -0.106 C  
HETATM    5  O   UNL     1     -10.639   5.721  66.588  1.00  0.00    -0.268 OA 
HETATM    6  N   UNL     1      -8.687   6.996  66.216  1.00  0.00    -0.141 N  
HETATM    7  H   UNL     1      -7.797   6.950  65.720  1.00  0.00     0.000 HD 
ENDROOT
BRANCH   6   8
HETATM    8  C   UNL     1      -8.958   8.187  66.940  1.00  0.00    -0.140 A  
HETATM    9  C   UNL     1      -8.948   8.185  68.339  1.00  0.00    -0.136 A  
HETATM   10  C   UNL     1      -9.258   9.337  69.057  1.00  0.00    -0.144 A  
HETATM   11  C   UNL     1      -9.268   9.306  70.484  1.00  0.00    -0.261 C  
HETATM   12  C   UNL     1      -9.569  10.518  68.385  1.00  0.00    -0.164 A  
HETATM   13  C   UNL     1      -9.546  10.581  66.987  1.00  0.00    -0.173 A  
HETATM   14  N   UNL     1      -9.277   9.284  71.643  1.00  0.00    -0.280 NA 
HETATM   15  C   UNL     1      -9.240   9.401  66.265  1.00  0.00    -0.180 A  
HETATM   16 CL   UNL     1      -9.210   9.442  64.530  1.00  0.00    -0.227 Cl 
BRANCH  13  17
HETATM   17  N   UNL     1      -9.867  11.793  66.317  1.00  0.00    -0.215 N  
HETATM   18  C   UNL     1     -11.087  12.447  66.356  1.00  0.00    -0.301 C  
HETATM   19  H   UNL     1      -9.130  12.221  65.755  1.00  0.00     0.000 HD 
HETATM   20  O   UNL     1     -12.081  12.190  67.028  1.00  0.00    -0.591 OA 
HETATM   21  C   UNL     1     -11.190  13.680  65.449  1.00  0.00    -0.298 C  
HETATM   22  O   UNL     1     -12.394  14.273  65.585  1.00  0.00    -0.419 OA 
HETATM   23  O   UNL     1     -10.286  14.036  64.721  1.00  0.00    -0.416 OA 
ENDBRANCH  13  17
ENDBRANCH   6   8
TORSDOF 2
ENDMDL
MODEL      109
REMARK 921   NORMALIZED FREE ENERGY PREDICTED BY IDOCK:   -4.23 KCAL/MOL
REMARK 922        TOTAL FREE ENERGY PREDICTED BY IDOCK:   -5.26 KCAL/MOL
REMARK 923 INTER-LIGAND FREE ENERGY PREDICTED BY IDOCK:   -4.93 KCAL/MOL
REMARK 924 INTRA-LIGAND FREE ENERGY PREDICTED BY IDOCK:   -0.33 KCAL/MOL
REMARK 927      BINDING AFFINITY PREDICTED BY RF-SCORE:    0.00 PKD
ROOT
HETATM    1  O   UNL     1     -10.038  16.789  67.464  1.00  0.00    -0.261 OA 
HETATM    2  C   UNL     1     -10.746  15.689  67.777  1.00  0.00    -0.297 C  
HETATM    3  O   UNL     1     -11.783  15.650  68.408  1.00  0.00    -0.367 OA 
HETATM    4  C   UNL     1     -10.081  14.430  67.207  1.00  0.00    -0.251 C  
HETATM    5  O   UNL     1      -9.008  14.598  66.636  1.00  0.00    -0.256 OA 
HETATM    6  N   UNL     1     -10.812  13.266  67.375  1.00  0.00    -0.264 N  
HETATM    7  H   UNL     1     -11.707  13.348  67.857  1.00  0.00     0.000 HD 
ENDROOT
BRANCH   6   8
HETATM    8  C   UNL     1     -10.433  11.970  66.936  1.00  0.00    -0.223 A  
HETATM    9  C   UNL     1     -10.107  11.741  65.596  1.00  0.00    -0.278 A  
HETATM   10  C   UNL     1      -9.778  10.463  65.150  1.00  0.00    -0.353 A  
HETATM   11  C   UNL     1      -9.475  10.246  63.772  1.00  0.00    -0.300 C  
HETATM   12  C   UNL     1      -9.757   9.394  66.043  1.00  0.00    -0.345 A  
HETATM   13  C   UNL     1     -10.031   9.582  67.402  1.00  0.00    -0.189 A  
HETATM   14  N   UNL     1      -9.227  10.067  62.653  1.00  0.00    -0.289 NA 
HETATM   15  C   UNL     1     -10.374  10.883  67.845  1.00  0.00    -0.187 A  
HETATM   16 CL   UNL     1     -10.726  11.152  69.524  1.00  0.00    -0.232 Cl 
BRANCH  13  17
HETATM   17  N   UNL     1     -10.005   8.480  68.301  1.00  0.00    -0.177 N  
HETATM   18  C   UNL     1      -8.878   7.780  68.698  1.00  0.00    -0.131 C  
HETATM   19  H   UNL     1     -10.898   8.178  68.688  1.00  0.00     0.000 HD 
HETATM   20  O   UNL     1      -7.698   8.011  68.452  1.00  0.00    -0.111 OA 
HETATM   21  C   UNL     1      -9.153   6.564  69.592  1.00  0.00    -0.141 C  
HETATM   22  O   UNL     1      -7.998   5.973  69.962  1.00  0.00    -0.105 OA 
HETATM   23  O   UNL     1     -10.275   6.216  69.898  1.00  0.00    -0.172 OA 
ENDBRANCH  13  17
ENDBRANCH   6   8
TORSDOF 2
ENDMDL
MODEL      110
REMARK 921   NORMALIZED FREE ENERGY PREDICTED BY IDOCK:   -4.23 KCAL/MOL
REMARK 922        TOTAL FREE ENERGY PREDICTED BY IDOCK:   -5.25 KCAL/MOL
REMARK 923 INTER-LIGAND FREE ENERGY PREDICTED BY IDOCK:   -4.77 KCAL/MOL
REMARK 924 INTRA-LIGAND FREE ENERGY PREDICTED BY IDOCK:   -0.48 KCAL/MOL
REMARK 927      BINDING AFFINITY PREDICTED BY RF-SCORE:    0.00 PKD
ROOT
HETATM    1  O   UNL     1     -13.952   9.217  72.517  1.00  0.00    -0.479 OA 
HETATM    2  C   UNL     1     -13.144  10.128  71.944  1.00  0.00    -0.466 C  
HETATM    3  O   UNL     1     -13.253  11.336  72.010  1.00  0.00    -0.506 OA 
HETATM    4  C   UNL     1     -12.005   9.444  71.178  1.00  0.00    -0.337 C  
HETATM    5  O   UNL     1     -12.038   8.219  71.142  1.00  0.00    -0.292 OA 
HETATM    6  N   UNL     1     -11.055  10.311  70.664  1.00  0.00    -0.364 N  
HETATM    7  H   UNL     1     -11.198  11.307  70.832  1.00  0.00     0.000 HD 
ENDROOT
BRANCH   6   8
HETATM    8  C   UNL     1      -9.900   9.943  69.925  1.00  0.00    -0.245 A  
HETATM    9  C   UNL     1      -8.790   9.389  70.571  1.00  0.00    -0.287 A  
HETATM   10  C   UNL     1      -7.637   9.068  69.860  1.00  0.00    -0.067 A  
HETATM   11  C   UNL     1      -6.505   8.529  70.544  1.00  0.00    -0.037 C  
HETATM   12  C   UNL     1      -7.580   9.282  68.484  1.00  0.00    -0.085 A  
HETATM   13  C   UNL     1      -8.681   9.791  67.786  1.00  0.00    -0.129 A  
HETATM   14  N   UNL     1      -5.585   8.091  71.096  1.00  0.00    -0.033 NA 
HETATM   15  C   UNL     1      -9.847  10.124  68.520  1.00  0.00    -0.154 A  
HETATM   16 CL   UNL     1     -11.230  10.763  67.687  1.00  0.00    -0.381 Cl 
BRANCH  13  17
HETATM   17  N   UNL     1      -8.608  10.004  66.383  1.00  0.00    -0.128 N  
HETATM   18  C   UNL     1      -8.571   9.018  65.411  1.00  0.00    -0.177 C  
HETATM   19  H   UNL     1      -8.580  10.972  66.062  1.00  0.00     0.000 HD 
HETATM   20  O   UNL     1      -8.691   7.803  65.536  1.00  0.00    -0.147 OA 
HETATM   21  C   UNL     1      -8.381   9.529  63.977  1.00  0.00    -0.170 C  
HETATM   22  O   UNL     1      -8.400   8.506  63.098  1.00  0.00    -0.176 OA 
HETATM   23  O   UNL     1      -8.234  10.706  63.715  1.00  0.00    -0.113 OA 
ENDBRANCH  13  17
ENDBRANCH   6   8
TORSDOF 2
ENDMDL
MODEL      111
REMARK 921   NORMALIZED FREE ENERGY PREDICTED BY IDOCK:   -4.21 KCAL/MOL
REMARK 922        TOTAL FREE ENERGY PREDICTED BY IDOCK:   -5.23 KCAL/MOL
REMARK 923 INTER-LIGAND FREE ENERGY PREDICTED BY IDOCK:   -4.79 KCAL/MOL
REMARK 924 INTRA-LIGAND FREE ENERGY PREDICTED BY IDOCK:   -0.44 KCAL/MOL
REMARK 927      BINDING AFFINITY PREDICTED BY RF-SCORE:    0.00 PKD
ROOT
HETATM    1  O   UNL     1      -8.840  10.221  62.582  1.00  0.00    -0.183 OA 
HETATM    2  C   UNL     1      -8.534  10.181  63.892  1.00  0.00    -0.181 C  
HETATM    3  O   UNL     1      -7.601   9.595  64.401  1.00  0.00    -0.117 OA 
HETATM    4  C   UNL     1      -9.529  11.014  64.710  1.00  0.00    -0.230 C  
HETATM    5  O   UNL     1     -10.459  11.512  64.085  1.00  0.00    -0.293 OA 
HETATM    6  N   UNL     1      -9.213  11.131  66.054  1.00  0.00    -0.199 N  
HETATM    7  H   UNL     1      -8.368  10.658  66.373  1.00  0.00     0.000 HD 
ENDROOT
BRANCH   6   8
HETATM    8  C   UNL     1      -9.956  11.848  67.028  1.00  0.00    -0.202 A  
HETATM    9  C   UNL     1     -10.684  11.168  68.010  1.00  0.00    -0.254 A  
HETATM   10  C   UNL     1     -11.451  11.864  68.940  1.00  0.00    -0.358 A  
HETATM   11  C   UNL     1     -12.208  11.148  69.917  1.00  0.00    -0.314 C  
HETATM   12  C   UNL     1     -11.492  13.256  68.913  1.00  0.00    -0.342 A  
HETATM   13  C   UNL     1     -10.745  13.983  67.979  1.00  0.00    -0.246 A  
HETATM   14  N   UNL     1     -12.822  10.570  70.712  1.00  0.00    -0.374 NA 
HETATM   15  C   UNL     1      -9.975  13.266  67.029  1.00  0.00    -0.238 A  
HETATM   16 CL   UNL     1      -9.041  14.135  65.852  1.00  0.00     0.105 Cl 
BRANCH  13  17
HETATM   17  N   UNL     1     -10.798  15.403  67.964  1.00  0.00    -0.282 N  
HETATM   18  C   UNL     1      -9.913  16.257  68.601  1.00  0.00    -0.233 C  
HETATM   19  H   UNL     1     -11.556  15.833  67.435  1.00  0.00     0.000 HD 
HETATM   20  O   UNL     1      -8.880  15.990  69.206  1.00  0.00    -0.248 OA 
HETATM   21  C   UNL     1     -10.270  17.747  68.509  1.00  0.00    -0.382 C  
HETATM   22  O   UNL     1      -9.334  18.501  69.119  1.00  0.00    -0.168 OA 
HETATM   23  O   UNL     1     -11.273  18.147  67.952  1.00  0.00    -0.052 OA 
ENDBRANCH  13  17
ENDBRANCH   6   8
TORSDOF 2
ENDMDL
MODEL      112
REMARK 921   NORMALIZED FREE ENERGY PREDICTED BY IDOCK:   -4.20 KCAL/MOL
REMARK 922        TOTAL FREE ENERGY PREDICTED BY IDOCK:   -5.22 KCAL/MOL
REMARK 923 INTER-LIGAND FREE ENERGY PREDICTED BY IDOCK:   -4.68 KCAL/MOL
REMARK 924 INTRA-LIGAND FREE ENERGY PREDICTED BY IDOCK:   -0.54 KCAL/MOL
REMARK 927      BINDING AFFINITY PREDICTED BY RF-SCORE:    0.00 PKD
ROOT
HETATM    1  O   UNL     1     -11.582   1.962  73.852  1.00  0.00    -0.178 OA 
HETATM    2  C   UNL     1     -10.764   2.506  72.933  1.00  0.00    -0.106 C  
HETATM    3  O   UNL     1     -10.255   1.937  71.988  1.00  0.00    -0.157 OA 
HETATM    4  C   UNL     1     -10.550   4.000  73.208  1.00  0.00    -0.189 C  
HETATM    5  O   UNL     1     -11.075   4.442  74.224  1.00  0.00    -0.249 OA 
HETATM    6  N   UNL     1      -9.822   4.665  72.236  1.00  0.00    -0.161 N  
HETATM    7  H   UNL     1      -9.495   4.113  71.443  1.00  0.00     0.000 HD 
ENDROOT
BRANCH   6   8
HETATM    8  C   UNL     1      -9.488   6.045  72.240  1.00  0.00    -0.150 A  
HETATM    9  C   UNL     1      -8.275   6.482  72.783  1.00  0.00    -0.109 A  
HETATM   10  C   UNL     1      -7.962   7.837  72.832  1.00  0.00    -0.162 A  
HETATM   11  C   UNL     1      -6.730   8.263  73.415  1.00  0.00    -0.118 C  
HETATM   12  C   UNL     1      -8.852   8.781  72.322  1.00  0.00    -0.101 A  
HETATM   13  C   UNL     1     -10.056   8.390  71.727  1.00  0.00    -0.247 A  
HETATM   14  N   UNL     1      -5.730   8.611  73.888  1.00  0.00    -0.108 NA 
HETATM   15  C   UNL     1     -10.372   7.009  71.691  1.00  0.00    -0.198 A  
HETATM   16 CL   UNL     1     -11.861   6.489  70.966  1.00  0.00    -0.412 Cl 
BRANCH  13  17
HETATM   17  N   UNL     1     -10.954   9.365  71.212  1.00  0.00    -0.345 N  
HETATM   18  C   UNL     1     -11.086   9.727  69.881  1.00  0.00    -0.254 C  
HETATM   19  H   UNL     1     -11.556   9.840  71.883  1.00  0.00     0.000 HD 
HETATM   20  O   UNL     1     -10.554   9.238  68.890  1.00  0.00    -0.218 OA 
HETATM   21  C   UNL     1     -12.056  10.887  69.620  1.00  0.00    -0.329 C  
HETATM   22  O   UNL     1     -12.151  11.141  68.299  1.00  0.00    -0.620 OA 
HETATM   23  O   UNL     1     -12.636  11.470  70.514  1.00  0.00    -0.270 OA 
ENDBRANCH  13  17
ENDBRANCH   6   8
TORSDOF 2
ENDMDL
MODEL      113
REMARK 921   NORMALIZED FREE ENERGY PREDICTED BY IDOCK:   -4.20 KCAL/MOL
REMARK 922        TOTAL FREE ENERGY PREDICTED BY IDOCK:   -5.22 KCAL/MOL
REMARK 923 INTER-LIGAND FREE ENERGY PREDICTED BY IDOCK:   -4.74 KCAL/MOL
REMARK 924 INTRA-LIGAND FREE ENERGY PREDICTED BY IDOCK:   -0.48 KCAL/MOL
REMARK 927      BINDING AFFINITY PREDICTED BY RF-SCORE:    0.00 PKD
ROOT
HETATM    1  O   UNL     1     -12.649  13.149  66.920  1.00  0.00    -0.198 OA 
HETATM    2  C   UNL     1     -11.807  13.051  67.966  1.00  0.00    -0.347 C  
HETATM    3  O   UNL     1     -11.577  13.910  68.793  1.00  0.00    -0.287 OA 
HETATM    4  C   UNL     1     -11.154  11.665  68.014  1.00  0.00    -0.242 C  
HETATM    5  O   UNL     1     -11.429  10.906  67.090  1.00  0.00    -0.428 OA 
HETATM    6  N   UNL     1     -10.370  11.437  69.132  1.00  0.00    -0.390 N  
HETATM    7  H   UNL     1     -10.294  12.198  69.807  1.00  0.00     0.000 HD 
ENDROOT
BRANCH   6   8
HETATM    8  C   UNL     1      -9.662  10.242  69.427  1.00  0.00    -0.222 A  
HETATM    9  C   UNL     1      -8.557   9.862  68.658  1.00  0.00    -0.119 A  
HETATM   10  C   UNL     1      -7.886   8.669  68.913  1.00  0.00    -0.104 A  
HETATM   11  C   UNL     1      -6.778   8.287  68.098  1.00  0.00    -0.065 C  
HETATM   12  C   UNL     1      -8.301   7.841  69.954  1.00  0.00    -0.130 A  
HETATM   13  C   UNL     1      -9.372   8.200  70.781  1.00  0.00    -0.158 A  
HETATM   14  N   UNL     1      -5.876   7.975  67.439  1.00  0.00    -0.041 NA 
HETATM   15  C   UNL     1     -10.055   9.411  70.507  1.00  0.00    -0.275 A  
HETATM   16 CL   UNL     1     -11.392   9.885  71.508  1.00  0.00    -0.359 Cl 
BRANCH  13  17
HETATM   17  N   UNL     1      -9.783   7.344  71.838  1.00  0.00    -0.155 N  
HETATM   18  C   UNL     1     -10.822   6.429  71.787  1.00  0.00    -0.241 C  
HETATM   19  H   UNL     1      -9.266   7.409  72.715  1.00  0.00     0.000 HD 
HETATM   20  O   UNL     1     -11.517   6.101  70.831  1.00  0.00    -0.315 OA 
HETATM   21  C   UNL     1     -11.119   5.713  73.111  1.00  0.00    -0.270 C  
HETATM   22  O   UNL     1     -12.113   4.816  72.956  1.00  0.00    -0.115 OA 
HETATM   23  O   UNL     1     -10.516   5.956  74.138  1.00  0.00    -0.274 OA 
ENDBRANCH  13  17
ENDBRANCH   6   8
TORSDOF 2
ENDMDL
MODEL      114
REMARK 921   NORMALIZED FREE ENERGY PREDICTED BY IDOCK:   -4.16 KCAL/MOL
REMARK 922        TOTAL FREE ENERGY PREDICTED BY IDOCK:   -5.17 KCAL/MOL
REMARK 923 INTER-LIGAND FREE ENERGY PREDICTED BY IDOCK:   -4.65 KCAL/MOL
REMARK 924 INTRA-LIGAND FREE ENERGY PREDICTED BY IDOCK:   -0.52 KCAL/MOL
REMARK 927      BINDING AFFINITY PREDICTED BY RF-SCORE:    0.00 PKD
ROOT
HETATM    1  O   UNL     1      -8.059   3.943  64.326  1.00  0.00    -0.088 OA 
HETATM    2  C   UNL     1      -9.234   4.359  64.833  1.00  0.00    -0.157 C  
HETATM    3  O   UNL     1     -10.327   3.873  64.623  1.00  0.00    -0.225 OA 
HETATM    4  C   UNL     1      -9.032   5.561  65.764  1.00  0.00    -0.154 C  
HETATM    5  O   UNL     1      -7.887   5.991  65.850  1.00  0.00    -0.100 OA 
HETATM    6  N   UNL     1     -10.176   5.972  66.428  1.00  0.00    -0.387 N  
HETATM    7  H   UNL     1     -11.033   5.454  66.237  1.00  0.00     0.000 HD 
ENDROOT
BRANCH   6   8
HETATM    8  C   UNL     1     -10.266   7.049  67.350  1.00  0.00    -0.215 A  
HETATM    9  C   UNL     1     -10.713   8.306  66.932  1.00  0.00    -0.179 A  
HETATM   10  C   UNL     1     -10.760   9.378  67.820  1.00  0.00    -0.290 A  
HETATM   11  C   UNL     1     -11.194  10.660  67.366  1.00  0.00    -0.205 C  
HETATM   12  C   UNL     1     -10.375   9.205  69.147  1.00  0.00    -0.223 A  
HETATM   13  C   UNL     1      -9.965   7.955  69.624  1.00  0.00    -0.191 A  
HETATM   14  N   UNL     1     -11.547  11.702  67.000  1.00  0.00    -0.547 NA 
HETATM   15  C   UNL     1      -9.909   6.872  68.711  1.00  0.00    -0.149 A  
HETATM   16 CL   UNL     1      -9.399   5.309  69.266  1.00  0.00    -0.154 Cl 
BRANCH  13  17
HETATM   17  N   UNL     1      -9.574   7.795  70.981  1.00  0.00    -0.160 N  
HETATM   18  C   UNL     1     -10.357   7.273  71.997  1.00  0.00    -0.192 C  
HETATM   19  H   UNL     1      -8.630   8.091  71.229  1.00  0.00     0.000 HD 
HETATM   20  O   UNL     1     -11.472   6.764  71.931  1.00  0.00    -0.256 OA 
HETATM   21  C   UNL     1      -9.721   7.317  73.393  1.00  0.00    -0.251 C  
HETATM   22  O   UNL     1     -10.535   6.752  74.307  1.00  0.00    -0.338 OA 
HETATM   23  O   UNL     1      -8.629   7.808  73.600  1.00  0.00    -0.189 OA 
ENDBRANCH  13  17
ENDBRANCH   6   8
TORSDOF 2
ENDMDL
MODEL      115
REMARK 921   NORMALIZED FREE ENERGY PREDICTED BY IDOCK:   -4.11 KCAL/MOL
REMARK 922        TOTAL FREE ENERGY PREDICTED BY IDOCK:   -5.12 KCAL/MOL
REMARK 923 INTER-LIGAND FREE ENERGY PREDICTED BY IDOCK:   -5.37 KCAL/MOL
REMARK 924 INTRA-LIGAND FREE ENERGY PREDICTED BY IDOCK:    0.25 KCAL/MOL
REMARK 927      BINDING AFFINITY PREDICTED BY RF-SCORE:    0.00 PKD
ROOT
HETATM    1  O   UNL     1     -11.448   4.873  73.661  1.00  0.00    -0.251 OA 
HETATM    2  C   UNL     1     -10.878   5.236  72.497  1.00  0.00    -0.245 C  
HETATM    3  O   UNL     1     -10.228   4.527  71.755  1.00  0.00    -0.193 OA 
HETATM    4  C   UNL     1     -11.169   6.709  72.183  1.00  0.00    -0.264 C  
HETATM    5  O   UNL     1     -11.791   7.331  73.038  1.00  0.00    -0.031 OA 
HETATM    6  N   UNL     1     -10.727   7.131  70.940  1.00  0.00    -0.228 N  
HETATM    7  H   UNL     1     -10.251   6.440  70.359  1.00  0.00     0.000 HD 
ENDROOT
BRANCH   6   8
HETATM    8  C   UNL     1     -10.873   8.435  70.398  1.00  0.00    -0.235 A  
HETATM    9  C   UNL     1     -11.635   9.400  71.066  1.00  0.00    -0.400 A  
HETATM   10  C   UNL     1     -11.821  10.666  70.519  1.00  0.00    -0.453 A  
HETATM   11  C   UNL     1     -12.624  11.628  71.204  1.00  0.00    -0.335 C  
HETATM   12  C   UNL     1     -11.234  10.995  69.298  1.00  0.00    -0.321 A  
HETATM   13  C   UNL     1     -10.426  10.079  68.615  1.00  0.00    -0.204 A  
HETATM   14  N   UNL     1     -13.275  12.410  71.759  1.00  0.00    -0.412 NA 
HETATM   15  C   UNL     1     -10.251   8.789  69.175  1.00  0.00    -0.207 A  
HETATM   16 CL   UNL     1      -9.260   7.625  68.351  1.00  0.00    -0.140 Cl 
BRANCH  13  17
HETATM   17  N   UNL     1      -9.835  10.429  67.371  1.00  0.00    -0.174 N  
HETATM   18  C   UNL     1     -10.486  11.016  66.298  1.00  0.00    -0.254 C  
HETATM   19  H   UNL     1      -8.842  10.230  67.257  1.00  0.00     0.000 HD 
HETATM   20  O   UNL     1     -11.636  11.436  66.226  1.00  0.00    -0.331 OA 
HETATM   21  C   UNL     1      -9.629  11.185  65.036  1.00  0.00    -0.239 C  
HETATM   22  O   UNL     1     -10.331  11.800  64.062  1.00  0.00    -0.293 OA 
HETATM   23  O   UNL     1      -8.480  10.798  64.967  1.00  0.00    -0.163 OA 
ENDBRANCH  13  17
ENDBRANCH   6   8
TORSDOF 2
ENDMDL
MODEL      116
REMARK 921   NORMALIZED FREE ENERGY PREDICTED BY IDOCK:   -4.11 KCAL/MOL
REMARK 922        TOTAL FREE ENERGY PREDICTED BY IDOCK:   -5.12 KCAL/MOL
REMARK 923 INTER-LIGAND FREE ENERGY PREDICTED BY IDOCK:   -4.80 KCAL/MOL
REMARK 924 INTRA-LIGAND FREE ENERGY PREDICTED BY IDOCK:   -0.32 KCAL/MOL
REMARK 927      BINDING AFFINITY PREDICTED BY RF-SCORE:    0.00 PKD
ROOT
HETATM    1  O   UNL     1      -9.697   4.170  63.527  1.00  0.00    -0.150 OA 
HETATM    2  C   UNL     1      -8.928   4.361  64.614  1.00  0.00    -0.150 C  
HETATM    3  O   UNL     1      -7.714   4.366  64.651  1.00  0.00    -0.076 OA 
HETATM    4  C   UNL     1      -9.791   4.602  65.859  1.00  0.00    -0.220 C  
HETATM    5  O   UNL     1     -11.004   4.518  65.699  1.00  0.00    -0.218 OA 
HETATM    6  N   UNL     1      -9.078   4.933  66.999  1.00  0.00    -0.116 N  
HETATM    7  H   UNL     1      -8.063   4.980  66.912  1.00  0.00     0.000 HD 
ENDROOT
BRANCH   6   8
HETATM    8  C   UNL     1      -9.628   5.214  68.277  1.00  0.00    -0.135 A  
HETATM    9  C   UNL     1      -9.472   4.308  69.332  1.00  0.00    -0.256 A  
HETATM   10  C   UNL     1     -10.048   4.555  70.575  1.00  0.00    -0.233 A  
HETATM   11  C   UNL     1      -9.899   3.605  71.630  1.00  0.00    -0.160 C  
HETATM   12  C   UNL     1     -10.777   5.723  70.790  1.00  0.00    -0.342 A  
HETATM   13  C   UNL     1     -10.921   6.681  69.780  1.00  0.00    -0.313 A  
HETATM   14  N   UNL     1      -9.780   2.835  72.489  1.00  0.00    -0.127 NA 
HETATM   15  C   UNL     1     -10.341   6.416  68.514  1.00  0.00    -0.197 A  
HETATM   16 CL   UNL     1     -10.506   7.579  67.236  1.00  0.00    -0.363 Cl 
BRANCH  13  17
HETATM   17  N   UNL     1     -11.669   7.867  70.014  1.00  0.00    -0.443 N  
HETATM   18  C   UNL     1     -11.150   9.144  70.144  1.00  0.00    -0.222 C  
HETATM   19  H   UNL     1     -12.681   7.768  70.093  1.00  0.00     0.000 HD 
HETATM   20  O   UNL     1      -9.995   9.528  69.992  1.00  0.00    -0.205 OA 
HETATM   21  C   UNL     1     -12.176  10.227  70.502  1.00  0.00    -0.301 C  
HETATM   22  O   UNL     1     -11.589  11.439  70.567  1.00  0.00    -0.278 OA 
HETATM   23  O   UNL     1     -13.349   9.979  70.696  1.00  0.00    -0.294 OA 
ENDBRANCH  13  17
ENDBRANCH   6   8
TORSDOF 2
ENDMDL
MODEL      117
REMARK 921   NORMALIZED FREE ENERGY PREDICTED BY IDOCK:   -4.07 KCAL/MOL
REMARK 922        TOTAL FREE ENERGY PREDICTED BY IDOCK:   -5.08 KCAL/MOL
REMARK 923 INTER-LIGAND FREE ENERGY PREDICTED BY IDOCK:   -5.15 KCAL/MOL
REMARK 924 INTRA-LIGAND FREE ENERGY PREDICTED BY IDOCK:    0.07 KCAL/MOL
REMARK 927      BINDING AFFINITY PREDICTED BY RF-SCORE:    0.00 PKD
ROOT
HETATM    1  O   UNL     1      -7.085  18.919  67.979  1.00  0.00    -0.230 OA 
HETATM    2  C   UNL     1      -8.241  18.251  68.144  1.00  0.00    -0.283 C  
HETATM    3  O   UNL     1      -9.196  18.607  68.805  1.00  0.00    -0.330 OA 
HETATM    4  C   UNL     1      -8.231  16.938  67.352  1.00  0.00    -0.182 C  
HETATM    5  O   UNL     1      -7.187  16.667  66.769  1.00  0.00    -0.195 OA 
HETATM    6  N   UNL     1      -9.433  16.249  67.365  1.00  0.00    -0.226 N  
HETATM    7  H   UNL     1     -10.200  16.666  67.893  1.00  0.00     0.000 HD 
ENDROOT
BRANCH   6   8
HETATM    8  C   UNL     1      -9.698  15.018  66.710  1.00  0.00    -0.241 A  
HETATM    9  C   UNL     1     -10.609  14.958  65.651  1.00  0.00    -0.358 A  
HETATM   10  C   UNL     1     -10.909  13.746  65.034  1.00  0.00    -0.377 A  
HETATM   11  C   UNL     1     -11.862  13.703  63.972  1.00  0.00    -0.400 C  
HETATM   12  C   UNL     1     -10.288  12.573  65.458  1.00  0.00    -0.303 A  
HETATM   13  C   UNL     1      -9.335  12.589  66.483  1.00  0.00    -0.233 A  
HETATM   14  N   UNL     1     -12.636  13.666  63.110  1.00  0.00    -0.688 NA 
HETATM   15  C   UNL     1      -9.045  13.825  67.112  1.00  0.00    -0.239 A  
HETATM   16 CL   UNL     1      -7.872  13.881  68.391  1.00  0.00    -0.133 Cl 
BRANCH  13  17
HETATM   17  N   UNL     1      -8.711  11.383  66.904  1.00  0.00    -0.159 N  
HETATM   18  C   UNL     1      -8.454  10.279  66.109  1.00  0.00    -0.141 C  
HETATM   19  H   UNL     1      -8.426  11.326  67.882  1.00  0.00     0.000 HD 
HETATM   20  O   UNL     1      -8.609  10.144  64.899  1.00  0.00    -0.158 OA 
HETATM   21  C   UNL     1      -7.868   9.070  66.850  1.00  0.00    -0.101 C  
HETATM   22  O   UNL     1      -7.613   8.061  65.991  1.00  0.00    -0.082 OA 
HETATM   23  O   UNL     1      -7.679   9.065  68.050  1.00  0.00    -0.095 OA 
ENDBRANCH  13  17
ENDBRANCH   6   8
TORSDOF 2
ENDMDL
MODEL      118
REMARK 921   NORMALIZED FREE ENERGY PREDICTED BY IDOCK:   -4.06 KCAL/MOL
REMARK 922        TOTAL FREE ENERGY PREDICTED BY IDOCK:   -5.06 KCAL/MOL
REMARK 923 INTER-LIGAND FREE ENERGY PREDICTED BY IDOCK:   -4.55 KCAL/MOL
REMARK 924 INTRA-LIGAND FREE ENERGY PREDICTED BY IDOCK:   -0.51 KCAL/MOL
REMARK 927      BINDING AFFINITY PREDICTED BY RF-SCORE:    0.00 PKD
ROOT
HETATM    1  O   UNL     1     -11.032   5.577  73.721  1.00  0.00    -0.263 OA 
HETATM    2  C   UNL     1     -10.226   6.451  73.090  1.00  0.00    -0.205 C  
HETATM    3  O   UNL     1      -9.248   7.000  73.554  1.00  0.00    -0.139 OA 
HETATM    4  C   UNL     1     -10.687   6.673  71.644  1.00  0.00    -0.229 C  
HETATM    5  O   UNL     1     -11.721   6.102  71.313  1.00  0.00    -0.278 OA 
HETATM    6  N   UNL     1      -9.839   7.461  70.884  1.00  0.00    -0.178 N  
HETATM    7  H   UNL     1      -9.003   7.820  71.346  1.00  0.00     0.000 HD 
ENDROOT
BRANCH   6   8
HETATM    8  C   UNL     1     -10.023   7.815  69.522  1.00  0.00    -0.187 A  
HETATM    9  C   UNL     1     -10.509   9.081  69.176  1.00  0.00    -0.239 A  
HETATM   10  C   UNL     1     -10.735   9.419  67.845  1.00  0.00    -0.269 A  
HETATM   11  C   UNL     1     -11.257  10.706  67.516  1.00  0.00    -0.253 C  
HETATM   12  C   UNL     1     -10.464   8.500  66.833  1.00  0.00    -0.345 A  
HETATM   13  C   UNL     1      -9.933   7.239  67.126  1.00  0.00    -0.215 A  
HETATM   14  N   UNL     1     -11.680  11.752  67.246  1.00  0.00    -0.597 NA 
HETATM   15  C   UNL     1      -9.716   6.899  68.484  1.00  0.00    -0.138 A  
HETATM   16 CL   UNL     1      -9.065   5.340  68.884  1.00  0.00    -0.127 Cl 
BRANCH  13  17
HETATM   17  N   UNL     1      -9.663   6.312  66.082  1.00  0.00    -0.375 N  
HETATM   18  C   UNL     1      -8.465   6.185  65.397  1.00  0.00    -0.138 C  
HETATM   19  H   UNL     1     -10.419   5.683  65.814  1.00  0.00     0.000 HD 
HETATM   20  O   UNL     1      -7.395   6.749  65.599  1.00  0.00    -0.074 OA 
HETATM   21  C   UNL     1      -8.485   5.175  64.242  1.00  0.00    -0.131 C  
HETATM   22  O   UNL     1      -7.270   5.089  63.663  1.00  0.00    -0.047 OA 
HETATM   23  O   UNL     1      -9.484   4.561  63.925  1.00  0.00    -0.120 OA 
ENDBRANCH  13  17
ENDBRANCH   6   8
TORSDOF 2
ENDMDL
MODEL      119
REMARK 921   NORMALIZED FREE ENERGY PREDICTED BY IDOCK:   -4.05 KCAL/MOL
REMARK 922        TOTAL FREE ENERGY PREDICTED BY IDOCK:   -5.06 KCAL/MOL
REMARK 923 INTER-LIGAND FREE ENERGY PREDICTED BY IDOCK:   -4.56 KCAL/MOL
REMARK 924 INTRA-LIGAND FREE ENERGY PREDICTED BY IDOCK:   -0.50 KCAL/MOL
REMARK 927      BINDING AFFINITY PREDICTED BY RF-SCORE:    0.00 PKD
ROOT
HETATM    1  O   UNL     1     -11.827  14.362  67.482  1.00  0.00    -0.373 OA 
HETATM    2  C   UNL     1     -10.843  13.735  68.152  1.00  0.00    -0.246 C  
HETATM    3  O   UNL     1      -9.883  14.255  68.684  1.00  0.00    -0.232 OA 
HETATM    4  C   UNL     1     -11.086  12.221  68.190  1.00  0.00    -0.240 C  
HETATM    5  O   UNL     1     -12.062  11.816  67.568  1.00  0.00    -0.599 OA 
HETATM    6  N   UNL     1     -10.186  11.513  68.969  1.00  0.00    -0.384 N  
HETATM    7  H   UNL     1      -9.453  12.050  69.433  1.00  0.00     0.000 HD 
ENDROOT
BRANCH   6   8
HETATM    8  C   UNL     1     -10.187  10.109  69.181  1.00  0.00    -0.214 A  
HETATM    9  C   UNL     1     -11.151   9.517  70.003  1.00  0.00    -0.268 A  
HETATM   10  C   UNL     1     -11.132   8.147  70.253  1.00  0.00    -0.221 A  
HETATM   11  C   UNL     1     -12.109   7.567  71.117  1.00  0.00    -0.307 C  
HETATM   12  C   UNL     1     -10.154   7.343  69.671  1.00  0.00    -0.186 A  
HETATM   13  C   UNL     1      -9.196   7.883  68.805  1.00  0.00    -0.143 A  
HETATM   14  N   UNL     1     -12.902   7.093  71.817  1.00  0.00    -0.347 NA 
HETATM   15  C   UNL     1      -9.217   9.279  68.565  1.00  0.00    -0.135 A  
HETATM   16 CL   UNL     1      -8.040   9.983  67.501  1.00  0.00    -0.110 Cl 
BRANCH  13  17
HETATM   17  N   UNL     1      -8.205   7.049  68.220  1.00  0.00    -0.123 N  
HETATM   18  C   UNL     1      -8.236   6.524  66.938  1.00  0.00    -0.113 C  
HETATM   19  H   UNL     1      -7.396   6.817  68.795  1.00  0.00     0.000 HD 
HETATM   20  O   UNL     1      -9.040   6.735  66.036  1.00  0.00    -0.148 OA 
HETATM   21  C   UNL     1      -7.086   5.565  66.603  1.00  0.00    -0.069 C  
HETATM   22  O   UNL     1      -7.176   5.138  65.327  1.00  0.00    -0.065 OA 
HETATM   23  O   UNL     1      -6.232   5.258  67.411  1.00  0.00    -0.032 OA 
ENDBRANCH  13  17
ENDBRANCH   6   8
TORSDOF 2
ENDMDL
MODEL      120
REMARK 921   NORMALIZED FREE ENERGY PREDICTED BY IDOCK:   -4.05 KCAL/MOL
REMARK 922        TOTAL FREE ENERGY PREDICTED BY IDOCK:   -5.05 KCAL/MOL
REMARK 923 INTER-LIGAND FREE ENERGY PREDICTED BY IDOCK:   -4.58 KCAL/MOL
REMARK 924 INTRA-LIGAND FREE ENERGY PREDICTED BY IDOCK:   -0.47 KCAL/MOL
REMARK 927      BINDING AFFINITY PREDICTED BY RF-SCORE:    0.00 PKD
ROOT
HETATM    1  O   UNL     1      -9.053   2.619  67.751  1.00  0.00    -0.150 OA 
HETATM    2  C   UNL     1      -9.378   2.786  69.046  1.00  0.00    -0.142 C  
HETATM    3  O   UNL     1      -9.751   1.925  69.817  1.00  0.00    -0.027 OA 
HETATM    4  C   UNL     1      -9.198   4.249  69.469  1.00  0.00    -0.140 C  
HETATM    5  O   UNL     1      -8.868   5.031  68.584  1.00  0.00    -0.096 OA 
HETATM    6  N   UNL     1      -9.390   4.485  70.821  1.00  0.00    -0.139 N  
HETATM    7  H   UNL     1      -9.633   3.682  71.400  1.00  0.00     0.000 HD 
ENDROOT
BRANCH   6   8
HETATM    8  C   UNL     1      -9.277   5.740  71.475  1.00  0.00    -0.146 A  
HETATM    9  C   UNL     1      -8.164   6.030  72.270  1.00  0.00    -0.110 A  
HETATM   10  C   UNL     1      -8.069   7.240  72.951  1.00  0.00    -0.124 A  
HETATM   11  C   UNL     1      -6.936   7.505  73.779  1.00  0.00    -0.087 C  
HETATM   12  C   UNL     1      -9.082   8.190  72.836  1.00  0.00    -0.337 A  
HETATM   13  C   UNL     1     -10.193   7.965  72.015  1.00  0.00    -0.211 A  
HETATM   14  N   UNL     1      -6.017   7.722  74.451  1.00  0.00    -0.080 NA 
HETATM   15  C   UNL     1     -10.287   6.726  71.334  1.00  0.00    -0.202 A  
HETATM   16 CL   UNL     1     -11.655   6.411  70.313  1.00  0.00    -0.476 Cl 
BRANCH  13  17
HETATM   17  N   UNL     1     -11.219   8.944  71.908  1.00  0.00    -0.361 N  
HETATM   18  C   UNL     1     -11.257   9.986  70.996  1.00  0.00    -0.314 C  
HETATM   19  H   UNL     1     -11.997   8.873  72.563  1.00  0.00     0.000 HD 
HETATM   20  O   UNL     1     -10.502  10.221  70.058  1.00  0.00    -0.268 OA 
HETATM   21  C   UNL     1     -12.429  10.960  71.176  1.00  0.00    -0.405 C  
HETATM   22  O   UNL     1     -12.408  11.913  70.221  1.00  0.00    -0.274 OA 
HETATM   23  O   UNL     1     -13.240  10.852  72.074  1.00  0.00    -0.492 OA 
ENDBRANCH  13  17
ENDBRANCH   6   8
TORSDOF 2
ENDMDL
MODEL      121
REMARK 921   NORMALIZED FREE ENERGY PREDICTED BY IDOCK:   -4.01 KCAL/MOL
REMARK 922        TOTAL FREE ENERGY PREDICTED BY IDOCK:   -5.01 KCAL/MOL
REMARK 923 INTER-LIGAND FREE ENERGY PREDICTED BY IDOCK:   -4.49 KCAL/MOL
REMARK 924 INTRA-LIGAND FREE ENERGY PREDICTED BY IDOCK:   -0.52 KCAL/MOL
REMARK 927      BINDING AFFINITY PREDICTED BY RF-SCORE:    0.00 PKD
ROOT
HETATM    1  O   UNL     1      -7.671   2.499  64.183  1.00  0.00    -0.072 OA 
HETATM    2  C   UNL     1      -7.287   3.424  65.082  1.00  0.00    -0.072 C  
HETATM    3  O   UNL     1      -6.198   3.510  65.613  1.00  0.00    -0.029 OA 
HETATM    4  C   UNL     1      -8.422   4.416  65.363  1.00  0.00    -0.120 C  
HETATM    5  O   UNL     1      -9.490   4.188  64.805  1.00  0.00    -0.153 OA 
HETATM    6  N   UNL     1      -8.070   5.476  66.183  1.00  0.00    -0.105 N  
HETATM    7  H   UNL     1      -7.109   5.497  66.523  1.00  0.00     0.000 HD 
ENDROOT
BRANCH   6   8
HETATM    8  C   UNL     1      -8.921   6.535  66.592  1.00  0.00    -0.138 A  
HETATM    9  C   UNL     1      -9.014   7.706  65.833  1.00  0.00    -0.144 A  
HETATM   10  C   UNL     1      -9.812   8.768  66.252  1.00  0.00    -0.342 A  
HETATM   11  C   UNL     1      -9.871   9.964  65.475  1.00  0.00    -0.311 C  
HETATM   12  C   UNL     1     -10.544   8.669  67.433  1.00  0.00    -0.298 A  
HETATM   13  C   UNL     1     -10.521   7.501  68.203  1.00  0.00    -0.183 A  
HETATM   14  N   UNL     1      -9.921  10.937  64.846  1.00  0.00    -0.278 NA 
HETATM   15  C   UNL     1      -9.698   6.430  67.774  1.00  0.00    -0.121 A  
HETATM   16 CL   UNL     1      -9.639   4.967  68.708  1.00  0.00    -0.192 Cl 
BRANCH  13  17
HETATM   17  N   UNL     1     -11.273   7.416  69.406  1.00  0.00    -0.456 N  
HETATM   18  C   UNL     1     -10.896   7.923  70.638  1.00  0.00    -0.237 C  
HETATM   19  H   UNL     1     -12.173   6.938  69.357  1.00  0.00     0.000 HD 
HETATM   20  O   UNL     1      -9.924   8.613  70.926  1.00  0.00    -0.185 OA 
HETATM   21  C   UNL     1     -11.851   7.593  71.793  1.00  0.00    -0.290 C  
HETATM   22  O   UNL     1     -11.427   8.161  72.940  1.00  0.00    -0.389 OA 
HETATM   23  O   UNL     1     -12.842   6.906  71.648  1.00  0.00    -0.373 OA 
ENDBRANCH  13  17
ENDBRANCH   6   8
TORSDOF 2
ENDMDL
MODEL      122
REMARK 921   NORMALIZED FREE ENERGY PREDICTED BY IDOCK:   -4.00 KCAL/MOL
REMARK 922        TOTAL FREE ENERGY PREDICTED BY IDOCK:   -5.00 KCAL/MOL
REMARK 923 INTER-LIGAND FREE ENERGY PREDICTED BY IDOCK:   -4.53 KCAL/MOL
REMARK 924 INTRA-LIGAND FREE ENERGY PREDICTED BY IDOCK:   -0.47 KCAL/MOL
REMARK 927      BINDING AFFINITY PREDICTED BY RF-SCORE:    0.00 PKD
ROOT
HETATM    1  O   UNL     1      -8.946   4.765  69.855  1.00  0.00    -0.090 OA 
HETATM    2  C   UNL     1      -9.547   5.965  69.952  1.00  0.00    -0.158 C  
HETATM    3  O   UNL     1     -10.550   6.223  70.587  1.00  0.00    -0.221 OA 
HETATM    4  C   UNL     1      -8.783   7.025  69.151  1.00  0.00    -0.132 C  
HETATM    5  O   UNL     1      -7.817   6.625  68.509  1.00  0.00    -0.107 OA 
HETATM    6  N   UNL     1      -9.263   8.316  69.300  1.00  0.00    -0.151 N  
HETATM    7  H   UNL     1     -10.069   8.442  69.912  1.00  0.00     0.000 HD 
ENDROOT
BRANCH   6   8
HETATM    8  C   UNL     1      -8.737   9.480  68.681  1.00  0.00    -0.127 A  
HETATM    9  C   UNL     1      -7.859  10.319  69.375  1.00  0.00    -0.157 A  
HETATM   10  C   UNL     1      -7.375  11.486  68.790  1.00  0.00    -0.115 A  
HETATM   11  C   UNL     1      -6.501  12.342  69.526  1.00  0.00    -0.090 C  
HETATM   12  C   UNL     1      -7.751  11.828  67.493  1.00  0.00    -0.143 A  
HETATM   13  C   UNL     1      -8.591  10.997  66.742  1.00  0.00    -0.152 A  
HETATM   14  N   UNL     1      -5.790  13.038  70.122  1.00  0.00    -0.146 NA 
HETATM   15  C   UNL     1      -9.087   9.817  67.348  1.00  0.00    -0.134 A  
HETATM   16 CL   UNL     1     -10.136   8.766  66.448  1.00  0.00    -0.353 Cl 
BRANCH  13  17
HETATM   17  N   UNL     1      -8.966  11.360  65.419  1.00  0.00    -0.380 N  
HETATM   18  C   UNL     1     -10.193  11.875  65.034  1.00  0.00    -0.278 C  
HETATM   19  H   UNL     1      -8.268  11.229  64.688  1.00  0.00     0.000 HD 
HETATM   20  O   UNL     1     -11.144  12.211  65.732  1.00  0.00    -0.296 OA 
HETATM   21  C   UNL     1     -10.365  12.075  63.523  1.00  0.00    -0.461 C  
HETATM   22  O   UNL     1     -11.568  12.618  63.247  1.00  0.00    -0.489 OA 
HETATM   23  O   UNL     1      -9.507  11.769  62.719  1.00  0.00    -0.347 OA 
ENDBRANCH  13  17
ENDBRANCH   6   8
TORSDOF 2
ENDMDL
MODEL      123
REMARK 921   NORMALIZED FREE ENERGY PREDICTED BY IDOCK:   -3.94 KCAL/MOL
REMARK 922        TOTAL FREE ENERGY PREDICTED BY IDOCK:   -4.93 KCAL/MOL
REMARK 923 INTER-LIGAND FREE ENERGY PREDICTED BY IDOCK:   -4.44 KCAL/MOL
REMARK 924 INTRA-LIGAND FREE ENERGY PREDICTED BY IDOCK:   -0.49 KCAL/MOL
REMARK 927      BINDING AFFINITY PREDICTED BY RF-SCORE:    0.00 PKD
ROOT
HETATM    1  O   UNL     1     -10.328   4.915  72.243  1.00  0.00    -0.196 OA 
HETATM    2  C   UNL     1      -9.621   5.985  71.835  1.00  0.00    -0.150 C  
HETATM    3  O   UNL     1      -8.819   6.617  72.492  1.00  0.00    -0.129 OA 
HETATM    4  C   UNL     1      -9.940   6.325  70.374  1.00  0.00    -0.178 C  
HETATM    5  O   UNL     1     -10.808   5.644  69.838  1.00  0.00    -0.331 OA 
HETATM    6  N   UNL     1      -9.162   7.336  69.836  1.00  0.00    -0.142 N  
HETATM    7  H   UNL     1      -8.465   7.759  70.448  1.00  0.00     0.000 HD 
ENDROOT
BRANCH   6   8
HETATM    8  C   UNL     1      -9.243   7.838  68.510  1.00  0.00    -0.137 A  
HETATM    9  C   UNL     1      -8.578   7.191  67.463  1.00  0.00    -0.122 A  
HETATM   10  C   UNL     1      -8.616   7.703  66.169  1.00  0.00    -0.160 A  
HETATM   11  C   UNL     1      -7.907   7.042  65.121  1.00  0.00    -0.124 C  
HETATM   12  C   UNL     1      -9.334   8.866  65.897  1.00  0.00    -0.301 A  
HETATM   13  C   UNL     1     -10.054   9.523  66.901  1.00  0.00    -0.230 A  
HETATM   14  N   UNL     1      -7.333   6.507  64.267  1.00  0.00    -0.066 NA 
HETATM   15  C   UNL     1     -10.001   9.000  68.217  1.00  0.00    -0.173 A  
HETATM   16 CL   UNL     1     -10.876   9.793  69.490  1.00  0.00    -0.251 Cl 
BRANCH  13  17
HETATM   17  N   UNL     1     -10.781  10.708  66.607  1.00  0.00    -0.217 N  
HETATM   18  C   UNL     1     -10.389  12.001  66.916  1.00  0.00    -0.213 C  
HETATM   19  H   UNL     1     -11.673  10.597  66.125  1.00  0.00     0.000 HD 
HETATM   20  O   UNL     1      -9.332  12.394  67.397  1.00  0.00    -0.173 OA 
HETATM   21  C   UNL     1     -11.420  13.086  66.580  1.00  0.00    -0.340 C  
HETATM   22  O   UNL     1     -10.937  14.311  66.874  1.00  0.00    -0.294 OA 
HETATM   23  O   UNL     1     -12.513  12.832  66.115  1.00  0.00    -0.512 OA 
ENDBRANCH  13  17
ENDBRANCH   6   8
TORSDOF 2
ENDMDL
MODEL      124
REMARK 921   NORMALIZED FREE ENERGY PREDICTED BY IDOCK:   -3.93 KCAL/MOL
REMARK 922        TOTAL FREE ENERGY PREDICTED BY IDOCK:   -4.92 KCAL/MOL
REMARK 923 INTER-LIGAND FREE ENERGY PREDICTED BY IDOCK:   -4.74 KCAL/MOL
REMARK 924 INTRA-LIGAND FREE ENERGY PREDICTED BY IDOCK:   -0.18 KCAL/MOL
REMARK 927      BINDING AFFINITY PREDICTED BY RF-SCORE:    0.00 PKD
ROOT
HETATM    1  O   UNL     1      -6.935   4.477  64.490  1.00  0.00    -0.048 OA 
HETATM    2  C   UNL     1      -8.202   4.904  64.640  1.00  0.00    -0.124 C  
HETATM    3  O   UNL     1      -9.204   4.358  64.225  1.00  0.00    -0.153 OA 
HETATM    4  C   UNL     1      -8.248   6.208  65.446  1.00  0.00    -0.145 C  
HETATM    5  O   UNL     1      -7.163   6.686  65.761  1.00  0.00    -0.067 OA 
HETATM    6  N   UNL     1      -9.524   6.649  65.755  1.00  0.00    -0.377 N  
HETATM    7  H   UNL     1     -10.303   6.082  65.420  1.00  0.00     0.000 HD 
ENDROOT
BRANCH   6   8
HETATM    8  C   UNL     1      -9.848   7.816  66.495  1.00  0.00    -0.185 A  
HETATM    9  C   UNL     1      -9.656   9.086  65.939  1.00  0.00    -0.317 A  
HETATM   10  C   UNL     1      -9.929  10.236  66.676  1.00  0.00    -0.270 A  
HETATM   11  C   UNL     1      -9.700  11.522  66.099  1.00  0.00    -0.223 C  
HETATM   12  C   UNL     1     -10.415  10.135  67.977  1.00  0.00    -0.249 A  
HETATM   13  C   UNL     1     -10.668   8.887  68.560  1.00  0.00    -0.078 A  
HETATM   14  N   UNL     1      -9.515  12.567  65.633  1.00  0.00    -0.084 NA 
HETATM   15  C   UNL     1     -10.377   7.722  67.807  1.00  0.00    -0.221 A  
HETATM   16 CL   UNL     1     -10.672   6.158  68.501  1.00  0.00    -0.322 Cl 
BRANCH  13  17
HETATM   17  N   UNL     1     -11.163   8.801  69.890  1.00  0.00    -0.433 N  
HETATM   18  C   UNL     1     -12.066   9.670  70.479  1.00  0.00    -0.129 C  
HETATM   19  H   UNL     1     -10.823   8.028  70.461  1.00  0.00     0.000 HD 
HETATM   20  O   UNL     1     -12.685  10.602  69.975  1.00  0.00    -0.278 OA 
HETATM   21  C   UNL     1     -12.345   9.404  71.965  1.00  0.00    -0.345 C  
HETATM   22  O   UNL     1     -13.263  10.269  72.441  1.00  0.00    -0.323 OA 
HETATM   23  O   UNL     1     -11.787   8.523  72.588  1.00  0.00    -0.369 OA 
ENDBRANCH  13  17
ENDBRANCH   6   8
TORSDOF 2
ENDMDL
MODEL      125
REMARK 921   NORMALIZED FREE ENERGY PREDICTED BY IDOCK:   -3.87 KCAL/MOL
REMARK 922        TOTAL FREE ENERGY PREDICTED BY IDOCK:   -4.85 KCAL/MOL
REMARK 923 INTER-LIGAND FREE ENERGY PREDICTED BY IDOCK:   -4.66 KCAL/MOL
REMARK 924 INTRA-LIGAND FREE ENERGY PREDICTED BY IDOCK:   -0.19 KCAL/MOL
REMARK 927      BINDING AFFINITY PREDICTED BY RF-SCORE:    0.00 PKD
ROOT
HETATM    1  O   UNL     1      -8.212   9.791  63.004  1.00  0.00    -0.134 OA 
HETATM    2  C   UNL     1      -7.791   9.502  64.249  1.00  0.00    -0.129 C  
HETATM    3  O   UNL     1      -6.680   9.134  64.570  1.00  0.00    -0.078 OA 
HETATM    4  C   UNL     1      -8.916   9.716  65.269  1.00  0.00    -0.204 C  
HETATM    5  O   UNL     1     -10.007  10.037  64.811  1.00  0.00    -0.321 OA 
HETATM    6  N   UNL     1      -8.530   9.563  66.590  1.00  0.00    -0.132 N  
HETATM    7  H   UNL     1      -7.555   9.320  66.763  1.00  0.00     0.000 HD 
ENDROOT
BRANCH   6   8
HETATM    8  C   UNL     1      -9.367   9.713  67.728  1.00  0.00    -0.127 A  
HETATM    9  C   UNL     1      -9.876   8.589  68.388  1.00  0.00    -0.189 A  
HETATM   10  C   UNL     1     -10.733   8.729  69.476  1.00  0.00    -0.196 A  
HETATM   11  C   UNL     1     -11.264   7.569  70.118  1.00  0.00    -0.196 C  
HETATM   12  C   UNL     1     -11.085   9.997  69.933  1.00  0.00    -0.336 A  
HETATM   13  C   UNL     1     -10.564  11.151  69.335  1.00  0.00    -0.134 A  
HETATM   14  N   UNL     1     -11.695   6.629  70.642  1.00  0.00    -0.383 NA 
HETATM   15  C   UNL     1      -9.700  10.999  68.221  1.00  0.00    -0.177 A  
HETATM   16 CL   UNL     1      -9.041  12.409  67.451  1.00  0.00    -0.176 Cl 
BRANCH  13  17
HETATM   17  N   UNL     1     -10.932  12.438  69.812  1.00  0.00    -0.422 N  
HETATM   18  C   UNL     1     -11.598  13.414  69.089  1.00  0.00    -0.315 C  
HETATM   19  H   UNL     1     -10.683  12.663  70.775  1.00  0.00     0.000 HD 
HETATM   20  O   UNL     1     -12.083  13.348  67.965  1.00  0.00    -0.342 OA 
HETATM   21  C   UNL     1     -11.771  14.753  69.818  1.00  0.00    -0.310 C  
HETATM   22  O   UNL     1     -12.464  15.624  69.056  1.00  0.00    -0.088 OA 
HETATM   23  O   UNL     1     -11.325  14.958  70.929  1.00  0.00    -0.273 OA 
ENDBRANCH  13  17
ENDBRANCH   6   8
TORSDOF 2
ENDMDL
MODEL      126
REMARK 921   NORMALIZED FREE ENERGY PREDICTED BY IDOCK:   -3.81 KCAL/MOL
REMARK 922        TOTAL FREE ENERGY PREDICTED BY IDOCK:   -4.79 KCAL/MOL
REMARK 923 INTER-LIGAND FREE ENERGY PREDICTED BY IDOCK:   -4.35 KCAL/MOL
REMARK 924 INTRA-LIGAND FREE ENERGY PREDICTED BY IDOCK:   -0.44 KCAL/MOL
REMARK 927      BINDING AFFINITY PREDICTED BY RF-SCORE:    0.00 PKD
ROOT
HETATM    1  O   UNL     1      -9.680  10.356  62.722  1.00  0.00    -0.312 OA 
HETATM    2  C   UNL     1     -10.125  10.724  63.938  1.00  0.00    -0.333 C  
HETATM    3  O   UNL     1     -11.040  11.485  64.175  1.00  0.00    -0.356 OA 
HETATM    4  C   UNL     1      -9.325  10.027  65.046  1.00  0.00    -0.256 C  
HETATM    5  O   UNL     1      -8.391   9.323  64.676  1.00  0.00    -0.142 OA 
HETATM    6  N   UNL     1      -9.800  10.251  66.327  1.00  0.00    -0.208 N  
HETATM    7  H   UNL     1     -10.620  10.852  66.418  1.00  0.00     0.000 HD 
ENDROOT
BRANCH   6   8
HETATM    8  C   UNL     1      -9.254   9.722  67.526  1.00  0.00    -0.130 A  
HETATM    9  C   UNL     1      -8.326  10.459  68.269  1.00  0.00    -0.119 A  
HETATM   10  C   UNL     1      -7.751   9.928  69.421  1.00  0.00    -0.119 A  
HETATM   11  C   UNL     1      -6.785  10.686  70.150  1.00  0.00    -0.140 C  
HETATM   12  C   UNL     1      -8.109   8.654  69.859  1.00  0.00    -0.111 A  
HETATM   13  C   UNL     1      -9.068   7.898  69.175  1.00  0.00    -0.145 A  
HETATM   14  N   UNL     1      -6.001  11.300  70.743  1.00  0.00    -0.351 NA 
HETATM   15  C   UNL     1      -9.639   8.442  67.998  1.00  0.00    -0.149 A  
HETATM   16 CL   UNL     1     -10.827   7.528  67.121  1.00  0.00    -0.370 Cl 
BRANCH  13  17
HETATM   17  N   UNL     1      -9.421   6.599  69.634  1.00  0.00    -0.143 N  
HETATM   18  C   UNL     1      -9.972   6.295  70.868  1.00  0.00    -0.186 C  
HETATM   19  H   UNL     1      -9.254   5.821  68.997  1.00  0.00     0.000 HD 
HETATM   20  O   UNL     1     -10.353   7.053  71.753  1.00  0.00    -0.198 OA 
HETATM   21  C   UNL     1     -10.153   4.796  71.143  1.00  0.00    -0.191 C  
HETATM   22  O   UNL     1     -10.733   4.598  72.345  1.00  0.00    -0.190 OA 
HETATM   23  O   UNL     1      -9.804   3.938  70.357  1.00  0.00    -0.196 OA 
ENDBRANCH  13  17
ENDBRANCH   6   8
TORSDOF 2
ENDMDL
MODEL      127
REMARK 921   NORMALIZED FREE ENERGY PREDICTED BY IDOCK:   -3.80 KCAL/MOL
REMARK 922        TOTAL FREE ENERGY PREDICTED BY IDOCK:   -4.77 KCAL/MOL
REMARK 923 INTER-LIGAND FREE ENERGY PREDICTED BY IDOCK:   -4.23 KCAL/MOL
REMARK 924 INTRA-LIGAND FREE ENERGY PREDICTED BY IDOCK:   -0.54 KCAL/MOL
REMARK 927      BINDING AFFINITY PREDICTED BY RF-SCORE:    0.00 PKD
ROOT
HETATM    1  O   UNL     1     -14.403   9.007  72.514  1.00  0.00    -0.570 OA 
HETATM    2  C   UNL     1     -13.296   9.693  72.173  1.00  0.00    -0.454 C  
HETATM    3  O   UNL     1     -13.199  10.897  72.053  1.00  0.00    -0.492 OA 
HETATM    4  C   UNL     1     -12.109   8.745  71.961  1.00  0.00    -0.377 C  
HETATM    5  O   UNL     1     -12.351   7.547  72.060  1.00  0.00    -0.298 OA 
HETATM    6  N   UNL     1     -10.900   9.380  71.732  1.00  0.00    -0.296 N  
HETATM    7  H   UNL     1     -10.908  10.400  71.718  1.00  0.00     0.000 HD 
ENDROOT
BRANCH   6   8
HETATM    8  C   UNL     1      -9.650   8.744  71.514  1.00  0.00    -0.284 A  
HETATM    9  C   UNL     1      -8.826   8.408  72.593  1.00  0.00    -0.288 A  
HETATM   10  C   UNL     1      -7.578   7.826  72.384  1.00  0.00    -0.104 A  
HETATM   11  C   UNL     1      -6.742   7.516  73.499  1.00  0.00    -0.074 C  
HETATM   12  C   UNL     1      -7.140   7.554  71.090  1.00  0.00    -0.058 A  
HETATM   13  C   UNL     1      -7.948   7.829  69.981  1.00  0.00    -0.113 A  
HETATM   14  N   UNL     1      -6.061   7.262  74.402  1.00  0.00    -0.080 NA 
HETATM   15  C   UNL     1      -9.211   8.432  70.202  1.00  0.00    -0.159 A  
HETATM   16 CL   UNL     1     -10.237   8.793  68.848  1.00  0.00    -0.214 Cl 
BRANCH  13  17
HETATM   17  N   UNL     1      -7.486   7.548  68.666  1.00  0.00    -0.099 N  
HETATM   18  C   UNL     1      -6.698   8.377  67.885  1.00  0.00    -0.066 C  
HETATM   19  H   UNL     1      -7.759   6.653  68.261  1.00  0.00     0.000 HD 
HETATM   20  O   UNL     1      -6.167   9.442  68.181  1.00  0.00    -0.052 OA 
HETATM   21  C   UNL     1      -6.437   7.869  66.461  1.00  0.00    -0.051 C  
HETATM   22  O   UNL     1      -5.630   8.718  65.792  1.00  0.00    -0.047 OA 
HETATM   23  O   UNL     1      -6.916   6.838  66.035  1.00  0.00    -0.061 OA 
ENDBRANCH  13  17
ENDBRANCH   6   8
TORSDOF 2
ENDMDL
MODEL      128
REMARK 921   NORMALIZED FREE ENERGY PREDICTED BY IDOCK:   -3.77 KCAL/MOL
REMARK 922        TOTAL FREE ENERGY PREDICTED BY IDOCK:   -4.74 KCAL/MOL
REMARK 923 INTER-LIGAND FREE ENERGY PREDICTED BY IDOCK:   -4.40 KCAL/MOL
REMARK 924 INTRA-LIGAND FREE ENERGY PREDICTED BY IDOCK:   -0.34 KCAL/MOL
REMARK 927      BINDING AFFINITY PREDICTED BY RF-SCORE:    0.00 PKD
ROOT
HETATM    1  O   UNL     1      -6.329  16.508  69.489  1.00  0.00    -0.196 OA 
HETATM    2  C   UNL     1      -6.846  15.277  69.658  1.00  0.00    -0.187 C  
HETATM    3  O   UNL     1      -6.823  14.615  70.675  1.00  0.00     0.037 OA 
HETATM    4  C   UNL     1      -7.518  14.786  68.370  1.00  0.00    -0.114 C  
HETATM    5  O   UNL     1      -7.426  15.527  67.396  1.00  0.00    -0.167 OA 
HETATM    6  N   UNL     1      -8.187  13.580  68.494  1.00  0.00    -0.253 N  
HETATM    7  H   UNL     1      -8.168  13.133  69.410  1.00  0.00     0.000 HD 
ENDROOT
BRANCH   6   8
HETATM    8  C   UNL     1      -8.897  12.908  67.464  1.00  0.00    -0.192 A  
HETATM    9  C   UNL     1     -10.095  13.433  66.968  1.00  0.00    -0.247 A  
HETATM   10  C   UNL     1     -10.821  12.756  65.991  1.00  0.00    -0.301 A  
HETATM   11  C   UNL     1     -12.055  13.296  65.518  1.00  0.00    -0.435 C  
HETATM   12  C   UNL     1     -10.351  11.547  65.482  1.00  0.00    -0.322 A  
HETATM   13  C   UNL     1      -9.135  11.005  65.913  1.00  0.00    -0.197 A  
HETATM   14  N   UNL     1     -13.057  13.733  65.132  1.00  0.00    -0.751 NA 
HETATM   15  C   UNL     1      -8.409  11.695  66.915  1.00  0.00    -0.169 A  
HETATM   16 CL   UNL     1      -6.899  11.048  67.478  1.00  0.00    -0.081 Cl 
BRANCH  13  17
HETATM   17  N   UNL     1      -8.669   9.770  65.384  1.00  0.00    -0.145 N  
HETATM   18  C   UNL     1      -8.491   9.475  64.042  1.00  0.00    -0.185 C  
HETATM   19  H   UNL     1      -8.446   9.035  66.054  1.00  0.00     0.000 HD 
HETATM   20  O   UNL     1      -8.595  10.213  63.068  1.00  0.00    -0.158 OA 
HETATM   21  C   UNL     1      -8.081   8.027  63.747  1.00  0.00    -0.096 C  
HETATM   22  O   UNL     1      -7.891   7.844  62.425  1.00  0.00    -0.123 OA 
HETATM   23  O   UNL     1      -7.959   7.189  64.619  1.00  0.00    -0.122 OA 
ENDBRANCH  13  17
ENDBRANCH   6   8
TORSDOF 2
ENDMDL
MODEL      129
REMARK 921   NORMALIZED FREE ENERGY PREDICTED BY IDOCK:   -3.77 KCAL/MOL
REMARK 922        TOTAL FREE ENERGY PREDICTED BY IDOCK:   -4.74 KCAL/MOL
REMARK 923 INTER-LIGAND FREE ENERGY PREDICTED BY IDOCK:   -4.37 KCAL/MOL
REMARK 924 INTRA-LIGAND FREE ENERGY PREDICTED BY IDOCK:   -0.37 KCAL/MOL
REMARK 927      BINDING AFFINITY PREDICTED BY RF-SCORE:    0.00 PKD
ROOT
HETATM    1  O   UNL     1      -6.912  12.010  68.475  1.00  0.00    -0.077 OA 
HETATM    2  C   UNL     1      -8.209  11.718  68.266  1.00  0.00    -0.157 C  
HETATM    3  O   UNL     1      -8.925  12.178  67.401  1.00  0.00    -0.167 OA 
HETATM    4  C   UNL     1      -8.703  10.675  69.276  1.00  0.00    -0.077 C  
HETATM    5  O   UNL     1      -7.897  10.329  70.134  1.00  0.00    -0.137 OA 
HETATM    6  N   UNL     1      -9.993  10.223  69.052  1.00  0.00    -0.202 N  
HETATM    7  H   UNL     1     -10.490  10.621  68.256  1.00  0.00     0.000 HD 
ENDROOT
BRANCH   6   8
HETATM    8  C   UNL     1     -10.687   9.257  69.828  1.00  0.00    -0.231 A  
HETATM    9  C   UNL     1     -11.764   9.636  70.636  1.00  0.00    -0.353 A  
HETATM   10  C   UNL     1     -12.420   8.703  71.434  1.00  0.00    -0.337 A  
HETATM   11  C   UNL     1     -13.500   9.116  72.272  1.00  0.00    -0.486 C  
HETATM   12  C   UNL     1     -12.019   7.369  71.426  1.00  0.00    -0.340 A  
HETATM   13  C   UNL     1     -10.977   6.933  70.600  1.00  0.00    -0.264 A  
HETATM   14  N   UNL     1     -14.378   9.449  72.953  1.00  0.00    -0.228 NA 
HETATM   15  C   UNL     1     -10.308   7.891  69.799  1.00  0.00    -0.219 A  
HETATM   16 CL   UNL     1      -9.006   7.387  68.766  1.00  0.00    -0.130 Cl 
BRANCH  13  17
HETATM   17  N   UNL     1     -10.578   5.568  70.603  1.00  0.00    -0.269 N  
HETATM   18  C   UNL     1      -9.917   4.916  71.631  1.00  0.00    -0.190 C  
HETATM   19  H   UNL     1     -10.800   5.019  69.773  1.00  0.00     0.000 HD 
HETATM   20  O   UNL     1      -9.633   5.328  72.751  1.00  0.00    -0.148 OA 
HETATM   21  C   UNL     1      -9.510   3.469  71.323  1.00  0.00    -0.159 C  
HETATM   22  O   UNL     1      -8.912   2.904  72.392  1.00  0.00    -0.080 OA 
HETATM   23  O   UNL     1      -9.717   2.945  70.247  1.00  0.00    -0.118 OA 
ENDBRANCH  13  17
ENDBRANCH   6   8
TORSDOF 2
ENDMDL
MODEL      130
REMARK 921   NORMALIZED FREE ENERGY PREDICTED BY IDOCK:   -3.75 KCAL/MOL
REMARK 922        TOTAL FREE ENERGY PREDICTED BY IDOCK:   -4.72 KCAL/MOL
REMARK 923 INTER-LIGAND FREE ENERGY PREDICTED BY IDOCK:   -4.46 KCAL/MOL
REMARK 924 INTRA-LIGAND FREE ENERGY PREDICTED BY IDOCK:   -0.27 KCAL/MOL
REMARK 927      BINDING AFFINITY PREDICTED BY RF-SCORE:    0.00 PKD
ROOT
HETATM    1  O   UNL     1      -8.855   8.797  64.566  1.00  0.00    -0.111 OA 
HETATM    2  C   UNL     1      -9.487   9.566  65.472  1.00  0.00    -0.268 C  
HETATM    3  O   UNL     1     -10.489   9.279  66.095  1.00  0.00    -0.150 OA 
HETATM    4  C   UNL     1      -8.757  10.903  65.657  1.00  0.00    -0.183 C  
HETATM    5  O   UNL     1      -7.788  11.094  64.930  1.00  0.00     0.302 OA 
HETATM    6  N   UNL     1      -9.269  11.703  66.665  1.00  0.00    -0.185 N  
HETATM    7  H   UNL     1     -10.072  11.342  67.180  1.00  0.00     0.000 HD 
ENDROOT
BRANCH   6   8
HETATM    8  C   UNL     1      -8.779  12.979  67.050  1.00  0.00    -0.193 A  
HETATM    9  C   UNL     1      -7.704  13.089  67.938  1.00  0.00    -0.145 A  
HETATM   10  C   UNL     1      -7.248  14.337  68.355  1.00  0.00    -0.113 A  
HETATM   11  C   UNL     1      -6.168  14.426  69.284  1.00  0.00    -0.110 C  
HETATM   12  C   UNL     1      -7.851  15.498  67.878  1.00  0.00    -0.142 A  
HETATM   13  C   UNL     1      -8.899  15.440  66.951  1.00  0.00    -0.253 A  
HETATM   14  N   UNL     1      -5.290  14.501  70.038  1.00  0.00    -0.095 NA 
HETATM   15  C   UNL     1      -9.364  14.166  66.541  1.00  0.00    -0.265 A  
HETATM   16 CL   UNL     1     -10.666  14.056  65.398  1.00  0.00    -0.322 Cl 
BRANCH  13  17
HETATM   17  N   UNL     1      -9.504  16.635  66.474  1.00  0.00    -0.251 N  
HETATM   18  C   UNL     1      -9.911  17.708  67.250  1.00  0.00    -0.303 C  
HETATM   19  H   UNL     1      -9.653  16.708  65.468  1.00  0.00     0.000 HD 
HETATM   20  O   UNL     1      -9.752  17.897  68.451  1.00  0.00    -0.306 OA 
HETATM   21  C   UNL     1     -10.635  18.822  66.484  1.00  0.00    -0.374 C  
HETATM   22  O   UNL     1     -10.955  19.839  67.310  1.00  0.00    -0.414 OA 
HETATM   23  O   UNL     1     -10.871  18.754  65.294  1.00  0.00    -0.576 OA 
ENDBRANCH  13  17
ENDBRANCH   6   8
TORSDOF 2
ENDMDL
MODEL      131
REMARK 921   NORMALIZED FREE ENERGY PREDICTED BY IDOCK:   -3.74 KCAL/MOL
REMARK 922        TOTAL FREE ENERGY PREDICTED BY IDOCK:   -4.70 KCAL/MOL
REMARK 923 INTER-LIGAND FREE ENERGY PREDICTED BY IDOCK:   -4.67 KCAL/MOL
REMARK 924 INTRA-LIGAND FREE ENERGY PREDICTED BY IDOCK:   -0.03 KCAL/MOL
REMARK 927      BINDING AFFINITY PREDICTED BY RF-SCORE:    0.00 PKD
ROOT
HETATM    1  O   UNL     1      -7.240   3.957  65.113  1.00  0.00    -0.065 OA 
HETATM    2  C   UNL     1      -7.699   5.221  65.053  1.00  0.00    -0.086 C  
HETATM    3  O   UNL     1      -7.921   5.865  64.048  1.00  0.00    -0.114 OA 
HETATM    4  C   UNL     1      -7.941   5.781  66.460  1.00  0.00    -0.102 C  
HETATM    5  O   UNL     1      -7.626   5.050  67.394  1.00  0.00    -0.088 OA 
HETATM    6  N   UNL     1      -8.534   7.032  66.487  1.00  0.00    -0.120 N  
HETATM    7  H   UNL     1      -8.747   7.463  65.588  1.00  0.00     0.000 HD 
ENDROOT
BRANCH   6   8
HETATM    8  C   UNL     1      -8.875   7.771  67.651  1.00  0.00    -0.128 A  
HETATM    9  C   UNL     1      -7.976   8.695  68.194  1.00  0.00    -0.107 A  
HETATM   10  C   UNL     1      -8.284   9.390  69.360  1.00  0.00    -0.119 A  
HETATM   11  C   UNL     1      -7.341  10.309  69.912  1.00  0.00    -0.160 C  
HETATM   12  C   UNL     1      -9.506   9.183  69.997  1.00  0.00    -0.218 A  
HETATM   13  C   UNL     1     -10.457   8.303  69.467  1.00  0.00    -0.227 A  
HETATM   14  N   UNL     1      -6.577  11.056  70.362  1.00  0.00    -0.272 NA 
HETATM   15  C   UNL     1     -10.130   7.592  68.285  1.00  0.00    -0.186 A  
HETATM   16 CL   UNL     1     -11.284   6.488  67.603  1.00  0.00    -0.368 Cl 
BRANCH  13  17
HETATM   17  N   UNL     1     -11.699   8.102  70.128  1.00  0.00    -0.458 N  
HETATM   18  C   UNL     1     -12.205   8.873  71.161  1.00  0.00    -0.255 C  
HETATM   19  H   UNL     1     -12.270   7.318  69.813  1.00  0.00     0.000 HD 
HETATM   20  O   UNL     1     -11.760   9.911  71.641  1.00  0.00    -0.372 OA 
HETATM   21  C   UNL     1     -13.521   8.364  71.764  1.00  0.00    -0.364 C  
HETATM   22  O   UNL     1     -13.957   9.198  72.730  1.00  0.00    -0.450 OA 
HETATM   23  O   UNL     1     -14.060   7.341  71.393  1.00  0.00    -0.413 OA 
ENDBRANCH  13  17
ENDBRANCH   6   8
TORSDOF 2
ENDMDL
MODEL      132
REMARK 921   NORMALIZED FREE ENERGY PREDICTED BY IDOCK:   -3.72 KCAL/MOL
REMARK 922        TOTAL FREE ENERGY PREDICTED BY IDOCK:   -4.68 KCAL/MOL
REMARK 923 INTER-LIGAND FREE ENERGY PREDICTED BY IDOCK:   -4.25 KCAL/MOL
REMARK 924 INTRA-LIGAND FREE ENERGY PREDICTED BY IDOCK:   -0.43 KCAL/MOL
REMARK 927      BINDING AFFINITY PREDICTED BY RF-SCORE:    0.00 PKD
ROOT
HETATM    1  O   UNL     1      -5.613  11.796  71.269  1.00  0.00    -0.368 OA 
HETATM    2  C   UNL     1      -5.872  12.214  70.017  1.00  0.00    -0.152 C  
HETATM    3  O   UNL     1      -5.292  13.093  69.412  1.00  0.00    -0.074 OA 
HETATM    4  C   UNL     1      -7.021  11.408  69.399  1.00  0.00    -0.092 C  
HETATM    5  O   UNL     1      -7.559  10.585  70.132  1.00  0.00    -0.129 OA 
HETATM    6  N   UNL     1      -7.268  11.688  68.065  1.00  0.00    -0.078 N  
HETATM    7  H   UNL     1      -6.680  12.395  67.624  1.00  0.00     0.000 HD 
ENDROOT
BRANCH   6   8
HETATM    8  C   UNL     1      -8.263  11.082  67.254  1.00  0.00    -0.125 A  
HETATM    9  C   UNL     1      -9.381  11.813  66.836  1.00  0.00    -0.197 A  
HETATM   10  C   UNL     1     -10.383  11.213  66.079  1.00  0.00    -0.308 A  
HETATM   11  C   UNL     1     -11.529  11.969  65.686  1.00  0.00    -0.316 C  
HETATM   12  C   UNL     1     -10.278   9.873  65.713  1.00  0.00    -0.251 A  
HETATM   13  C   UNL     1      -9.156   9.113  66.067  1.00  0.00    -0.197 A  
HETATM   14  N   UNL     1     -12.460  12.582  65.366  1.00  0.00    -0.647 NA 
HETATM   15  C   UNL     1      -8.146   9.729  66.847  1.00  0.00    -0.113 A  
HETATM   16 CL   UNL     1      -6.744   8.815  67.309  1.00  0.00    -0.062 Cl 
BRANCH  13  17
HETATM   17  N   UNL     1      -9.063   7.747  65.686  1.00  0.00    -0.388 N  
HETATM   18  C   UNL     1      -9.565   6.668  66.396  1.00  0.00    -0.096 C  
HETATM   19  H   UNL     1      -8.584   7.542  64.810  1.00  0.00     0.000 HD 
HETATM   20  O   UNL     1     -10.255   6.664  67.410  1.00  0.00    -0.152 OA 
HETATM   21  C   UNL     1      -9.226   5.292  65.808  1.00  0.00    -0.151 C  
HETATM   22  O   UNL     1      -9.789   4.309  66.539  1.00  0.00    -0.207 OA 
HETATM   23  O   UNL     1      -8.538   5.155  64.817  1.00  0.00    -0.146 OA 
ENDBRANCH  13  17
ENDBRANCH   6   8
TORSDOF 2
ENDMDL
MODEL      133
REMARK 921   NORMALIZED FREE ENERGY PREDICTED BY IDOCK:   -3.71 KCAL/MOL
REMARK 922        TOTAL FREE ENERGY PREDICTED BY IDOCK:   -4.67 KCAL/MOL
REMARK 923 INTER-LIGAND FREE ENERGY PREDICTED BY IDOCK:   -4.73 KCAL/MOL
REMARK 924 INTRA-LIGAND FREE ENERGY PREDICTED BY IDOCK:    0.06 KCAL/MOL
REMARK 927      BINDING AFFINITY PREDICTED BY RF-SCORE:    0.00 PKD
ROOT
HETATM    1  O   UNL     1     -12.131   6.129  71.842  1.00  0.00    -0.304 OA 
HETATM    2  C   UNL     1     -11.616   7.349  72.082  1.00  0.00    -0.293 C  
HETATM    3  O   UNL     1     -11.502   7.887  73.165  1.00  0.00    -0.323 OA 
HETATM    4  C   UNL     1     -11.148   8.010  70.780  1.00  0.00    -0.259 C  
HETATM    5  O   UNL     1     -11.369   7.386  69.748  1.00  0.00    -0.154 OA 
HETATM    6  N   UNL     1     -10.489   9.216  70.952  1.00  0.00    -0.253 N  
HETATM    7  H   UNL     1     -10.381   9.552  71.909  1.00  0.00     0.000 HD 
ENDROOT
BRANCH   6   8
HETATM    8  C   UNL     1      -9.949  10.028  69.920  1.00  0.00    -0.237 A  
HETATM    9  C   UNL     1      -8.564  10.154  69.766  1.00  0.00    -0.148 A  
HETATM   10  C   UNL     1      -8.027  10.984  68.786  1.00  0.00    -0.144 A  
HETATM   11  C   UNL     1      -6.611  11.118  68.664  1.00  0.00    -0.059 C  
HETATM   12  C   UNL     1      -8.868  11.693  67.931  1.00  0.00    -0.155 A  
HETATM   13  C   UNL     1     -10.260  11.564  68.016  1.00  0.00    -0.191 A  
HETATM   14  N   UNL     1      -5.461  11.229  68.562  1.00  0.00    -0.043 NA 
HETATM   15  C   UNL     1     -10.797  10.725  69.023  1.00  0.00    -0.235 A  
HETATM   16 CL   UNL     1     -12.519  10.547  69.161  1.00  0.00     0.161 Cl 
BRANCH  13  17
HETATM   17  N   UNL     1     -11.105  12.295  67.136  1.00  0.00    -0.262 N  
HETATM   18  C   UNL     1     -10.792  13.493  66.516  1.00  0.00    -0.282 C  
HETATM   19  H   UNL     1     -12.025  11.901  66.945  1.00  0.00     0.000 HD 
HETATM   20  O   UNL     1      -9.729  14.106  66.509  1.00  0.00    -0.275 OA 
HETATM   21  C   UNL     1     -11.933  14.118  65.704  1.00  0.00    -0.396 C  
HETATM   22  O   UNL     1     -11.525  15.255  65.104  1.00  0.00    -0.333 OA 
HETATM   23  O   UNL     1     -13.040  13.623  65.640  1.00  0.00    -0.549 OA 
ENDBRANCH  13  17
ENDBRANCH   6   8
TORSDOF 2
ENDMDL
MODEL      134
REMARK 921   NORMALIZED FREE ENERGY PREDICTED BY IDOCK:   -3.71 KCAL/MOL
REMARK 922        TOTAL FREE ENERGY PREDICTED BY IDOCK:   -4.67 KCAL/MOL
REMARK 923 INTER-LIGAND FREE ENERGY PREDICTED BY IDOCK:   -4.91 KCAL/MOL
REMARK 924 INTRA-LIGAND FREE ENERGY PREDICTED BY IDOCK:    0.24 KCAL/MOL
REMARK 927      BINDING AFFINITY PREDICTED BY RF-SCORE:    0.00 PKD
ROOT
HETATM    1  O   UNL     1     -10.843  16.154  65.252  1.00  0.00    -0.383 OA 
HETATM    2  C   UNL     1     -11.235  14.895  65.520  1.00  0.00    -0.348 C  
HETATM    3  O   UNL     1     -12.172  14.306  65.021  1.00  0.00    -0.402 OA 
HETATM    4  C   UNL     1     -10.312  14.246  66.559  1.00  0.00    -0.278 C  
HETATM    5  O   UNL     1      -9.434  14.964  67.025  1.00  0.00    -0.214 OA 
HETATM    6  N   UNL     1     -10.568  12.905  66.797  1.00  0.00    -0.256 N  
HETATM    7  H   UNL     1     -11.335  12.481  66.276  1.00  0.00     0.000 HD 
ENDROOT
BRANCH   6   8
HETATM    8  C   UNL     1      -9.861  12.067  67.700  1.00  0.00    -0.189 A  
HETATM    9  C   UNL     1      -8.467  12.132  67.786  1.00  0.00    -0.160 A  
HETATM   10  C   UNL     1      -7.764  11.282  68.635  1.00  0.00    -0.136 A  
HETATM   11  C   UNL     1      -6.338  11.346  68.688  1.00  0.00    -0.053 C  
HETATM   12  C   UNL     1      -8.447  10.360  69.426  1.00  0.00    -0.145 A  
HETATM   13  C   UNL     1      -9.845  10.289  69.408  1.00  0.00    -0.227 A  
HETATM   14  N   UNL     1      -5.181  11.398  68.733  1.00  0.00    -0.043 NA 
HETATM   15  C   UNL     1     -10.551  11.151  68.533  1.00  0.00    -0.191 A  
HETATM   16 CL   UNL     1     -12.285  11.086  68.482  1.00  0.00    -0.086 Cl 
BRANCH  13  17
HETATM   17  N   UNL     1     -10.527   9.342  70.220  1.00  0.00    -0.231 N  
HETATM   18  C   UNL     1     -11.464   9.634  71.198  1.00  0.00    -0.384 C  
HETATM   19  H   UNL     1     -10.308   8.358  70.069  1.00  0.00     0.000 HD 
HETATM   20  O   UNL     1     -11.961  10.716  71.494  1.00  0.00    -0.257 OA 
HETATM   21  C   UNL     1     -11.962   8.424  71.999  1.00  0.00    -0.357 C  
HETATM   22  O   UNL     1     -12.898   8.797  72.895  1.00  0.00    -0.313 OA 
HETATM   23  O   UNL     1     -11.541   7.300  71.818  1.00  0.00    -0.258 OA 
ENDBRANCH  13  17
ENDBRANCH   6   8
TORSDOF 2
ENDMDL
MODEL      135
REMARK 921   NORMALIZED FREE ENERGY PREDICTED BY IDOCK:   -3.67 KCAL/MOL
REMARK 922        TOTAL FREE ENERGY PREDICTED BY IDOCK:   -4.63 KCAL/MOL
REMARK 923 INTER-LIGAND FREE ENERGY PREDICTED BY IDOCK:   -4.20 KCAL/MOL
REMARK 924 INTRA-LIGAND FREE ENERGY PREDICTED BY IDOCK:   -0.43 KCAL/MOL
REMARK 927      BINDING AFFINITY PREDICTED BY RF-SCORE:    0.00 PKD
ROOT
HETATM    1  O   UNL     1      -5.739   8.864  69.010  1.00  0.00    -0.039 OA 
HETATM    2  C   UNL     1      -6.778   9.533  69.543  1.00  0.00    -0.049 C  
HETATM    3  O   UNL     1      -7.252   9.372  70.650  1.00  0.00    -0.106 OA 
HETATM    4  C   UNL     1      -7.312  10.584  68.563  1.00  0.00    -0.088 C  
HETATM    5  O   UNL     1      -6.782  10.610  67.457  1.00  0.00    -0.068 OA 
HETATM    6  N   UNL     1      -8.300  11.404  69.081  1.00  0.00    -0.377 N  
HETATM    7  H   UNL     1      -8.583  11.235  70.046  1.00  0.00     0.000 HD 
ENDROOT
BRANCH   6   8
HETATM    8  C   UNL     1      -8.957  12.459  68.394  1.00  0.00    -0.133 A  
HETATM    9  C   UNL     1     -10.026  12.189  67.534  1.00  0.00    -0.202 A  
HETATM   10  C   UNL     1     -10.645  13.213  66.822  1.00  0.00    -0.267 A  
HETATM   11  C   UNL     1     -11.718  12.912  65.928  1.00  0.00    -0.399 C  
HETATM   12  C   UNL     1     -10.213  14.530  66.970  1.00  0.00    -0.262 A  
HETATM   13  C   UNL     1      -9.178  14.855  67.854  1.00  0.00    -0.183 A  
HETATM   14  N   UNL     1     -12.589  12.671  65.203  1.00  0.00    -0.654 NA 
HETATM   15  C   UNL     1      -8.547  13.805  68.566  1.00  0.00    -0.122 A  
HETATM   16 CL   UNL     1      -7.255  14.172  69.666  1.00  0.00     0.031 Cl 
BRANCH  13  17
HETATM   17  N   UNL     1      -8.748  16.203  67.994  1.00  0.00    -0.174 N  
HETATM   18  C   UNL     1      -7.546  16.725  67.544  1.00  0.00    -0.158 C  
HETATM   19  H   UNL     1      -9.383  16.845  68.468  1.00  0.00     0.000 HD 
HETATM   20  O   UNL     1      -6.674  16.187  66.870  1.00  0.00    -0.222 OA 
HETATM   21  C   UNL     1      -7.293  18.189  67.927  1.00  0.00    -0.225 C  
HETATM   22  O   UNL     1      -6.123  18.621  67.413  1.00  0.00    -0.172 OA 
HETATM   23  O   UNL     1      -8.068  18.832  68.606  1.00  0.00    -0.330 OA 
ENDBRANCH  13  17
ENDBRANCH   6   8
TORSDOF 2
ENDMDL
MODEL      136
REMARK 921   NORMALIZED FREE ENERGY PREDICTED BY IDOCK:   -3.66 KCAL/MOL
REMARK 922        TOTAL FREE ENERGY PREDICTED BY IDOCK:   -4.62 KCAL/MOL
REMARK 923 INTER-LIGAND FREE ENERGY PREDICTED BY IDOCK:   -4.16 KCAL/MOL
REMARK 924 INTRA-LIGAND FREE ENERGY PREDICTED BY IDOCK:   -0.45 KCAL/MOL
REMARK 927      BINDING AFFINITY PREDICTED BY RF-SCORE:    0.00 PKD
ROOT
HETATM    1  O   UNL     1      -5.744  12.781  69.023  1.00  0.00    -0.067 OA 
HETATM    2  C   UNL     1      -6.993  12.475  68.623  1.00  0.00    -0.091 C  
HETATM    3  O   UNL     1      -7.617  13.006  67.727  1.00  0.00    -0.122 OA 
HETATM    4  C   UNL     1      -7.562  11.315  69.449  1.00  0.00     0.050 C  
HETATM    5  O   UNL     1      -6.853  10.903  70.361  1.00  0.00    -0.257 OA 
HETATM    6  N   UNL     1      -8.795  10.854  69.019  1.00  0.00    -0.308 N  
HETATM    7  H   UNL     1      -9.207  11.320  68.212  1.00  0.00     0.000 HD 
ENDROOT
BRANCH   6   8
HETATM    8  C   UNL     1      -9.537   9.790  69.597  1.00  0.00    -0.221 A  
HETATM    9  C   UNL     1     -10.697  10.052  70.333  1.00  0.00    -0.369 A  
HETATM   10  C   UNL     1     -11.405   9.018  70.941  1.00  0.00    -0.351 A  
HETATM   11  C   UNL     1     -12.571   9.310  71.711  1.00  0.00    -0.382 C  
HETATM   12  C   UNL     1     -10.972   7.701  70.809  1.00  0.00    -0.262 A  
HETATM   13  C   UNL     1      -9.844   7.384  70.043  1.00  0.00    -0.179 A  
HETATM   14  N   UNL     1     -13.519   9.545  72.336  1.00  0.00    -0.440 NA 
HETATM   15  C   UNL     1      -9.123   8.443  69.437  1.00  0.00    -0.154 A  
HETATM   16 CL   UNL     1      -7.715   8.088  68.486  1.00  0.00    -0.104 Cl 
BRANCH  13  17
HETATM   17  N   UNL     1      -9.414   6.035  69.919  1.00  0.00    -0.150 N  
HETATM   18  C   UNL     1      -9.780   5.154  68.914  1.00  0.00    -0.156 C  
HETATM   19  H   UNL     1      -8.778   5.683  70.634  1.00  0.00     0.000 HD 
HETATM   20  O   UNL     1     -10.443   5.365  67.904  1.00  0.00    -0.188 OA 
HETATM   21  C   UNL     1      -9.254   3.723  69.086  1.00  0.00    -0.160 C  
HETATM   22  O   UNL     1      -9.623   2.950  68.043  1.00  0.00    -0.195 OA 
HETATM   23  O   UNL     1      -8.599   3.376  70.048  1.00  0.00    -0.057 OA 
ENDBRANCH  13  17
ENDBRANCH   6   8
TORSDOF 2
ENDMDL
MODEL      137
REMARK 921   NORMALIZED FREE ENERGY PREDICTED BY IDOCK:   -3.65 KCAL/MOL
REMARK 922        TOTAL FREE ENERGY PREDICTED BY IDOCK:   -4.61 KCAL/MOL
REMARK 923 INTER-LIGAND FREE ENERGY PREDICTED BY IDOCK:   -4.27 KCAL/MOL
REMARK 924 INTRA-LIGAND FREE ENERGY PREDICTED BY IDOCK:   -0.34 KCAL/MOL
REMARK 927      BINDING AFFINITY PREDICTED BY RF-SCORE:    0.00 PKD
ROOT
HETATM    1  O   UNL     1      -9.675   3.846  65.404  1.00  0.00    -0.173 OA 
HETATM    2  C   UNL     1      -9.397   3.789  66.720  1.00  0.00    -0.190 C  
HETATM    3  O   UNL     1      -9.145   2.791  67.365  1.00  0.00    -0.150 OA 
HETATM    4  C   UNL     1      -9.415   5.190  67.342  1.00  0.00    -0.132 C  
HETATM    5  O   UNL     1      -9.736   6.109  66.596  1.00  0.00    -0.154 OA 
HETATM    6  N   UNL     1      -9.014   5.236  68.667  1.00  0.00    -0.106 N  
HETATM    7  H   UNL     1      -8.754   4.351  69.103  1.00  0.00     0.000 HD 
ENDROOT
BRANCH   6   8
HETATM    8  C   UNL     1      -8.931   6.400  69.476  1.00  0.00    -0.136 A  
HETATM    9  C   UNL     1      -7.686   6.925  69.840  1.00  0.00    -0.109 A  
HETATM   10  C   UNL     1      -7.596   8.039  70.670  1.00  0.00    -0.076 A  
HETATM   11  C   UNL     1      -6.315   8.541  71.051  1.00  0.00    -0.043 C  
HETATM   12  C   UNL     1      -8.753   8.658  71.139  1.00  0.00    -0.244 A  
HETATM   13  C   UNL     1     -10.021   8.198  70.765  1.00  0.00    -0.188 A  
HETATM   14  N   UNL     1      -5.276   8.952  71.362  1.00  0.00    -0.034 NA 
HETATM   15  C   UNL     1     -10.103   7.057  69.928  1.00  0.00    -0.193 A  
HETATM   16 CL   UNL     1     -11.660   6.456  69.449  1.00  0.00    -0.382 Cl 
BRANCH  13  17
HETATM   17  N   UNL     1     -11.192   8.840  71.252  1.00  0.00    -0.264 N  
HETATM   18  C   UNL     1     -11.566  10.151  71.001  1.00  0.00    -0.376 C  
HETATM   19  H   UNL     1     -11.814   8.286  71.840  1.00  0.00     0.000 HD 
HETATM   20  O   UNL     1     -11.045  10.974  70.255  1.00  0.00    -0.208 OA 
HETATM   21  C   UNL     1     -12.824  10.618  71.744  1.00  0.00    -0.444 C  
HETATM   22  O   UNL     1     -13.134  11.886  71.406  1.00  0.00    -0.350 OA 
HETATM   23  O   UNL     1     -13.427   9.908  72.523  1.00  0.00    -0.316 OA 
ENDBRANCH  13  17
ENDBRANCH   6   8
TORSDOF 2
ENDMDL
MODEL      138
REMARK 921   NORMALIZED FREE ENERGY PREDICTED BY IDOCK:   -3.59 KCAL/MOL
REMARK 922        TOTAL FREE ENERGY PREDICTED BY IDOCK:   -4.54 KCAL/MOL
REMARK 923 INTER-LIGAND FREE ENERGY PREDICTED BY IDOCK:   -4.77 KCAL/MOL
REMARK 924 INTRA-LIGAND FREE ENERGY PREDICTED BY IDOCK:    0.23 KCAL/MOL
REMARK 927      BINDING AFFINITY PREDICTED BY RF-SCORE:    0.00 PKD
ROOT
HETATM    1  O   UNL     1      -5.132   9.760  68.401  1.00  0.00    -0.034 OA 
HETATM    2  C   UNL     1      -6.176  10.380  68.981  1.00  0.00    -0.044 C  
HETATM    3  O   UNL     1      -6.621  10.166  70.090  1.00  0.00    -0.095 OA 
HETATM    4  C   UNL     1      -6.758  11.453  68.053  1.00  0.00    -0.059 C  
HETATM    5  O   UNL     1      -6.254  11.534  66.938  1.00  0.00    -0.117 OA 
HETATM    6  N   UNL     1      -7.756  12.226  68.622  1.00  0.00    -0.222 N  
HETATM    7  H   UNL     1      -8.013  12.014  69.586  1.00  0.00     0.000 HD 
ENDROOT
BRANCH   6   8
HETATM    8  C   UNL     1      -8.455  13.288  67.989  1.00  0.00    -0.170 A  
HETATM    9  C   UNL     1      -8.308  14.604  68.441  1.00  0.00    -0.157 A  
HETATM   10  C   UNL     1      -9.025  15.644  67.855  1.00  0.00    -0.180 A  
HETATM   11  C   UNL     1      -8.880  16.975  68.349  1.00  0.00    -0.247 C  
HETATM   12  C   UNL     1      -9.891  15.386  66.795  1.00  0.00    -0.255 A  
HETATM   13  C   UNL     1     -10.037  14.094  66.278  1.00  0.00    -0.300 A  
HETATM   14  N   UNL     1      -8.764  18.058  68.748  1.00  0.00    -0.246 NA 
HETATM   15  C   UNL     1      -9.312  13.040  66.887  1.00  0.00    -0.241 A  
HETATM   16 CL   UNL     1      -9.473  11.423  66.276  1.00  0.00    -0.219 Cl 
BRANCH  13  17
HETATM   17  N   UNL     1     -10.926  13.848  65.196  1.00  0.00    -0.332 N  
HETATM   18  C   UNL     1     -11.982  12.951  65.199  1.00  0.00    -0.414 C  
HETATM   19  H   UNL     1     -10.772  14.379  64.340  1.00  0.00     0.000 HD 
HETATM   20  O   UNL     1     -12.423  12.279  66.125  1.00  0.00    -0.466 OA 
HETATM   21  C   UNL     1     -12.712  12.807  63.857  1.00  0.00    -0.194 C  
HETATM   22  O   UNL     1     -13.746  11.948  63.966  1.00  0.00    -0.274 OA 
HETATM   23  O   UNL     1     -12.367  13.402  62.856  1.00  0.00    -0.510 OA 
ENDBRANCH  13  17
ENDBRANCH   6   8
TORSDOF 2
ENDMDL
MODEL      139
REMARK 921   NORMALIZED FREE ENERGY PREDICTED BY IDOCK:   -3.57 KCAL/MOL
REMARK 922        TOTAL FREE ENERGY PREDICTED BY IDOCK:   -4.52 KCAL/MOL
REMARK 923 INTER-LIGAND FREE ENERGY PREDICTED BY IDOCK:   -4.02 KCAL/MOL
REMARK 924 INTRA-LIGAND FREE ENERGY PREDICTED BY IDOCK:   -0.50 KCAL/MOL
REMARK 927      BINDING AFFINITY PREDICTED BY RF-SCORE:    0.00 PKD
ROOT
HETATM    1  O   UNL     1      -5.407  15.711  70.505  1.00  0.00    -0.148 OA 
HETATM    2  C   UNL     1      -6.028  14.518  70.539  1.00  0.00    -0.178 C  
HETATM    3  O   UNL     1      -6.034  13.730  71.463  1.00  0.00    -0.304 OA 
HETATM    4  C   UNL     1      -6.781  14.257  69.229  1.00  0.00    -0.123 C  
HETATM    5  O   UNL     1      -6.652  15.106  68.354  1.00  0.00    -0.092 OA 
HETATM    6  N   UNL     1      -7.554  13.107  69.229  1.00  0.00    -0.301 N  
HETATM    7  H   UNL     1      -7.547  12.546  70.080  1.00  0.00     0.000 HD 
ENDROOT
BRANCH   6   8
HETATM    8  C   UNL     1      -8.353  12.637  68.154  1.00  0.00    -0.175 A  
HETATM    9  C   UNL     1      -9.551  13.281  67.826  1.00  0.00    -0.214 A  
HETATM   10  C   UNL     1     -10.363  12.798  66.803  1.00  0.00    -0.248 A  
HETATM   11  C   UNL     1     -11.596  13.454  66.502  1.00  0.00    -0.357 C  
HETATM   12  C   UNL     1      -9.982  11.671  66.079  1.00  0.00    -0.260 A  
HETATM   13  C   UNL     1      -8.771  11.020  66.339  1.00  0.00    -0.173 A  
HETATM   14  N   UNL     1     -12.596  13.986  66.256  1.00  0.00    -0.408 NA 
HETATM   15  C   UNL     1      -7.956  11.512  67.389  1.00  0.00    -0.143 A  
HETATM   16 CL   UNL     1      -6.449  10.726  67.744  1.00  0.00    -0.059 Cl 
BRANCH  13  17
HETATM   17  N   UNL     1      -8.396   9.870  65.592  1.00  0.00    -0.132 N  
HETATM   18  C   UNL     1      -8.706   8.558  65.909  1.00  0.00    -0.174 C  
HETATM   19  H   UNL     1      -7.850  10.026  64.745  1.00  0.00     0.000 HD 
HETATM   20  O   UNL     1      -9.423   8.127  66.806  1.00  0.00    -0.170 OA 
HETATM   21  C   UNL     1      -8.080   7.504  64.985  1.00  0.00    -0.127 C  
HETATM   22  O   UNL     1      -8.469   6.264  65.344  1.00  0.00    -0.148 OA 
HETATM   23  O   UNL     1      -7.337   7.794  64.069  1.00  0.00    -0.085 OA 
ENDBRANCH  13  17
ENDBRANCH   6   8
TORSDOF 2
ENDMDL
MODEL      140
REMARK 921   NORMALIZED FREE ENERGY PREDICTED BY IDOCK:   -3.54 KCAL/MOL
REMARK 922        TOTAL FREE ENERGY PREDICTED BY IDOCK:   -4.49 KCAL/MOL
REMARK 923 INTER-LIGAND FREE ENERGY PREDICTED BY IDOCK:   -4.11 KCAL/MOL
REMARK 924 INTRA-LIGAND FREE ENERGY PREDICTED BY IDOCK:   -0.38 KCAL/MOL
REMARK 927      BINDING AFFINITY PREDICTED BY RF-SCORE:    0.00 PKD
ROOT
HETATM    1  O   UNL     1      -8.359   4.270  67.875  1.00  0.00    -0.094 OA 
HETATM    2  C   UNL     1      -7.851   5.496  68.098  1.00  0.00    -0.092 C  
HETATM    3  O   UNL     1      -6.679   5.813  68.058  1.00  0.00    -0.051 OA 
HETATM    4  C   UNL     1      -8.967   6.502  68.404  1.00  0.00    -0.125 C  
HETATM    5  O   UNL     1     -10.103   6.046  68.468  1.00  0.00    -0.139 OA 
HETATM    6  N   UNL     1      -8.541   7.815  68.520  1.00  0.00    -0.128 N  
HETATM    7  H   UNL     1      -7.544   7.991  68.401  1.00  0.00     0.000 HD 
ENDROOT
BRANCH   6   8
HETATM    8  C   UNL     1      -9.365   8.940  68.790  1.00  0.00    -0.137 A  
HETATM    9  C   UNL     1     -10.153   8.983  69.945  1.00  0.00    -0.213 A  
HETATM   10  C   UNL     1     -10.997  10.062  70.193  1.00  0.00    -0.368 A  
HETATM   11  C   UNL     1     -11.813  10.073  71.364  1.00  0.00    -0.363 C  
HETATM   12  C   UNL     1     -11.056  11.126  69.295  1.00  0.00    -0.318 A  
HETATM   13  C   UNL     1     -10.252  11.150  68.150  1.00  0.00    -0.181 A  
HETATM   14  N   UNL     1     -12.476  10.085  72.315  1.00  0.00    -0.102 NA 
HETATM   15  C   UNL     1      -9.404  10.043  67.900  1.00  0.00    -0.140 A  
HETATM   16 CL   UNL     1      -8.398  10.037  66.485  1.00  0.00    -0.125 Cl 
BRANCH  13  17
HETATM   17  N   UNL     1     -10.324  12.243  67.243  1.00  0.00    -0.213 N  
HETATM   18  C   UNL     1      -9.421  13.290  67.158  1.00  0.00    -0.240 C  
HETATM   19  H   UNL     1     -11.112  12.257  66.596  1.00  0.00     0.000 HD 
HETATM   20  O   UNL     1      -8.358  13.444  67.749  1.00  0.00    -0.151 OA 
HETATM   21  C   UNL     1      -9.802  14.393  66.161  1.00  0.00    -0.320 C  
HETATM   22  O   UNL     1      -8.848  15.345  66.116  1.00  0.00    -0.307 OA 
HETATM   23  O   UNL     1     -10.835  14.372  65.523  1.00  0.00    -0.303 OA 
ENDBRANCH  13  17
ENDBRANCH   6   8
TORSDOF 2
ENDMDL
MODEL      141
REMARK 921   NORMALIZED FREE ENERGY PREDICTED BY IDOCK:   -3.44 KCAL/MOL
REMARK 922        TOTAL FREE ENERGY PREDICTED BY IDOCK:   -4.37 KCAL/MOL
REMARK 923 INTER-LIGAND FREE ENERGY PREDICTED BY IDOCK:   -4.00 KCAL/MOL
REMARK 924 INTRA-LIGAND FREE ENERGY PREDICTED BY IDOCK:   -0.36 KCAL/MOL
REMARK 927      BINDING AFFINITY PREDICTED BY RF-SCORE:    0.00 PKD
ROOT
HETATM    1  O   UNL     1     -13.570   9.762  72.023  1.00  0.00    -0.399 OA 
HETATM    2  C   UNL     1     -13.257   8.539  71.555  1.00  0.00    -0.297 C  
HETATM    3  O   UNL     1     -14.007   7.590  71.450  1.00  0.00    -0.400 OA 
HETATM    4  C   UNL     1     -11.786   8.478  71.128  1.00  0.00    -0.281 C  
HETATM    5  O   UNL     1     -11.121   9.488  71.335  1.00  0.00    -0.351 OA 
HETATM    6  N   UNL     1     -11.413   7.293  70.515  1.00  0.00    -0.341 N  
HETATM    7  H   UNL     1     -12.135   6.580  70.411  1.00  0.00     0.000 HD 
ENDROOT
BRANCH   6   8
HETATM    8  C   UNL     1     -10.121   6.979  70.019  1.00  0.00    -0.187 A  
HETATM    9  C   UNL     1      -9.020   6.934  70.881  1.00  0.00    -0.149 A  
HETATM   10  C   UNL     1      -7.742   6.671  70.394  1.00  0.00    -0.097 A  
HETATM   11  C   UNL     1      -6.629   6.657  71.288  1.00  0.00    -0.050 C  
HETATM   12  C   UNL     1      -7.546   6.434  69.036  1.00  0.00    -0.100 A  
HETATM   13  C   UNL     1      -8.622   6.423  68.141  1.00  0.00    -0.117 A  
HETATM   14  N   UNL     1      -5.723   6.643  72.012  1.00  0.00    -0.037 NA 
HETATM   15  C   UNL     1      -9.917   6.702  68.643  1.00  0.00    -0.147 A  
HETATM   16 CL   UNL     1     -11.275   6.702  67.561  1.00  0.00    -0.363 Cl 
BRANCH  13  17
HETATM   17  N   UNL     1      -8.405   6.180  66.757  1.00  0.00    -0.109 N  
HETATM   18  C   UNL     1      -8.727   5.018  66.075  1.00  0.00    -0.127 C  
HETATM   19  H   UNL     1      -7.973   6.929  66.217  1.00  0.00     0.000 HD 
HETATM   20  O   UNL     1      -9.334   4.030  66.474  1.00  0.00    -0.155 OA 
HETATM   21  C   UNL     1      -8.281   4.985  64.607  1.00  0.00    -0.128 C  
HETATM   22  O   UNL     1      -8.673   3.839  64.015  1.00  0.00    -0.097 OA 
HETATM   23  O   UNL     1      -7.658   5.891  64.091  1.00  0.00    -0.072 OA 
ENDBRANCH  13  17
ENDBRANCH   6   8
TORSDOF 2
ENDMDL
MODEL      142
REMARK 921   NORMALIZED FREE ENERGY PREDICTED BY IDOCK:   -3.42 KCAL/MOL
REMARK 922        TOTAL FREE ENERGY PREDICTED BY IDOCK:   -4.35 KCAL/MOL
REMARK 923 INTER-LIGAND FREE ENERGY PREDICTED BY IDOCK:   -4.37 KCAL/MOL
REMARK 924 INTRA-LIGAND FREE ENERGY PREDICTED BY IDOCK:    0.02 KCAL/MOL
REMARK 927      BINDING AFFINITY PREDICTED BY RF-SCORE:    0.00 PKD
ROOT
HETATM    1  O   UNL     1     -13.069  10.769  70.838  1.00  0.00    -0.331 OA 
HETATM    2  C   UNL     1     -12.235  10.795  69.783  1.00  0.00    -0.288 C  
HETATM    3  O   UNL     1     -12.068   9.909  68.968  1.00  0.00     0.313 OA 
HETATM    4  C   UNL     1     -11.495  12.136  69.704  1.00  0.00    -0.238 C  
HETATM    5  O   UNL     1     -11.711  12.926  70.617  1.00  0.00    -0.098 OA 
HETATM    6  N   UNL     1     -10.710  12.295  68.574  1.00  0.00    -0.231 N  
HETATM    7  H   UNL     1     -10.690  11.519  67.912  1.00  0.00     0.000 HD 
ENDROOT
BRANCH   6   8
HETATM    8  C   UNL     1      -9.931  13.437  68.251  1.00  0.00    -0.240 A  
HETATM    9  C   UNL     1      -8.536  13.351  68.187  1.00  0.00    -0.174 A  
HETATM   10  C   UNL     1      -7.763  14.476  67.916  1.00  0.00    -0.147 A  
HETATM   11  C   UNL     1      -6.340  14.372  67.882  1.00  0.00    -0.162 C  
HETATM   12  C   UNL     1      -8.375  15.708  67.689  1.00  0.00    -0.168 A  
HETATM   13  C   UNL     1      -9.769  15.834  67.696  1.00  0.00    -0.222 A  
HETATM   14  N   UNL     1      -5.184  14.289  67.854  1.00  0.00    -0.242 NA 
HETATM   15  C   UNL     1     -10.547  14.686  67.983  1.00  0.00    -0.240 A  
HETATM   16 CL   UNL     1     -12.279  14.808  68.007  1.00  0.00    -0.150 Cl 
BRANCH  13  17
HETATM   17  N   UNL     1     -10.378  17.098  67.463  1.00  0.00    -0.331 N  
HETATM   18  C   UNL     1      -9.946  18.054  66.559  1.00  0.00    -0.371 C  
HETATM   19  H   UNL     1     -11.208  17.320  68.011  1.00  0.00     0.000 HD 
HETATM   20  O   UNL     1      -9.046  17.983  65.728  1.00  0.00    -0.482 OA 
HETATM   21  C   UNL     1     -10.728  19.374  66.591  1.00  0.00    -0.429 C  
HETATM   22  O   UNL     1     -10.266  20.225  65.652  1.00  0.00    -0.365 OA 
HETATM   23  O   UNL     1     -11.632  19.582  67.375  1.00  0.00     0.230 OA 
ENDBRANCH  13  17
ENDBRANCH   6   8
TORSDOF 2
ENDMDL
MODEL      143
REMARK 921   NORMALIZED FREE ENERGY PREDICTED BY IDOCK:   -3.41 KCAL/MOL
REMARK 922        TOTAL FREE ENERGY PREDICTED BY IDOCK:   -4.33 KCAL/MOL
REMARK 923 INTER-LIGAND FREE ENERGY PREDICTED BY IDOCK:   -3.80 KCAL/MOL
REMARK 924 INTRA-LIGAND FREE ENERGY PREDICTED BY IDOCK:   -0.53 KCAL/MOL
REMARK 927      BINDING AFFINITY PREDICTED BY RF-SCORE:    0.00 PKD
ROOT
HETATM    1  O   UNL     1      -5.913  11.441  66.695  1.00  0.00    -0.129 OA 
HETATM    2  C   UNL     1      -7.242  11.238  66.748  1.00  0.00    -0.142 C  
HETATM    3  O   UNL     1      -8.109  12.049  66.494  1.00  0.00    -0.084 OA 
HETATM    4  C   UNL     1      -7.558   9.797  67.165  1.00  0.00    -0.092 C  
HETATM    5  O   UNL     1      -6.595   9.092  67.446  1.00  0.00    -0.063 OA 
HETATM    6  N   UNL     1      -8.903   9.467  67.121  1.00  0.00    -0.127 N  
HETATM    7  H   UNL     1      -9.549  10.199  66.827  1.00  0.00     0.000 HD 
ENDROOT
BRANCH   6   8
HETATM    8  C   UNL     1      -9.465   8.205  67.446  1.00  0.00    -0.155 A  
HETATM    9  C   UNL     1      -9.422   7.150  66.529  1.00  0.00    -0.208 A  
HETATM   10  C   UNL     1     -10.012   5.923  66.823  1.00  0.00    -0.212 A  
HETATM   11  C   UNL     1      -9.979   4.868  65.861  1.00  0.00    -0.203 C  
HETATM   12  C   UNL     1     -10.643   5.726  68.049  1.00  0.00    -0.295 A  
HETATM   13  C   UNL     1     -10.672   6.736  69.018  1.00  0.00    -0.246 A  
HETATM   14  N   UNL     1      -9.954   4.010  65.082  1.00  0.00    -0.203 NA 
HETATM   15  C   UNL     1     -10.079   7.984  68.706  1.00  0.00    -0.195 A  
HETATM   16 CL   UNL     1     -10.102   9.262  69.881  1.00  0.00    -0.211 Cl 
BRANCH  13  17
HETATM   17  N   UNL     1     -11.321   6.519  70.264  1.00  0.00    -0.367 N  
HETATM   18  C   UNL     1     -10.773   5.886  71.367  1.00  0.00    -0.260 C  
HETATM   19  H   UNL     1     -12.277   6.862  70.354  1.00  0.00     0.000 HD 
HETATM   20  O   UNL     1      -9.627   5.482  71.537  1.00  0.00    -0.146 OA 
HETATM   21  C   UNL     1     -11.736   5.692  72.546  1.00  0.00    -0.197 C  
HETATM   22  O   UNL     1     -11.106   5.107  73.586  1.00  0.00    -0.308 OA 
HETATM   23  O   UNL     1     -12.901   6.031  72.504  1.00  0.00     0.041 OA 
ENDBRANCH  13  17
ENDBRANCH   6   8
TORSDOF 2
ENDMDL
MODEL      144
REMARK 921   NORMALIZED FREE ENERGY PREDICTED BY IDOCK:   -3.40 KCAL/MOL
REMARK 922        TOTAL FREE ENERGY PREDICTED BY IDOCK:   -4.33 KCAL/MOL
REMARK 923 INTER-LIGAND FREE ENERGY PREDICTED BY IDOCK:   -3.81 KCAL/MOL
REMARK 924 INTRA-LIGAND FREE ENERGY PREDICTED BY IDOCK:   -0.51 KCAL/MOL
REMARK 927      BINDING AFFINITY PREDICTED BY RF-SCORE:    0.00 PKD
ROOT
HETATM    1  O   UNL     1     -10.619   8.419  72.501  1.00  0.00    -0.328 OA 
HETATM    2  C   UNL     1      -9.581   8.800  71.733  1.00  0.00    -0.301 C  
HETATM    3  O   UNL     1      -8.504   9.206  72.121  1.00  0.00    -0.301 OA 
HETATM    4  C   UNL     1      -9.915   8.640  70.245  1.00  0.00    -0.186 C  
HETATM    5  O   UNL     1     -11.055   8.272  69.984  1.00  0.00    -0.235 OA 
HETATM    6  N   UNL     1      -8.856   8.890  69.388  1.00  0.00    -0.141 N  
HETATM    7  H   UNL     1      -7.969   9.158  69.814  1.00  0.00     0.000 HD 
ENDROOT
BRANCH   6   8
HETATM    8  C   UNL     1      -8.889   8.806  67.971  1.00  0.00    -0.141 A  
HETATM    9  C   UNL     1      -9.455   9.837  67.212  1.00  0.00    -0.183 A  
HETATM   10  C   UNL     1      -9.533   9.741  65.825  1.00  0.00    -0.300 A  
HETATM   11  C   UNL     1     -10.138  10.792  65.072  1.00  0.00    -0.313 C  
HETATM   12  C   UNL     1      -9.031   8.618  65.171  1.00  0.00    -0.111 A  
HETATM   13  C   UNL     1      -8.415   7.582  65.883  1.00  0.00    -0.147 A  
HETATM   14  N   UNL     1     -10.629  11.645  64.458  1.00  0.00    -0.298 NA 
HETATM   15  C   UNL     1      -8.350   7.683  67.295  1.00  0.00    -0.115 A  
HETATM   16 CL   UNL     1      -7.598   6.414  68.211  1.00  0.00    -0.101 Cl 
BRANCH  13  17
HETATM   17  N   UNL     1      -7.909   6.442  65.202  1.00  0.00    -0.104 N  
HETATM   18  C   UNL     1      -8.546   5.218  65.079  1.00  0.00    -0.150 C  
HETATM   19  H   UNL     1      -6.993   6.533  64.763  1.00  0.00     0.000 HD 
HETATM   20  O   UNL     1      -9.678   4.897  65.427  1.00  0.00    -0.149 OA 
HETATM   21  C   UNL     1      -7.723   4.127  64.383  1.00  0.00    -0.084 C  
HETATM   22  O   UNL     1      -8.437   2.988  64.271  1.00  0.00    -0.089 OA 
HETATM   23  O   UNL     1      -6.583   4.307  64.003  1.00  0.00    -0.040 OA 
ENDBRANCH  13  17
ENDBRANCH   6   8
TORSDOF 2
ENDMDL
MODEL      145
REMARK 921   NORMALIZED FREE ENERGY PREDICTED BY IDOCK:   -3.39 KCAL/MOL
REMARK 922        TOTAL FREE ENERGY PREDICTED BY IDOCK:   -4.31 KCAL/MOL
REMARK 923 INTER-LIGAND FREE ENERGY PREDICTED BY IDOCK:   -3.86 KCAL/MOL
REMARK 924 INTRA-LIGAND FREE ENERGY PREDICTED BY IDOCK:   -0.45 KCAL/MOL
REMARK 927      BINDING AFFINITY PREDICTED BY RF-SCORE:    0.00 PKD
ROOT
HETATM    1  O   UNL     1     -13.091  10.448  72.669  1.00  0.00     0.048 OA 
HETATM    2  C   UNL     1     -13.323   9.252  72.099  1.00  0.00    -0.468 C  
HETATM    3  O   UNL     1     -14.407   8.772  71.837  1.00  0.00    -0.403 OA 
HETATM    4  C   UNL     1     -12.006   8.534  71.780  1.00  0.00    -0.332 C  
HETATM    5  O   UNL     1     -10.980   9.101  72.143  1.00  0.00    -0.300 OA 
HETATM    6  N   UNL     1     -12.151   7.351  71.075  1.00  0.00    -0.389 N  
HETATM    7  H   UNL     1     -13.102   7.066  70.841  1.00  0.00     0.000 HD 
ENDROOT
BRANCH   6   8
HETATM    8  C   UNL     1     -11.100   6.498  70.648  1.00  0.00    -0.309 A  
HETATM    9  C   UNL     1     -10.873   5.274  71.287  1.00  0.00    -0.139 A  
HETATM   10  C   UNL     1      -9.816   4.453  70.903  1.00  0.00    -0.266 A  
HETATM   11  C   UNL     1      -9.586   3.221  71.586  1.00  0.00    -0.160 C  
HETATM   12  C   UNL     1      -8.974   4.837  69.861  1.00  0.00    -0.139 A  
HETATM   13  C   UNL     1      -9.188   6.030  69.161  1.00  0.00    -0.126 A  
HETATM   14  N   UNL     1      -9.399   2.219  72.139  1.00  0.00    -0.086 NA 
HETATM   15  C   UNL     1     -10.260   6.864  69.565  1.00  0.00    -0.186 A  
HETATM   16 CL   UNL     1     -10.551   8.354  68.723  1.00  0.00    -0.194 Cl 
BRANCH  13  17
HETATM   17  N   UNL     1      -8.320   6.407  68.100  1.00  0.00    -0.116 N  
HETATM   18  C   UNL     1      -7.261   7.295  68.193  1.00  0.00    -0.091 C  
HETATM   19  H   UNL     1      -8.493   5.986  67.188  1.00  0.00     0.000 HD 
HETATM   20  O   UNL     1      -6.798   7.846  69.186  1.00  0.00    -0.050 OA 
HETATM   21  C   UNL     1      -6.558   7.604  66.865  1.00  0.00    -0.062 C  
HETATM   22  O   UNL     1      -5.518   8.440  67.058  1.00  0.00    -0.036 OA 
HETATM   23  O   UNL     1      -6.925   7.138  65.805  1.00  0.00    -0.058 OA 
ENDBRANCH  13  17
ENDBRANCH   6   8
TORSDOF 2
ENDMDL
MODEL      146
REMARK 921   NORMALIZED FREE ENERGY PREDICTED BY IDOCK:   -3.30 KCAL/MOL
REMARK 922        TOTAL FREE ENERGY PREDICTED BY IDOCK:   -4.22 KCAL/MOL
REMARK 923 INTER-LIGAND FREE ENERGY PREDICTED BY IDOCK:   -3.71 KCAL/MOL
REMARK 924 INTRA-LIGAND FREE ENERGY PREDICTED BY IDOCK:   -0.51 KCAL/MOL
REMARK 927      BINDING AFFINITY PREDICTED BY RF-SCORE:    0.00 PKD
ROOT
HETATM    1  O   UNL     1      -6.616  12.491  67.298  1.00  0.00    -0.157 OA 
HETATM    2  C   UNL     1      -7.862  12.016  67.110  1.00  0.00    -0.168 C  
HETATM    3  O   UNL     1      -8.788  12.601  66.586  1.00  0.00    -0.203 OA 
HETATM    4  C   UNL     1      -7.985  10.581  67.636  1.00  0.00    -0.106 C  
HETATM    5  O   UNL     1      -6.992  10.123  68.192  1.00  0.00    -0.073 OA 
HETATM    6  N   UNL     1      -9.199   9.972  67.368  1.00  0.00    -0.137 N  
HETATM    7  H   UNL     1      -9.891  10.523  66.859  1.00  0.00     0.000 HD 
ENDROOT
BRANCH   6   8
HETATM    8  C   UNL     1      -9.571   8.652  67.733  1.00  0.00    -0.148 A  
HETATM    9  C   UNL     1     -10.351   8.422  68.872  1.00  0.00    -0.231 A  
HETATM   10  C   UNL     1     -10.681   7.127  69.262  1.00  0.00    -0.231 A  
HETATM   11  C   UNL     1     -11.454   6.915  70.443  1.00  0.00    -0.338 C  
HETATM   12  C   UNL     1     -10.249   6.038  68.509  1.00  0.00    -0.227 A  
HETATM   13  C   UNL     1      -9.506   6.218  67.337  1.00  0.00    -0.115 A  
HETATM   14  N   UNL     1     -12.083   6.739  71.401  1.00  0.00    -0.351 NA 
HETATM   15  C   UNL     1      -9.166   7.539  66.953  1.00  0.00    -0.149 A  
HETATM   16 CL   UNL     1      -8.240   7.800  65.507  1.00  0.00    -0.132 Cl 
BRANCH  13  17
HETATM   17  N   UNL     1      -9.072   5.096  66.579  1.00  0.00    -0.123 N  
HETATM   18  C   UNL     1      -9.860   4.329  65.737  1.00  0.00    -0.223 C  
HETATM   19  H   UNL     1      -8.091   4.832  66.664  1.00  0.00     0.000 HD 
HETATM   20  O   UNL     1     -11.026   4.503  65.398  1.00  0.00    -0.256 OA 
HETATM   21  C   UNL     1      -9.158   3.108  65.128  1.00  0.00    -0.147 C  
HETATM   22  O   UNL     1      -9.986   2.448  64.293  1.00  0.00    -0.117 OA 
HETATM   23  O   UNL     1      -8.010   2.812  65.393  1.00  0.00    -0.080 OA 
ENDBRANCH  13  17
ENDBRANCH   6   8
TORSDOF 2
ENDMDL
MODEL      147
REMARK 921   NORMALIZED FREE ENERGY PREDICTED BY IDOCK:   -3.20 KCAL/MOL
REMARK 922        TOTAL FREE ENERGY PREDICTED BY IDOCK:   -4.10 KCAL/MOL
REMARK 923 INTER-LIGAND FREE ENERGY PREDICTED BY IDOCK:   -3.76 KCAL/MOL
REMARK 924 INTRA-LIGAND FREE ENERGY PREDICTED BY IDOCK:   -0.35 KCAL/MOL
REMARK 927      BINDING AFFINITY PREDICTED BY RF-SCORE:    0.00 PKD
ROOT
HETATM    1  O   UNL     1     -12.968  13.754  65.505  1.00  0.00    -0.651 OA 
HETATM    2  C   UNL     1     -11.655  13.671  65.220  1.00  0.00    -0.320 C  
HETATM    3  O   UNL     1     -10.964  14.540  64.728  1.00  0.00    -0.390 OA 
HETATM    4  C   UNL     1     -11.094  12.301  65.622  1.00  0.00    -0.317 C  
HETATM    5  O   UNL     1     -11.906  11.492  66.058  1.00  0.00    -0.282 OA 
HETATM    6  N   UNL     1      -9.722  12.177  65.480  1.00  0.00    -0.343 N  
HETATM    7  H   UNL     1      -9.219  12.989  65.124  1.00  0.00     0.000 HD 
ENDROOT
BRANCH   6   8
HETATM    8  C   UNL     1      -8.951  11.025  65.786  1.00  0.00    -0.195 A  
HETATM    9  C   UNL     1      -8.434  10.224  64.763  1.00  0.00    -0.179 A  
HETATM   10  C   UNL     1      -7.716   9.067  65.055  1.00  0.00    -0.109 A  
HETATM   11  C   UNL     1      -7.220   8.249  63.995  1.00  0.00    -0.090 C  
HETATM   12  C   UNL     1      -7.489   8.700  66.380  1.00  0.00    -0.087 A  
HETATM   13  C   UNL     1      -7.946   9.494  67.439  1.00  0.00    -0.106 A  
HETATM   14  N   UNL     1      -6.816   7.584  63.136  1.00  0.00    -0.065 NA 
HETATM   15  C   UNL     1      -8.685  10.663  67.131  1.00  0.00    -0.130 A  
HETATM   16 CL   UNL     1      -9.273  11.668  68.420  1.00  0.00    -0.186 Cl 
BRANCH  13  17
HETATM   17  N   UNL     1      -7.707   9.106  68.785  1.00  0.00    -0.087 N  
HETATM   18  C   UNL     1      -6.467   8.867  69.355  1.00  0.00    -0.044 C  
HETATM   19  H   UNL     1      -8.523   8.992  69.386  1.00  0.00     0.000 HD 
HETATM   20  O   UNL     1      -5.351   9.030  68.874  1.00  0.00    -0.036 OA 
HETATM   21  C   UNL     1      -6.508   8.354  70.800  1.00  0.00    -0.038 C  
HETATM   22  O   UNL     1      -5.260   8.191  71.284  1.00  0.00    -0.029 OA 
HETATM   23  O   UNL     1      -7.547   8.135  71.389  1.00  0.00    -0.070 OA 
ENDBRANCH  13  17
ENDBRANCH   6   8
TORSDOF 2
ENDMDL
MODEL      148
REMARK 921   NORMALIZED FREE ENERGY PREDICTED BY IDOCK:   -3.15 KCAL/MOL
REMARK 922        TOTAL FREE ENERGY PREDICTED BY IDOCK:   -4.05 KCAL/MOL
REMARK 923 INTER-LIGAND FREE ENERGY PREDICTED BY IDOCK:   -4.33 KCAL/MOL
REMARK 924 INTRA-LIGAND FREE ENERGY PREDICTED BY IDOCK:    0.28 KCAL/MOL
REMARK 927      BINDING AFFINITY PREDICTED BY RF-SCORE:    0.00 PKD
ROOT
HETATM    1  O   UNL     1     -12.889  12.979  63.429  1.00  0.00    -0.640 OA 
HETATM    2  C   UNL     1     -12.536  13.406  64.655  1.00  0.00    -0.265 C  
HETATM    3  O   UNL     1     -13.117  14.232  65.330  1.00  0.00    -0.707 OA 
HETATM    4  C   UNL     1     -11.272  12.686  65.141  1.00  0.00    -0.301 C  
HETATM    5  O   UNL     1     -10.751  11.913  64.345  1.00  0.00    -0.284 OA 
HETATM    6  N   UNL     1     -10.913  12.974  66.447  1.00  0.00    -0.278 N  
HETATM    7  H   UNL     1     -11.505  13.630  66.957  1.00  0.00     0.000 HD 
ENDROOT
BRANCH   6   8
HETATM    8  C   UNL     1      -9.796  12.441  67.144  1.00  0.00    -0.205 A  
HETATM    9  C   UNL     1      -8.817  13.289  67.672  1.00  0.00    -0.200 A  
HETATM   10  C   UNL     1      -7.697  12.772  68.316  1.00  0.00    -0.136 A  
HETATM   11  C   UNL     1      -6.696  13.655  68.824  1.00  0.00    -0.104 C  
HETATM   12  C   UNL     1      -7.544  11.394  68.457  1.00  0.00    -0.129 A  
HETATM   13  C   UNL     1      -8.519  10.507  67.987  1.00  0.00    -0.120 A  
HETATM   14  N   UNL     1      -5.882  14.370  69.238  1.00  0.00    -0.086 NA 
HETATM   15  C   UNL     1      -9.651  11.042  67.323  1.00  0.00    -0.165 A  
HETATM   16 CL   UNL     1     -10.877   9.970  66.721  1.00  0.00    -0.159 Cl 
BRANCH  13  17
HETATM   17  N   UNL     1      -8.348   9.104  68.138  1.00  0.00    -0.120 N  
HETATM   18  C   UNL     1      -7.764   8.467  69.221  1.00  0.00    -0.098 C  
HETATM   19  H   UNL     1      -8.686   8.512  67.380  1.00  0.00     0.000 HD 
HETATM   20  O   UNL     1      -7.377   8.945  70.282  1.00  0.00    -0.054 OA 
HETATM   21  C   UNL     1      -7.610   6.948  69.072  1.00  0.00    -0.104 C  
HETATM   22  O   UNL     1      -7.074   6.411  70.187  1.00  0.00    -0.069 OA 
HETATM   23  O   UNL     1      -7.938   6.351  68.066  1.00  0.00    -0.106 OA 
ENDBRANCH  13  17
ENDBRANCH   6   8
TORSDOF 2
ENDMDL
MODEL      149
REMARK 921   NORMALIZED FREE ENERGY PREDICTED BY IDOCK:   -3.14 KCAL/MOL
REMARK 922        TOTAL FREE ENERGY PREDICTED BY IDOCK:   -4.04 KCAL/MOL
REMARK 923 INTER-LIGAND FREE ENERGY PREDICTED BY IDOCK:   -4.00 KCAL/MOL
REMARK 924 INTRA-LIGAND FREE ENERGY PREDICTED BY IDOCK:   -0.04 KCAL/MOL
REMARK 927      BINDING AFFINITY PREDICTED BY RF-SCORE:    0.00 PKD
ROOT
HETATM    1  O   UNL     1     -10.121   8.277  71.958  1.00  0.00    -0.212 OA 
HETATM    2  C   UNL     1     -10.677   9.200  71.151  1.00  0.00    -0.310 C  
HETATM    3  O   UNL     1     -11.834   9.571  71.165  1.00  0.00    -0.306 OA 
HETATM    4  C   UNL     1      -9.639   9.774  70.180  1.00  0.00    -0.237 C  
HETATM    5  O   UNL     1      -8.519   9.278  70.232  1.00  0.00    -0.161 OA 
HETATM    6  N   UNL     1     -10.099  10.822  69.400  1.00  0.00    -0.385 N  
HETATM    7  H   UNL     1     -11.069  11.108  69.534  1.00  0.00     0.000 HD 
ENDROOT
BRANCH   6   8
HETATM    8  C   UNL     1      -9.346  11.536  68.431  1.00  0.00    -0.194 A  
HETATM    9  C   UNL     1      -8.236  10.946  67.818  1.00  0.00    -0.116 A  
HETATM   10  C   UNL     1      -7.466  11.656  66.901  1.00  0.00    -0.131 A  
HETATM   11  C   UNL     1      -6.320  11.044  66.307  1.00  0.00    -0.119 C  
HETATM   12  C   UNL     1      -7.803  12.967  66.569  1.00  0.00     0.660 A  
HETATM   13  C   UNL     1      -8.931  13.584  67.121  1.00  0.00    -0.227 A  
HETATM   14  N   UNL     1      -5.391  10.549  65.823  1.00  0.00    -0.079 NA 
HETATM   15  C   UNL     1      -9.703  12.858  68.061  1.00  0.00    -0.224 A  
HETATM   16 CL   UNL     1     -11.106  13.595  68.770  1.00  0.00    -0.285 Cl 
BRANCH  13  17
HETATM   17  N   UNL     1      -9.262  14.922  66.773  1.00  0.00    -0.244 N  
HETATM   18  C   UNL     1      -9.083  16.039  67.573  1.00  0.00    -0.199 C  
HETATM   19  H   UNL     1      -9.668  15.074  65.850  1.00  0.00     0.000 HD 
HETATM   20  O   UNL     1      -8.533  16.127  68.665  1.00  0.00    -0.192 OA 
HETATM   21  C   UNL     1      -9.630  17.348  66.988  1.00  0.00    -0.273 C  
HETATM   22  O   UNL     1      -9.374  18.383  67.814  1.00  0.00    -0.268 OA 
HETATM   23  O   UNL     1     -10.211  17.398  65.923  1.00  0.00    -0.499 OA 
ENDBRANCH  13  17
ENDBRANCH   6   8
TORSDOF 2
ENDMDL
MODEL      150
REMARK 921   NORMALIZED FREE ENERGY PREDICTED BY IDOCK:   -3.09 KCAL/MOL
REMARK 922        TOTAL FREE ENERGY PREDICTED BY IDOCK:   -3.98 KCAL/MOL
REMARK 923 INTER-LIGAND FREE ENERGY PREDICTED BY IDOCK:   -3.96 KCAL/MOL
REMARK 924 INTRA-LIGAND FREE ENERGY PREDICTED BY IDOCK:   -0.02 KCAL/MOL
REMARK 927      BINDING AFFINITY PREDICTED BY RF-SCORE:    0.00 PKD
ROOT
HETATM    1  O   UNL     1     -10.283   4.855  69.885  1.00  0.00    -0.257 OA 
HETATM    2  C   UNL     1     -10.955   6.017  69.789  1.00  0.00    -0.401 C  
HETATM    3  O   UNL     1     -11.990   6.304  70.357  1.00  0.00    -0.273 OA 
HETATM    4  C   UNL     1     -10.228   6.993  68.857  1.00  0.00    -0.180 C  
HETATM    5  O   UNL     1      -9.222   6.563  68.303  1.00  0.00    -0.119 OA 
HETATM    6  N   UNL     1     -10.786   8.260  68.803  1.00  0.00    -0.407 N  
HETATM    7  H   UNL     1     -11.616   8.424  69.371  1.00  0.00     0.000 HD 
ENDROOT
BRANCH   6   8
HETATM    8  C   UNL     1     -10.308   9.351  68.029  1.00  0.00    -0.220 A  
HETATM    9  C   UNL     1     -10.387   9.320  66.633  1.00  0.00    -0.292 A  
HETATM   10  C   UNL     1      -9.880  10.366  65.866  1.00  0.00    -0.294 A  
HETATM   11  C   UNL     1      -9.946  10.302  64.442  1.00  0.00    -0.261 C  
HETATM   12  C   UNL     1      -9.297  11.469  66.486  1.00  0.00    -0.210 A  
HETATM   13  C   UNL     1      -9.237  11.567  67.881  1.00  0.00    -0.168 A  
HETATM   14  N   UNL     1      -9.999  10.252  63.284  1.00  0.00    -0.069 NA 
HETATM   15  C   UNL     1      -9.746  10.493  68.653  1.00  0.00    -0.173 A  
HETATM   16 CL   UNL     1      -9.682  10.578  70.386  1.00  0.00     0.517 Cl 
BRANCH  13  17
HETATM   17  N   UNL     1      -8.639  12.700  68.498  1.00  0.00    -0.344 N  
HETATM   18  C   UNL     1      -8.439  13.937  67.908  1.00  0.00    -0.177 C  
HETATM   19  H   UNL     1      -8.329  12.591  69.463  1.00  0.00     0.000 HD 
HETATM   20  O   UNL     1      -8.808  14.338  66.809  1.00  0.00    -0.233 OA 
HETATM   21  C   UNL     1      -7.670  14.948  68.768  1.00  0.00    -0.139 C  
HETATM   22  O   UNL     1      -7.560  16.131  68.132  1.00  0.00    -0.132 OA 
HETATM   23  O   UNL     1      -7.234  14.674  69.869  1.00  0.00    -0.125 OA 
ENDBRANCH  13  17
ENDBRANCH   6   8
TORSDOF 2
ENDMDL
MODEL      151
REMARK 921   NORMALIZED FREE ENERGY PREDICTED BY IDOCK:   -3.08 KCAL/MOL
REMARK 922        TOTAL FREE ENERGY PREDICTED BY IDOCK:   -3.97 KCAL/MOL
REMARK 923 INTER-LIGAND FREE ENERGY PREDICTED BY IDOCK:   -3.47 KCAL/MOL
REMARK 924 INTRA-LIGAND FREE ENERGY PREDICTED BY IDOCK:   -0.50 KCAL/MOL
REMARK 927      BINDING AFFINITY PREDICTED BY RF-SCORE:    0.00 PKD
ROOT
HETATM    1  O   UNL     1     -13.019   8.965  71.590  1.00  0.00    -0.326 OA 
HETATM    2  C   UNL     1     -12.798   7.668  71.304  1.00  0.00    -0.260 C  
HETATM    3  O   UNL     1     -13.558   6.742  71.504  1.00  0.00    -0.229 OA 
HETATM    4  C   UNL     1     -11.424   7.480  70.650  1.00  0.00    -0.269 C  
HETATM    5  O   UNL     1     -10.729   8.487  70.553  1.00  0.00    -0.211 OA 
HETATM    6  N   UNL     1     -11.168   6.193  70.208  1.00  0.00    -0.367 N  
HETATM    7  H   UNL     1     -11.899   5.498  70.360  1.00  0.00     0.000 HD 
ENDROOT
BRANCH   6   8
HETATM    8  C   UNL     1      -9.984   5.750  69.563  1.00  0.00    -0.191 A  
HETATM    9  C   UNL     1      -8.961   5.139  70.297  1.00  0.00    -0.156 A  
HETATM   10  C   UNL     1      -7.778   4.744  69.679  1.00  0.00    -0.059 A  
HETATM   11  C   UNL     1      -6.736   4.147  70.452  1.00  0.00    -0.033 C  
HETATM   12  C   UNL     1      -7.603   4.939  68.311  1.00  0.00    -0.078 A  
HETATM   13  C   UNL     1      -8.615   5.503  67.526  1.00  0.00    -0.108 A  
HETATM   14  N   UNL     1      -5.889   3.661  71.077  1.00  0.00    -0.013 NA 
HETATM   15  C   UNL     1      -9.812   5.912  68.165  1.00  0.00    -0.133 A  
HETATM   16 CL   UNL     1     -11.086   6.622  67.223  1.00  0.00    -0.450 Cl 
BRANCH  13  17
HETATM   17  N   UNL     1      -8.421   5.697  66.131  1.00  0.00    -0.123 N  
HETATM   18  C   UNL     1      -8.126   6.899  65.510  1.00  0.00    -0.132 C  
HETATM   19  H   UNL     1      -8.507   4.875  65.533  1.00  0.00     0.000 HD 
HETATM   20  O   UNL     1      -7.879   7.990  66.014  1.00  0.00    -0.088 OA 
HETATM   21  C   UNL     1      -8.078   6.840  63.977  1.00  0.00    -0.015 C  
HETATM   22  O   UNL     1      -7.743   8.042  63.464  1.00  0.00    -0.126 OA 
HETATM   23  O   UNL     1      -8.318   5.827  63.352  1.00  0.00    -0.105 OA 
ENDBRANCH  13  17
ENDBRANCH   6   8
TORSDOF 2
ENDMDL
MODEL      152
REMARK 921   NORMALIZED FREE ENERGY PREDICTED BY IDOCK:   -3.03 KCAL/MOL
REMARK 922        TOTAL FREE ENERGY PREDICTED BY IDOCK:   -3.91 KCAL/MOL
REMARK 923 INTER-LIGAND FREE ENERGY PREDICTED BY IDOCK:   -3.39 KCAL/MOL
REMARK 924 INTRA-LIGAND FREE ENERGY PREDICTED BY IDOCK:   -0.53 KCAL/MOL
REMARK 927      BINDING AFFINITY PREDICTED BY RF-SCORE:    0.00 PKD
ROOT
HETATM    1  O   UNL     1     -11.058   7.848  72.868  1.00  0.00    -0.384 OA 
HETATM    2  C   UNL     1      -9.889   7.618  72.242  1.00  0.00    -0.177 C  
HETATM    3  O   UNL     1      -8.790   7.560  72.757  1.00  0.00    -0.130 OA 
HETATM    4  C   UNL     1     -10.106   7.407  70.739  1.00  0.00    -0.189 C  
HETATM    5  O   UNL     1     -11.256   7.545  70.335  1.00  0.00    -0.266 OA 
HETATM    6  N   UNL     1      -8.969   7.038  70.039  1.00  0.00    -0.142 N  
HETATM    7  H   UNL     1      -8.106   6.948  70.574  1.00  0.00     0.000 HD 
ENDROOT
BRANCH   6   8
HETATM    8  C   UNL     1      -8.894   6.774  68.646  1.00  0.00    -0.123 A  
HETATM    9  C   UNL     1      -9.090   5.478  68.157  1.00  0.00    -0.111 A  
HETATM   10  C   UNL     1      -8.972   5.203  66.798  1.00  0.00    -0.113 A  
HETATM   11  C   UNL     1      -9.149   3.868  66.323  1.00  0.00    -0.148 C  
HETATM   12  C   UNL     1      -8.671   6.225  65.900  1.00  0.00    -0.154 A  
HETATM   13  C   UNL     1      -8.512   7.546  66.335  1.00  0.00    -0.131 A  
HETATM   14  N   UNL     1      -9.294   2.785  65.936  1.00  0.00    -0.080 NA 
HETATM   15  C   UNL     1      -8.623   7.815  67.722  1.00  0.00    -0.121 A  
HETATM   16 CL   UNL     1      -8.425   9.441  68.298  1.00  0.00    -0.119 Cl 
BRANCH  13  17
HETATM   17  N   UNL     1      -8.204   8.577  65.407  1.00  0.00    -0.136 N  
HETATM   18  C   UNL     1      -9.102   9.487  64.874  1.00  0.00    -0.223 C  
HETATM   19  H   UNL     1      -7.233   8.654  65.106  1.00  0.00     0.000 HD 
HETATM   20  O   UNL     1     -10.285   9.659  65.151  1.00  0.00    -0.080 OA 
HETATM   21  C   UNL     1      -8.518  10.425  63.809  1.00  0.00    -0.162 C  
HETATM   22  O   UNL     1      -9.451  11.300  63.381  1.00  0.00    -0.267 OA 
HETATM   23  O   UNL     1      -7.366  10.351  63.431  1.00  0.00    -0.127 OA 
ENDBRANCH  13  17
ENDBRANCH   6   8
TORSDOF 2
ENDMDL
MODEL      153
REMARK 921   NORMALIZED FREE ENERGY PREDICTED BY IDOCK:   -2.95 KCAL/MOL
REMARK 922        TOTAL FREE ENERGY PREDICTED BY IDOCK:   -3.83 KCAL/MOL
REMARK 923 INTER-LIGAND FREE ENERGY PREDICTED BY IDOCK:   -4.11 KCAL/MOL
REMARK 924 INTRA-LIGAND FREE ENERGY PREDICTED BY IDOCK:    0.29 KCAL/MOL
REMARK 927      BINDING AFFINITY PREDICTED BY RF-SCORE:    0.00 PKD
ROOT
HETATM    1  O   UNL     1      -5.999   5.241  71.309  1.00  0.00    -0.019 OA 
HETATM    2  C   UNL     1      -7.300   5.540  71.486  1.00  0.00    -0.086 C  
HETATM    3  O   UNL     1      -8.091   4.944  72.188  1.00  0.00    -0.107 OA 
HETATM    4  C   UNL     1      -7.688   6.786  70.681  1.00  0.00    -0.097 C  
HETATM    5  O   UNL     1      -6.811   7.263  69.969  1.00  0.00    -0.053 OA 
HETATM    6  N   UNL     1      -8.978   7.237  70.906  1.00  0.00    -0.150 N  
HETATM    7  H   UNL     1      -9.544   6.708  71.568  1.00  0.00     0.000 HD 
ENDROOT
BRANCH   6   8
HETATM    8  C   UNL     1      -9.585   8.369  70.300  1.00  0.00    -0.165 A  
HETATM    9  C   UNL     1      -9.215   8.769  69.012  1.00  0.00    -0.141 A  
HETATM   10  C   UNL     1      -9.773   9.904  68.429  1.00  0.00    -0.161 A  
HETATM   11  C   UNL     1      -9.361  10.311  67.124  1.00  0.00    -0.153 C  
HETATM   12  C   UNL     1     -10.724  10.651  69.122  1.00  0.00    -0.264 A  
HETATM   13  C   UNL     1     -11.161  10.264  70.394  1.00  0.00    -0.332 A  
HETATM   14  N   UNL     1      -9.029  10.642  66.064  1.00  0.00    -0.166 NA 
HETATM   15  C   UNL     1     -10.580   9.113  70.983  1.00  0.00    -0.292 A  
HETATM   16 CL   UNL     1     -11.093   8.608  72.563  1.00  0.00    -0.333 Cl 
BRANCH  13  17
HETATM   17  N   UNL     1     -12.132  11.036  71.088  1.00  0.00    -0.293 N  
HETATM   18  C   UNL     1     -12.342  12.398  70.944  1.00  0.00    -0.262 C  
HETATM   19  H   UNL     1     -12.729  10.543  71.751  1.00  0.00     0.000 HD 
HETATM   20  O   UNL     1     -11.828  13.181  70.151  1.00  0.00    -0.313 OA 
HETATM   21  C   UNL     1     -13.384  12.996  71.899  1.00  0.00    -0.446 C  
HETATM   22  O   UNL     1     -13.551  14.313  71.659  1.00  0.00    -0.348 OA 
HETATM   23  O   UNL     1     -13.954  12.336  72.743  1.00  0.00     0.067 OA 
ENDBRANCH  13  17
ENDBRANCH   6   8
TORSDOF 2
ENDMDL
MODEL      154
REMARK 921   NORMALIZED FREE ENERGY PREDICTED BY IDOCK:   -2.94 KCAL/MOL
REMARK 922        TOTAL FREE ENERGY PREDICTED BY IDOCK:   -3.81 KCAL/MOL
REMARK 923 INTER-LIGAND FREE ENERGY PREDICTED BY IDOCK:   -3.37 KCAL/MOL
REMARK 924 INTRA-LIGAND FREE ENERGY PREDICTED BY IDOCK:   -0.44 KCAL/MOL
REMARK 927      BINDING AFFINITY PREDICTED BY RF-SCORE:    0.00 PKD
ROOT
HETATM    1  O   UNL     1      -8.279  10.651  64.687  1.00  0.00    -0.126 OA 
HETATM    2  C   UNL     1      -7.425   9.807  65.294  1.00  0.00    -0.120 C  
HETATM    3  O   UNL     1      -6.217   9.920  65.359  1.00  0.00    -0.074 OA 
HETATM    4  C   UNL     1      -8.179   8.640  65.943  1.00  0.00    -0.123 C  
HETATM    5  O   UNL     1      -9.391   8.612  65.759  1.00  0.00    -0.214 OA 
HETATM    6  N   UNL     1      -7.387   7.792  66.698  1.00  0.00    -0.086 N  
HETATM    7  H   UNL     1      -6.392   8.011  66.749  1.00  0.00     0.000 HD 
ENDROOT
BRANCH   6   8
HETATM    8  C   UNL     1      -7.830   6.645  67.409  1.00  0.00    -0.113 A  
HETATM    9  C   UNL     1      -7.570   5.361  66.919  1.00  0.00    -0.089 A  
HETATM   10  C   UNL     1      -8.041   4.233  67.586  1.00  0.00    -0.095 A  
HETATM   11  C   UNL     1      -7.787   2.933  67.054  1.00  0.00    -0.075 C  
HETATM   12  C   UNL     1      -8.769   4.371  68.766  1.00  0.00    -0.120 A  
HETATM   13  C   UNL     1      -9.015   5.633  69.320  1.00  0.00    -0.113 A  
HETATM   14  N   UNL     1      -7.582   1.876  66.624  1.00  0.00    -0.064 NA 
HETATM   15  C   UNL     1      -8.541   6.775  68.629  1.00  0.00    -0.122 A  
HETATM   16 CL   UNL     1      -8.833   8.356  69.284  1.00  0.00    -0.141 Cl 
BRANCH  13  17
HETATM   17  N   UNL     1      -9.760   5.757  70.524  1.00  0.00    -0.172 N  
HETATM   18  C   UNL     1     -11.081   6.160  70.626  1.00  0.00    -0.317 C  
HETATM   19  H   UNL     1      -9.278   5.527  71.393  1.00  0.00     0.000 HD 
HETATM   20  O   UNL     1     -11.890   6.390  69.733  1.00  0.00    -0.357 OA 
HETATM   21  C   UNL     1     -11.603   6.311  72.061  1.00  0.00    -0.322 C  
HETATM   22  O   UNL     1     -12.905   6.664  72.060  1.00  0.00    -0.287 OA 
HETATM   23  O   UNL     1     -10.902   6.129  73.036  1.00  0.00    -0.238 OA 
ENDBRANCH  13  17
ENDBRANCH   6   8
TORSDOF 2
ENDMDL
MODEL      155
REMARK 921   NORMALIZED FREE ENERGY PREDICTED BY IDOCK:   -2.92 KCAL/MOL
REMARK 922        TOTAL FREE ENERGY PREDICTED BY IDOCK:   -3.79 KCAL/MOL
REMARK 923 INTER-LIGAND FREE ENERGY PREDICTED BY IDOCK:   -3.50 KCAL/MOL
REMARK 924 INTRA-LIGAND FREE ENERGY PREDICTED BY IDOCK:   -0.29 KCAL/MOL
REMARK 927      BINDING AFFINITY PREDICTED BY RF-SCORE:    0.00 PKD
ROOT
HETATM    1  O   UNL     1     -13.788   9.864  72.185  1.00  0.00    -0.290 OA 
HETATM    2  C   UNL     1     -13.328   8.714  71.659  1.00  0.00    -0.350 C  
HETATM    3  O   UNL     1     -13.960   7.691  71.490  1.00  0.00    -0.398 OA 
HETATM    4  C   UNL     1     -11.854   8.848  71.258  1.00  0.00    -0.310 C  
HETATM    5  O   UNL     1     -11.315   9.916  71.531  1.00  0.00    -0.343 OA 
HETATM    6  N   UNL     1     -11.337   7.750  70.592  1.00  0.00    -0.274 N  
HETATM    7  H   UNL     1     -11.968   6.964  70.436  1.00  0.00     0.000 HD 
ENDROOT
BRANCH   6   8
HETATM    8  C   UNL     1     -10.010   7.616  70.105  1.00  0.00    -0.186 A  
HETATM    9  C   UNL     1      -9.040   6.949  70.860  1.00  0.00    -0.153 A  
HETATM   10  C   UNL     1      -7.726   6.854  70.410  1.00  0.00    -0.100 A  
HETATM   11  C   UNL     1      -6.745   6.193  71.210  1.00  0.00    -0.055 C  
HETATM   12  C   UNL     1      -7.362   7.412  69.186  1.00  0.00    -0.090 A  
HETATM   13  C   UNL     1      -8.308   8.048  68.373  1.00  0.00    -0.127 A  
HETATM   14  N   UNL     1      -5.947   5.656  71.857  1.00  0.00    -0.029 NA 
HETATM   15  C   UNL     1      -9.640   8.150  68.844  1.00  0.00    -0.153 A  
HETATM   16 CL   UNL     1     -10.837   8.938  67.864  1.00  0.00    -0.170 Cl 
BRANCH  13  17
HETATM   17  N   UNL     1      -7.921   8.613  67.127  1.00  0.00    -0.100 N  
HETATM   18  C   UNL     1      -7.105   8.014  66.181  1.00  0.00    -0.062 C  
HETATM   19  H   UNL     1      -8.278   9.543  66.910  1.00  0.00     0.000 HD 
HETATM   20  O   UNL     1      -6.641   6.879  66.166  1.00  0.00    -0.049 OA 
HETATM   21  C   UNL     1      -6.762   8.896  64.973  1.00  0.00    -0.069 C  
HETATM   22  O   UNL     1      -6.002   8.219  64.088  1.00  0.00    -0.063 OA 
HETATM   23  O   UNL     1      -7.143  10.044  64.870  1.00  0.00    -0.127 OA 
ENDBRANCH  13  17
ENDBRANCH   6   8
TORSDOF 2
ENDMDL
MODEL      156
REMARK 921   NORMALIZED FREE ENERGY PREDICTED BY IDOCK:   -2.87 KCAL/MOL
REMARK 922        TOTAL FREE ENERGY PREDICTED BY IDOCK:   -3.74 KCAL/MOL
REMARK 923 INTER-LIGAND FREE ENERGY PREDICTED BY IDOCK:   -3.74 KCAL/MOL
REMARK 924 INTRA-LIGAND FREE ENERGY PREDICTED BY IDOCK:   -0.00 KCAL/MOL
REMARK 927      BINDING AFFINITY PREDICTED BY RF-SCORE:    0.00 PKD
ROOT
HETATM    1  O   UNL     1     -11.417   4.105  73.704  1.00  0.00    -0.232 OA 
HETATM    2  C   UNL     1     -10.588   4.249  72.654  1.00  0.00    -0.140 C  
HETATM    3  O   UNL     1     -10.161   3.363  71.941  1.00  0.00    -0.160 OA 
HETATM    4  C   UNL     1     -10.239   5.726  72.431  1.00  0.00    -0.190 C  
HETATM    5  O   UNL     1     -10.691   6.517  73.252  1.00  0.00    -0.256 OA 
HETATM    6  N   UNL     1      -9.492   5.975  71.292  1.00  0.00    -0.163 N  
HETATM    7  H   UNL     1      -9.240   5.170  70.719  1.00  0.00     0.000 HD 
ENDROOT
BRANCH   6   8
HETATM    8  C   UNL     1      -9.044   7.247  70.848  1.00  0.00    -0.151 A  
HETATM    9  C   UNL     1      -7.836   7.777  71.314  1.00  0.00    -0.086 A  
HETATM   10  C   UNL     1      -7.413   9.043  70.919  1.00  0.00    -0.128 A  
HETATM   11  C   UNL     1      -6.190   9.577  71.428  1.00  0.00    -0.007 C  
HETATM   12  C   UNL     1      -8.184   9.796  70.036  1.00  0.00    -0.207 A  
HETATM   13  C   UNL     1      -9.376   9.289  69.506  1.00  0.00    -0.173 A  
HETATM   14  N   UNL     1      -5.197  10.012  71.840  1.00  0.00    -0.161 NA 
HETATM   15  C   UNL     1      -9.805   8.004  69.922  1.00  0.00    -0.186 A  
HETATM   16 CL   UNL     1     -11.282   7.347  69.290  1.00  0.00    -0.000 Cl 
BRANCH  13  17
HETATM   17  N   UNL     1     -10.153  10.069  68.606  1.00  0.00    -0.165 N  
HETATM   18  C   UNL     1      -9.959  11.410  68.315  1.00  0.00    -0.198 C  
HETATM   19  H   UNL     1     -10.923   9.599  68.131  1.00  0.00     0.000 HD 
HETATM   20  O   UNL     1      -9.054  12.156  68.676  1.00  0.00    -0.124 OA 
HETATM   21  C   UNL     1     -11.013  12.030  67.390  1.00  0.00    -0.261 C  
HETATM   22  O   UNL     1     -10.720  13.321  67.130  1.00  0.00    -0.257 OA 
HETATM   23  O   UNL     1     -11.969  11.407  66.974  1.00  0.00    -0.492 OA 
ENDBRANCH  13  17
ENDBRANCH   6   8
TORSDOF 2
ENDMDL
MODEL      157
REMARK 921   NORMALIZED FREE ENERGY PREDICTED BY IDOCK:   -2.85 KCAL/MOL
REMARK 922        TOTAL FREE ENERGY PREDICTED BY IDOCK:   -3.72 KCAL/MOL
REMARK 923 INTER-LIGAND FREE ENERGY PREDICTED BY IDOCK:   -4.55 KCAL/MOL
REMARK 924 INTRA-LIGAND FREE ENERGY PREDICTED BY IDOCK:    0.83 KCAL/MOL
REMARK 927      BINDING AFFINITY PREDICTED BY RF-SCORE:    0.00 PKD
ROOT
HETATM    1  O   UNL     1     -12.780   8.862  71.748  1.00  0.00    -0.323 OA 
HETATM    2  C   UNL     1     -11.455   9.070  71.636  1.00  0.00    -0.361 C  
HETATM    3  O   UNL     1     -10.584   8.590  72.333  1.00  0.00    -0.329 OA 
HETATM    4  C   UNL     1     -11.147  10.008  70.462  1.00  0.00    -0.331 C  
HETATM    5  O   UNL     1     -12.117  10.468  69.870  1.00  0.00    -0.283 OA 
HETATM    6  N   UNL     1      -9.798  10.174  70.197  1.00  0.00    -0.408 N  
HETATM    7  H   UNL     1      -9.143   9.672  70.797  1.00  0.00     0.000 HD 
ENDROOT
BRANCH   6   8
HETATM    8  C   UNL     1      -9.241  10.977  69.167  1.00  0.00    -0.005 A  
HETATM    9  C   UNL     1      -8.134  11.793  69.422  1.00  0.00     0.562 A  
HETATM   10  C   UNL     1      -7.611  12.617  68.430  1.00  0.00    -0.132 A  
HETATM   11  C   UNL     1      -6.497  13.463  68.720  1.00  0.00    -0.098 C  
HETATM   12  C   UNL     1      -8.178  12.628  67.157  1.00  0.00    -0.159 A  
HETATM   13  C   UNL     1      -9.257  11.795  66.840  1.00  0.00    -0.189 A  
HETATM   14  N   UNL     1      -5.593  14.150  68.953  1.00  0.00    -0.080 NA 
HETATM   15  C   UNL     1      -9.790  10.967  67.860  1.00  0.00    -0.171 A  
HETATM   16 CL   UNL     1     -11.133   9.926  67.503  1.00  0.00    -0.249 Cl 
BRANCH  13  17
HETATM   17  N   UNL     1      -9.825  11.818  65.537  1.00  0.00    -0.231 N  
HETATM   18  C   UNL     1     -10.709  12.768  65.052  1.00  0.00    -0.296 C  
HETATM   19  H   UNL     1      -9.558  11.067  64.902  1.00  0.00     0.000 HD 
HETATM   20  O   UNL     1     -11.098  13.804  65.580  1.00  0.00    -0.293 OA 
HETATM   21  C   UNL     1     -11.250  12.488  63.644  1.00  0.00    -0.483 C  
HETATM   22  O   UNL     1     -12.066  13.483  63.239  1.00  0.00    -0.499 OA 
HETATM   23  O   UNL     1     -10.958  11.490  63.016  1.00  0.00    -0.190 OA 
ENDBRANCH  13  17
ENDBRANCH   6   8
TORSDOF 2
ENDMDL
MODEL      158
REMARK 921   NORMALIZED FREE ENERGY PREDICTED BY IDOCK:   -2.82 KCAL/MOL
REMARK 922        TOTAL FREE ENERGY PREDICTED BY IDOCK:   -3.68 KCAL/MOL
REMARK 923 INTER-LIGAND FREE ENERGY PREDICTED BY IDOCK:   -3.14 KCAL/MOL
REMARK 924 INTRA-LIGAND FREE ENERGY PREDICTED BY IDOCK:   -0.54 KCAL/MOL
REMARK 927      BINDING AFFINITY PREDICTED BY RF-SCORE:    0.00 PKD
ROOT
HETATM    1  O   UNL     1     -10.522   6.538  74.227  1.00  0.00    -0.333 OA 
HETATM    2  C   UNL     1      -9.346   6.420  73.583  1.00  0.00    -0.138 C  
HETATM    3  O   UNL     1      -8.314   5.970  74.037  1.00  0.00    -0.113 OA 
HETATM    4  C   UNL     1      -9.462   6.922  72.139  1.00  0.00    -0.138 C  
HETATM    5  O   UNL     1     -10.543   7.403  71.819  1.00  0.00    -0.202 OA 
HETATM    6  N   UNL     1      -8.330   6.718  71.367  1.00  0.00    -0.119 N  
HETATM    7  H   UNL     1      -7.535   6.268  71.820  1.00  0.00     0.000 HD 
ENDROOT
BRANCH   6   8
HETATM    8  C   UNL     1      -8.172   7.078  70.002  1.00  0.00    -0.133 A  
HETATM    9  C   UNL     1      -7.724   8.355  69.651  1.00  0.00    -0.095 A  
HETATM   10  C   UNL     1      -7.611   8.730  68.315  1.00  0.00    -0.096 A  
HETATM   11  C   UNL     1      -7.177  10.049  67.980  1.00  0.00    -0.082 C  
HETATM   12  C   UNL     1      -7.931   7.826  67.305  1.00  0.00    -0.118 A  
HETATM   13  C   UNL     1      -8.340   6.522  67.605  1.00  0.00    -0.121 A  
HETATM   14  N   UNL     1      -6.824  11.118  67.705  1.00  0.00    -0.073 NA 
HETATM   15  C   UNL     1      -8.462   6.152  68.968  1.00  0.00    -0.118 A  
HETATM   16 CL   UNL     1      -8.973   4.544  69.377  1.00  0.00    -0.130 Cl 
BRANCH  13  17
HETATM   17  N   UNL     1      -8.664   5.611  66.563  1.00  0.00    -0.119 N  
HETATM   18  C   UNL     1      -9.938   5.322  66.102  1.00  0.00    -0.165 C  
HETATM   19  H   UNL     1      -7.887   5.127  66.113  1.00  0.00     0.000 HD 
HETATM   20  O   UNL     1     -11.007   5.838  66.408  1.00  0.00    -0.206 OA 
HETATM   21  C   UNL     1     -10.006   4.216  65.040  1.00  0.00    -0.208 C  
HETATM   22  O   UNL     1     -11.275   4.034  64.622  1.00  0.00    -0.318 OA 
HETATM   23  O   UNL     1      -9.023   3.612  64.658  1.00  0.00    -0.115 OA 
ENDBRANCH  13  17
ENDBRANCH   6   8
TORSDOF 2
ENDMDL
MODEL      159
REMARK 921   NORMALIZED FREE ENERGY PREDICTED BY IDOCK:   -2.68 KCAL/MOL
REMARK 922        TOTAL FREE ENERGY PREDICTED BY IDOCK:   -3.52 KCAL/MOL
REMARK 923 INTER-LIGAND FREE ENERGY PREDICTED BY IDOCK:   -3.13 KCAL/MOL
REMARK 924 INTRA-LIGAND FREE ENERGY PREDICTED BY IDOCK:   -0.39 KCAL/MOL
REMARK 927      BINDING AFFINITY PREDICTED BY RF-SCORE:    0.00 PKD
ROOT
HETATM    1  O   UNL     1      -6.105  14.862  68.881  1.00  0.00    -0.084 OA 
HETATM    2  C   UNL     1      -6.909  14.211  68.020  1.00  0.00    -0.145 C  
HETATM    3  O   UNL     1      -7.351  14.642  66.974  1.00  0.00    -0.079 OA 
HETATM    4  C   UNL     1      -7.204  12.790  68.516  1.00  0.00    -0.114 C  
HETATM    5  O   UNL     1      -6.743  12.494  69.613  1.00  0.00    -0.049 OA 
HETATM    6  N   UNL     1      -7.921  12.008  67.626  1.00  0.00    -0.140 N  
HETATM    7  H   UNL     1      -8.188  12.439  66.741  1.00  0.00     0.000 HD 
ENDROOT
BRANCH   6   8
HETATM    8  C   UNL     1      -8.319  10.660  67.830  1.00  0.00    -0.115 A  
HETATM    9  C   UNL     1      -7.617   9.613  67.225  1.00  0.00    -0.091 A  
HETATM   10  C   UNL     1      -8.028   8.292  67.383  1.00  0.00    -0.106 A  
HETATM   11  C   UNL     1      -7.313   7.240  66.734  1.00  0.00    -0.088 C  
HETATM   12  C   UNL     1      -9.143   7.995  68.164  1.00  0.00    -0.134 A  
HETATM   13  C   UNL     1      -9.851   9.004  68.827  1.00  0.00    -0.172 A  
HETATM   14  N   UNL     1      -6.733   6.385  66.209  1.00  0.00    -0.054 NA 
HETATM   15  C   UNL     1      -9.431  10.346  68.652  1.00  0.00    -0.167 A  
HETATM   16 CL   UNL     1     -10.289  11.624  69.455  1.00  0.00     0.037 Cl 
BRANCH  13  17
HETATM   17  N   UNL     1     -10.987   8.685  69.620  1.00  0.00    -0.398 N  
HETATM   18  C   UNL     1     -11.052   8.729  71.003  1.00  0.00    -0.270 C  
HETATM   19  H   UNL     1     -11.830   8.397  69.126  1.00  0.00     0.000 HD 
HETATM   20  O   UNL     1     -10.215   9.132  71.805  1.00  0.00    -0.338 OA 
HETATM   21  C   UNL     1     -12.371   8.227  71.605  1.00  0.00    -0.315 C  
HETATM   22  O   UNL     1     -12.359   8.346  72.948  1.00  0.00    -0.264 OA 
HETATM   23  O   UNL     1     -13.276   7.786  70.925  1.00  0.00    -0.041 OA 
ENDBRANCH  13  17
ENDBRANCH   6   8
TORSDOF 2
ENDMDL
MODEL      160
REMARK 921   NORMALIZED FREE ENERGY PREDICTED BY IDOCK:   -2.58 KCAL/MOL
REMARK 922        TOTAL FREE ENERGY PREDICTED BY IDOCK:   -3.41 KCAL/MOL
REMARK 923 INTER-LIGAND FREE ENERGY PREDICTED BY IDOCK:   -3.05 KCAL/MOL
REMARK 924 INTRA-LIGAND FREE ENERGY PREDICTED BY IDOCK:   -0.36 KCAL/MOL
REMARK 927      BINDING AFFINITY PREDICTED BY RF-SCORE:    0.00 PKD
ROOT
HETATM    1  O   UNL     1     -10.230   4.918  68.653  1.00  0.00    -0.135 OA 
HETATM    2  C   UNL     1     -10.438   6.099  68.043  1.00  0.00    -0.228 C  
HETATM    3  O   UNL     1     -11.484   6.495  67.569  1.00  0.00    -0.168 OA 
HETATM    4  C   UNL     1      -9.156   6.940  68.026  1.00  0.00    -0.120 C  
HETATM    5  O   UNL     1      -8.154   6.405  68.489  1.00  0.00    -0.108 OA 
HETATM    6  N   UNL     1      -9.315   8.223  67.529  1.00  0.00    -0.139 N  
HETATM    7  H   UNL     1     -10.251   8.486  67.220  1.00  0.00     0.000 HD 
ENDROOT
BRANCH   6   8
HETATM    8  C   UNL     1      -8.298   9.206  67.411  1.00  0.00    -0.115 A  
HETATM    9  C   UNL     1      -7.576   9.342  66.221  1.00  0.00    -0.096 A  
HETATM   10  C   UNL     1      -6.546  10.273  66.114  1.00  0.00    -0.105 A  
HETATM   11  C   UNL     1      -5.803  10.376  64.899  1.00  0.00    -0.130 C  
HETATM   12  C   UNL     1      -6.231  11.096  67.192  1.00  0.00    -0.083 A  
HETATM   13  C   UNL     1      -6.955  11.030  68.388  1.00  0.00    -0.071 A  
HETATM   14  N   UNL     1      -5.199  10.462  63.913  1.00  0.00    -0.134 NA 
HETATM   15  C   UNL     1      -7.994  10.072  68.492  1.00  0.00    -0.102 A  
HETATM   16 CL   UNL     1      -8.910   9.958  69.963  1.00  0.00    -0.227 Cl 
BRANCH  13  17
HETATM   17  N   UNL     1      -6.621  11.877  69.480  1.00  0.00    -0.217 N  
HETATM   18  C   UNL     1      -6.461  13.252  69.424  1.00  0.00    -0.097 C  
HETATM   19  H   UNL     1      -6.487  11.431  70.387  1.00  0.00     0.000 HD 
HETATM   20  O   UNL     1      -6.662  14.016  68.486  1.00  0.00    -0.085 OA 
HETATM   21  C   UNL     1      -5.991  13.902  70.732  1.00  0.00    -0.170 C  
HETATM   22  O   UNL     1      -5.904  15.241  70.595  1.00  0.00    -0.122 OA 
HETATM   23  O   UNL     1      -5.741  13.258  71.731  1.00  0.00    -0.399 OA 
ENDBRANCH  13  17
ENDBRANCH   6   8
TORSDOF 2
ENDMDL
MODEL      161
REMARK 921   NORMALIZED FREE ENERGY PREDICTED BY IDOCK:   -2.48 KCAL/MOL
REMARK 922        TOTAL FREE ENERGY PREDICTED BY IDOCK:   -3.30 KCAL/MOL
REMARK 923 INTER-LIGAND FREE ENERGY PREDICTED BY IDOCK:   -2.96 KCAL/MOL
REMARK 924 INTRA-LIGAND FREE ENERGY PREDICTED BY IDOCK:   -0.34 KCAL/MOL
REMARK 927      BINDING AFFINITY PREDICTED BY RF-SCORE:    0.00 PKD
ROOT
HETATM    1  O   UNL     1      -5.750  13.702  69.407  1.00  0.00    -0.084 OA 
HETATM    2  C   UNL     1      -6.688  13.092  68.658  1.00  0.00    -0.096 C  
HETATM    3  O   UNL     1      -7.134  13.481  67.598  1.00  0.00    -0.145 OA 
HETATM    4  C   UNL     1      -7.140  11.781  69.312  1.00  0.00    -0.032 C  
HETATM    5  O   UNL     1      -6.654  11.528  70.409  1.00  0.00    -0.185 OA 
HETATM    6  N   UNL     1      -8.012  11.027  68.544  1.00  0.00    -0.129 N  
HETATM    7  H   UNL     1      -8.274  11.406  67.634  1.00  0.00     0.000 HD 
ENDROOT
BRANCH   6   8
HETATM    8  C   UNL     1      -8.575   9.774  68.905  1.00  0.00    -0.134 A  
HETATM    9  C   UNL     1      -9.182   9.601  70.153  1.00  0.00    -0.287 A  
HETATM   10  C   UNL     1      -9.695   8.363  70.532  1.00  0.00    -0.192 A  
HETATM   11  C   UNL     1     -10.287   8.202  71.821  1.00  0.00    -0.230 C  
HETATM   12  C   UNL     1      -9.622   7.279  69.661  1.00  0.00    -0.155 A  
HETATM   13  C   UNL     1      -9.066   7.414  68.383  1.00  0.00    -0.132 A  
HETATM   14  N   UNL     1     -10.768   8.069  72.867  1.00  0.00    -0.368 NA 
HETATM   15  C   UNL     1      -8.537   8.674  68.010  1.00  0.00    -0.137 A  
HETATM   16 CL   UNL     1      -7.833   8.876  66.436  1.00  0.00    -0.102 Cl 
BRANCH  13  17
HETATM   17  N   UNL     1      -8.998   6.297  67.506  1.00  0.00    -0.110 N  
HETATM   18  C   UNL     1      -7.998   5.339  67.484  1.00  0.00    -0.100 C  
HETATM   19  H   UNL     1      -9.755   6.192  66.831  1.00  0.00     0.000 HD 
HETATM   20  O   UNL     1      -7.049   5.194  68.248  1.00  0.00    -0.060 OA 
HETATM   21  C   UNL     1      -8.119   4.303  66.358  1.00  0.00    -0.102 C  
HETATM   22  O   UNL     1      -7.130   3.390  66.442  1.00  0.00    -0.060 OA 
HETATM   23  O   UNL     1      -9.002   4.341  65.525  1.00  0.00    -0.123 OA 
ENDBRANCH  13  17
ENDBRANCH   6   8
TORSDOF 2
ENDMDL
MODEL      162
REMARK 921   NORMALIZED FREE ENERGY PREDICTED BY IDOCK:   -2.35 KCAL/MOL
REMARK 922        TOTAL FREE ENERGY PREDICTED BY IDOCK:   -3.15 KCAL/MOL
REMARK 923 INTER-LIGAND FREE ENERGY PREDICTED BY IDOCK:   -2.64 KCAL/MOL
REMARK 924 INTRA-LIGAND FREE ENERGY PREDICTED BY IDOCK:   -0.51 KCAL/MOL
REMARK 927      BINDING AFFINITY PREDICTED BY RF-SCORE:    0.00 PKD
ROOT
HETATM    1  O   UNL     1     -11.744  12.211  66.163  1.00  0.00    -0.452 OA 
HETATM    2  C   UNL     1     -10.451  12.200  66.534  1.00  0.00    -0.225 C  
HETATM    3  O   UNL     1      -9.757  13.169  66.771  1.00  0.00    -0.232 OA 
HETATM    4  C   UNL     1      -9.927  10.764  66.651  1.00  0.00    -0.206 C  
HETATM    5  O   UNL     1     -10.711   9.876  66.332  1.00  0.00    -0.099 OA 
HETATM    6  N   UNL     1      -8.640  10.659  67.151  1.00  0.00    -0.127 N  
HETATM    7  H   UNL     1      -8.164  11.530  67.387  1.00  0.00     0.000 HD 
ENDROOT
BRANCH   6   8
HETATM    8  C   UNL     1      -7.922   9.454  67.367  1.00  0.00    -0.106 A  
HETATM    9  C   UNL     1      -7.267   8.817  66.308  1.00  0.00    -0.086 A  
HETATM   10  C   UNL     1      -6.600   7.611  66.503  1.00  0.00    -0.050 A  
HETATM   11  C   UNL     1      -5.960   6.965  65.402  1.00  0.00    -0.036 C  
HETATM   12  C   UNL     1      -6.564   7.027  67.767  1.00  0.00    -0.052 A  
HETATM   13  C   UNL     1      -7.165   7.649  68.868  1.00  0.00    -0.081 A  
HETATM   14  N   UNL     1      -5.440   6.438  64.509  1.00  0.00    -0.021 NA 
HETATM   15  C   UNL     1      -7.851   8.871  68.658  1.00  0.00    -0.102 A  
HETATM   16 CL   UNL     1      -8.613   9.666  69.999  1.00  0.00    -0.217 Cl 
BRANCH  13  17
HETATM   17  N   UNL     1      -7.120   7.040  70.151  1.00  0.00    -0.065 N  
HETATM   18  C   UNL     1      -7.868   5.948  70.561  1.00  0.00    -0.101 C  
HETATM   19  H   UNL     1      -6.478   7.443  70.833  1.00  0.00     0.000 HD 
HETATM   20  O   UNL     1      -8.623   5.238  69.904  1.00  0.00    -0.099 OA 
HETATM   21  C   UNL     1      -7.701   5.566  72.037  1.00  0.00    -0.101 C  
HETATM   22  O   UNL     1      -8.431   4.471  72.333  1.00  0.00    -0.108 OA 
HETATM   23  O   UNL     1      -6.996   6.194  72.801  1.00  0.00    -0.073 OA 
ENDBRANCH  13  17
ENDBRANCH   6   8
TORSDOF 2
ENDMDL
MODEL      163
REMARK 921   NORMALIZED FREE ENERGY PREDICTED BY IDOCK:   -2.29 KCAL/MOL
REMARK 922        TOTAL FREE ENERGY PREDICTED BY IDOCK:   -3.09 KCAL/MOL
REMARK 923 INTER-LIGAND FREE ENERGY PREDICTED BY IDOCK:   -3.67 KCAL/MOL
REMARK 924 INTRA-LIGAND FREE ENERGY PREDICTED BY IDOCK:    0.57 KCAL/MOL
REMARK 927      BINDING AFFINITY PREDICTED BY RF-SCORE:    0.00 PKD
ROOT
HETATM    1  O   UNL     1     -14.408   8.005  72.601  1.00  0.00    -0.107 OA 
HETATM    2  C   UNL     1     -13.094   7.977  72.309  1.00  0.00    -0.126 C  
HETATM    3  O   UNL     1     -12.220   7.433  72.953  1.00  0.00     0.094 OA 
HETATM    4  C   UNL     1     -12.809   8.726  71.002  1.00  0.00    -0.001 C  
HETATM    5  O   UNL     1     -13.769   9.278  70.475  1.00  0.00     0.248 OA 
HETATM    6  N   UNL     1     -11.499   8.637  70.562  1.00  0.00    -0.391 N  
HETATM    7  H   UNL     1     -10.853   8.098  71.138  1.00  0.00     0.000 HD 
ENDROOT
BRANCH   6   8
HETATM    8  C   UNL     1     -10.971   9.227  69.383  1.00  0.00    -0.120 A  
HETATM    9  C   UNL     1     -10.361   8.435  68.404  1.00  0.00    -0.239 A  
HETATM   10  C   UNL     1      -9.800   9.011  67.268  1.00  0.00    -0.252 A  
HETATM   11  C   UNL     1      -9.159   8.187  66.294  1.00  0.00    -0.185 C  
HETATM   12  C   UNL     1      -9.854  10.391  67.082  1.00  0.00    -0.221 A  
HETATM   13  C   UNL     1     -10.495  11.220  68.011  1.00  0.00    -0.188 A  
HETATM   14  N   UNL     1      -8.638   7.520  65.502  1.00  0.00    -0.121 NA 
HETATM   15  C   UNL     1     -11.053  10.626  69.170  1.00  0.00    -0.255 A  
HETATM   16 CL   UNL     1     -11.849  11.626  70.345  1.00  0.00    -0.423 Cl 
BRANCH  13  17
HETATM   17  N   UNL     1     -10.541  12.626  67.808  1.00  0.00    -0.216 N  
HETATM   18  C   UNL     1      -9.915  13.322  66.786  1.00  0.00    -0.263 C  
HETATM   19  H   UNL     1     -11.084  13.173  68.475  1.00  0.00     0.000 HD 
HETATM   20  O   UNL     1      -9.298  12.887  65.819  1.00  0.00    -0.066 OA 
HETATM   21  C   UNL     1     -10.042  14.849  66.870  1.00  0.00    -0.242 C  
HETATM   22  O   UNL     1      -9.442  15.437  65.816  1.00  0.00    -0.333 OA 
HETATM   23  O   UNL     1     -10.614  15.409  67.784  1.00  0.00    -0.261 OA 
ENDBRANCH  13  17
ENDBRANCH   6   8
TORSDOF 2
ENDMDL
MODEL      164
REMARK 921   NORMALIZED FREE ENERGY PREDICTED BY IDOCK:   -2.27 KCAL/MOL
REMARK 922        TOTAL FREE ENERGY PREDICTED BY IDOCK:   -3.06 KCAL/MOL
REMARK 923 INTER-LIGAND FREE ENERGY PREDICTED BY IDOCK:   -2.56 KCAL/MOL
REMARK 924 INTRA-LIGAND FREE ENERGY PREDICTED BY IDOCK:   -0.51 KCAL/MOL
REMARK 927      BINDING AFFINITY PREDICTED BY RF-SCORE:    0.00 PKD
ROOT
HETATM    1  O   UNL     1      -7.115  10.045  70.960  1.00  0.00    -0.325 OA 
HETATM    2  C   UNL     1      -6.383   9.872  69.844  1.00  0.00    -0.063 C  
HETATM    3  O   UNL     1      -5.175   9.950  69.751  1.00  0.00    -0.037 OA 
HETATM    4  C   UNL     1      -7.281   9.531  68.649  1.00  0.00    -0.074 C  
HETATM    5  O   UNL     1      -8.489   9.537  68.861  1.00  0.00    -0.117 OA 
HETATM    6  N   UNL     1      -6.596   9.213  67.487  1.00  0.00    -0.064 N  
HETATM    7  H   UNL     1      -5.578   9.239  67.529  1.00  0.00     0.000 HD 
ENDROOT
BRANCH   6   8
HETATM    8  C   UNL     1      -7.181   8.853  66.244  1.00  0.00    -0.086 A  
HETATM    9  C   UNL     1      -7.733   9.829  65.410  1.00  0.00    -0.123 A  
HETATM   10  C   UNL     1      -8.349   9.479  64.211  1.00  0.00    -0.172 A  
HETATM   11  C   UNL     1      -8.930  10.489  63.387  1.00  0.00    -0.225 C  
HETATM   12  C   UNL     1      -8.409   8.143  63.819  1.00  0.00     0.005 A  
HETATM   13  C   UNL     1      -7.829   7.135  64.598  1.00  0.00    -0.123 A  
HETATM   14  N   UNL     1      -9.402  11.308  62.715  1.00  0.00    -0.358 NA 
HETATM   15  C   UNL     1      -7.214   7.500  65.821  1.00  0.00    -0.066 A  
HETATM   16 CL   UNL     1      -6.491   6.274  66.815  1.00  0.00    -0.045 Cl 
BRANCH  13  17
HETATM   17  N   UNL     1      -7.899   5.776  64.184  1.00  0.00    -0.111 N  
HETATM   18  C   UNL     1      -8.797   4.830  64.650  1.00  0.00    -0.152 C  
HETATM   19  H   UNL     1      -7.227   5.471  63.481  1.00  0.00     0.000 HD 
HETATM   20  O   UNL     1      -9.749   4.974  65.410  1.00  0.00    -0.123 OA 
HETATM   21  C   UNL     1      -8.576   3.410  64.111  1.00  0.00    -0.089 C  
HETATM   22  O   UNL     1      -9.519   2.569  64.584  1.00  0.00    -0.145 OA 
HETATM   23  O   UNL     1      -7.662   3.127  63.364  1.00  0.00    -0.065 OA 
ENDBRANCH  13  17
ENDBRANCH   6   8
TORSDOF 2
ENDMDL
MODEL      165
REMARK 921   NORMALIZED FREE ENERGY PREDICTED BY IDOCK:   -2.15 KCAL/MOL
REMARK 922        TOTAL FREE ENERGY PREDICTED BY IDOCK:   -2.93 KCAL/MOL
REMARK 923 INTER-LIGAND FREE ENERGY PREDICTED BY IDOCK:   -2.95 KCAL/MOL
REMARK 924 INTRA-LIGAND FREE ENERGY PREDICTED BY IDOCK:    0.02 KCAL/MOL
REMARK 927      BINDING AFFINITY PREDICTED BY RF-SCORE:    0.00 PKD
ROOT
HETATM    1  O   UNL     1     -11.028  15.533  66.226  1.00  0.00    -0.314 OA 
HETATM    2  C   UNL     1     -11.184  14.229  65.931  1.00  0.00    -0.319 C  
HETATM    3  O   UNL     1     -12.113  13.728  65.331  1.00  0.00    -0.362 OA 
HETATM    4  C   UNL     1      -9.994  13.407  66.442  1.00  0.00    -0.293 C  
HETATM    5  O   UNL     1      -9.147  14.023  67.080  1.00  0.00    -0.212 OA 
HETATM    6  N   UNL     1     -10.013  12.074  66.069  1.00  0.00    -0.229 N  
HETATM    7  H   UNL     1     -10.804  11.763  65.504  1.00  0.00     0.000 HD 
ENDROOT
BRANCH   6   8
HETATM    8  C   UNL     1      -9.035  11.099  66.398  1.00  0.00    -0.182 A  
HETATM    9  C   UNL     1      -8.277  11.220  67.568  1.00  0.00    -0.124 A  
HETATM   10  C   UNL     1      -7.285  10.293  67.875  1.00  0.00    -0.085 A  
HETATM   11  C   UNL     1      -6.505  10.451  69.060  1.00  0.00    -0.052 C  
HETATM   12  C   UNL     1      -7.043   9.219  67.022  1.00  0.00    -0.086 A  
HETATM   13  C   UNL     1      -7.805   9.029  65.864  1.00  0.00    -0.102 A  
HETATM   14  N   UNL     1      -5.871  10.576  70.023  1.00  0.00    -0.060 NA 
HETATM   15  C   UNL     1      -8.806   9.983  65.554  1.00  0.00    -0.165 A  
HETATM   16 CL   UNL     1      -9.767   9.783  64.122  1.00  0.00    -0.094 Cl 
BRANCH  13  17
HETATM   17  N   UNL     1      -7.546   7.928  65.003  1.00  0.00    -0.091 N  
HETATM   18  C   UNL     1      -6.344   7.655  64.371  1.00  0.00    -0.048 C  
HETATM   19  H   UNL     1      -8.315   7.279  64.836  1.00  0.00     0.000 HD 
HETATM   20  O   UNL     1      -5.262   8.220  64.490  1.00  0.00    -0.036 OA 
HETATM   21  C   UNL     1      -6.375   6.459  63.410  1.00  0.00    -0.030 C  
HETATM   22  O   UNL     1      -5.155   6.244  62.876  1.00  0.00    -0.016 OA 
HETATM   23  O   UNL     1      -7.385   5.822  63.189  1.00  0.00    -0.052 OA 
ENDBRANCH  13  17
ENDBRANCH   6   8
TORSDOF 2
ENDMDL
MODEL      166
REMARK 921   NORMALIZED FREE ENERGY PREDICTED BY IDOCK:   -1.25 KCAL/MOL
REMARK 922        TOTAL FREE ENERGY PREDICTED BY IDOCK:   -1.93 KCAL/MOL
REMARK 923 INTER-LIGAND FREE ENERGY PREDICTED BY IDOCK:   -1.87 KCAL/MOL
REMARK 924 INTRA-LIGAND FREE ENERGY PREDICTED BY IDOCK:   -0.06 KCAL/MOL
REMARK 927      BINDING AFFINITY PREDICTED BY RF-SCORE:    0.00 PKD
ROOT
HETATM    1  O   UNL     1     -11.488  18.189  64.559  1.00  0.00     0.334 OA 
HETATM    2  C   UNL     1     -11.600  16.902  64.939  1.00  0.00     0.772 C  
HETATM    3  O   UNL     1     -12.515  16.148  64.681  1.00  0.00     0.314 OA 
HETATM    4  C   UNL     1     -10.377  16.466  65.754  1.00  0.00    -0.369 C  
HETATM    5  O   UNL     1      -9.547  17.337  65.991  1.00  0.00    -0.455 OA 
HETATM    6  N   UNL     1     -10.351  15.119  66.076  1.00  0.00    -0.293 N  
HETATM    7  H   UNL     1     -11.135  14.551  65.754  1.00  0.00     0.000 HD 
ENDROOT
BRANCH   6   8
HETATM    8  C   UNL     1      -9.335  14.455  66.813  1.00  0.00    -0.268 A  
HETATM    9  C   UNL     1      -8.446  15.182  67.612  1.00  0.00    -0.171 A  
HETATM   10  C   UNL     1      -7.419  14.542  68.301  1.00  0.00    -0.120 A  
HETATM   11  C   UNL     1      -6.506  15.306  69.088  1.00  0.00    -0.122 C  
HETATM   12  C   UNL     1      -7.273  13.159  68.215  1.00  0.00    -0.107 A  
HETATM   13  C   UNL     1      -8.166  12.384  67.466  1.00  0.00    -0.173 A  
HETATM   14  N   UNL     1      -5.763  15.925  69.729  1.00  0.00    -0.132 NA 
HETATM   15  C   UNL     1      -9.202  13.044  66.760  1.00  0.00    -0.228 A  
HETATM   16 CL   UNL     1     -10.324  12.114  65.816  1.00  0.00    -0.278 Cl 
BRANCH  13  17
HETATM   17  N   UNL     1      -8.004  10.973  67.388  1.00  0.00    -0.116 N  
HETATM   18  C   UNL     1      -7.286  10.290  66.421  1.00  0.00    -0.113 C  
HETATM   19  H   UNL     1      -8.457  10.414  68.110  1.00  0.00     0.000 HD 
HETATM   20  O   UNL     1      -6.582  10.736  65.521  1.00  0.00    -0.094 OA 
HETATM   21  C   UNL     1      -7.368   8.760  66.514  1.00  0.00    -0.081 C  
HETATM   22  O   UNL     1      -6.608   8.182  65.562  1.00  0.00    -0.048 OA 
HETATM   23  O   UNL     1      -8.042   8.190  67.348  1.00  0.00    -0.118 OA 
ENDBRANCH  13  17
ENDBRANCH   6   8
TORSDOF 2
ENDMDL
MODEL      167
REMARK 921   NORMALIZED FREE ENERGY PREDICTED BY IDOCK:   -1.14 KCAL/MOL
REMARK 922        TOTAL FREE ENERGY PREDICTED BY IDOCK:   -1.80 KCAL/MOL
REMARK 923 INTER-LIGAND FREE ENERGY PREDICTED BY IDOCK:   -4.04 KCAL/MOL
REMARK 924 INTRA-LIGAND FREE ENERGY PREDICTED BY IDOCK:    2.23 KCAL/MOL
REMARK 927      BINDING AFFINITY PREDICTED BY RF-SCORE:    0.00 PKD
ROOT
HETATM    1  O   UNL     1     -11.339  12.305  69.223  1.00  0.00    -0.255 OA 
HETATM    2  C   UNL     1     -10.927  11.476  68.246  1.00  0.00    -0.224 C  
HETATM    3  O   UNL     1     -10.581  11.793  67.126  1.00  0.00    -0.217 OA 
HETATM    4  C   UNL     1     -10.924  10.021  68.729  1.00  0.00    -0.202 C  
HETATM    5  O   UNL     1     -11.347   9.828  69.864  1.00  0.00    -0.240 OA 
HETATM    6  N   UNL     1     -10.392   9.116  67.825  1.00  0.00    -0.232 N  
HETATM    7  H   UNL     1     -10.062   9.490  66.936  1.00  0.00     0.000 HD 
ENDROOT
BRANCH   6   8
HETATM    8  C   UNL     1     -10.262   7.716  68.022  1.00  0.00    -0.202 A  
HETATM    9  C   UNL     1     -10.204   6.847  66.928  1.00  0.00    -0.310 A  
HETATM   10  C   UNL     1     -10.123   5.470  67.114  1.00  0.00    -0.220 A  
HETATM   11  C   UNL     1     -10.093   4.599  65.983  1.00  0.00    -0.264 C  
HETATM   12  C   UNL     1     -10.082   4.938  68.401  1.00  0.00    -0.148 A  
HETATM   13  C   UNL     1     -10.089   5.769  69.527  1.00  0.00    -0.214 A  
HETATM   14  N   UNL     1     -10.068   3.890  65.066  1.00  0.00    -0.186 NA 
HETATM   15  C   UNL     1     -10.183   7.169  69.328  1.00  0.00    -0.190 A  
HETATM   16 CL   UNL     1     -10.202   8.230  70.703  1.00  0.00    -0.206 Cl 
BRANCH  13  17
HETATM   17  N   UNL     1     -10.048   5.212  70.834  1.00  0.00    -0.219 N  
HETATM   18  C   UNL     1      -8.983   4.522  71.390  1.00  0.00    -0.127 C  
HETATM   19  H   UNL     1     -10.877   5.331  71.415  1.00  0.00     0.000 HD 
HETATM   20  O   UNL     1      -7.859   4.338  70.936  1.00  0.00    -0.061 OA 
HETATM   21  C   UNL     1      -9.250   3.933  72.782  1.00  0.00    -0.111 C  
HETATM   22  O   UNL     1      -8.149   3.318  73.259  1.00  0.00    -0.071 OA 
HETATM   23  O   UNL     1     -10.325   4.029  73.339  1.00  0.00    -0.139 OA 
ENDBRANCH  13  17
ENDBRANCH   6   8
TORSDOF 2
ENDMDL
MODEL      168
REMARK 921   NORMALIZED FREE ENERGY PREDICTED BY IDOCK:   -1.09 KCAL/MOL
REMARK 922        TOTAL FREE ENERGY PREDICTED BY IDOCK:   -1.75 KCAL/MOL
REMARK 923 INTER-LIGAND FREE ENERGY PREDICTED BY IDOCK:   -5.34 KCAL/MOL
REMARK 924 INTRA-LIGAND FREE ENERGY PREDICTED BY IDOCK:    3.59 KCAL/MOL
REMARK 927      BINDING AFFINITY PREDICTED BY RF-SCORE:    0.00 PKD
ROOT
HETATM    1  O   UNL     1      -8.108   7.235  66.611  1.00  0.00    -0.108 OA 
HETATM    2  C   UNL     1      -7.801   8.504  66.287  1.00  0.00    -0.098 C  
HETATM    3  O   UNL     1      -6.930   8.866  65.522  1.00  0.00    -0.078 OA 
HETATM    4  C   UNL     1      -8.728   9.491  67.006  1.00  0.00    -0.128 C  
HETATM    5  O   UNL     1      -9.531   9.002  67.793  1.00  0.00    -0.139 OA 
HETATM    6  N   UNL     1      -8.564  10.814  66.629  1.00  0.00    -0.139 N  
HETATM    7  H   UNL     1      -7.851  11.010  65.926  1.00  0.00     0.000 HD 
ENDROOT
BRANCH   6   8
HETATM    8  C   UNL     1      -9.295  11.923  67.130  1.00  0.00    -0.180 A  
HETATM    9  C   UNL     1      -9.171  13.183  66.536  1.00  0.00    -0.185 A  
HETATM   10  C   UNL     1      -9.849  14.285  67.050  1.00  0.00    -0.254 A  
HETATM   11  C   UNL     1      -9.687  15.568  66.444  1.00  0.00    -0.283 C  
HETATM   12  C   UNL     1     -10.678  14.141  68.161  1.00  0.00    -0.251 A  
HETATM   13  C   UNL     1     -10.870  12.892  68.762  1.00  0.00    -0.242 A  
HETATM   14  N   UNL     1      -9.558  16.610  65.953  1.00  0.00    -0.498 NA 
HETATM   15  C   UNL     1     -10.168  11.779  68.239  1.00  0.00    -0.205 A  
HETATM   16 CL   UNL     1     -10.378  10.215  68.964  1.00  0.00    -0.209 Cl 
BRANCH  13  17
HETATM   17  N   UNL     1     -11.718  12.762  69.896  1.00  0.00    -0.484 N  
HETATM   18  C   UNL     1     -12.304  13.803  70.597  1.00  0.00    -0.375 C  
HETATM   19  H   UNL     1     -11.913  11.816  70.222  1.00  0.00     0.000 HD 
HETATM   20  O   UNL     1     -12.303  15.004  70.344  1.00  0.00    -0.307 OA 
HETATM   21  C   UNL     1     -13.085  13.381  71.848  1.00  0.00    -0.383 C  
HETATM   22  O   UNL     1     -13.654  14.452  72.440  1.00  0.00    -0.402 OA 
HETATM   23  O   UNL     1     -13.154  12.227  72.220  1.00  0.00    -0.396 OA 
ENDBRANCH  13  17
ENDBRANCH   6   8
TORSDOF 2
ENDMDL
MODEL      169
REMARK 921   NORMALIZED FREE ENERGY PREDICTED BY IDOCK:   -0.89 KCAL/MOL
REMARK 922        TOTAL FREE ENERGY PREDICTED BY IDOCK:   -1.53 KCAL/MOL
REMARK 923 INTER-LIGAND FREE ENERGY PREDICTED BY IDOCK:   -3.88 KCAL/MOL
REMARK 924 INTRA-LIGAND FREE ENERGY PREDICTED BY IDOCK:    2.35 KCAL/MOL
REMARK 927      BINDING AFFINITY PREDICTED BY RF-SCORE:    0.00 PKD
ROOT
HETATM    1  O   UNL     1      -5.951   7.676  66.824  1.00  0.00    -0.041 OA 
HETATM    2  C   UNL     1      -6.031   6.800  67.843  1.00  0.00    -0.031 C  
HETATM    3  O   UNL     1      -5.131   6.110  68.278  1.00  0.00    -0.003 OA 
HETATM    4  C   UNL     1      -7.445   6.780  68.436  1.00  0.00    -0.095 C  
HETATM    5  O   UNL     1      -8.277   7.482  67.872  1.00  0.00    -0.121 OA 
HETATM    6  N   UNL     1      -7.581   5.998  69.571  1.00  0.00    -0.091 N  
HETATM    7  H   UNL     1      -6.748   5.512  69.901  1.00  0.00     0.000 HD 
ENDROOT
BRANCH   6   8
HETATM    8  C   UNL     1      -8.774   5.812  70.320  1.00  0.00    -0.137 A  
HETATM    9  C   UNL     1      -8.960   4.654  71.082  1.00  0.00    -0.162 A  
HETATM   10  C   UNL     1     -10.146   4.444  71.781  1.00  0.00    -0.238 A  
HETATM   11  C   UNL     1     -10.327   3.242  72.531  1.00  0.00    -0.112 C  
HETATM   12  C   UNL     1     -11.160   5.398  71.743  1.00  0.00    -0.152 A  
HETATM   13  C   UNL     1     -11.002   6.593  71.033  1.00  0.00    -0.259 A  
HETATM   14  N   UNL     1     -10.475   2.267  73.141  1.00  0.00    -0.133 NA 
HETATM   15  C   UNL     1      -9.797   6.794  70.315  1.00  0.00    -0.174 A  
HETATM   16 CL   UNL     1      -9.568   8.263  69.418  1.00  0.00    -0.169 Cl 
BRANCH  13  17
HETATM   17  N   UNL     1     -12.047   7.557  71.003  1.00  0.00    -0.402 N  
HETATM   18  C   UNL     1     -11.996   8.829  71.548  1.00  0.00    -0.324 C  
HETATM   19  H   UNL     1     -12.913   7.286  70.538  1.00  0.00     0.000 HD 
HETATM   20  O   UNL     1     -11.047   9.413  72.062  1.00  0.00    -0.265 OA 
HETATM   21  C   UNL     1     -13.308   9.621  71.467  1.00  0.00    -0.388 C  
HETATM   22  O   UNL     1     -13.152  10.857  71.981  1.00  0.00    -0.491 OA 
HETATM   23  O   UNL     1     -14.326   9.155  70.997  1.00  0.00    -0.091 OA 
ENDBRANCH  13  17
ENDBRANCH   6   8
TORSDOF 2
ENDMDL
MODEL      170
REMARK 921   NORMALIZED FREE ENERGY PREDICTED BY IDOCK:   -0.81 KCAL/MOL
REMARK 922        TOTAL FREE ENERGY PREDICTED BY IDOCK:   -1.44 KCAL/MOL
REMARK 923 INTER-LIGAND FREE ENERGY PREDICTED BY IDOCK:   -2.77 KCAL/MOL
REMARK 924 INTRA-LIGAND FREE ENERGY PREDICTED BY IDOCK:    1.33 KCAL/MOL
REMARK 927      BINDING AFFINITY PREDICTED BY RF-SCORE:    0.00 PKD
ROOT
HETATM    1  O   UNL     1      -5.904   7.758  66.728  1.00  0.00    -0.040 OA 
HETATM    2  C   UNL     1      -6.211   7.243  67.933  1.00  0.00    -0.046 C  
HETATM    3  O   UNL     1      -5.558   6.434  68.563  1.00  0.00    -0.010 OA 
HETATM    4  C   UNL     1      -7.526   7.829  68.459  1.00  0.00    -0.103 C  
HETATM    5  O   UNL     1      -8.116   8.595  67.704  1.00  0.00    -0.106 OA 
HETATM    6  N   UNL     1      -7.850   7.448  69.751  1.00  0.00    -0.113 N  
HETATM    7  H   UNL     1      -7.201   6.819  70.224  1.00  0.00     0.000 HD 
ENDROOT
BRANCH   6   8
HETATM    8  C   UNL     1      -9.001   7.851  70.477  1.00  0.00    -0.145 A  
HETATM    9  C   UNL     1      -9.690   6.937  71.281  1.00  0.00    -0.175 A  
HETATM   10  C   UNL     1     -10.846   7.313  71.960  1.00  0.00    -0.264 A  
HETATM   11  C   UNL     1     -11.549   6.356  72.753  1.00  0.00    -0.083 C  
HETATM   12  C   UNL     1     -11.325   8.617  71.859  1.00  0.00    -0.417 A  
HETATM   13  C   UNL     1     -10.644   9.580  71.105  1.00  0.00    -0.318 A  
HETATM   14  N   UNL     1     -12.122   5.581  73.398  1.00  0.00     0.592 NA 
HETATM   15  C   UNL     1      -9.475   9.186  70.409  1.00  0.00    -0.227 A  
HETATM   16 CL   UNL     1      -8.609  10.353  69.458  1.00  0.00    -0.149 Cl 
BRANCH  13  17
HETATM   17  N   UNL     1     -11.145  10.907  71.011  1.00  0.00     0.123 N  
HETATM   18  C   UNL     1     -11.569  11.537  69.853  1.00  0.00    -0.308 C  
HETATM   19  H   UNL     1     -11.198  11.445  71.876  1.00  0.00     0.000 HD 
HETATM   20  O   UNL     1     -11.695  11.075  68.723  1.00  0.00    -0.295 OA 
HETATM   21  C   UNL     1     -11.960  13.011  70.023  1.00  0.00    -0.312 C  
HETATM   22  O   UNL     1     -12.398  13.526  68.856  1.00  0.00    -0.248 OA 
HETATM   23  O   UNL     1     -11.869  13.595  71.084  1.00  0.00    -0.120 OA 
ENDBRANCH  13  17
ENDBRANCH   6   8
TORSDOF 2
ENDMDL
MODEL      171
REMARK 921   NORMALIZED FREE ENERGY PREDICTED BY IDOCK:   -0.63 KCAL/MOL
REMARK 922        TOTAL FREE ENERGY PREDICTED BY IDOCK:   -1.24 KCAL/MOL
REMARK 923 INTER-LIGAND FREE ENERGY PREDICTED BY IDOCK:   -0.79 KCAL/MOL
REMARK 924 INTRA-LIGAND FREE ENERGY PREDICTED BY IDOCK:   -0.44 KCAL/MOL
REMARK 927      BINDING AFFINITY PREDICTED BY RF-SCORE:    0.00 PKD
ROOT
HETATM    1  O   UNL     1      -8.925  11.299  69.857  1.00  0.00     0.917 OA 
HETATM    2  C   UNL     1      -7.863  10.492  69.680  1.00  0.00    -0.086 C  
HETATM    3  O   UNL     1      -6.927  10.348  70.442  1.00  0.00    -0.253 OA 
HETATM    4  C   UNL     1      -7.976   9.720  68.360  1.00  0.00    -0.089 C  
HETATM    5  O   UNL     1      -8.941   9.995  67.655  1.00  0.00    -0.131 OA 
HETATM    6  N   UNL     1      -6.986   8.772  68.161  1.00  0.00    -0.073 N  
HETATM    7  H   UNL     1      -6.282   8.678  68.892  1.00  0.00     0.000 HD 
ENDROOT
BRANCH   6   8
HETATM    8  C   UNL     1      -6.861   7.918  67.033  1.00  0.00    -0.073 A  
HETATM    9  C   UNL     1      -6.521   8.441  65.781  1.00  0.00    -0.053 A  
HETATM   10  C   UNL     1      -6.441   7.616  64.662  1.00  0.00    -0.044 A  
HETATM   11  C   UNL     1      -6.119   8.175  63.387  1.00  0.00    -0.072 C  
HETATM   12  C   UNL     1      -6.686   6.250  64.779  1.00  0.00    -0.039 A  
HETATM   13  C   UNL     1      -6.983   5.673  66.019  1.00  0.00    -0.063 A  
HETATM   14  N   UNL     1      -5.857   8.625  62.352  1.00  0.00    -0.087 NA 
HETATM   15  C   UNL     1      -7.073   6.521  67.151  1.00  0.00    -0.076 A  
HETATM   16 CL   UNL     1      -7.447   5.841  68.704  1.00  0.00    -0.083 Cl 
BRANCH  13  17
HETATM   17  N   UNL     1      -7.231   4.277  66.123  1.00  0.00    -0.074 N  
HETATM   18  C   UNL     1      -8.358   3.614  65.665  1.00  0.00    -0.105 C  
HETATM   19  H   UNL     1      -6.513   3.712  66.576  1.00  0.00     0.000 HD 
HETATM   20  O   UNL     1      -9.299   4.051  65.011  1.00  0.00    -0.142 OA 
HETATM   21  C   UNL     1      -8.413   2.120  66.008  1.00  0.00    -0.102 C  
HETATM   22  O   UNL     1      -9.520   1.552  65.488  1.00  0.00    -0.008 OA 
HETATM   23  O   UNL     1      -7.554   1.565  66.664  1.00  0.00    -0.058 OA 
ENDBRANCH  13  17
ENDBRANCH   6   8
TORSDOF 2
ENDMDL
MODEL      172
REMARK 921   NORMALIZED FREE ENERGY PREDICTED BY IDOCK:    1.37 KCAL/MOL
REMARK 922        TOTAL FREE ENERGY PREDICTED BY IDOCK:    1.00 KCAL/MOL
REMARK 923 INTER-LIGAND FREE ENERGY PREDICTED BY IDOCK:    0.00 KCAL/MOL
REMARK 924 INTRA-LIGAND FREE ENERGY PREDICTED BY IDOCK:    1.00 KCAL/MOL
REMARK 927      BINDING AFFINITY PREDICTED BY RF-SCORE:    0.00 PKD
ROOT
HETATM    1  O   UNL     1     -11.751  18.673  64.912  1.00  0.00     1.551 OA 
HETATM    2  C   UNL     1     -11.333  17.536  65.500  1.00  0.00     0.989 C  
HETATM    3  O   UNL     1     -11.832  16.435  65.385  1.00  0.00     0.687 OA 
HETATM    4  C   UNL     1     -10.088  17.791  66.358  1.00  0.00    -0.357 C  
HETATM    5  O   UNL     1      -9.715  18.957  66.435  1.00  0.00    -0.340 OA 
HETATM    6  N   UNL     1      -9.517  16.650  66.897  1.00  0.00    -0.228 N  
HETATM    7  H   UNL     1      -9.971  15.762  66.685  1.00  0.00     0.000 HD 
ENDROOT
BRANCH   6   8
HETATM    8  C   UNL     1      -8.360  16.602  67.718  1.00  0.00    -0.178 A  
HETATM    9  C   UNL     1      -7.729  17.782  68.127  1.00  0.00    -0.254 A  
HETATM   10  C   UNL     1      -6.568  17.742  68.893  1.00  0.00    -0.229 A  
HETATM   11  C   UNL     1      -5.925  18.957  69.278  1.00  0.00    -0.238 C  
HETATM   12  C   UNL     1      -6.024  16.517  69.277  1.00  0.00    -0.165 A  
HETATM   13  C   UNL     1      -6.644  15.311  68.931  1.00  0.00    -0.108 A  
HETATM   14  N   UNL     1      -5.402  19.943  69.591  1.00  0.00    -0.202 NA 
HETATM   15  C   UNL     1      -7.820  15.362  68.142  1.00  0.00    -0.124 A  
HETATM   16 CL   UNL     1      -8.612  13.884  67.690  1.00  0.00    -0.177 Cl 
BRANCH  13  17
HETATM   17  N   UNL     1      -6.077  14.070  69.330  1.00  0.00    -0.096 N  
HETATM   18  C   UNL     1      -5.869  12.971  68.513  1.00  0.00    -0.075 C  
HETATM   19  H   UNL     1      -5.797  13.981  70.306  1.00  0.00     0.000 HD 
HETATM   20  O   UNL     1      -6.028  12.867  67.301  1.00  0.00    -0.294 OA 
HETATM   21  C   UNL     1      -5.341  11.722  69.231  1.00  0.00    -0.048 C  
HETATM   22  O   UNL     1      -5.129  10.720  68.354  1.00  0.00    -0.035 OA 
HETATM   23  O   UNL     1      -5.155  11.685  70.431  1.00  0.00    -0.076 OA 
ENDBRANCH  13  17
ENDBRANCH   6   8
TORSDOF 2
ENDMDL
MODEL      173
REMARK 921   NORMALIZED FREE ENERGY PREDICTED BY IDOCK:    1.56 KCAL/MOL
REMARK 922        TOTAL FREE ENERGY PREDICTED BY IDOCK:    1.21 KCAL/MOL
REMARK 923 INTER-LIGAND FREE ENERGY PREDICTED BY IDOCK:    0.85 KCAL/MOL
REMARK 924 INTRA-LIGAND FREE ENERGY PREDICTED BY IDOCK:    0.36 KCAL/MOL
REMARK 927      BINDING AFFINITY PREDICTED BY RF-SCORE:    0.00 PKD
ROOT
HETATM    1  O   UNL     1      -6.134  14.999  69.394  1.00  0.00    -0.101 OA 
HETATM    2  C   UNL     1      -6.676  13.978  68.705  1.00  0.00    -0.100 C  
HETATM    3  O   UNL     1      -6.823  13.914  67.501  1.00  0.00    -0.175 OA 
HETATM    4  C   UNL     1      -7.089  12.841  69.647  1.00  0.00     0.395 C  
HETATM    5  O   UNL     1      -6.937  13.051  70.846  1.00  0.00     1.291 OA 
HETATM    6  N   UNL     1      -7.539  11.698  69.007  1.00  0.00    -0.288 N  
HETATM    7  H   UNL     1      -7.560  11.716  67.988  1.00  0.00     0.000 HD 
ENDROOT
BRANCH   6   8
HETATM    8  C   UNL     1      -7.972  10.502  69.638  1.00  0.00    -0.063 A  
HETATM    9  C   UNL     1      -9.246   9.984  69.380  1.00  0.00    -0.229 A  
HETATM   10  C   UNL     1      -9.695   8.837  70.029  1.00  0.00    -0.182 A  
HETATM   11  C   UNL     1     -11.008   8.341  69.771  1.00  0.00    -0.129 C  
HETATM   12  C   UNL     1      -8.870   8.179  70.939  1.00  0.00    -0.156 A  
HETATM   13  C   UNL     1      -7.571   8.632  71.196  1.00  0.00    -0.106 A  
HETATM   14  N   UNL     1     -12.074   7.935  69.562  1.00  0.00     1.192 NA 
HETATM   15  C   UNL     1      -7.126   9.806  70.539  1.00  0.00    -0.122 A  
HETATM   16 CL   UNL     1      -5.523  10.401  70.838  1.00  0.00    -0.081 Cl 
BRANCH  13  17
HETATM   17  N   UNL     1      -6.742   7.950  72.128  1.00  0.00    -0.059 N  
HETATM   18  C   UNL     1      -6.658   6.577  72.289  1.00  0.00    -0.059 C  
HETATM   19  H   UNL     1      -6.155   8.524  72.732  1.00  0.00     0.000 HD 
HETATM   20  O   UNL     1      -7.181   5.687  71.626  1.00  0.00    -0.077 OA 
HETATM   21  C   UNL     1      -5.762   6.115  73.446  1.00  0.00    -0.041 C  
HETATM   22  O   UNL     1      -5.709   4.769  73.500  1.00  0.00    -0.016 OA 
HETATM   23  O   UNL     1      -5.199   6.893  74.190  1.00  0.00    -0.045 OA 
ENDBRANCH  13  17
ENDBRANCH   6   8
TORSDOF 2
ENDMDL
MODEL      174
REMARK 921   NORMALIZED FREE ENERGY PREDICTED BY IDOCK:    1.83 KCAL/MOL
REMARK 922        TOTAL FREE ENERGY PREDICTED BY IDOCK:    1.51 KCAL/MOL
REMARK 923 INTER-LIGAND FREE ENERGY PREDICTED BY IDOCK:    0.78 KCAL/MOL
REMARK 924 INTRA-LIGAND FREE ENERGY PREDICTED BY IDOCK:    0.74 KCAL/MOL
REMARK 927      BINDING AFFINITY PREDICTED BY RF-SCORE:    0.00 PKD
ROOT
HETATM    1  O   UNL     1     -12.148  11.044  71.140  1.00  0.00    -0.321 OA 
HETATM    2  C   UNL     1     -12.690  11.698  70.096  1.00  0.00     0.091 C  
HETATM    3  O   UNL     1     -13.804  12.180  70.043  1.00  0.00     2.920 OA 
HETATM    4  C   UNL     1     -11.696  11.790  68.933  1.00  0.00    -0.323 C  
HETATM    5  O   UNL     1     -10.624  11.216  69.092  1.00  0.00    -0.213 OA 
HETATM    6  N   UNL     1     -12.129  12.558  67.865  1.00  0.00    -0.205 N  
HETATM    7  H   UNL     1     -13.054  12.980  67.944  1.00  0.00     0.000 HD 
ENDROOT
BRANCH   6   8
HETATM    8  C   UNL     1     -11.405  12.814  66.671  1.00  0.00    -0.316 A  
HETATM    9  C   UNL     1     -11.326  14.111  66.151  1.00  0.00    -0.337 A  
HETATM   10  C   UNL     1     -10.657  14.361  64.957  1.00  0.00    -0.452 A  
HETATM   11  C   UNL     1     -10.612  15.688  64.430  1.00  0.00     0.511 C  
HETATM   12  C   UNL     1     -10.041  13.319  64.267  1.00  0.00    -0.089 A  
HETATM   13  C   UNL     1     -10.053  12.013  64.770  1.00  0.00    -0.257 A  
HETATM   14  N   UNL     1     -10.573  16.764  64.001  1.00  0.00     1.137 NA 
HETATM   15  C   UNL     1     -10.745  11.765  65.981  1.00  0.00    -0.279 A  
HETATM   16 CL   UNL     1     -10.786  10.156  66.631  1.00  0.00    -0.208 Cl 
BRANCH  13  17
HETATM   17  N   UNL     1      -9.420  10.960  64.054  1.00  0.00    -0.242 N  
HETATM   18  C   UNL     1      -8.217  10.359  64.386  1.00  0.00    -0.125 C  
HETATM   19  H   UNL     1      -9.895  10.616  63.221  1.00  0.00     0.000 HD 
HETATM   20  O   UNL     1      -7.517  10.526  65.380  1.00  0.00    -0.145 OA 
HETATM   21  C   UNL     1      -7.712   9.321  63.376  1.00  0.00    -0.121 C  
HETATM   22  O   UNL     1      -6.561   8.761  63.801  1.00  0.00    -0.086 OA 
HETATM   23  O   UNL     1      -8.300   9.072  62.343  1.00  0.00    -0.163 OA 
ENDBRANCH  13  17
ENDBRANCH   6   8
TORSDOF 2
ENDMDL
MODEL      175
REMARK 921   NORMALIZED FREE ENERGY PREDICTED BY IDOCK:    3.09 KCAL/MOL
REMARK 922        TOTAL FREE ENERGY PREDICTED BY IDOCK:    2.93 KCAL/MOL
REMARK 923 INTER-LIGAND FREE ENERGY PREDICTED BY IDOCK:    0.91 KCAL/MOL
REMARK 924 INTRA-LIGAND FREE ENERGY PREDICTED BY IDOCK:    2.01 KCAL/MOL
REMARK 927      BINDING AFFINITY PREDICTED BY RF-SCORE:    0.00 PKD
ROOT
HETATM    1  O   UNL     1     -10.360   2.091  71.295  1.00  0.00     0.143 OA 
HETATM    2  C   UNL     1      -9.557   2.710  70.410  1.00  0.00    -0.057 C  
HETATM    3  O   UNL     1      -9.030   2.209  69.437  1.00  0.00    -0.082 OA 
HETATM    4  C   UNL     1      -9.388   4.191  70.768  1.00  0.00    -0.153 C  
HETATM    5  O   UNL     1      -9.928   4.561  71.805  1.00  0.00    -0.180 OA 
HETATM    6  N   UNL     1      -8.679   4.931  69.836  1.00  0.00    -0.092 N  
HETATM    7  H   UNL     1      -8.335   4.433  69.015  1.00  0.00     0.000 HD 
ENDROOT
BRANCH   6   8
HETATM    8  C   UNL     1      -8.386   6.318  69.917  1.00  0.00    -0.129 A  
HETATM    9  C   UNL     1      -7.493   6.801  70.879  1.00  0.00    -0.083 A  
HETATM   10  C   UNL     1      -7.237   8.164  70.994  1.00  0.00    -0.057 A  
HETATM   11  C   UNL     1      -6.342   8.638  72.000  1.00  0.00    -0.073 C  
HETATM   12  C   UNL     1      -7.859   9.069  70.136  1.00  0.00    -0.100 A  
HETATM   13  C   UNL     1      -8.725   8.630  69.128  1.00  0.00    -0.136 A  
HETATM   14  N   UNL     1      -5.615   9.026  72.817  1.00  0.00    -0.086 NA 
HETATM   15  C   UNL     1      -8.988   7.241  69.025  1.00  0.00    -0.134 A  
HETATM   16 CL   UNL     1     -10.062   6.662  67.790  1.00  0.00    -0.163 Cl 
BRANCH  13  17
HETATM   17  N   UNL     1      -9.353   9.565  68.261  1.00  0.00    -0.133 N  
HETATM   18  C   UNL     1     -10.555   9.380  67.598  1.00  0.00    -0.271 C  
HETATM   19  H   UNL     1      -8.874  10.453  68.113  1.00  0.00     0.000 HD 
HETATM   20  O   UNL     1     -11.354   8.454  67.690  1.00  0.00     0.473 OA 
HETATM   21  C   UNL     1     -10.946  10.512  66.639  1.00  0.00    -0.032 C  
HETATM   22  O   UNL     1     -12.146  10.266  66.074  1.00  0.00     2.472 OA 
HETATM   23  O   UNL     1     -10.238  11.479  66.443  1.00  0.00    -0.212 OA 
ENDBRANCH  13  17
ENDBRANCH   6   8
TORSDOF 2
ENDMDL
MODEL      176
REMARK 921   NORMALIZED FREE ENERGY PREDICTED BY IDOCK:    3.94 KCAL/MOL
REMARK 922        TOTAL FREE ENERGY PREDICTED BY IDOCK:    3.87 KCAL/MOL
REMARK 923 INTER-LIGAND FREE ENERGY PREDICTED BY IDOCK:    2.48 KCAL/MOL
REMARK 924 INTRA-LIGAND FREE ENERGY PREDICTED BY IDOCK:    1.39 KCAL/MOL
REMARK 927      BINDING AFFINITY PREDICTED BY RF-SCORE:    0.00 PKD
ROOT
HETATM    1  O   UNL     1     -11.738  15.330  72.083  1.00  0.00    -0.394 OA 
HETATM    2  C   UNL     1     -10.561  15.156  71.454  1.00  0.00     0.496 C  
HETATM    3  O   UNL     1      -9.469  15.507  71.850  1.00  0.00     3.177 OA 
HETATM    4  C   UNL     1     -10.757  14.412  70.127  1.00  0.00     0.240 C  
HETATM    5  O   UNL     1     -11.915  14.160  69.814  1.00  0.00    -0.297 OA 
HETATM    6  N   UNL     1      -9.580  14.079  69.475  1.00  0.00    -0.079 N  
HETATM    7  H   UNL     1      -8.708  14.358  69.924  1.00  0.00     0.000 HD 
ENDROOT
BRANCH   6   8
HETATM    8  C   UNL     1      -9.476  13.386  68.241  1.00  0.00    -0.209 A  
HETATM    9  C   UNL     1      -8.448  12.460  68.031  1.00  0.00    -0.176 A  
HETATM   10  C   UNL     1      -8.312  11.810  66.808  1.00  0.00    -0.165 A  
HETATM   11  C   UNL     1      -7.240  10.889  66.606  1.00  0.00    -0.139 C  
HETATM   12  C   UNL     1      -9.213  12.064  65.776  1.00  0.00    -0.064 A  
HETATM   13  C   UNL     1     -10.284  12.947  65.953  1.00  0.00    -0.290 A  
HETATM   14  N   UNL     1      -6.371  10.140  66.440  1.00  0.00    -0.072 NA 
HETATM   15  C   UNL     1     -10.409  13.612  67.198  1.00  0.00    -0.250 A  
HETATM   16 CL   UNL     1     -11.722  14.719  67.450  1.00  0.00    -0.392 Cl 
BRANCH  13  17
HETATM   17  N   UNL     1     -11.194  13.197  64.890  1.00  0.00    -0.301 N  
HETATM   18  C   UNL     1     -11.996  12.254  64.267  1.00  0.00    -0.407 C  
HETATM   19  H   UNL     1     -11.264  14.157  64.555  1.00  0.00     0.000 HD 
HETATM   20  O   UNL     1     -12.163  11.072  64.550  1.00  0.00     0.799 OA 
HETATM   21  C   UNL     1     -12.804  12.780  63.073  1.00  0.00     0.560 C  
HETATM   22  O   UNL     1     -13.583  11.806  62.558  1.00  0.00     0.550 OA 
HETATM   23  O   UNL     1     -12.720  13.925  62.677  1.00  0.00    -0.110 OA 
ENDBRANCH  13  17
ENDBRANCH   6   8
TORSDOF 2
ENDMDL
MODEL      177
REMARK 921   NORMALIZED FREE ENERGY PREDICTED BY IDOCK:   10.66 KCAL/MOL
REMARK 922        TOTAL FREE ENERGY PREDICTED BY IDOCK:   11.37 KCAL/MOL
REMARK 923 INTER-LIGAND FREE ENERGY PREDICTED BY IDOCK:    9.82 KCAL/MOL
REMARK 924 INTRA-LIGAND FREE ENERGY PREDICTED BY IDOCK:    1.55 KCAL/MOL
REMARK 927      BINDING AFFINITY PREDICTED BY RF-SCORE:    0.00 PKD
ROOT
HETATM    1  O   UNL     1      -6.195  11.398  62.957  1.00  0.00     0.615 OA 
HETATM    2  C   UNL     1      -6.421  10.907  64.189  1.00  0.00     0.541 C  
HETATM    3  O   UNL     1      -6.015   9.853  64.635  1.00  0.00    -0.085 OA 
HETATM    4  C   UNL     1      -7.272  11.878  65.017  1.00  0.00     2.946 C  
HETATM    5  O   UNL     1      -7.664  12.884  64.434  1.00  0.00     6.039 OA 
HETATM    6  N   UNL     1      -7.445  11.508  66.340  1.00  0.00    -0.352 N  
HETATM    7  H   UNL     1      -7.005  10.637  66.638  1.00  0.00     0.000 HD 
ENDROOT
BRANCH   6   8
HETATM    8  C   UNL     1      -8.177  12.227  67.321  1.00  0.00    -0.182 A  
HETATM    9  C   UNL     1      -9.198  11.603  68.046  1.00  0.00    -0.178 A  
HETATM   10  C   UNL     1      -9.950  12.314  68.976  1.00  0.00     0.167 A  
HETATM   11  C   UNL     1     -11.005  11.664  69.686  1.00  0.00    -0.032 C  
HETATM   12  C   UNL     1      -9.685  13.662  69.209  1.00  0.00     0.470 A  
HETATM   13  C   UNL     1      -8.644  14.319  68.542  1.00  0.00    -0.175 A  
HETATM   14  N   UNL     1     -11.862  11.138  70.264  1.00  0.00    -0.342 NA 
HETATM   15  C   UNL     1      -7.890  13.590  67.589  1.00  0.00    -0.175 A  
HETATM   16 CL   UNL     1      -6.596  14.375  66.739  1.00  0.00     1.350 Cl 
BRANCH  13  17
HETATM   17  N   UNL     1      -8.386  15.695  68.790  1.00  0.00    -0.174 N  
HETATM   18  C   UNL     1      -8.079  16.650  67.835  1.00  0.00    -0.172 C  
HETATM   19  H   UNL     1      -8.430  16.007  69.759  1.00  0.00     0.000 HD 
HETATM   20  O   UNL     1      -8.064  16.544  66.613  1.00  0.00    -0.217 OA 
HETATM   21  C   UNL     1      -7.739  18.037  68.393  1.00  0.00    -0.286 C  
HETATM   22  O   UNL     1      -7.496  18.909  67.393  1.00  0.00    -0.228 OA 
HETATM   23  O   UNL     1      -7.702  18.274  69.584  1.00  0.00     0.296 OA 
ENDBRANCH  13  17
ENDBRANCH   6   8
TORSDOF 2
ENDMDL
MODEL      178
REMARK 921   NORMALIZED FREE ENERGY PREDICTED BY IDOCK:   11.72 KCAL/MOL
REMARK 922        TOTAL FREE ENERGY PREDICTED BY IDOCK:   12.56 KCAL/MOL
REMARK 923 INTER-LIGAND FREE ENERGY PREDICTED BY IDOCK:   11.08 KCAL/MOL
REMARK 924 INTRA-LIGAND FREE ENERGY PREDICTED BY IDOCK:    1.48 KCAL/MOL
REMARK 927      BINDING AFFINITY PREDICTED BY RF-SCORE:    0.00 PKD
ROOT
HETATM    1  O   UNL     1      -5.552  14.849  68.160  1.00  0.00    -0.111 OA 
HETATM    2  C   UNL     1      -6.194  14.413  67.061  1.00  0.00     1.136 C  
HETATM    3  O   UNL     1      -5.887  14.632  65.907  1.00  0.00     5.329 OA 
HETATM    4  C   UNL     1      -7.403  13.549  67.442  1.00  0.00    -0.109 C  
HETATM    5  O   UNL     1      -7.638  13.448  68.642  1.00  0.00    -0.126 OA 
HETATM    6  N   UNL     1      -8.046  12.954  66.369  1.00  0.00    -0.098 N  
HETATM    7  H   UNL     1      -7.669  13.144  65.441  1.00  0.00     0.000 HD 
ENDROOT
BRANCH   6   8
HETATM    8  C   UNL     1      -9.180  12.103  66.442  1.00  0.00    -0.207 A  
HETATM    9  C   UNL     1     -10.218  12.222  65.511  1.00  0.00    -0.296 A  
HETATM   10  C   UNL     1     -11.354  11.422  65.603  1.00  0.00    -0.069 A  
HETATM   11  C   UNL     1     -12.413  11.578  64.658  1.00  0.00     0.734 C  
HETATM   12  C   UNL     1     -11.465  10.478  66.621  1.00  0.00     0.627 A  
HETATM   13  C   UNL     1     -10.434  10.290  67.548  1.00  0.00    -0.244 A  
HETATM   14  N   UNL     1     -13.274  11.703  63.891  1.00  0.00    -0.310 NA 
HETATM   15  C   UNL     1      -9.286  11.116  67.453  1.00  0.00    -0.153 A  
HETATM   16 CL   UNL     1      -7.990  10.914  68.591  1.00  0.00    -0.131 Cl 
BRANCH  13  17
HETATM   17  N   UNL     1     -10.562   9.323  68.582  1.00  0.00    -0.295 N  
HETATM   18  C   UNL     1     -11.522   8.326  68.648  1.00  0.00     1.077 C  
HETATM   19  H   UNL     1      -9.886   9.366  69.344  1.00  0.00     0.000 HD 
HETATM   20  O   UNL     1     -12.369   8.012  67.819  1.00  0.00     4.251 OA 
HETATM   21  C   UNL     1     -11.496   7.488  69.933  1.00  0.00     0.039 C  
HETATM   22  O   UNL     1     -12.434   6.520  69.890  1.00  0.00     0.268 OA 
HETATM   23  O   UNL     1     -10.719   7.704  70.841  1.00  0.00    -0.229 OA 
ENDBRANCH  13  17
ENDBRANCH   6   8
TORSDOF 2
ENDMDL
MODEL      179
REMARK 921   NORMALIZED FREE ENERGY PREDICTED BY IDOCK:   18.86 KCAL/MOL
REMARK 922        TOTAL FREE ENERGY PREDICTED BY IDOCK:   20.54 KCAL/MOL
REMARK 923 INTER-LIGAND FREE ENERGY PREDICTED BY IDOCK:   20.86 KCAL/MOL
REMARK 924 INTRA-LIGAND FREE ENERGY PREDICTED BY IDOCK:   -0.32 KCAL/MOL
REMARK 927      BINDING AFFINITY PREDICTED BY RF-SCORE:    0.00 PKD
ROOT
HETATM    1  O   UNL     1     -12.081   8.119  65.129  1.00  0.00    11.673 OA 
HETATM    2  C   UNL     1     -10.771   8.396  64.997  1.00  0.00     5.668 C  
HETATM    3  O   UNL     1     -10.120   8.348  63.972  1.00  0.00     3.575 OA 
HETATM    4  C   UNL     1     -10.163   8.818  66.340  1.00  0.00    -0.186 C  
HETATM    5  O   UNL     1     -10.912   8.773  67.309  1.00  0.00    -0.115 OA 
HETATM    6  N   UNL     1      -8.847   9.244  66.267  1.00  0.00    -0.140 N  
HETATM    7  H   UNL     1      -8.407   9.233  65.347  1.00  0.00     0.000 HD 
ENDROOT
BRANCH   6   8
HETATM    8  C   UNL     1      -8.053   9.694  67.354  1.00  0.00    -0.110 A  
HETATM    9  C   UNL     1      -7.765   8.842  68.425  1.00  0.00    -0.099 A  
HETATM   10  C   UNL     1      -7.026   9.291  69.516  1.00  0.00    -0.052 A  
HETATM   11  C   UNL     1      -6.767   8.412  70.612  1.00  0.00    -0.038 C  
HETATM   12  C   UNL     1      -6.547  10.599  69.547  1.00  0.00    -0.091 A  
HETATM   13  C   UNL     1      -6.769  11.475  68.479  1.00  0.00    -0.067 A  
HETATM   14  N   UNL     1      -6.554   7.701  71.502  1.00  0.00    -0.044 NA 
HETATM   15  C   UNL     1      -7.532  11.013  67.378  1.00  0.00    -0.106 A  
HETATM   16 CL   UNL     1      -7.832  12.075  66.037  1.00  0.00     0.509 Cl 
BRANCH  13  17
HETATM   17  N   UNL     1      -6.275  12.808  68.526  1.00  0.00    -0.064 N  
HETATM   18  C   UNL     1      -6.634  13.777  69.448  1.00  0.00    -0.100 C  
HETATM   19  H   UNL     1      -5.594  13.074  67.815  1.00  0.00     0.000 HD 
HETATM   20  O   UNL     1      -7.347  13.673  70.441  1.00  0.00     0.985 OA 
HETATM   21  C   UNL     1      -6.028  15.164  69.198  1.00  0.00    -0.099 C  
HETATM   22  O   UNL     1      -6.398  16.027  70.166  1.00  0.00    -0.139 OA 
HETATM   23  O   UNL     1      -5.319  15.407  68.243  1.00  0.00    -0.098 OA 
ENDBRANCH  13  17
ENDBRANCH   6   8
TORSDOF 2
ENDMDL
MODEL      180
REMARK 921   NORMALIZED FREE ENERGY PREDICTED BY IDOCK:   26.30 KCAL/MOL
REMARK 922        TOTAL FREE ENERGY PREDICTED BY IDOCK:   28.85 KCAL/MOL
REMARK 923 INTER-LIGAND FREE ENERGY PREDICTED BY IDOCK:   26.89 KCAL/MOL
REMARK 924 INTRA-LIGAND FREE ENERGY PREDICTED BY IDOCK:    1.96 KCAL/MOL
REMARK 927      BINDING AFFINITY PREDICTED BY RF-SCORE:    0.00 PKD
ROOT
HETATM    1  O   UNL     1      -8.748  12.490  63.931  1.00  0.00     1.336 OA 
HETATM    2  C   UNL     1      -8.259  11.875  65.023  1.00  0.00     1.474 C  
HETATM    3  O   UNL     1      -7.283  11.154  65.073  1.00  0.00     0.389 OA 
HETATM    4  C   UNL     1      -9.096  12.216  66.262  1.00  0.00    -0.141 C  
HETATM    5  O   UNL     1     -10.087  12.911  66.070  1.00  0.00    -0.275 OA 
HETATM    6  N   UNL     1      -8.586  11.726  67.453  1.00  0.00    -0.154 N  
HETATM    7  H   UNL     1      -7.721  11.188  67.400  1.00  0.00     0.000 HD 
ENDROOT
BRANCH   6   8
HETATM    8  C   UNL     1      -9.155  11.902  68.742  1.00  0.00     0.051 A  
HETATM    9  C   UNL     1      -9.100  13.146  69.379  1.00  0.00     1.177 A  
HETATM   10  C   UNL     1      -9.615  13.315  70.661  1.00  0.00     5.866 A  
HETATM   11  C   UNL     1      -9.524  14.587  71.303  1.00  0.00     3.941 C  
HETATM   12  C   UNL     1     -10.210  12.244  71.324  1.00  0.00     8.457 A  
HETATM   13  C   UNL     1     -10.331  10.992  70.710  1.00  0.00     2.197 A  
HETATM   14  N   UNL     1      -9.452  15.619  71.827  1.00  0.00     3.762 NA 
HETATM   15  C   UNL     1      -9.794  10.826  69.409  1.00  0.00    -0.085 A  
HETATM   16 CL   UNL     1      -9.920   9.285  68.619  1.00  0.00    -0.184 Cl 
BRANCH  13  17
HETATM   17  N   UNL     1     -10.940   9.908  71.399  1.00  0.00    -0.197 N  
HETATM   18  C   UNL     1     -11.616   8.849  70.815  1.00  0.00    -0.259 C  
HETATM   19  H   UNL     1     -10.872   9.909  72.416  1.00  0.00     0.000 HD 
HETATM   20  O   UNL     1     -11.743   8.574  69.626  1.00  0.00     0.349 OA 
HETATM   21  C   UNL     1     -12.269   7.874  71.804  1.00  0.00    -0.310 C  
HETATM   22  O   UNL     1     -12.866   6.858  71.148  1.00  0.00    -0.354 OA 
HETATM   23  O   UNL     1     -12.232   8.038  73.006  1.00  0.00    -0.155 OA 
ENDBRANCH  13  17
ENDBRANCH   6   8
TORSDOF 2
ENDMDL
MODEL      181
REMARK 921   NORMALIZED FREE ENERGY PREDICTED BY IDOCK:   32.66 KCAL/MOL
REMARK 922        TOTAL FREE ENERGY PREDICTED BY IDOCK:   35.94 KCAL/MOL
REMARK 923 INTER-LIGAND FREE ENERGY PREDICTED BY IDOCK:   34.95 KCAL/MOL
REMARK 924 INTRA-LIGAND FREE ENERGY PREDICTED BY IDOCK:    0.99 KCAL/MOL
REMARK 927      BINDING AFFINITY PREDICTED BY RF-SCORE:    0.00 PKD
ROOT
HETATM    1  O   UNL     1     -11.402  10.436  70.583  1.00  0.00    -0.319 OA 
HETATM    2  C   UNL     1     -11.265  11.059  69.398  1.00  0.00    -0.268 C  
HETATM    3  O   UNL     1     -11.597  10.630  68.311  1.00  0.00    -0.393 OA 
HETATM    4  C   UNL     1     -10.631  12.443  69.579  1.00  0.00     0.395 C  
HETATM    5  O   UNL     1     -10.291  12.736  70.721  1.00  0.00     3.733 OA 
HETATM    6  N   UNL     1     -10.570  13.204  68.423  1.00  0.00    -0.246 N  
HETATM    7  H   UNL     1     -10.940  12.782  67.572  1.00  0.00     0.000 HD 
ENDROOT
BRANCH   6   8
HETATM    8  C   UNL     1     -10.042  14.517  68.314  1.00  0.00    -0.232 A  
HETATM    9  C   UNL     1      -9.228  14.867  67.232  1.00  0.00    -0.212 A  
HETATM   10  C   UNL     1      -8.669  16.140  67.141  1.00  0.00    -0.216 A  
HETATM   11  C   UNL     1      -7.818  16.467  66.043  1.00  0.00     0.115 C  
HETATM   12  C   UNL     1      -8.929  17.090  68.126  1.00  0.00    -0.227 A  
HETATM   13  C   UNL     1      -9.776  16.802  69.203  1.00  0.00    -0.204 A  
HETATM   14  N   UNL     1      -7.128  16.736  65.151  1.00  0.00     2.281 NA 
HETATM   15  C   UNL     1     -10.331  15.502  69.293  1.00  0.00    -0.252 A  
HETATM   16 CL   UNL     1     -11.380  15.107  70.619  1.00  0.00    -0.314 Cl 
BRANCH  13  17
HETATM   17  N   UNL     1     -10.031  17.783  70.200  1.00  0.00     0.884 N  
HETATM   18  C   UNL     1      -9.606  17.733  71.518  1.00  0.00     7.445 C  
HETATM   19  H   UNL     1     -10.576  18.597  69.920  1.00  0.00     0.000 HD 
HETATM   20  O   UNL     1      -8.865  16.920  72.061  1.00  0.00    10.192 OA 
HETATM   21  C   UNL     1     -10.117  18.875  72.406  1.00  0.00     4.608 C  
HETATM   22  O   UNL     1      -9.620  18.767  73.655  1.00  0.00     4.652 OA 
HETATM   23  O   UNL     1     -10.870  19.737  71.997  1.00  0.00     3.527 OA 
ENDBRANCH  13  17
ENDBRANCH   6   8
TORSDOF 2
ENDMDL
MODEL      182
REMARK 921   NORMALIZED FREE ENERGY PREDICTED BY IDOCK:   50.60 KCAL/MOL
REMARK 922        TOTAL FREE ENERGY PREDICTED BY IDOCK:   55.98 KCAL/MOL
REMARK 923 INTER-LIGAND FREE ENERGY PREDICTED BY IDOCK:   53.96 KCAL/MOL
REMARK 924 INTRA-LIGAND FREE ENERGY PREDICTED BY IDOCK:    2.02 KCAL/MOL
REMARK 927      BINDING AFFINITY PREDICTED BY RF-SCORE:    0.00 PKD
ROOT
HETATM    1  O   UNL     1     -12.219  20.784  70.582  1.00  0.00     6.865 OA 
HETATM    2  C   UNL     1     -12.424  19.599  71.186  1.00  0.00    18.412 C  
HETATM    3  O   UNL     1     -13.158  19.384  72.130  1.00  0.00    18.431 OA 
HETATM    4  C   UNL     1     -11.607  18.492  70.510  1.00  0.00     6.284 C  
HETATM    5  O   UNL     1     -10.863  18.848  69.602  1.00  0.00     1.064 OA 
HETATM    6  N   UNL     1     -11.857  17.217  70.989  1.00  0.00     1.312 N  
HETATM    7  H   UNL     1     -12.544  17.131  71.738  1.00  0.00     0.000 HD 
ENDROOT
BRANCH   6   8
HETATM    8  C   UNL     1     -11.246  16.018  70.535  1.00  0.00    -0.378 A  
HETATM    9  C   UNL     1     -11.944  14.807  70.576  1.00  0.00    -0.373 A  
HETATM   10  C   UNL     1     -11.336  13.620  70.175  1.00  0.00     0.006 A  
HETATM   11  C   UNL     1     -12.057  12.390  70.250  1.00  0.00    -0.297 C  
HETATM   12  C   UNL     1     -10.022  13.627  69.712  1.00  0.00     1.172 A  
HETATM   13  C   UNL     1      -9.299  14.821  69.609  1.00  0.00     0.202 A  
HETATM   14  N   UNL     1     -12.641  11.390  70.310  1.00  0.00    -0.193 NA 
HETATM   15  C   UNL     1      -9.922  16.023  70.029  1.00  0.00     0.047 A  
HETATM   16 CL   UNL     1      -9.052  17.521  69.922  1.00  0.00     1.227 Cl 
BRANCH  13  17
HETATM   17  N   UNL     1      -7.959  14.812  69.135  1.00  0.00    -0.239 N  
HETATM   18  C   UNL     1      -7.490  14.116  68.033  1.00  0.00    -0.140 C  
HETATM   19  H   UNL     1      -7.281  15.370  69.653  1.00  0.00     0.000 HD 
HETATM   20  O   UNL     1      -8.119  13.466  67.204  1.00  0.00    -0.163 OA 
HETATM   21  C   UNL     1      -5.974  14.198  67.812  1.00  0.00    -0.098 C  
HETATM   22  O   UNL     1      -5.617  13.528  66.698  1.00  0.00     0.914 OA 
HETATM   23  O   UNL     1      -5.234  14.796  68.567  1.00  0.00    -0.091 OA 
ENDBRANCH  13  17
ENDBRANCH   6   8
TORSDOF 2
ENDMDL
