MODEL        1
REMARK 921   NORMALIZED FREE ENERGY PREDICTED BY IDOCK:   -5.55 KCAL/MOL
REMARK 922        TOTAL FREE ENERGY PREDICTED BY IDOCK:   -7.02 KCAL/MOL
REMARK 923 INTER-LIGAND FREE ENERGY PREDICTED BY IDOCK:   -6.53 KCAL/MOL
REMARK 924 INTRA-LIGAND FREE ENERGY PREDICTED BY IDOCK:   -0.49 KCAL/MOL
REMARK 927      BINDING AFFINITY PREDICTED BY RF-SCORE:    0.00 PKD
ROOT
HETATM    1  C   UNL     1     -11.279  10.974  67.848  1.00  0.00    -0.375 C  
HETATM    2  C   UNL     1     -11.893  12.351  68.049  1.00  0.00    -0.316 C  
ENDROOT
BRANCH   2   3
HETATM    3  C   UNL     1     -11.559  13.230  66.846  1.00  0.00    -0.364 C  
HETATM    4  C   UNL     1     -10.467  14.231  65.202  1.00  0.00    -0.411 C  
HETATM    5  N   UNL     1     -10.330  13.335  66.389  1.00  0.00    -0.280 NA 
HETATM    6  N   UNL     1     -12.528  13.930  66.159  1.00  0.00    -0.458 NA 
HETATM    7  C   UNL     1     -11.966  14.299  64.884  1.00  0.00    -0.425 C  
ENDBRANCH   2   3
BRANCH   2   8
HETATM    8  O   UNL     1     -11.326  13.036  69.170  1.00  0.00    -0.261 OA 
BRANCH   8   9
HETATM    9  C   UNL     1     -12.095  13.439  70.228  1.00  0.00    -0.349 A  
HETATM   10  C   UNL     1     -13.311  15.355  71.178  1.00  0.00    -0.580 A  
HETATM   11 CL   UNL     1     -11.757  15.904  69.066  1.00  0.00    -0.393 Cl 
HETATM   12  C   UNL     1     -13.893  14.531  72.133  1.00  0.00    -0.574 A  
HETATM   13  C   UNL     1     -12.421  14.813  70.239  1.00  0.00    -0.340 A  
HETATM   14  C   UNL     1     -13.587  13.174  72.141  1.00  0.00    -0.637 A  
HETATM   15  C   UNL     1     -12.714  12.621  71.187  1.00  0.00    -0.254 A  
HETATM   16 CL   UNL     1     -12.602  10.897  71.232  1.00  0.00    -0.511 Cl 
ENDBRANCH   8   9
ENDBRANCH   2   8
TORSDOF 3
ENDMDL
MODEL        2
REMARK 921   NORMALIZED FREE ENERGY PREDICTED BY IDOCK:   -5.47 KCAL/MOL
REMARK 922        TOTAL FREE ENERGY PREDICTED BY IDOCK:   -6.91 KCAL/MOL
REMARK 923 INTER-LIGAND FREE ENERGY PREDICTED BY IDOCK:   -6.40 KCAL/MOL
REMARK 924 INTRA-LIGAND FREE ENERGY PREDICTED BY IDOCK:   -0.51 KCAL/MOL
REMARK 927      BINDING AFFINITY PREDICTED BY RF-SCORE:    0.00 PKD
ROOT
HETATM    1  C   UNL     1     -11.394  11.101  67.701  1.00  0.00    -0.356 C  
HETATM    2  C   UNL     1     -11.893  12.517  67.948  1.00  0.00    -0.323 C  
ENDROOT
BRANCH   2   3
HETATM    3  C   UNL     1     -11.451  13.413  66.794  1.00  0.00    -0.343 C  
HETATM    4  C   UNL     1     -11.477  14.793  65.065  1.00  0.00    -0.389 C  
HETATM    5  N   UNL     1     -12.323  13.986  65.994  1.00  0.00    -0.469 NA 
HETATM    6  N   UNL     1     -10.123  13.693  66.551  1.00  0.00    -0.279 NA 
HETATM    7  C   UNL     1     -10.081  14.853  65.695  1.00  0.00    -0.359 C  
ENDBRANCH   2   3
BRANCH   2   8
HETATM    8  O   UNL     1     -11.301  13.102  69.113  1.00  0.00    -0.267 OA 
BRANCH   8   9
HETATM    9  C   UNL     1     -12.052  13.440  70.206  1.00  0.00    -0.349 A  
HETATM   10  C   UNL     1     -13.309  15.275  71.255  1.00  0.00    -0.586 A  
HETATM   11 CL   UNL     1     -11.844  15.952  69.118  1.00  0.00    -0.384 Cl 
HETATM   12  C   UNL     1     -13.830  14.398  72.199  1.00  0.00    -0.572 A  
HETATM   13  C   UNL     1     -12.429  14.799  70.273  1.00  0.00    -0.340 A  
HETATM   14  C   UNL     1     -13.472  13.055  72.152  1.00  0.00    -0.638 A  
HETATM   15  C   UNL     1     -12.609  12.567  71.154  1.00  0.00    -0.253 A  
HETATM   16 CL   UNL     1     -12.430  10.848  71.138  1.00  0.00    -0.493 Cl 
ENDBRANCH   8   9
ENDBRANCH   2   8
TORSDOF 3
ENDMDL
MODEL        3
REMARK 921   NORMALIZED FREE ENERGY PREDICTED BY IDOCK:   -5.43 KCAL/MOL
REMARK 922        TOTAL FREE ENERGY PREDICTED BY IDOCK:   -6.87 KCAL/MOL
REMARK 923 INTER-LIGAND FREE ENERGY PREDICTED BY IDOCK:   -6.32 KCAL/MOL
REMARK 924 INTRA-LIGAND FREE ENERGY PREDICTED BY IDOCK:   -0.55 KCAL/MOL
REMARK 927      BINDING AFFINITY PREDICTED BY RF-SCORE:    0.00 PKD
ROOT
HETATM    1  C   UNL     1     -11.290  10.786  67.927  1.00  0.00    -0.372 C  
HETATM    2  C   UNL     1     -11.879  12.161  68.206  1.00  0.00    -0.301 C  
ENDROOT
BRANCH   2   3
HETATM    3  C   UNL     1     -11.389  13.141  67.143  1.00  0.00    -0.316 C  
HETATM    4  C   UNL     1     -11.337  14.699  65.573  1.00  0.00    -0.341 C  
HETATM    5  N   UNL     1     -12.227  13.862  66.431  1.00  0.00    -0.451 NA 
HETATM    6  N   UNL     1     -10.047  13.345  66.898  1.00  0.00    -0.250 NA 
HETATM    7  C   UNL     1      -9.930  14.584  66.170  1.00  0.00    -0.311 C  
ENDBRANCH   2   3
BRANCH   2   8
HETATM    8  O   UNL     1     -11.416  12.705  69.446  1.00  0.00    -0.276 OA 
BRANCH   8   9
HETATM    9  C   UNL     1     -12.245  13.416  70.271  1.00  0.00    -0.335 A  
HETATM   10  C   UNL     1     -13.643  13.258  72.289  1.00  0.00    -0.703 A  
HETATM   11 CL   UNL     1     -12.700  10.933  71.351  1.00  0.00    -0.525 Cl 
HETATM   12  C   UNL     1     -13.806  14.638  72.302  1.00  0.00    -0.583 A  
HETATM   13  C   UNL     1     -12.873  12.657  71.283  1.00  0.00    -0.250 A  
HETATM   14  C   UNL     1     -13.195  15.406  71.316  1.00  0.00    -0.585 A  
HETATM   15  C   UNL     1     -12.401  14.810  70.318  1.00  0.00    -0.345 A  
HETATM   16 CL   UNL     1     -11.572  15.931  69.298  1.00  0.00    -0.371 Cl 
ENDBRANCH   8   9
ENDBRANCH   2   8
TORSDOF 3
ENDMDL
MODEL        4
REMARK 921   NORMALIZED FREE ENERGY PREDICTED BY IDOCK:   -5.28 KCAL/MOL
REMARK 922        TOTAL FREE ENERGY PREDICTED BY IDOCK:   -6.70 KCAL/MOL
REMARK 923 INTER-LIGAND FREE ENERGY PREDICTED BY IDOCK:   -6.28 KCAL/MOL
REMARK 924 INTRA-LIGAND FREE ENERGY PREDICTED BY IDOCK:   -0.42 KCAL/MOL
REMARK 927      BINDING AFFINITY PREDICTED BY RF-SCORE:    0.00 PKD
ROOT
HETATM    1  C   UNL     1     -10.527  12.663  67.689  1.00  0.00    -0.226 C  
HETATM    2  C   UNL     1     -11.881  12.915  67.042  1.00  0.00    -0.374 C  
ENDROOT
BRANCH   2   3
HETATM    3  C   UNL     1     -11.826  12.480  65.580  1.00  0.00    -0.439 C  
HETATM    4  C   UNL     1     -12.362  12.121  63.463  1.00  0.00    -0.574 C  
HETATM    5  N   UNL     1     -12.862  12.614  64.781  1.00  0.00    -0.830 NA 
HETATM    6  N   UNL     1     -10.683  11.956  65.014  1.00  0.00    -0.282 NA 
HETATM    7  C   UNL     1     -10.836  12.043  63.583  1.00  0.00    -0.446 C  
ENDBRANCH   2   3
BRANCH   2   8
HETATM    8  O   UNL     1     -12.207  14.307  66.997  1.00  0.00    -0.424 OA 
BRANCH   8   9
HETATM    9  C   UNL     1     -11.416  15.250  67.595  1.00  0.00    -0.280 A  
HETATM   10  C   UNL     1      -9.889  17.125  67.151  1.00  0.00    -0.271 A  
HETATM   11 CL   UNL     1     -10.616  15.695  65.007  1.00  0.00    -0.450 Cl 
HETATM   12  C   UNL     1      -9.883  17.460  68.499  1.00  0.00    -0.320 A  
HETATM   13  C   UNL     1     -10.645  16.031  66.707  1.00  0.00    -0.297 A  
HETATM   14  C   UNL     1     -10.636  16.705  69.392  1.00  0.00    -0.333 A  
HETATM   15  C   UNL     1     -11.417  15.621  68.949  1.00  0.00    -0.361 A  
HETATM   16 CL   UNL     1     -12.429  14.923  70.164  1.00  0.00    -0.367 Cl 
ENDBRANCH   8   9
ENDBRANCH   2   8
TORSDOF 3
ENDMDL
MODEL        5
REMARK 921   NORMALIZED FREE ENERGY PREDICTED BY IDOCK:   -5.20 KCAL/MOL
REMARK 922        TOTAL FREE ENERGY PREDICTED BY IDOCK:   -6.60 KCAL/MOL
REMARK 923 INTER-LIGAND FREE ENERGY PREDICTED BY IDOCK:   -6.15 KCAL/MOL
REMARK 924 INTRA-LIGAND FREE ENERGY PREDICTED BY IDOCK:   -0.45 KCAL/MOL
REMARK 927      BINDING AFFINITY PREDICTED BY RF-SCORE:    0.00 PKD
ROOT
HETATM    1  C   UNL     1     -10.338  15.155  69.824  1.00  0.00    -0.225 C  
HETATM    2  C   UNL     1     -11.838  15.358  69.680  1.00  0.00    -0.347 C  
ENDROOT
BRANCH   2   3
HETATM    3  C   UNL     1     -12.435  15.684  71.046  1.00  0.00    -0.447 C  
HETATM    4  C   UNL     1     -13.810  15.797  72.776  1.00  0.00    -0.523 C  
HETATM    5  N   UNL     1     -13.664  15.338  71.362  1.00  0.00    -0.496 NA 
HETATM    6  N   UNL     1     -11.709  16.325  72.028  1.00  0.00    -0.499 NA 
HETATM    7  C   UNL     1     -12.395  16.108  73.277  1.00  0.00    -0.544 C  
ENDBRANCH   2   3
BRANCH   2   8
HETATM    8  O   UNL     1     -12.507  14.162  69.265  1.00  0.00    -0.255 OA 
BRANCH   8   9
HETATM    9  C   UNL     1     -11.861  13.189  68.552  1.00  0.00    -0.342 A  
HETATM   10  C   UNL     1     -11.196  10.821  68.586  1.00  0.00    -0.333 A  
HETATM   11 CL   UNL     1     -12.193  11.774  70.882  1.00  0.00    -0.436 Cl 
HETATM   12  C   UNL     1     -10.810  10.895  67.254  1.00  0.00    -0.342 A  
HETATM   13  C   UNL     1     -11.713  11.956  69.226  1.00  0.00    -0.328 A  
HETATM   14  C   UNL     1     -10.947  12.098  66.570  1.00  0.00    -0.325 A  
HETATM   15  C   UNL     1     -11.488  13.234  67.200  1.00  0.00    -0.341 A  
HETATM   16 CL   UNL     1     -11.759  14.577  66.146  1.00  0.00    -0.368 Cl 
ENDBRANCH   8   9
ENDBRANCH   2   8
TORSDOF 3
ENDMDL
MODEL        6
REMARK 921   NORMALIZED FREE ENERGY PREDICTED BY IDOCK:   -5.17 KCAL/MOL
REMARK 922        TOTAL FREE ENERGY PREDICTED BY IDOCK:   -6.56 KCAL/MOL
REMARK 923 INTER-LIGAND FREE ENERGY PREDICTED BY IDOCK:   -6.04 KCAL/MOL
REMARK 924 INTRA-LIGAND FREE ENERGY PREDICTED BY IDOCK:   -0.52 KCAL/MOL
REMARK 927      BINDING AFFINITY PREDICTED BY RF-SCORE:    0.00 PKD
ROOT
HETATM    1  C   UNL     1     -12.035  14.225  67.617  1.00  0.00    -0.400 C  
HETATM    2  C   UNL     1     -11.392  12.916  67.184  1.00  0.00    -0.306 C  
ENDROOT
BRANCH   2   3
HETATM    3  C   UNL     1     -11.554  12.752  65.675  1.00  0.00    -0.370 C  
HETATM    4  C   UNL     1     -11.127  12.410  63.532  1.00  0.00    -0.458 C  
HETATM    5  N   UNL     1     -10.519  12.570  64.886  1.00  0.00    -0.294 NA 
HETATM    6  N   UNL     1     -12.793  12.753  65.068  1.00  0.00    -0.821 NA 
HETATM    7  C   UNL     1     -12.626  12.178  63.757  1.00  0.00    -0.475 C  
ENDBRANCH   2   3
BRANCH   2   8
HETATM    8  O   UNL     1     -12.051  11.778  67.749  1.00  0.00    -0.595 OA 
BRANCH   8   9
HETATM    9  C   UNL     1     -11.371  10.849  68.489  1.00  0.00    -0.299 A  
HETATM   10  C   UNL     1     -11.046   9.985  70.769  1.00  0.00    -0.407 A  
HETATM   11 CL   UNL     1     -12.478  12.241  70.581  1.00  0.00    -0.369 Cl 
HETATM   12  C   UNL     1     -10.319   8.909  70.274  1.00  0.00    -0.235 A  
HETATM   13  C   UNL     1     -11.562  10.943  69.885  1.00  0.00    -0.331 A  
HETATM   14  C   UNL     1     -10.118   8.796  68.902  1.00  0.00    -0.210 A  
HETATM   15  C   UNL     1     -10.655   9.741  68.008  1.00  0.00    -0.243 A  
HETATM   16 CL   UNL     1     -10.468   9.336  66.339  1.00  0.00    -0.228 Cl 
ENDBRANCH   8   9
ENDBRANCH   2   8
TORSDOF 3
ENDMDL
MODEL        7
REMARK 921   NORMALIZED FREE ENERGY PREDICTED BY IDOCK:   -5.14 KCAL/MOL
REMARK 922        TOTAL FREE ENERGY PREDICTED BY IDOCK:   -6.53 KCAL/MOL
REMARK 923 INTER-LIGAND FREE ENERGY PREDICTED BY IDOCK:   -6.10 KCAL/MOL
REMARK 924 INTRA-LIGAND FREE ENERGY PREDICTED BY IDOCK:   -0.43 KCAL/MOL
REMARK 927      BINDING AFFINITY PREDICTED BY RF-SCORE:    0.00 PKD
ROOT
HETATM    1  C   UNL     1     -11.848  13.753  67.763  1.00  0.00    -0.404 C  
HETATM    2  C   UNL     1     -11.246  12.493  67.159  1.00  0.00    -0.300 C  
ENDROOT
BRANCH   2   3
HETATM    3  C   UNL     1     -11.437  12.522  65.645  1.00  0.00    -0.359 C  
HETATM    4  C   UNL     1     -11.045  12.478  63.467  1.00  0.00    -0.439 C  
HETATM    5  N   UNL     1     -10.413  12.481  64.820  1.00  0.00    -0.299 NA 
HETATM    6  N   UNL     1     -12.687  12.559  65.065  1.00  0.00    -0.727 NA 
HETATM    7  C   UNL     1     -12.530  12.166  63.686  1.00  0.00    -0.549 C  
ENDBRANCH   2   3
BRANCH   2   8
HETATM    8  O   UNL     1     -11.926  11.310  67.590  1.00  0.00    -0.634 OA 
BRANCH   8   9
HETATM    9  C   UNL     1     -11.400  10.490  68.552  1.00  0.00    -0.257 A  
HETATM   10  C   UNL     1      -9.799   8.663  68.937  1.00  0.00    -0.184 A  
HETATM   11 CL   UNL     1     -10.273   9.261  66.370  1.00  0.00    -0.330 Cl 
HETATM   12  C   UNL     1      -9.940   8.810  70.312  1.00  0.00    -0.210 A  
HETATM   13  C   UNL     1     -10.524   9.493  68.070  1.00  0.00    -0.230 A  
HETATM   14  C   UNL     1     -10.797   9.786  70.809  1.00  0.00    -0.403 A  
HETATM   15  C   UNL     1     -11.508  10.638  69.943  1.00  0.00    -0.317 A  
HETATM   16 CL   UNL     1     -12.370  11.908  70.737  1.00  0.00    -0.458 Cl 
ENDBRANCH   8   9
ENDBRANCH   2   8
TORSDOF 3
ENDMDL
MODEL        8
REMARK 921   NORMALIZED FREE ENERGY PREDICTED BY IDOCK:   -5.09 KCAL/MOL
REMARK 922        TOTAL FREE ENERGY PREDICTED BY IDOCK:   -6.47 KCAL/MOL
REMARK 923 INTER-LIGAND FREE ENERGY PREDICTED BY IDOCK:   -6.04 KCAL/MOL
REMARK 924 INTRA-LIGAND FREE ENERGY PREDICTED BY IDOCK:   -0.43 KCAL/MOL
REMARK 927      BINDING AFFINITY PREDICTED BY RF-SCORE:    0.00 PKD
ROOT
HETATM    1  C   UNL     1     -10.090  15.990  69.045  1.00  0.00    -0.239 C  
HETATM    2  C   UNL     1     -10.729  14.688  68.585  1.00  0.00    -0.250 C  
ENDROOT
BRANCH   2   3
HETATM    3  C   UNL     1     -10.956  14.746  67.076  1.00  0.00    -0.324 C  
HETATM    4  C   UNL     1     -11.858  14.527  65.068  1.00  0.00    -0.399 C  
HETATM    5  N   UNL     1     -12.009  14.192  66.516  1.00  0.00    -0.426 NA 
HETATM    6  N   UNL     1     -10.090  15.406  66.230  1.00  0.00    -0.275 NA 
HETATM    7  C   UNL     1     -10.788  15.621  64.987  1.00  0.00    -0.450 C  
ENDBRANCH   2   3
BRANCH   2   8
HETATM    8  O   UNL     1     -12.033  14.499  69.143  1.00  0.00    -0.313 OA 
BRANCH   8   9
HETATM    9  C   UNL     1     -12.279  13.530  70.078  1.00  0.00    -0.312 A  
HETATM   10  C   UNL     1     -13.390  13.090  72.228  1.00  0.00    -0.606 A  
HETATM   11 CL   UNL     1     -13.277  15.662  71.492  1.00  0.00    -0.565 Cl 
HETATM   12  C   UNL     1     -13.172  11.726  72.079  1.00  0.00    -0.460 A  
HETATM   13  C   UNL     1     -12.945  13.979  71.240  1.00  0.00    -0.347 A  
HETATM   14  C   UNL     1     -12.519  11.261  70.942  1.00  0.00    -0.493 A  
HETATM   15  C   UNL     1     -12.092  12.146  69.935  1.00  0.00    -0.253 A  
HETATM   16 CL   UNL     1     -11.474  11.376  68.517  1.00  0.00    -0.329 Cl 
ENDBRANCH   8   9
ENDBRANCH   2   8
TORSDOF 3
ENDMDL
MODEL        9
REMARK 921   NORMALIZED FREE ENERGY PREDICTED BY IDOCK:   -5.08 KCAL/MOL
REMARK 922        TOTAL FREE ENERGY PREDICTED BY IDOCK:   -6.46 KCAL/MOL
REMARK 923 INTER-LIGAND FREE ENERGY PREDICTED BY IDOCK:   -5.99 KCAL/MOL
REMARK 924 INTRA-LIGAND FREE ENERGY PREDICTED BY IDOCK:   -0.47 KCAL/MOL
REMARK 927      BINDING AFFINITY PREDICTED BY RF-SCORE:    0.00 PKD
ROOT
HETATM    1  C   UNL     1     -12.082  13.752  66.624  1.00  0.00    -0.471 C  
HETATM    2  C   UNL     1     -12.030  14.566  67.908  1.00  0.00    -0.287 C  
ENDROOT
BRANCH   2   3
HETATM    3  C   UNL     1     -11.153  15.796  67.687  1.00  0.00    -0.283 C  
HETATM    4  C   UNL     1      -9.917  17.362  66.730  1.00  0.00    -0.307 C  
HETATM    5  N   UNL     1     -10.646  16.078  66.506  1.00  0.00    -0.305 NA 
HETATM    6  N   UNL     1     -10.874  16.689  68.700  1.00  0.00    -0.340 NA 
HETATM    7  C   UNL     1     -10.397  17.901  68.083  1.00  0.00    -0.389 C  
ENDBRANCH   2   3
BRANCH   2   8
HETATM    8  O   UNL     1     -11.397  13.853  68.975  1.00  0.00    -0.253 OA 
BRANCH   8   9
HETATM    9  C   UNL     1     -12.123  13.255  69.968  1.00  0.00    -0.315 A  
HETATM   10  C   UNL     1     -12.559  11.107  71.085  1.00  0.00    -0.513 A  
HETATM   11 CL   UNL     1     -11.081  10.971  68.855  1.00  0.00    -0.263 Cl 
HETATM   12  C   UNL     1     -13.283  11.753  72.079  1.00  0.00    -0.460 A  
HETATM   13  C   UNL     1     -11.989  11.851  70.042  1.00  0.00    -0.332 A  
HETATM   14  C   UNL     1     -13.428  13.136  72.027  1.00  0.00    -0.598 A  
HETATM   15  C   UNL     1     -12.838  13.890  70.996  1.00  0.00    -0.324 A  
HETATM   16 CL   UNL     1     -12.962  15.602  71.200  1.00  0.00    -0.547 Cl 
ENDBRANCH   8   9
ENDBRANCH   2   8
TORSDOF 3
ENDMDL
MODEL       10
REMARK 921   NORMALIZED FREE ENERGY PREDICTED BY IDOCK:   -5.05 KCAL/MOL
REMARK 922        TOTAL FREE ENERGY PREDICTED BY IDOCK:   -6.43 KCAL/MOL
REMARK 923 INTER-LIGAND FREE ENERGY PREDICTED BY IDOCK:   -5.99 KCAL/MOL
REMARK 924 INTRA-LIGAND FREE ENERGY PREDICTED BY IDOCK:   -0.44 KCAL/MOL
REMARK 927      BINDING AFFINITY PREDICTED BY RF-SCORE:    0.00 PKD
ROOT
HETATM    1  C   UNL     1      -9.262  15.040  67.720  1.00  0.00    -0.181 C  
HETATM    2  C   UNL     1     -10.501  15.416  66.920  1.00  0.00    -0.295 C  
ENDROOT
BRANCH   2   3
HETATM    3  C   UNL     1     -10.620  16.936  66.865  1.00  0.00    -0.214 C  
HETATM    4  C   UNL     1     -10.738  19.067  67.450  1.00  0.00    -0.473 C  
HETATM    5  N   UNL     1     -10.683  17.664  67.958  1.00  0.00    -0.376 NA 
HETATM    6  N   UNL     1     -10.635  17.626  65.670  1.00  0.00    -0.569 NA 
HETATM    7  C   UNL     1     -10.340  19.006  65.970  1.00  0.00    -0.446 C  
ENDBRANCH   2   3
BRANCH   2   8
HETATM    8  O   UNL     1     -11.707  14.978  67.555  1.00  0.00    -0.343 OA 
BRANCH   8   9
HETATM    9  C   UNL     1     -11.741  13.852  68.332  1.00  0.00    -0.356 A  
HETATM   10  C   UNL     1     -12.243  13.017  70.590  1.00  0.00    -0.390 A  
HETATM   11 CL   UNL     1     -12.195  15.682  70.328  1.00  0.00    -0.415 Cl 
HETATM   12  C   UNL     1     -12.151  11.705  70.142  1.00  0.00    -0.414 A  
HETATM   13  C   UNL     1     -12.038  14.076  69.694  1.00  0.00    -0.355 A  
HETATM   14  C   UNL     1     -11.861  11.461  68.804  1.00  0.00    -0.388 A  
HETATM   15  C   UNL     1     -11.678  12.519  67.895  1.00  0.00    -0.359 A  
HETATM   16 CL   UNL     1     -11.515  12.028  66.246  1.00  0.00    -0.416 Cl 
ENDBRANCH   8   9
ENDBRANCH   2   8
TORSDOF 3
ENDMDL
MODEL       11
REMARK 921   NORMALIZED FREE ENERGY PREDICTED BY IDOCK:   -5.05 KCAL/MOL
REMARK 922        TOTAL FREE ENERGY PREDICTED BY IDOCK:   -6.42 KCAL/MOL
REMARK 923 INTER-LIGAND FREE ENERGY PREDICTED BY IDOCK:   -6.13 KCAL/MOL
REMARK 924 INTRA-LIGAND FREE ENERGY PREDICTED BY IDOCK:   -0.29 KCAL/MOL
REMARK 927      BINDING AFFINITY PREDICTED BY RF-SCORE:    0.00 PKD
ROOT
HETATM    1  C   UNL     1     -10.293  12.666  67.592  1.00  0.00    -0.221 C  
HETATM    2  C   UNL     1     -11.741  12.668  67.124  1.00  0.00    -0.371 C  
ENDROOT
BRANCH   2   3
HETATM    3  C   UNL     1     -11.785  12.370  65.628  1.00  0.00    -0.414 C  
HETATM    4  C   UNL     1     -12.459  12.211  63.526  1.00  0.00    -0.555 C  
HETATM    5  N   UNL     1     -12.868  12.583  64.913  1.00  0.00    -0.800 NA 
HETATM    6  N   UNL     1     -10.686  11.893  64.943  1.00  0.00    -0.289 NA 
HETATM    7  C   UNL     1     -10.929  12.113  63.539  1.00  0.00    -0.453 C  
ENDBRANCH   2   3
BRANCH   2   8
HETATM    8  O   UNL     1     -12.349  13.957  67.257  1.00  0.00    -0.347 OA 
BRANCH   8   9
HETATM    9  C   UNL     1     -11.619  15.063  67.598  1.00  0.00    -0.312 A  
HETATM   10  C   UNL     1     -10.740  16.346  69.504  1.00  0.00    -0.325 A  
HETATM   11 CL   UNL     1     -12.468  14.395  70.123  1.00  0.00    -0.403 Cl 
HETATM   12  C   UNL     1      -9.969  17.120  68.646  1.00  0.00    -0.313 A  
HETATM   13  C   UNL     1     -11.556  15.332  68.983  1.00  0.00    -0.343 A  
HETATM   14  C   UNL     1     -10.015  16.874  67.278  1.00  0.00    -0.277 A  
HETATM   15  C   UNL     1     -10.814  15.841  66.752  1.00  0.00    -0.254 A  
HETATM   16 CL   UNL     1     -10.598  15.559  65.061  1.00  0.00    -0.449 Cl 
ENDBRANCH   8   9
ENDBRANCH   2   8
TORSDOF 3
ENDMDL
MODEL       12
REMARK 921   NORMALIZED FREE ENERGY PREDICTED BY IDOCK:   -5.04 KCAL/MOL
REMARK 922        TOTAL FREE ENERGY PREDICTED BY IDOCK:   -6.41 KCAL/MOL
REMARK 923 INTER-LIGAND FREE ENERGY PREDICTED BY IDOCK:   -5.93 KCAL/MOL
REMARK 924 INTRA-LIGAND FREE ENERGY PREDICTED BY IDOCK:   -0.49 KCAL/MOL
REMARK 927      BINDING AFFINITY PREDICTED BY RF-SCORE:    0.00 PKD
ROOT
HETATM    1  C   UNL     1     -11.754  13.796  69.593  1.00  0.00    -0.379 C  
HETATM    2  C   UNL     1     -11.466  12.615  68.680  1.00  0.00    -0.308 C  
ENDROOT
BRANCH   2   3
HETATM    3  C   UNL     1     -11.941  12.945  67.267  1.00  0.00    -0.309 C  
HETATM    4  C   UNL     1     -12.587  14.049  65.462  1.00  0.00    -0.516 C  
HETATM    5  N   UNL     1     -12.220  14.177  66.904  1.00  0.00    -0.423 NA 
HETATM    6  N   UNL     1     -12.070  11.977  66.293  1.00  0.00    -0.528 NA 
HETATM    7  C   UNL     1     -12.125  12.654  65.022  1.00  0.00    -0.444 C  
ENDBRANCH   2   3
BRANCH   2   8
HETATM    8  O   UNL     1     -12.209  11.450  69.052  1.00  0.00    -0.405 OA 
BRANCH   8   9
HETATM    9  C   UNL     1     -11.628  10.416  69.736  1.00  0.00    -0.269 A  
HETATM   10  C   UNL     1     -11.716   9.128  71.829  1.00  0.00    -0.456 A  
HETATM   11 CL   UNL     1     -13.246  11.325  71.759  1.00  0.00    -0.540 Cl 
HETATM   12  C   UNL     1     -10.823   8.198  71.312  1.00  0.00    -0.278 A  
HETATM   13  C   UNL     1     -12.110  10.224  71.049  1.00  0.00    -0.386 A  
HETATM   14  C   UNL     1     -10.335   8.366  70.020  1.00  0.00    -0.211 A  
HETATM   15  C   UNL     1     -10.746   9.451  69.224  1.00  0.00    -0.211 A  
HETATM   16 CL   UNL     1     -10.187   9.393  67.590  1.00  0.00    -0.262 Cl 
ENDBRANCH   8   9
ENDBRANCH   2   8
TORSDOF 3
ENDMDL
MODEL       13
REMARK 921   NORMALIZED FREE ENERGY PREDICTED BY IDOCK:   -5.02 KCAL/MOL
REMARK 922        TOTAL FREE ENERGY PREDICTED BY IDOCK:   -6.39 KCAL/MOL
REMARK 923 INTER-LIGAND FREE ENERGY PREDICTED BY IDOCK:   -5.99 KCAL/MOL
REMARK 924 INTRA-LIGAND FREE ENERGY PREDICTED BY IDOCK:   -0.41 KCAL/MOL
REMARK 927      BINDING AFFINITY PREDICTED BY RF-SCORE:    0.00 PKD
ROOT
HETATM    1  C   UNL     1     -11.876  13.294  68.069  1.00  0.00    -0.392 C  
HETATM    2  C   UNL     1     -11.738  14.182  66.841  1.00  0.00    -0.414 C  
ENDROOT
BRANCH   2   3
HETATM    3  C   UNL     1     -11.805  13.316  65.585  1.00  0.00    -0.380 C  
HETATM    4  C   UNL     1     -12.558  12.207  63.825  1.00  0.00    -0.475 C  
HETATM    5  N   UNL     1     -12.953  13.001  65.026  1.00  0.00    -0.782 NA 
HETATM    6  N   UNL     1     -10.671  12.849  64.956  1.00  0.00    -0.294 NA 
HETATM    7  C   UNL     1     -11.056  12.443  63.627  1.00  0.00    -0.473 C  
ENDBRANCH   2   3
BRANCH   2   8
HETATM    8  O   UNL     1     -10.458  14.819  66.777  1.00  0.00    -0.274 OA 
BRANCH   8   9
HETATM    9  C   UNL     1     -10.290  16.129  67.134  1.00  0.00    -0.291 A  
HETATM   10  C   UNL     1     -10.647  18.447  66.392  1.00  0.00    -0.342 A  
HETATM   11 CL   UNL     1     -11.089  16.560  64.543  1.00  0.00    -0.251 Cl 
HETATM   12  C   UNL     1     -10.311  18.919  67.654  1.00  0.00    -0.496 A  
HETATM   13  C   UNL     1     -10.634  17.068  66.137  1.00  0.00    -0.194 A  
HETATM   14  C   UNL     1      -9.970  18.013  68.653  1.00  0.00    -0.396 A  
HETATM   15  C   UNL     1      -9.978  16.627  68.410  1.00  0.00    -0.255 A  
HETATM   16 CL   UNL     1      -9.714  15.652  69.812  1.00  0.00    -0.278 Cl 
ENDBRANCH   8   9
ENDBRANCH   2   8
TORSDOF 3
ENDMDL
MODEL       14
REMARK 921   NORMALIZED FREE ENERGY PREDICTED BY IDOCK:   -4.99 KCAL/MOL
REMARK 922        TOTAL FREE ENERGY PREDICTED BY IDOCK:   -6.35 KCAL/MOL
REMARK 923 INTER-LIGAND FREE ENERGY PREDICTED BY IDOCK:   -6.04 KCAL/MOL
REMARK 924 INTRA-LIGAND FREE ENERGY PREDICTED BY IDOCK:   -0.31 KCAL/MOL
REMARK 927      BINDING AFFINITY PREDICTED BY RF-SCORE:    0.00 PKD
ROOT
HETATM    1  C   UNL     1     -11.781  13.626  69.391  1.00  0.00    -0.379 C  
HETATM    2  C   UNL     1     -11.456  12.480  68.444  1.00  0.00    -0.312 C  
ENDROOT
BRANCH   2   3
HETATM    3  C   UNL     1     -11.843  12.879  67.022  1.00  0.00    -0.374 C  
HETATM    4  C   UNL     1     -12.438  12.788  64.893  1.00  0.00    -0.497 C  
HETATM    5  N   UNL     1     -12.034  11.980  66.082  1.00  0.00    -0.557 NA 
HETATM    6  N   UNL     1     -12.044  14.194  66.659  1.00  0.00    -0.447 NA 
HETATM    7  C   UNL     1     -12.778  14.188  65.419  1.00  0.00    -0.431 C  
ENDBRANCH   2   3
BRANCH   2   8
HETATM    8  O   UNL     1     -12.236  11.312  68.721  1.00  0.00    -0.532 OA 
BRANCH   8   9
HETATM    9  C   UNL     1     -11.816  10.365  69.614  1.00  0.00    -0.180 A  
HETATM   10  C   UNL     1     -10.187   8.555  69.963  1.00  0.00    -0.201 A  
HETATM   11 CL   UNL     1     -10.295   9.550  67.479  1.00  0.00    -0.286 Cl 
HETATM   12  C   UNL     1     -10.547   8.469  71.302  1.00  0.00    -0.296 A  
HETATM   13  C   UNL     1     -10.818   9.491  69.131  1.00  0.00    -0.173 A  
HETATM   14  C   UNL     1     -11.527   9.320  71.801  1.00  0.00    -0.448 A  
HETATM   15  C   UNL     1     -12.146  10.278  70.976  1.00  0.00    -0.386 A  
HETATM   16 CL   UNL     1     -13.196  11.369  71.808  1.00  0.00    -0.543 Cl 
ENDBRANCH   8   9
ENDBRANCH   2   8
TORSDOF 3
ENDMDL
MODEL       15
REMARK 921   NORMALIZED FREE ENERGY PREDICTED BY IDOCK:   -4.99 KCAL/MOL
REMARK 922        TOTAL FREE ENERGY PREDICTED BY IDOCK:   -6.35 KCAL/MOL
REMARK 923 INTER-LIGAND FREE ENERGY PREDICTED BY IDOCK:   -5.90 KCAL/MOL
REMARK 924 INTRA-LIGAND FREE ENERGY PREDICTED BY IDOCK:   -0.45 KCAL/MOL
REMARK 927      BINDING AFFINITY PREDICTED BY RF-SCORE:    0.00 PKD
ROOT
HETATM    1  C   UNL     1     -11.847  16.091  71.580  1.00  0.00    -0.582 C  
HETATM    2  C   UNL     1     -11.371  15.113  70.517  1.00  0.00    -0.298 C  
ENDROOT
BRANCH   2   3
HETATM    3  C   UNL     1     -11.126  15.869  69.214  1.00  0.00    -0.312 C  
HETATM    4  C   UNL     1     -10.457  17.384  67.747  1.00  0.00    -0.376 C  
HETATM    5  N   UNL     1     -10.537  17.045  69.199  1.00  0.00    -0.328 NA 
HETATM    6  N   UNL     1     -11.477  15.346  67.987  1.00  0.00    -0.342 NA 
HETATM    7  C   UNL     1     -10.755  16.088  66.984  1.00  0.00    -0.277 C  
ENDBRANCH   2   3
BRANCH   2   8
HETATM    8  O   UNL     1     -12.369  14.140  70.193  1.00  0.00    -0.325 OA 
BRANCH   8   9
HETATM    9  C   UNL     1     -12.202  12.814  70.489  1.00  0.00    -0.307 A  
HETATM   10  C   UNL     1     -13.096  10.957  71.831  1.00  0.00    -0.537 A  
HETATM   11 CL   UNL     1     -14.102  13.375  72.391  1.00  0.00    -0.609 Cl 
HETATM   12  C   UNL     1     -12.290  10.055  71.147  1.00  0.00    -0.477 A  
HETATM   13  C   UNL     1     -13.048  12.320  71.506  1.00  0.00    -0.257 A  
HETATM   14  C   UNL     1     -11.449  10.519  70.141  1.00  0.00    -0.405 A  
HETATM   15  C   UNL     1     -11.416  11.883  69.793  1.00  0.00    -0.229 A  
HETATM   16 CL   UNL     1     -10.459  12.244  68.401  1.00  0.00    -0.235 Cl 
ENDBRANCH   8   9
ENDBRANCH   2   8
TORSDOF 3
ENDMDL
MODEL       16
REMARK 921   NORMALIZED FREE ENERGY PREDICTED BY IDOCK:   -4.98 KCAL/MOL
REMARK 922        TOTAL FREE ENERGY PREDICTED BY IDOCK:   -6.34 KCAL/MOL
REMARK 923 INTER-LIGAND FREE ENERGY PREDICTED BY IDOCK:   -5.90 KCAL/MOL
REMARK 924 INTRA-LIGAND FREE ENERGY PREDICTED BY IDOCK:   -0.44 KCAL/MOL
REMARK 927      BINDING AFFINITY PREDICTED BY RF-SCORE:    0.00 PKD
ROOT
HETATM    1  C   UNL     1     -11.718  11.885  69.284  1.00  0.00    -0.389 C  
HETATM    2  C   UNL     1     -11.744  13.397  69.450  1.00  0.00    -0.325 C  
ENDROOT
BRANCH   2   3
HETATM    3  C   UNL     1     -12.699  13.761  70.583  1.00  0.00    -0.260 C  
HETATM    4  C   UNL     1     -13.925  13.665  72.422  1.00  0.00    -0.548 C  
HETATM    5  N   UNL     1     -13.040  12.887  71.505  1.00  0.00    -0.351 NA 
HETATM    6  N   UNL     1     -13.225  15.029  70.719  1.00  0.00    -0.372 NA 
HETATM    7  C   UNL     1     -13.724  15.143  72.067  1.00  0.00    -0.471 C  
ENDBRANCH   2   3
BRANCH   2   8
HETATM    8  O   UNL     1     -12.276  14.058  68.297  1.00  0.00    -0.328 OA 
BRANCH   8   9
HETATM    9  C   UNL     1     -11.475  14.760  67.438  1.00  0.00    -0.363 A  
HETATM   10  C   UNL     1     -10.854  15.017  65.072  1.00  0.00    -0.439 A  
HETATM   11 CL   UNL     1     -12.400  12.904  65.638  1.00  0.00    -0.517 Cl 
HETATM   12  C   UNL     1     -10.139  16.171  65.370  1.00  0.00    -0.220 A  
HETATM   13  C   UNL     1     -11.511  14.321  66.096  1.00  0.00    -0.355 A  
HETATM   14  C   UNL     1     -10.091  16.623  66.684  1.00  0.00    -0.305 A  
HETATM   15  C   UNL     1     -10.768  15.942  67.712  1.00  0.00    -0.320 A  
HETATM   16 CL   UNL     1     -10.754  16.751  69.239  1.00  0.00    -0.340 Cl 
ENDBRANCH   8   9
ENDBRANCH   2   8
TORSDOF 3
ENDMDL
MODEL       17
REMARK 921   NORMALIZED FREE ENERGY PREDICTED BY IDOCK:   -4.96 KCAL/MOL
REMARK 922        TOTAL FREE ENERGY PREDICTED BY IDOCK:   -6.32 KCAL/MOL
REMARK 923 INTER-LIGAND FREE ENERGY PREDICTED BY IDOCK:   -5.87 KCAL/MOL
REMARK 924 INTRA-LIGAND FREE ENERGY PREDICTED BY IDOCK:   -0.45 KCAL/MOL
REMARK 927      BINDING AFFINITY PREDICTED BY RF-SCORE:    0.00 PKD
ROOT
HETATM    1  C   UNL     1      -9.858  15.406  70.069  1.00  0.00    -0.110 C  
HETATM    2  C   UNL     1     -11.189  16.140  69.993  1.00  0.00    -0.357 C  
ENDROOT
BRANCH   2   3
HETATM    3  C   UNL     1     -12.094  15.657  71.123  1.00  0.00    -0.404 C  
HETATM    4  C   UNL     1     -12.836  15.030  73.111  1.00  0.00    -0.506 C  
HETATM    5  N   UNL     1     -11.626  15.424  72.330  1.00  0.00    -0.458 NA 
HETATM    6  N   UNL     1     -13.450  15.472  70.948  1.00  0.00    -0.530 NA 
HETATM    7  C   UNL     1     -14.048  15.425  72.259  1.00  0.00    -0.564 C  
ENDBRANCH   2   3
BRANCH   2   8
HETATM    8  O   UNL     1     -11.907  15.833  68.793  1.00  0.00    -0.387 OA 
BRANCH   8   9
HETATM    9  C   UNL     1     -11.259  15.524  67.628  1.00  0.00    -0.291 A  
HETATM   10  C   UNL     1     -10.876  13.730  65.990  1.00  0.00    -0.282 A  
HETATM   11 CL   UNL     1     -12.145  12.996  68.232  1.00  0.00    -0.287 Cl 
HETATM   12  C   UNL     1     -10.259  14.628  65.128  1.00  0.00    -0.414 A  
HETATM   13  C   UNL     1     -11.367  14.175  67.226  1.00  0.00    -0.332 A  
HETATM   14  C   UNL     1     -10.142  15.962  65.503  1.00  0.00    -0.353 A  
HETATM   15  C   UNL     1     -10.654  16.420  66.732  1.00  0.00    -0.238 A  
HETATM   16 CL   UNL     1     -10.588  18.133  66.942  1.00  0.00    -0.358 Cl 
ENDBRANCH   8   9
ENDBRANCH   2   8
TORSDOF 3
ENDMDL
MODEL       18
REMARK 921   NORMALIZED FREE ENERGY PREDICTED BY IDOCK:   -4.95 KCAL/MOL
REMARK 922        TOTAL FREE ENERGY PREDICTED BY IDOCK:   -6.31 KCAL/MOL
REMARK 923 INTER-LIGAND FREE ENERGY PREDICTED BY IDOCK:   -5.81 KCAL/MOL
REMARK 924 INTRA-LIGAND FREE ENERGY PREDICTED BY IDOCK:   -0.49 KCAL/MOL
REMARK 927      BINDING AFFINITY PREDICTED BY RF-SCORE:    0.00 PKD
ROOT
HETATM    1  C   UNL     1     -13.216  11.778  71.890  1.00  0.00    -0.468 C  
HETATM    2  C   UNL     1     -12.576  11.051  70.716  1.00  0.00    -0.369 C  
ENDROOT
BRANCH   2   3
HETATM    3  C   UNL     1     -11.864   9.802  71.228  1.00  0.00    -0.399 C  
HETATM    4  C   UNL     1     -10.301   8.310  71.705  1.00  0.00    -0.254 C  
HETATM    5  N   UNL     1     -10.586   9.593  70.996  1.00  0.00    -0.315 NA 
HETATM    6  N   UNL     1     -12.512   8.848  71.985  1.00  0.00    -0.367 NA 
HETATM    7  C   UNL     1     -11.496   8.054  72.631  1.00  0.00    -0.402 C  
ENDBRANCH   2   3
BRANCH   2   8
HETATM    8  O   UNL     1     -11.548  11.829  70.094  1.00  0.00    -0.284 OA 
BRANCH   8   9
HETATM    9  C   UNL     1     -11.670  12.282  68.809  1.00  0.00    -0.340 A  
HETATM   10  C   UNL     1     -11.954  14.305  67.439  1.00  0.00    -0.426 A  
HETATM   11 CL   UNL     1     -12.228  14.650  70.081  1.00  0.00    -0.370 Cl 
HETATM   12  C   UNL     1     -11.709  13.575  66.283  1.00  0.00    -0.401 A  
HETATM   13  C   UNL     1     -11.936  13.663  68.686  1.00  0.00    -0.360 A  
HETATM   14  C   UNL     1     -11.443  12.213  66.380  1.00  0.00    -0.430 A  
HETATM   15  C   UNL     1     -11.400  11.568  67.630  1.00  0.00    -0.291 A  
HETATM   16 CL   UNL     1     -10.870   9.924  67.571  1.00  0.00    -0.338 Cl 
ENDBRANCH   8   9
ENDBRANCH   2   8
TORSDOF 3
ENDMDL
MODEL       19
REMARK 921   NORMALIZED FREE ENERGY PREDICTED BY IDOCK:   -4.94 KCAL/MOL
REMARK 922        TOTAL FREE ENERGY PREDICTED BY IDOCK:   -6.30 KCAL/MOL
REMARK 923 INTER-LIGAND FREE ENERGY PREDICTED BY IDOCK:   -5.81 KCAL/MOL
REMARK 924 INTRA-LIGAND FREE ENERGY PREDICTED BY IDOCK:   -0.49 KCAL/MOL
REMARK 927      BINDING AFFINITY PREDICTED BY RF-SCORE:    0.00 PKD
ROOT
HETATM    1  C   UNL     1     -10.517  14.620  69.138  1.00  0.00    -0.239 C  
HETATM    2  C   UNL     1     -12.009  14.329  69.072  1.00  0.00    -0.325 C  
ENDROOT
BRANCH   2   3
HETATM    3  C   UNL     1     -12.607  14.448  70.471  1.00  0.00    -0.353 C  
HETATM    4  C   UNL     1     -13.608  15.240  72.278  1.00  0.00    -0.481 C  
HETATM    5  N   UNL     1     -13.093  15.584  70.919  1.00  0.00    -0.489 NA 
HETATM    6  N   UNL     1     -12.697  13.367  71.323  1.00  0.00    -0.362 NA 
HETATM    7  C   UNL     1     -13.651  13.709  72.348  1.00  0.00    -0.602 C  
ENDBRANCH   2   3
BRANCH   2   8
HETATM    8  O   UNL     1     -12.279  12.981  68.672  1.00  0.00    -0.223 OA 
BRANCH   8   9
HETATM    9  C   UNL     1     -11.611  12.394  67.632  1.00  0.00    -0.357 A  
HETATM   10  C   UNL     1     -10.240  10.450  67.005  1.00  0.00    -0.277 A  
HETATM   11 CL   UNL     1     -10.718  10.729  69.625  1.00  0.00    -0.274 Cl 
HETATM   12  C   UNL     1     -10.337  10.796  65.663  1.00  0.00    -0.297 A  
HETATM   13  C   UNL     1     -10.868  11.243  67.976  1.00  0.00    -0.218 A  
HETATM   14  C   UNL     1     -11.065  11.926  65.301  1.00  0.00    -0.354 A  
HETATM   15  C   UNL     1     -11.717  12.711  66.269  1.00  0.00    -0.402 A  
HETATM   16 CL   UNL     1     -12.724  13.956  65.621  1.00  0.00    -0.560 Cl 
ENDBRANCH   8   9
ENDBRANCH   2   8
TORSDOF 3
ENDMDL
MODEL       20
REMARK 921   NORMALIZED FREE ENERGY PREDICTED BY IDOCK:   -4.94 KCAL/MOL
REMARK 922        TOTAL FREE ENERGY PREDICTED BY IDOCK:   -6.29 KCAL/MOL
REMARK 923 INTER-LIGAND FREE ENERGY PREDICTED BY IDOCK:   -5.88 KCAL/MOL
REMARK 924 INTRA-LIGAND FREE ENERGY PREDICTED BY IDOCK:   -0.41 KCAL/MOL
REMARK 927      BINDING AFFINITY PREDICTED BY RF-SCORE:    0.00 PKD
ROOT
HETATM    1  C   UNL     1     -11.353  10.848  68.405  1.00  0.00    -0.370 C  
HETATM    2  C   UNL     1     -11.489  11.408  69.813  1.00  0.00    -0.300 C  
ENDROOT
BRANCH   2   3
HETATM    3  C   UNL     1     -11.936  10.293  70.756  1.00  0.00    -0.360 C  
HETATM    4  C   UNL     1     -11.921   8.650  72.237  1.00  0.00    -0.368 C  
HETATM    5  N   UNL     1     -11.067   9.559  71.416  1.00  0.00    -0.371 NA 
HETATM    6  N   UNL     1     -13.268  10.021  70.989  1.00  0.00    -0.374 NA 
HETATM    7  C   UNL     1     -13.339   9.233  72.194  1.00  0.00    -0.468 C  
ENDBRANCH   2   3
BRANCH   2   8
HETATM    8  O   UNL     1     -12.519  12.398  69.903  1.00  0.00    -0.080 OA 
BRANCH   8   9
HETATM    9  C   UNL     1     -12.246  13.687  70.271  1.00  0.00    -0.353 A  
HETATM   10  C   UNL     1     -12.441  15.306  72.112  1.00  0.00    -0.434 A  
HETATM   11 CL   UNL     1     -13.762  13.001  72.455  1.00  0.00    -0.658 Cl 
HETATM   12  C   UNL     1     -11.620  16.198  71.435  1.00  0.00    -0.495 A  
HETATM   13  C   UNL     1     -12.751  14.067  71.534  1.00  0.00    -0.363 A  
HETATM   14  C   UNL     1     -11.110  15.845  70.189  1.00  0.00    -0.369 A  
HETATM   15  C   UNL     1     -11.398  14.593  69.615  1.00  0.00    -0.280 A  
HETATM   16 CL   UNL     1     -10.528  14.256  68.161  1.00  0.00    -0.241 Cl 
ENDBRANCH   8   9
ENDBRANCH   2   8
TORSDOF 3
ENDMDL
MODEL       21
REMARK 921   NORMALIZED FREE ENERGY PREDICTED BY IDOCK:   -4.93 KCAL/MOL
REMARK 922        TOTAL FREE ENERGY PREDICTED BY IDOCK:   -6.29 KCAL/MOL
REMARK 923 INTER-LIGAND FREE ENERGY PREDICTED BY IDOCK:   -5.76 KCAL/MOL
REMARK 924 INTRA-LIGAND FREE ENERGY PREDICTED BY IDOCK:   -0.52 KCAL/MOL
REMARK 927      BINDING AFFINITY PREDICTED BY RF-SCORE:    0.00 PKD
ROOT
HETATM    1  C   UNL     1     -11.843  12.614  68.022  1.00  0.00    -0.376 C  
HETATM    2  C   UNL     1     -11.773  13.636  66.897  1.00  0.00    -0.389 C  
ENDROOT
BRANCH   2   3
HETATM    3  C   UNL     1     -11.829  12.910  65.555  1.00  0.00    -0.411 C  
HETATM    4  C   UNL     1     -12.554  12.050  63.650  1.00  0.00    -0.490 C  
HETATM    5  N   UNL     1     -12.961  12.748  64.906  1.00  0.00    -0.853 NA 
HETATM    6  N   UNL     1     -10.696  12.418  64.941  1.00  0.00    -0.283 NA 
HETATM    7  C   UNL     1     -11.029  12.182  63.558  1.00  0.00    -0.453 C  
ENDBRANCH   2   3
BRANCH   2   8
HETATM    8  O   UNL     1     -10.525  14.337  66.882  1.00  0.00    -0.269 OA 
BRANCH   8   9
HETATM    9  C   UNL     1     -10.469  15.704  66.901  1.00  0.00    -0.307 A  
HETATM   10  C   UNL     1      -9.642  17.634  68.181  1.00  0.00    -0.297 A  
HETATM   11 CL   UNL     1      -9.441  15.262  69.409  1.00  0.00    -0.242 Cl 
HETATM   12  C   UNL     1      -9.964  18.487  67.133  1.00  0.00    -0.357 A  
HETATM   13  C   UNL     1      -9.895  16.260  68.065  1.00  0.00    -0.236 A  
HETATM   14  C   UNL     1     -10.530  17.961  65.976  1.00  0.00    -0.293 A  
HETATM   15  C   UNL     1     -10.764  16.579  65.844  1.00  0.00    -0.190 A  
HETATM   16 CL   UNL     1     -11.292  16.088  64.274  1.00  0.00    -0.319 Cl 
ENDBRANCH   8   9
ENDBRANCH   2   8
TORSDOF 3
ENDMDL
MODEL       22
REMARK 921   NORMALIZED FREE ENERGY PREDICTED BY IDOCK:   -4.93 KCAL/MOL
REMARK 922        TOTAL FREE ENERGY PREDICTED BY IDOCK:   -6.28 KCAL/MOL
REMARK 923 INTER-LIGAND FREE ENERGY PREDICTED BY IDOCK:   -5.74 KCAL/MOL
REMARK 924 INTRA-LIGAND FREE ENERGY PREDICTED BY IDOCK:   -0.54 KCAL/MOL
REMARK 927      BINDING AFFINITY PREDICTED BY RF-SCORE:    0.00 PKD
ROOT
HETATM    1  C   UNL     1      -9.071  16.026  69.024  1.00  0.00    -0.242 C  
HETATM    2  C   UNL     1      -9.570  16.131  67.591  1.00  0.00    -0.222 C  
ENDROOT
BRANCH   2   3
HETATM    3  C   UNL     1      -9.641  17.602  67.190  1.00  0.00    -0.278 C  
HETATM    4  C   UNL     1      -9.293  19.527  66.156  1.00  0.00    -0.329 C  
HETATM    5  N   UNL     1      -8.860  18.102  66.258  1.00  0.00    -0.456 NA 
HETATM    6  N   UNL     1     -10.546  18.473  67.760  1.00  0.00    -0.406 NA 
HETATM    7  C   UNL     1     -10.632  19.625  66.897  1.00  0.00    -0.484 C  
ENDBRANCH   2   3
BRANCH   2   8
HETATM    8  O   UNL     1     -10.910  15.649  67.448  1.00  0.00    -0.312 OA 
BRANCH   8   9
HETATM    9  C   UNL     1     -11.237  14.704  66.514  1.00  0.00    -0.346 A  
HETATM   10  C   UNL     1     -11.994  12.381  66.225  1.00  0.00    -0.369 A  
HETATM   11 CL   UNL     1     -11.300  13.070  68.719  1.00  0.00    -0.309 Cl 
HETATM   12  C   UNL     1     -12.205  12.602  64.870  1.00  0.00    -0.531 A  
HETATM   13  C   UNL     1     -11.513  13.421  67.035  1.00  0.00    -0.337 A  
HETATM   14  C   UNL     1     -11.940  13.859  64.335  1.00  0.00    -0.480 A  
HETATM   15  C   UNL     1     -11.481  14.913  65.147  1.00  0.00    -0.357 A  
HETATM   16 CL   UNL     1     -11.390  16.443  64.351  1.00  0.00    -0.279 Cl 
ENDBRANCH   8   9
ENDBRANCH   2   8
TORSDOF 3
ENDMDL
MODEL       23
REMARK 921   NORMALIZED FREE ENERGY PREDICTED BY IDOCK:   -4.92 KCAL/MOL
REMARK 922        TOTAL FREE ENERGY PREDICTED BY IDOCK:   -6.27 KCAL/MOL
REMARK 923 INTER-LIGAND FREE ENERGY PREDICTED BY IDOCK:   -5.89 KCAL/MOL
REMARK 924 INTRA-LIGAND FREE ENERGY PREDICTED BY IDOCK:   -0.38 KCAL/MOL
REMARK 927      BINDING AFFINITY PREDICTED BY RF-SCORE:    0.00 PKD
ROOT
HETATM    1  C   UNL     1     -11.547  11.712  66.999  1.00  0.00    -0.268 C  
HETATM    2  C   UNL     1     -11.993  13.001  67.672  1.00  0.00    -0.301 C  
ENDROOT
BRANCH   2   3
HETATM    3  C   UNL     1     -11.576  14.189  66.808  1.00  0.00    -0.391 C  
HETATM    4  C   UNL     1     -10.513  15.974  66.046  1.00  0.00    -0.345 C  
HETATM    5  N   UNL     1     -10.627  15.017  67.187  1.00  0.00    -0.289 NA 
HETATM    6  N   UNL     1     -12.146  14.435  65.577  1.00  0.00    -0.372 NA 
HETATM    7  C   UNL     1     -11.270  15.339  64.873  1.00  0.00    -0.415 C  
ENDBRANCH   2   3
BRANCH   2   8
HETATM    8  O   UNL     1     -11.335  13.212  68.925  1.00  0.00    -0.256 OA 
BRANCH   8   9
HETATM    9  C   UNL     1     -11.989  13.046  70.116  1.00  0.00    -0.303 A  
HETATM   10  C   UNL     1     -13.310  14.216  71.830  1.00  0.00    -0.459 A  
HETATM   11 CL   UNL     1     -12.176  15.782  69.976  1.00  0.00    -0.359 Cl 
HETATM   12  C   UNL     1     -13.624  13.006  72.436  1.00  0.00    -0.628 A  
HETATM   13  C   UNL     1     -12.500  14.234  70.685  1.00  0.00    -0.358 A  
HETATM   14  C   UNL     1     -13.132  11.824  71.892  1.00  0.00    -0.482 A  
HETATM   15  C   UNL     1     -12.339  11.833  70.729  1.00  0.00    -0.337 A  
HETATM   16 CL   UNL     1     -11.981  10.267  70.094  1.00  0.00    -0.324 Cl 
ENDBRANCH   8   9
ENDBRANCH   2   8
TORSDOF 3
ENDMDL
MODEL       24
REMARK 921   NORMALIZED FREE ENERGY PREDICTED BY IDOCK:   -4.90 KCAL/MOL
REMARK 922        TOTAL FREE ENERGY PREDICTED BY IDOCK:   -6.24 KCAL/MOL
REMARK 923 INTER-LIGAND FREE ENERGY PREDICTED BY IDOCK:   -5.76 KCAL/MOL
REMARK 924 INTRA-LIGAND FREE ENERGY PREDICTED BY IDOCK:   -0.48 KCAL/MOL
REMARK 927      BINDING AFFINITY PREDICTED BY RF-SCORE:    0.00 PKD
ROOT
HETATM    1  C   UNL     1      -9.965  12.794  68.412  1.00  0.00    -0.210 C  
HETATM    2  C   UNL     1     -11.467  12.563  68.334  1.00  0.00    -0.312 C  
ENDROOT
BRANCH   2   3
HETATM    3  C   UNL     1     -11.935  11.868  69.610  1.00  0.00    -0.298 C  
HETATM    4  C   UNL     1     -12.812  11.487  71.605  1.00  0.00    -0.370 C  
HETATM    5  N   UNL     1     -12.455  12.543  70.611  1.00  0.00    -0.288 NA 
HETATM    6  N   UNL     1     -11.867  10.499  69.766  1.00  0.00    -0.268 NA 
HETATM    7  C   UNL     1     -12.740  10.150  70.859  1.00  0.00    -0.357 C  
ENDBRANCH   2   3
BRANCH   2   8
HETATM    8  O   UNL     1     -11.821  11.664  67.278  1.00  0.00    -0.609 OA 
BRANCH   8   9
HETATM    9  C   UNL     1     -11.327  11.816  66.010  1.00  0.00    -0.273 A  
HETATM   10  C   UNL     1     -10.030  10.701  64.243  1.00  0.00    -0.413 A  
HETATM   11 CL   UNL     1     -10.050   9.462  66.618  1.00  0.00    -0.322 Cl 
HETATM   12  C   UNL     1     -10.371  11.701  63.341  1.00  0.00    -0.482 A  
HETATM   13  C   UNL     1     -10.502  10.761  65.562  1.00  0.00    -0.194 A  
HETATM   14  C   UNL     1     -11.184  12.749  63.760  1.00  0.00    -0.496 A  
HETATM   15  C   UNL     1     -11.680  12.802  65.076  1.00  0.00    -0.354 A  
HETATM   16 CL   UNL     1     -12.822  14.067  65.360  1.00  0.00    -0.515 Cl 
ENDBRANCH   8   9
ENDBRANCH   2   8
TORSDOF 3
ENDMDL
MODEL       25
REMARK 921   NORMALIZED FREE ENERGY PREDICTED BY IDOCK:   -4.84 KCAL/MOL
REMARK 922        TOTAL FREE ENERGY PREDICTED BY IDOCK:   -6.18 KCAL/MOL
REMARK 923 INTER-LIGAND FREE ENERGY PREDICTED BY IDOCK:   -5.96 KCAL/MOL
REMARK 924 INTRA-LIGAND FREE ENERGY PREDICTED BY IDOCK:   -0.23 KCAL/MOL
REMARK 927      BINDING AFFINITY PREDICTED BY RF-SCORE:    0.00 PKD
ROOT
HETATM    1  C   UNL     1      -8.857  15.373  66.730  1.00  0.00    -0.300 C  
HETATM    2  C   UNL     1      -9.813  16.131  65.821  1.00  0.00    -0.320 C  
ENDROOT
BRANCH   2   3
HETATM    3  C   UNL     1      -9.972  17.558  66.337  1.00  0.00    -0.325 C  
HETATM    4  C   UNL     1      -9.787  19.393  67.560  1.00  0.00    -0.346 C  
HETATM    5  N   UNL     1      -9.432  17.945  67.472  1.00  0.00    -0.256 NA 
HETATM    6  N   UNL     1     -10.659  18.521  65.628  1.00  0.00    -0.589 NA 
HETATM    7  C   UNL     1     -10.275  19.803  66.166  1.00  0.00    -0.516 C  
ENDBRANCH   2   3
BRANCH   2   8
HETATM    8  O   UNL     1     -11.135  15.582  65.850  1.00  0.00    -0.301 OA 
BRANCH   8   9
HETATM    9  C   UNL     1     -11.443  14.492  66.617  1.00  0.00    -0.366 A  
HETATM   10  C   UNL     1     -11.432  12.033  66.660  1.00  0.00    -0.411 A  
HETATM   11 CL   UNL     1     -10.880  13.149  64.289  1.00  0.00    -0.407 Cl 
HETATM   12  C   UNL     1     -11.739  12.040  68.015  1.00  0.00    -0.398 A  
HETATM   13  C   UNL     1     -11.288  13.245  65.972  1.00  0.00    -0.305 A  
HETATM   14  C   UNL     1     -11.895  13.256  68.672  1.00  0.00    -0.380 A  
HETATM   15  C   UNL     1     -11.728  14.477  67.992  1.00  0.00    -0.342 A  
HETATM   16 CL   UNL     1     -11.771  15.875  69.006  1.00  0.00    -0.393 Cl 
ENDBRANCH   8   9
ENDBRANCH   2   8
TORSDOF 3
ENDMDL
MODEL       26
REMARK 921   NORMALIZED FREE ENERGY PREDICTED BY IDOCK:   -4.83 KCAL/MOL
REMARK 922        TOTAL FREE ENERGY PREDICTED BY IDOCK:   -6.17 KCAL/MOL
REMARK 923 INTER-LIGAND FREE ENERGY PREDICTED BY IDOCK:   -5.79 KCAL/MOL
REMARK 924 INTRA-LIGAND FREE ENERGY PREDICTED BY IDOCK:   -0.38 KCAL/MOL
REMARK 927      BINDING AFFINITY PREDICTED BY RF-SCORE:    0.00 PKD
ROOT
HETATM    1  C   UNL     1      -8.113  15.478  66.852  1.00  0.00    -0.284 C  
HETATM    2  C   UNL     1      -9.419  15.647  66.091  1.00  0.00    -0.341 C  
ENDROOT
BRANCH   2   3
HETATM    3  C   UNL     1     -10.035  16.998  66.445  1.00  0.00    -0.307 C  
HETATM    4  C   UNL     1     -10.731  18.769  67.575  1.00  0.00    -0.411 C  
HETATM    5  N   UNL     1     -10.130  17.407  67.692  1.00  0.00    -0.314 NA 
HETATM    6  N   UNL     1     -10.491  17.871  65.480  1.00  0.00    -0.631 NA 
HETATM    7  C   UNL     1     -10.613  19.167  66.099  1.00  0.00    -0.439 C  
ENDBRANCH   2   3
BRANCH   2   8
HETATM    8  O   UNL     1     -10.402  14.684  66.484  1.00  0.00    -0.272 OA 
BRANCH   8   9
HETATM    9  C   UNL     1     -10.558  13.503  65.810  1.00  0.00    -0.283 A  
HETATM   10  C   UNL     1     -11.542  12.486  63.797  1.00  0.00    -0.552 A  
HETATM   11 CL   UNL     1     -12.248  15.026  64.271  1.00  0.00    -0.433 Cl 
HETATM   12  C   UNL     1     -10.867  11.299  64.049  1.00  0.00    -0.414 A  
HETATM   13  C   UNL     1     -11.390  13.573  64.670  1.00  0.00    -0.356 A  
HETATM   14  C   UNL     1     -10.042  11.207  65.166  1.00  0.00    -0.335 A  
HETATM   15  C   UNL     1      -9.866  12.302  66.031  1.00  0.00    -0.248 A  
HETATM   16 CL   UNL     1      -8.664  12.067  67.250  1.00  0.00    -0.167 Cl 
ENDBRANCH   8   9
ENDBRANCH   2   8
TORSDOF 3
ENDMDL
MODEL       27
REMARK 921   NORMALIZED FREE ENERGY PREDICTED BY IDOCK:   -4.81 KCAL/MOL
REMARK 922        TOTAL FREE ENERGY PREDICTED BY IDOCK:   -6.15 KCAL/MOL
REMARK 923 INTER-LIGAND FREE ENERGY PREDICTED BY IDOCK:   -5.66 KCAL/MOL
REMARK 924 INTRA-LIGAND FREE ENERGY PREDICTED BY IDOCK:   -0.49 KCAL/MOL
REMARK 927      BINDING AFFINITY PREDICTED BY RF-SCORE:    0.00 PKD
ROOT
HETATM    1  C   UNL     1      -9.902  14.585  67.570  1.00  0.00    -0.222 C  
HETATM    2  C   UNL     1     -11.419  14.511  67.654  1.00  0.00    -0.353 C  
ENDROOT
BRANCH   2   3
HETATM    3  C   UNL     1     -11.843  14.524  69.120  1.00  0.00    -0.319 C  
HETATM    4  C   UNL     1     -12.382  13.878  71.166  1.00  0.00    -0.359 C  
HETATM    5  N   UNL     1     -12.041  13.410  69.790  1.00  0.00    -0.325 NA 
HETATM    6  N   UNL     1     -12.008  15.698  69.824  1.00  0.00    -0.361 NA 
HETATM    7  C   UNL     1     -11.995  15.361  71.226  1.00  0.00    -0.374 C  
ENDBRANCH   2   3
BRANCH   2   8
HETATM    8  O   UNL     1     -11.929  13.277  67.137  1.00  0.00    -0.368 OA 
BRANCH   8   9
HETATM    9  C   UNL     1     -11.405  12.699  66.012  1.00  0.00    -0.327 A  
HETATM   10  C   UNL     1     -10.400  10.635  65.132  1.00  0.00    -0.331 A  
HETATM   11 CL   UNL     1     -10.732  10.716  67.788  1.00  0.00    -0.274 Cl 
HETATM   12  C   UNL     1     -10.486  11.128  63.836  1.00  0.00    -0.445 A  
HETATM   13  C   UNL     1     -10.853  11.414  66.206  1.00  0.00    -0.263 A  
HETATM   14  C   UNL     1     -11.028  12.391  63.621  1.00  0.00    -0.525 A  
HETATM   15  C   UNL     1     -11.506  13.168  64.693  1.00  0.00    -0.333 A  
HETATM   16 CL   UNL     1     -12.314  14.620  64.220  1.00  0.00    -0.476 Cl 
ENDBRANCH   8   9
ENDBRANCH   2   8
TORSDOF 3
ENDMDL
MODEL       28
REMARK 921   NORMALIZED FREE ENERGY PREDICTED BY IDOCK:   -4.80 KCAL/MOL
REMARK 922        TOTAL FREE ENERGY PREDICTED BY IDOCK:   -6.13 KCAL/MOL
REMARK 923 INTER-LIGAND FREE ENERGY PREDICTED BY IDOCK:   -5.69 KCAL/MOL
REMARK 924 INTRA-LIGAND FREE ENERGY PREDICTED BY IDOCK:   -0.44 KCAL/MOL
REMARK 927      BINDING AFFINITY PREDICTED BY RF-SCORE:    0.00 PKD
ROOT
HETATM    1  C   UNL     1      -9.146  16.109  68.596  1.00  0.00    -0.218 C  
HETATM    2  C   UNL     1      -9.667  16.223  67.171  1.00  0.00    -0.238 C  
ENDROOT
BRANCH   2   3
HETATM    3  C   UNL     1      -9.704  17.695  66.767  1.00  0.00    -0.300 C  
HETATM    4  C   UNL     1     -10.306  19.814  66.568  1.00  0.00    -0.506 C  
HETATM    5  N   UNL     1     -10.696  18.483  67.120  1.00  0.00    -0.393 NA 
HETATM    6  N   UNL     1      -8.687  18.280  66.041  1.00  0.00    -0.505 NA 
HETATM    7  C   UNL     1      -8.824  19.707  66.188  1.00  0.00    -0.332 C  
ENDBRANCH   2   3
BRANCH   2   8
HETATM    8  O   UNL     1     -11.023  15.779  67.055  1.00  0.00    -0.304 OA 
BRANCH   8   9
HETATM    9  C   UNL     1     -11.336  14.570  66.496  1.00  0.00    -0.352 A  
HETATM   10  C   UNL     1     -11.728  13.418  64.358  1.00  0.00    -0.435 A  
HETATM   11 CL   UNL     1     -11.521  16.085  64.213  1.00  0.00    -0.336 Cl 
HETATM   12  C   UNL     1     -11.730  12.188  65.004  1.00  0.00    -0.371 A  
HETATM   13  C   UNL     1     -11.535  14.593  65.098  1.00  0.00    -0.375 A  
HETATM   14  C   UNL     1     -11.535  12.140  66.381  1.00  0.00    -0.430 A  
HETATM   15  C   UNL     1     -11.317  13.314  67.125  1.00  0.00    -0.317 A  
HETATM   16 CL   UNL     1     -10.906  13.047  68.781  1.00  0.00    -0.280 Cl 
ENDBRANCH   8   9
ENDBRANCH   2   8
TORSDOF 3
ENDMDL
MODEL       29
REMARK 921   NORMALIZED FREE ENERGY PREDICTED BY IDOCK:   -4.79 KCAL/MOL
REMARK 922        TOTAL FREE ENERGY PREDICTED BY IDOCK:   -6.12 KCAL/MOL
REMARK 923 INTER-LIGAND FREE ENERGY PREDICTED BY IDOCK:   -5.67 KCAL/MOL
REMARK 924 INTRA-LIGAND FREE ENERGY PREDICTED BY IDOCK:   -0.45 KCAL/MOL
REMARK 927      BINDING AFFINITY PREDICTED BY RF-SCORE:    0.00 PKD
ROOT
HETATM    1  C   UNL     1     -10.396   9.792  70.556  1.00  0.00    -0.348 C  
HETATM    2  C   UNL     1     -11.706  10.269  71.166  1.00  0.00    -0.341 C  
ENDROOT
BRANCH   2   3
HETATM    3  C   UNL     1     -12.594   9.062  71.457  1.00  0.00    -0.338 C  
HETATM    4  C   UNL     1     -14.361   7.760  71.732  1.00  0.00    -0.470 C  
HETATM    5  N   UNL     1     -13.905   9.155  71.457  1.00  0.00    -0.350 NA 
HETATM    6  N   UNL     1     -12.070   7.810  71.702  1.00  0.00    -0.293 NA 
HETATM    7  C   UNL     1     -13.138   6.858  71.525  1.00  0.00    -0.281 C  
ENDBRANCH   2   3
BRANCH   2   8
HETATM    8  O   UNL     1     -12.466  11.070  70.255  1.00  0.00    -0.305 OA 
BRANCH   8   9
HETATM    9  C   UNL     1     -12.273  12.421  70.154  1.00  0.00    -0.229 A  
HETATM   10  C   UNL     1     -11.610  14.218  68.611  1.00  0.00    -0.352 A  
HETATM   11 CL   UNL     1     -11.240  11.724  67.707  1.00  0.00    -0.303 Cl 
HETATM   12  C   UNL     1     -12.009  15.177  69.533  1.00  0.00    -0.351 A  
HETATM   13  C   UNL     1     -11.739  12.857  68.921  1.00  0.00    -0.327 A  
HETATM   14  C   UNL     1     -12.539  14.771  70.754  1.00  0.00    -0.412 A  
HETATM   15  C   UNL     1     -12.693  13.407  71.061  1.00  0.00    -0.307 A  
HETATM   16 CL   UNL     1     -13.540  13.096  72.535  1.00  0.00    -0.665 Cl 
ENDBRANCH   8   9
ENDBRANCH   2   8
TORSDOF 3
ENDMDL
MODEL       30
REMARK 921   NORMALIZED FREE ENERGY PREDICTED BY IDOCK:   -4.79 KCAL/MOL
REMARK 922        TOTAL FREE ENERGY PREDICTED BY IDOCK:   -6.12 KCAL/MOL
REMARK 923 INTER-LIGAND FREE ENERGY PREDICTED BY IDOCK:   -5.73 KCAL/MOL
REMARK 924 INTRA-LIGAND FREE ENERGY PREDICTED BY IDOCK:   -0.39 KCAL/MOL
REMARK 927      BINDING AFFINITY PREDICTED BY RF-SCORE:    0.00 PKD
ROOT
HETATM    1  C   UNL     1     -10.544   9.370  67.454  1.00  0.00    -0.326 C  
HETATM    2  C   UNL     1     -10.790  10.685  68.178  1.00  0.00    -0.245 C  
ENDROOT
BRANCH   2   3
HETATM    3  C   UNL     1     -11.260  10.395  69.601  1.00  0.00    -0.277 C  
HETATM    4  C   UNL     1     -12.524  10.190  71.406  1.00  0.00    -0.423 C  
HETATM    5  N   UNL     1     -12.482  10.677  69.995  1.00  0.00    -0.287 NA 
HETATM    6  N   UNL     1     -10.441   9.794  70.534  1.00  0.00    -0.295 NA 
HETATM    7  C   UNL     1     -11.288   9.300  71.591  1.00  0.00    -0.397 C  
ENDBRANCH   2   3
BRANCH   2   8
HETATM    8  O   UNL     1     -11.855  11.436  67.588  1.00  0.00    -0.609 OA 
BRANCH   8   9
HETATM    9  C   UNL     1     -11.614  12.543  66.820  1.00  0.00    -0.382 A  
HETATM   10  C   UNL     1     -11.294  14.980  66.902  1.00  0.00    -0.302 A  
HETATM   11 CL   UNL     1     -12.120  13.845  69.183  1.00  0.00    -0.393 Cl 
HETATM   12  C   UNL     1     -10.892  14.987  65.572  1.00  0.00    -0.360 A  
HETATM   13  C   UNL     1     -11.652  13.771  67.515  1.00  0.00    -0.354 A  
HETATM   14  C   UNL     1     -10.845  13.789  64.867  1.00  0.00    -0.398 A  
HETATM   15  C   UNL     1     -11.181  12.570  65.484  1.00  0.00    -0.314 A  
HETATM   16 CL   UNL     1     -10.882  11.170  64.516  1.00  0.00    -0.368 Cl 
ENDBRANCH   8   9
ENDBRANCH   2   8
TORSDOF 3
ENDMDL
MODEL       31
REMARK 921   NORMALIZED FREE ENERGY PREDICTED BY IDOCK:   -4.78 KCAL/MOL
REMARK 922        TOTAL FREE ENERGY PREDICTED BY IDOCK:   -6.11 KCAL/MOL
REMARK 923 INTER-LIGAND FREE ENERGY PREDICTED BY IDOCK:   -5.76 KCAL/MOL
REMARK 924 INTRA-LIGAND FREE ENERGY PREDICTED BY IDOCK:   -0.35 KCAL/MOL
REMARK 927      BINDING AFFINITY PREDICTED BY RF-SCORE:    0.00 PKD
ROOT
HETATM    1  C   UNL     1     -11.668  11.299  69.820  1.00  0.00    -0.422 C  
HETATM    2  C   UNL     1     -11.353  12.286  68.706  1.00  0.00    -0.289 C  
ENDROOT
BRANCH   2   3
HETATM    3  C   UNL     1     -11.731  13.694  69.160  1.00  0.00    -0.329 C  
HETATM    4  C   UNL     1     -12.498  15.391  70.355  1.00  0.00    -0.404 C  
HETATM    5  N   UNL     1     -12.392  13.903  70.278  1.00  0.00    -0.343 NA 
HETATM    6  N   UNL     1     -11.372  14.816  68.443  1.00  0.00    -0.285 NA 
HETATM    7  C   UNL     1     -11.508  15.948  69.326  1.00  0.00    -0.374 C  
ENDBRANCH   2   3
BRANCH   2   8
HETATM    8  O   UNL     1     -12.148  12.054  67.538  1.00  0.00    -0.555 OA 
BRANCH   8   9
HETATM    9  C   UNL     1     -11.578  11.849  66.311  1.00  0.00    -0.246 A  
HETATM   10  C   UNL     1     -11.339  12.797  64.054  1.00  0.00    -0.468 A  
HETATM   11 CL   UNL     1     -13.133  14.008  65.632  1.00  0.00    -0.382 Cl 
HETATM   12  C   UNL     1     -10.362  11.859  63.747  1.00  0.00    -0.451 A  
HETATM   13  C   UNL     1     -11.940  12.789  65.321  1.00  0.00    -0.429 A  
HETATM   14  C   UNL     1      -9.988  10.924  64.707  1.00  0.00    -0.366 A  
HETATM   15  C   UNL     1     -10.570  10.926  65.988  1.00  0.00    -0.189 A  
HETATM   16 CL   UNL     1      -9.850   9.820  67.104  1.00  0.00    -0.225 Cl 
ENDBRANCH   8   9
ENDBRANCH   2   8
TORSDOF 3
ENDMDL
MODEL       32
REMARK 921   NORMALIZED FREE ENERGY PREDICTED BY IDOCK:   -4.75 KCAL/MOL
REMARK 922        TOTAL FREE ENERGY PREDICTED BY IDOCK:   -6.07 KCAL/MOL
REMARK 923 INTER-LIGAND FREE ENERGY PREDICTED BY IDOCK:   -5.61 KCAL/MOL
REMARK 924 INTRA-LIGAND FREE ENERGY PREDICTED BY IDOCK:   -0.46 KCAL/MOL
REMARK 927      BINDING AFFINITY PREDICTED BY RF-SCORE:    0.00 PKD
ROOT
HETATM    1  C   UNL     1     -13.193  12.370  72.078  1.00  0.00    -0.514 C  
HETATM    2  C   UNL     1     -12.877  11.533  70.847  1.00  0.00    -0.201 C  
ENDROOT
BRANCH   2   3
HETATM    3  C   UNL     1     -12.649  10.084  71.270  1.00  0.00    -0.393 C  
HETATM    4  C   UNL     1     -12.989   7.971  71.832  1.00  0.00    -0.312 C  
HETATM    5  N   UNL     1     -13.653   9.269  71.507  1.00  0.00    -0.373 NA 
HETATM    6  N   UNL     1     -11.384   9.548  71.394  1.00  0.00    -0.376 NA 
HETATM    7  C   UNL     1     -11.527   8.113  71.393  1.00  0.00    -0.263 C  
ENDBRANCH   2   3
BRANCH   2   8
HETATM    8  O   UNL     1     -11.651  11.929  70.224  1.00  0.00    -0.249 OA 
BRANCH   8   9
HETATM    9  C   UNL     1     -11.637  12.638  69.054  1.00  0.00    -0.317 A  
HETATM   10  C   UNL     1     -11.540  12.418  66.606  1.00  0.00    -0.447 A  
HETATM   11 CL   UNL     1     -11.106  10.164  67.987  1.00  0.00    -0.325 Cl 
HETATM   12  C   UNL     1     -11.826  13.769  66.458  1.00  0.00    -0.438 A  
HETATM   13  C   UNL     1     -11.444  11.862  67.890  1.00  0.00    -0.316 A  
HETATM   14  C   UNL     1     -12.021  14.553  67.591  1.00  0.00    -0.355 A  
HETATM   15  C   UNL     1     -11.950  13.995  68.881  1.00  0.00    -0.352 A  
HETATM   16 CL   UNL     1     -12.406  15.073  70.153  1.00  0.00    -0.378 Cl 
ENDBRANCH   8   9
ENDBRANCH   2   8
TORSDOF 3
ENDMDL
MODEL       33
REMARK 921   NORMALIZED FREE ENERGY PREDICTED BY IDOCK:   -4.74 KCAL/MOL
REMARK 922        TOTAL FREE ENERGY PREDICTED BY IDOCK:   -6.06 KCAL/MOL
REMARK 923 INTER-LIGAND FREE ENERGY PREDICTED BY IDOCK:   -5.55 KCAL/MOL
REMARK 924 INTRA-LIGAND FREE ENERGY PREDICTED BY IDOCK:   -0.51 KCAL/MOL
REMARK 927      BINDING AFFINITY PREDICTED BY RF-SCORE:    0.00 PKD
ROOT
HETATM    1  C   UNL     1     -11.228  10.704  67.742  1.00  0.00    -0.383 C  
HETATM    2  C   UNL     1     -11.196  12.001  68.537  1.00  0.00    -0.256 C  
ENDROOT
BRANCH   2   3
HETATM    3  C   UNL     1     -11.889  11.783  69.880  1.00  0.00    -0.348 C  
HETATM    4  C   UNL     1     -12.979  12.134  71.773  1.00  0.00    -0.332 C  
HETATM    5  N   UNL     1     -12.347  12.791  70.591  1.00  0.00    -0.345 NA 
HETATM    6  N   UNL     1     -12.101  10.523  70.399  1.00  0.00    -0.304 NA 
HETATM    7  C   UNL     1     -13.109  10.647  71.422  1.00  0.00    -0.400 C  
ENDBRANCH   2   3
BRANCH   2   8
HETATM    8  O   UNL     1     -11.946  13.042  67.903  1.00  0.00    -0.347 OA 
BRANCH   8   9
HETATM    9  C   UNL     1     -11.337  14.004  67.143  1.00  0.00    -0.331 A  
HETATM   10  C   UNL     1     -11.262  14.998  64.895  1.00  0.00    -0.423 A  
HETATM   11 CL   UNL     1     -12.710  12.757  65.119  1.00  0.00    -0.522 Cl 
HETATM   12  C   UNL     1     -10.459  16.032  65.362  1.00  0.00    -0.415 A  
HETATM   13  C   UNL     1     -11.692  13.997  65.776  1.00  0.00    -0.363 A  
HETATM   14  C   UNL     1     -10.097  16.060  66.705  1.00  0.00    -0.272 A  
HETATM   15  C   UNL     1     -10.546  15.070  67.600  1.00  0.00    -0.267 A  
HETATM   16 CL   UNL     1     -10.157  15.372  69.256  1.00  0.00    -0.238 Cl 
ENDBRANCH   8   9
ENDBRANCH   2   8
TORSDOF 3
ENDMDL
MODEL       34
REMARK 921   NORMALIZED FREE ENERGY PREDICTED BY IDOCK:   -4.73 KCAL/MOL
REMARK 922        TOTAL FREE ENERGY PREDICTED BY IDOCK:   -6.04 KCAL/MOL
REMARK 923 INTER-LIGAND FREE ENERGY PREDICTED BY IDOCK:   -5.56 KCAL/MOL
REMARK 924 INTRA-LIGAND FREE ENERGY PREDICTED BY IDOCK:   -0.48 KCAL/MOL
REMARK 927      BINDING AFFINITY PREDICTED BY RF-SCORE:    0.00 PKD
ROOT
HETATM    1  C   UNL     1     -11.748  14.554  66.973  1.00  0.00    -0.412 C  
HETATM    2  C   UNL     1     -11.335  15.028  65.588  1.00  0.00    -0.297 C  
ENDROOT
BRANCH   2   3
HETATM    3  C   UNL     1     -11.359  13.845  64.625  1.00  0.00    -0.375 C  
HETATM    4  C   UNL     1     -10.765  12.062  63.456  1.00  0.00    -0.455 C  
HETATM    5  N   UNL     1     -10.287  13.116  64.400  1.00  0.00    -0.400 NA 
HETATM    6  N   UNL     1     -12.509  13.459  63.967  1.00  0.00    -0.674 NA 
HETATM    7  C   UNL     1     -12.297  12.115  63.489  1.00  0.00    -0.574 C  
ENDBRANCH   2   3
BRANCH   2   8
HETATM    8  O   UNL     1      -9.982  15.496  65.558  1.00  0.00    -0.340 OA 
BRANCH   8   9
HETATM    9  C   UNL     1      -9.478  16.297  66.547  1.00  0.00    -0.264 A  
HETATM   10  C   UNL     1      -7.785  16.418  68.327  1.00  0.00    -0.162 A  
HETATM   11 CL   UNL     1      -8.091  14.015  67.185  1.00  0.00    -0.166 Cl 
HETATM   12  C   UNL     1      -8.048  17.771  68.505  1.00  0.00    -0.297 A  
HETATM   13  C   UNL     1      -8.495  15.692  67.361  1.00  0.00    -0.172 A  
HETATM   14  C   UNL     1      -9.011  18.388  67.714  1.00  0.00    -0.292 A  
HETATM   15  C   UNL     1      -9.709  17.670  66.726  1.00  0.00    -0.300 A  
HETATM   16 CL   UNL     1     -10.724  18.639  65.718  1.00  0.00    -0.382 Cl 
ENDBRANCH   8   9
ENDBRANCH   2   8
TORSDOF 3
ENDMDL
MODEL       35
REMARK 921   NORMALIZED FREE ENERGY PREDICTED BY IDOCK:   -4.73 KCAL/MOL
REMARK 922        TOTAL FREE ENERGY PREDICTED BY IDOCK:   -6.04 KCAL/MOL
REMARK 923 INTER-LIGAND FREE ENERGY PREDICTED BY IDOCK:   -5.57 KCAL/MOL
REMARK 924 INTRA-LIGAND FREE ENERGY PREDICTED BY IDOCK:   -0.47 KCAL/MOL
REMARK 927      BINDING AFFINITY PREDICTED BY RF-SCORE:    0.00 PKD
ROOT
HETATM    1  C   UNL     1     -10.208  10.533  66.385  1.00  0.00    -0.296 C  
HETATM    2  C   UNL     1     -11.257  11.321  67.156  1.00  0.00    -0.275 C  
ENDROOT
BRANCH   2   3
HETATM    3  C   UNL     1     -11.529  12.637  66.432  1.00  0.00    -0.356 C  
HETATM    4  C   UNL     1     -11.361  14.721  65.708  1.00  0.00    -0.336 C  
HETATM    5  N   UNL     1     -10.787  13.703  66.638  1.00  0.00    -0.282 NA 
HETATM    6  N   UNL     1     -12.541  12.767  65.505  1.00  0.00    -0.610 NA 
HETATM    7  C   UNL     1     -12.267  13.956  64.737  1.00  0.00    -0.415 C  
ENDBRANCH   2   3
BRANCH   2   8
HETATM    8  O   UNL     1     -10.797  11.706  68.455  1.00  0.00    -0.196 OA 
BRANCH   8   9
HETATM    9  C   UNL     1     -11.387  11.233  69.595  1.00  0.00    -0.287 A  
HETATM   10  C   UNL     1     -13.027  11.771  71.347  1.00  0.00    -0.408 A  
HETATM   11 CL   UNL     1     -12.399  13.784  69.695  1.00  0.00    -0.337 Cl 
HETATM   12  C   UNL     1     -12.965  10.469  71.827  1.00  0.00    -0.582 A  
HETATM   13  C   UNL     1     -12.245  12.147  70.246  1.00  0.00    -0.264 A  
HETATM   14  C   UNL     1     -12.127   9.551  71.201  1.00  0.00    -0.429 A  
HETATM   15  C   UNL     1     -11.358   9.916  70.081  1.00  0.00    -0.275 A  
HETATM   16 CL   UNL     1     -10.528   8.603  69.323  1.00  0.00    -0.228 Cl 
ENDBRANCH   8   9
ENDBRANCH   2   8
TORSDOF 3
ENDMDL
MODEL       36
REMARK 921   NORMALIZED FREE ENERGY PREDICTED BY IDOCK:   -4.70 KCAL/MOL
REMARK 922        TOTAL FREE ENERGY PREDICTED BY IDOCK:   -6.02 KCAL/MOL
REMARK 923 INTER-LIGAND FREE ENERGY PREDICTED BY IDOCK:   -5.60 KCAL/MOL
REMARK 924 INTRA-LIGAND FREE ENERGY PREDICTED BY IDOCK:   -0.42 KCAL/MOL
REMARK 927      BINDING AFFINITY PREDICTED BY RF-SCORE:    0.00 PKD
ROOT
HETATM    1  C   UNL     1     -10.655   9.667  68.317  1.00  0.00    -0.268 C  
HETATM    2  C   UNL     1     -11.118  10.814  69.203  1.00  0.00    -0.249 C  
ENDROOT
BRANCH   2   3
HETATM    3  C   UNL     1     -11.773  10.246  70.459  1.00  0.00    -0.331 C  
HETATM    4  C   UNL     1     -13.271   9.675  71.984  1.00  0.00    -0.453 C  
HETATM    5  N   UNL     1     -13.050  10.426  70.712  1.00  0.00    -0.361 NA 
HETATM    6  N   UNL     1     -11.069   9.490  71.374  1.00  0.00    -0.371 NA 
HETATM    7  C   UNL     1     -12.036   8.787  72.180  1.00  0.00    -0.371 C  
ENDBRANCH   2   3
BRANCH   2   8
HETATM    8  O   UNL     1     -12.140  11.599  68.581  1.00  0.00    -0.449 OA 
BRANCH   8   9
HETATM    9  C   UNL     1     -11.862  12.801  67.989  1.00  0.00    -0.336 A  
HETATM   10  C   UNL     1     -11.527  15.197  68.433  1.00  0.00    -0.347 A  
HETATM   11 CL   UNL     1     -12.446  13.758  70.496  1.00  0.00    -0.417 Cl 
HETATM   12  C   UNL     1     -11.075  15.390  67.134  1.00  0.00    -0.291 A  
HETATM   13  C   UNL     1     -11.917  13.918  68.853  1.00  0.00    -0.358 A  
HETATM   14  C   UNL     1     -11.011  14.305  66.266  1.00  0.00    -0.317 A  
HETATM   15  C   UNL     1     -11.378  13.014  66.688  1.00  0.00    -0.325 A  
HETATM   16 CL   UNL     1     -11.054  11.765  65.540  1.00  0.00    -0.354 Cl 
ENDBRANCH   8   9
ENDBRANCH   2   8
TORSDOF 3
ENDMDL
MODEL       37
REMARK 921   NORMALIZED FREE ENERGY PREDICTED BY IDOCK:   -4.69 KCAL/MOL
REMARK 922        TOTAL FREE ENERGY PREDICTED BY IDOCK:   -6.00 KCAL/MOL
REMARK 923 INTER-LIGAND FREE ENERGY PREDICTED BY IDOCK:   -5.57 KCAL/MOL
REMARK 924 INTRA-LIGAND FREE ENERGY PREDICTED BY IDOCK:   -0.43 KCAL/MOL
REMARK 927      BINDING AFFINITY PREDICTED BY RF-SCORE:    0.00 PKD
ROOT
HETATM    1  C   UNL     1     -12.786  13.837  66.023  1.00  0.00    -0.407 C  
HETATM    2  C   UNL     1     -11.269  13.804  66.132  1.00  0.00    -0.300 C  
ENDROOT
BRANCH   2   3
HETATM    3  C   UNL     1     -10.725  12.701  65.228  1.00  0.00    -0.289 C  
HETATM    4  C   UNL     1     -10.173  10.718  64.416  1.00  0.00    -0.364 C  
HETATM    5  N   UNL     1     -10.737  11.439  65.596  1.00  0.00    -0.261 NA 
HETATM    6  N   UNL     1     -10.224  12.966  63.970  1.00  0.00    -0.343 NA 
HETATM    7  C   UNL     1     -10.191  11.716  63.252  1.00  0.00    -0.407 C  
ENDBRANCH   2   3
BRANCH   2   8
HETATM    8  O   UNL     1     -10.829  13.448  67.447  1.00  0.00    -0.263 OA 
BRANCH   8   9
HETATM    9  C   UNL     1     -11.452  13.929  68.567  1.00  0.00    -0.311 A  
HETATM   10  C   UNL     1     -12.437  13.271  70.723  1.00  0.00    -0.403 A  
HETATM   11 CL   UNL     1     -11.788  11.253  69.085  1.00  0.00    -0.394 Cl 
HETATM   12  C   UNL     1     -12.538  14.605  71.100  1.00  0.00    -0.404 A  
HETATM   13  C   UNL     1     -11.902  12.940  69.469  1.00  0.00    -0.320 A  
HETATM   14  C   UNL     1     -12.101  15.596  70.227  1.00  0.00    -0.413 A  
HETATM   15  C   UNL     1     -11.541  15.268  68.978  1.00  0.00    -0.343 A  
HETATM   16 CL   UNL     1     -10.881  16.612  68.114  1.00  0.00    -0.349 Cl 
ENDBRANCH   8   9
ENDBRANCH   2   8
TORSDOF 3
ENDMDL
MODEL       38
REMARK 921   NORMALIZED FREE ENERGY PREDICTED BY IDOCK:   -4.69 KCAL/MOL
REMARK 922        TOTAL FREE ENERGY PREDICTED BY IDOCK:   -6.00 KCAL/MOL
REMARK 923 INTER-LIGAND FREE ENERGY PREDICTED BY IDOCK:   -5.61 KCAL/MOL
REMARK 924 INTRA-LIGAND FREE ENERGY PREDICTED BY IDOCK:   -0.39 KCAL/MOL
REMARK 927      BINDING AFFINITY PREDICTED BY RF-SCORE:    0.00 PKD
ROOT
HETATM    1  C   UNL     1     -11.834  11.178  68.985  1.00  0.00    -0.418 C  
HETATM    2  C   UNL     1     -12.424  10.949  70.369  1.00  0.00    -0.327 C  
ENDROOT
BRANCH   2   3
HETATM    3  C   UNL     1     -12.605  12.295  71.066  1.00  0.00    -0.257 C  
HETATM    4  C   UNL     1     -12.575  14.463  71.510  1.00  0.00    -0.350 C  
HETATM    5  N   UNL     1     -12.138  13.409  70.546  1.00  0.00    -0.347 NA 
HETATM    6  N   UNL     1     -13.293  12.417  72.255  1.00  0.00    -0.460 NA 
HETATM    7  C   UNL     1     -13.629  13.810  72.413  1.00  0.00    -0.588 C  
ENDBRANCH   2   3
BRANCH   2   8
HETATM    8  O   UNL     1     -11.539  10.213  71.219  1.00  0.00    -0.364 OA 
BRANCH   8   9
HETATM    9  C   UNL     1     -11.572   8.846  71.278  1.00  0.00    -0.304 A  
HETATM   10  C   UNL     1     -10.166   6.829  71.256  1.00  0.00    -0.221 A  
HETATM   11 CL   UNL     1      -8.907   9.121  70.675  1.00  0.00    -0.253 Cl 
HETATM   12  C   UNL     1     -11.258   6.045  71.608  1.00  0.00    -0.328 A  
HETATM   13  C   UNL     1     -10.324   8.212  71.091  1.00  0.00    -0.198 A  
HETATM   14  C   UNL     1     -12.497   6.649  71.798  1.00  0.00    -0.360 A  
HETATM   15  C   UNL     1     -12.657   8.040  71.658  1.00  0.00    -0.322 A  
HETATM   16 CL   UNL     1     -14.214   8.632  72.116  1.00  0.00    -0.515 Cl 
ENDBRANCH   8   9
ENDBRANCH   2   8
TORSDOF 3
ENDMDL
MODEL       39
REMARK 921   NORMALIZED FREE ENERGY PREDICTED BY IDOCK:   -4.65 KCAL/MOL
REMARK 922        TOTAL FREE ENERGY PREDICTED BY IDOCK:   -5.95 KCAL/MOL
REMARK 923 INTER-LIGAND FREE ENERGY PREDICTED BY IDOCK:   -5.71 KCAL/MOL
REMARK 924 INTRA-LIGAND FREE ENERGY PREDICTED BY IDOCK:   -0.24 KCAL/MOL
REMARK 927      BINDING AFFINITY PREDICTED BY RF-SCORE:    0.00 PKD
ROOT
HETATM    1  C   UNL     1     -10.142  15.233  70.033  1.00  0.00    -0.178 C  
HETATM    2  C   UNL     1     -11.552  15.726  69.743  1.00  0.00    -0.355 C  
ENDROOT
BRANCH   2   3
HETATM    3  C   UNL     1     -12.351  15.750  71.043  1.00  0.00    -0.415 C  
HETATM    4  C   UNL     1     -13.967  15.487  72.532  1.00  0.00    -0.555 C  
HETATM    5  N   UNL     1     -13.601  15.342  71.092  1.00  0.00    -0.479 NA 
HETATM    6  N   UNL     1     -11.799  16.169  72.235  1.00  0.00    -0.521 NA 
HETATM    7  C   UNL     1     -12.651  15.687  73.294  1.00  0.00    -0.503 C  
ENDBRANCH   2   3
BRANCH   2   8
HETATM    8  O   UNL     1     -12.271  14.831  68.888  1.00  0.00    -0.230 OA 
BRANCH   8   9
HETATM    9  C   UNL     1     -11.729  13.647  68.469  1.00  0.00    -0.357 A  
HETATM   10  C   UNL     1     -10.271  12.627  66.771  1.00  0.00    -0.246 A  
HETATM   11 CL   UNL     1     -10.942  15.183  66.333  1.00  0.00    -0.334 Cl 
HETATM   12  C   UNL     1     -10.260  11.431  67.477  1.00  0.00    -0.210 A  
HETATM   13  C   UNL     1     -11.000  13.720  67.262  1.00  0.00    -0.292 A  
HETATM   14  C   UNL     1     -10.971  11.336  68.669  1.00  0.00    -0.266 A  
HETATM   15  C   UNL     1     -11.684  12.437  69.180  1.00  0.00    -0.322 A  
HETATM   16 CL   UNL     1     -12.344  12.194  70.758  1.00  0.00    -0.449 Cl 
ENDBRANCH   8   9
ENDBRANCH   2   8
TORSDOF 3
ENDMDL
MODEL       40
REMARK 921   NORMALIZED FREE ENERGY PREDICTED BY IDOCK:   -4.63 KCAL/MOL
REMARK 922        TOTAL FREE ENERGY PREDICTED BY IDOCK:   -5.93 KCAL/MOL
REMARK 923 INTER-LIGAND FREE ENERGY PREDICTED BY IDOCK:   -5.55 KCAL/MOL
REMARK 924 INTRA-LIGAND FREE ENERGY PREDICTED BY IDOCK:   -0.38 KCAL/MOL
REMARK 927      BINDING AFFINITY PREDICTED BY RF-SCORE:    0.00 PKD
ROOT
HETATM    1  C   UNL     1     -10.872  19.022  67.499  1.00  0.00    -0.478 C  
HETATM    2  C   UNL     1      -9.875  18.742  68.613  1.00  0.00    -0.392 C  
ENDROOT
BRANCH   2   3
HETATM    3  C   UNL     1      -8.588  19.516  68.342  1.00  0.00    -0.349 C  
HETATM    4  C   UNL     1      -6.494  20.226  68.429  1.00  0.00    -0.309 C  
HETATM    5  N   UNL     1      -7.501  19.319  69.056  1.00  0.00    -0.355 NA 
HETATM    6  N   UNL     1      -8.488  20.435  67.318  1.00  0.00    -0.347 NA 
HETATM    7  C   UNL     1      -7.084  20.659  67.082  1.00  0.00    -0.331 C  
ENDBRANCH   2   3
BRANCH   2   8
HETATM    8  O   UNL     1      -9.475  17.368  68.647  1.00  0.00    -0.272 OA 
BRANCH   8   9
HETATM    9  C   UNL     1     -10.358  16.356  68.383  1.00  0.00    -0.282 A  
HETATM   10  C   UNL     1     -10.927  14.598  66.760  1.00  0.00    -0.323 A  
HETATM   11 CL   UNL     1      -9.046  16.333  65.971  1.00  0.00    -0.363 Cl 
HETATM   12  C   UNL     1     -11.849  14.057  67.647  1.00  0.00    -0.430 A  
HETATM   13  C   UNL     1     -10.193  15.735  67.125  1.00  0.00    -0.279 A  
HETATM   14  C   UNL     1     -12.028  14.652  68.892  1.00  0.00    -0.309 A  
HETATM   15  C   UNL     1     -11.276  15.779  69.273  1.00  0.00    -0.324 A  
HETATM   16 CL   UNL     1     -11.494  16.262  70.918  1.00  0.00    -0.409 Cl 
ENDBRANCH   8   9
ENDBRANCH   2   8
TORSDOF 3
ENDMDL
MODEL       41
REMARK 921   NORMALIZED FREE ENERGY PREDICTED BY IDOCK:   -4.62 KCAL/MOL
REMARK 922        TOTAL FREE ENERGY PREDICTED BY IDOCK:   -5.92 KCAL/MOL
REMARK 923 INTER-LIGAND FREE ENERGY PREDICTED BY IDOCK:   -5.49 KCAL/MOL
REMARK 924 INTRA-LIGAND FREE ENERGY PREDICTED BY IDOCK:   -0.43 KCAL/MOL
REMARK 927      BINDING AFFINITY PREDICTED BY RF-SCORE:    0.00 PKD
ROOT
HETATM    1  C   UNL     1     -14.248   8.891  72.261  1.00  0.00    -0.474 C  
HETATM    2  C   UNL     1     -12.935   8.939  71.493  1.00  0.00    -0.332 C  
ENDROOT
BRANCH   2   3
HETATM    3  C   UNL     1     -12.003   7.854  72.025  1.00  0.00    -0.319 C  
HETATM    4  C   UNL     1     -10.534   6.753  73.261  1.00  0.00    -0.296 C  
HETATM    5  N   UNL     1     -11.215   8.066  73.056  1.00  0.00    -0.331 NA 
HETATM    6  N   UNL     1     -11.962   6.589  71.476  1.00  0.00    -0.337 NA 
HETATM    7  C   UNL     1     -11.320   5.727  72.436  1.00  0.00    -0.294 C  
ENDBRANCH   2   3
BRANCH   2   8
HETATM    8  O   UNL     1     -12.229  10.165  71.707  1.00  0.00    -0.374 OA 
BRANCH   8   9
HETATM    9  C   UNL     1     -11.946  11.019  70.677  1.00  0.00    -0.365 A  
HETATM   10  C   UNL     1     -12.087  13.366  69.953  1.00  0.00    -0.389 A  
HETATM   11 CL   UNL     1     -13.393  12.773  72.215  1.00  0.00    -0.621 Cl 
HETATM   12  C   UNL     1     -11.289  13.090  68.850  1.00  0.00    -0.333 A  
HETATM   13  C   UNL     1     -12.412  12.341  70.853  1.00  0.00    -0.276 A  
HETATM   14  C   UNL     1     -10.817  11.795  68.657  1.00  0.00    -0.259 A  
HETATM   15  C   UNL     1     -11.120  10.768  69.569  1.00  0.00    -0.278 A  
HETATM   16 CL   UNL     1     -10.295   9.279  69.272  1.00  0.00    -0.213 Cl 
ENDBRANCH   8   9
ENDBRANCH   2   8
TORSDOF 3
ENDMDL
MODEL       42
REMARK 921   NORMALIZED FREE ENERGY PREDICTED BY IDOCK:   -4.61 KCAL/MOL
REMARK 922        TOTAL FREE ENERGY PREDICTED BY IDOCK:   -5.90 KCAL/MOL
REMARK 923 INTER-LIGAND FREE ENERGY PREDICTED BY IDOCK:   -5.39 KCAL/MOL
REMARK 924 INTRA-LIGAND FREE ENERGY PREDICTED BY IDOCK:   -0.51 KCAL/MOL
REMARK 927      BINDING AFFINITY PREDICTED BY RF-SCORE:    0.00 PKD
ROOT
HETATM    1  C   UNL     1      -9.115  10.709  66.839  1.00  0.00    -0.168 C  
HETATM    2  C   UNL     1     -10.419  11.032  67.553  1.00  0.00    -0.209 C  
ENDROOT
BRANCH   2   3
HETATM    3  C   UNL     1     -10.926  12.392  67.082  1.00  0.00    -0.262 C  
HETATM    4  C   UNL     1     -12.237  14.019  66.354  1.00  0.00    -0.460 C  
HETATM    5  N   UNL     1     -12.159  12.559  66.658  1.00  0.00    -0.568 NA 
HETATM    6  N   UNL     1     -10.130  13.518  67.106  1.00  0.00    -0.242 NA 
HETATM    7  C   UNL     1     -11.004  14.661  67.002  1.00  0.00    -0.317 C  
ENDBRANCH   2   3
BRANCH   2   8
HETATM    8  O   UNL     1     -10.239  11.178  68.965  1.00  0.00    -0.209 OA 
BRANCH   8   9
HETATM    9  C   UNL     1     -11.234  10.866  69.852  1.00  0.00    -0.282 A  
HETATM   10  C   UNL     1     -12.103   9.083  71.306  1.00  0.00    -0.375 A  
HETATM   11 CL   UNL     1     -10.137   8.357  69.638  1.00  0.00    -0.194 Cl 
HETATM   12  C   UNL     1     -12.995   9.974  71.890  1.00  0.00    -0.547 A  
HETATM   13  C   UNL     1     -11.236   9.526  70.298  1.00  0.00    -0.261 A  
HETATM   14  C   UNL     1     -13.011  11.299  71.467  1.00  0.00    -0.520 A  
HETATM   15  C   UNL     1     -12.126  11.755  70.472  1.00  0.00    -0.347 A  
HETATM   16 CL   UNL     1     -12.157  13.463  70.213  1.00  0.00    -0.428 Cl 
ENDBRANCH   8   9
ENDBRANCH   2   8
TORSDOF 3
ENDMDL
MODEL       43
REMARK 921   NORMALIZED FREE ENERGY PREDICTED BY IDOCK:   -4.60 KCAL/MOL
REMARK 922        TOTAL FREE ENERGY PREDICTED BY IDOCK:   -5.90 KCAL/MOL
REMARK 923 INTER-LIGAND FREE ENERGY PREDICTED BY IDOCK:   -5.75 KCAL/MOL
REMARK 924 INTRA-LIGAND FREE ENERGY PREDICTED BY IDOCK:   -0.15 KCAL/MOL
REMARK 927      BINDING AFFINITY PREDICTED BY RF-SCORE:    0.00 PKD
ROOT
HETATM    1  C   UNL     1      -9.924  14.541  66.987  1.00  0.00    -0.255 C  
HETATM    2  C   UNL     1     -11.423  14.675  67.213  1.00  0.00    -0.372 C  
ENDROOT
BRANCH   2   3
HETATM    3  C   UNL     1     -11.696  14.792  68.710  1.00  0.00    -0.323 C  
HETATM    4  C   UNL     1     -12.169  14.296  70.814  1.00  0.00    -0.353 C  
HETATM    5  N   UNL     1     -12.063  13.753  69.427  1.00  0.00    -0.337 NA 
HETATM    6  N   UNL     1     -11.541  15.981  69.392  1.00  0.00    -0.340 NA 
HETATM    7  C   UNL     1     -11.471  15.662  70.796  1.00  0.00    -0.379 C  
ENDBRANCH   2   3
BRANCH   2   8
HETATM    8  O   UNL     1     -12.138  13.506  66.801  1.00  0.00    -0.389 OA 
BRANCH   8   9
HETATM    9  C   UNL     1     -11.599  12.608  65.921  1.00  0.00    -0.396 A  
HETATM   10  C   UNL     1     -10.983  12.270  63.564  1.00  0.00    -0.521 A  
HETATM   11 CL   UNL     1     -12.404  14.481  64.081  1.00  0.00    -0.441 Cl 
HETATM   12  C   UNL     1     -10.317  11.095  63.890  1.00  0.00    -0.441 A  
HETATM   13  C   UNL     1     -11.617  13.015  64.568  1.00  0.00    -0.360 A  
HETATM   14  C   UNL     1     -10.286  10.675  65.216  1.00  0.00    -0.351 A  
HETATM   15  C   UNL     1     -10.899  11.431  66.232  1.00  0.00    -0.263 A  
HETATM   16 CL   UNL     1     -10.596  10.858  67.834  1.00  0.00    -0.225 Cl 
ENDBRANCH   8   9
ENDBRANCH   2   8
TORSDOF 3
ENDMDL
MODEL       44
REMARK 921   NORMALIZED FREE ENERGY PREDICTED BY IDOCK:   -4.59 KCAL/MOL
REMARK 922        TOTAL FREE ENERGY PREDICTED BY IDOCK:   -5.88 KCAL/MOL
REMARK 923 INTER-LIGAND FREE ENERGY PREDICTED BY IDOCK:   -5.65 KCAL/MOL
REMARK 924 INTRA-LIGAND FREE ENERGY PREDICTED BY IDOCK:   -0.23 KCAL/MOL
REMARK 927      BINDING AFFINITY PREDICTED BY RF-SCORE:    0.00 PKD
ROOT
HETATM    1  C   UNL     1      -9.728  12.484  68.074  1.00  0.00    -0.215 C  
HETATM    2  C   UNL     1     -11.048  11.961  67.530  1.00  0.00    -0.273 C  
ENDROOT
BRANCH   2   3
HETATM    3  C   UNL     1     -11.103  12.205  66.024  1.00  0.00    -0.313 C  
HETATM    4  C   UNL     1     -10.519  12.459  63.905  1.00  0.00    -0.439 C  
HETATM    5  N   UNL     1     -10.010  12.261  65.295  1.00  0.00    -0.255 NA 
HETATM    6  N   UNL     1     -12.296  12.345  65.348  1.00  0.00    -0.614 NA 
HETATM    7  C   UNL     1     -12.019  12.146  63.947  1.00  0.00    -0.486 C  
ENDBRANCH   2   3
BRANCH   2   8
HETATM    8  O   UNL     1     -12.171  12.675  68.057  1.00  0.00    -0.268 OA 
BRANCH   8   9
HETATM    9  C   UNL     1     -12.011  13.763  68.871  1.00  0.00    -0.359 A  
HETATM   10  C   UNL     1     -11.831  14.469  71.220  1.00  0.00    -0.345 A  
HETATM   11 CL   UNL     1     -12.537  11.915  70.833  1.00  0.00    -0.409 Cl 
HETATM   12  C   UNL     1     -11.460  15.748  70.823  1.00  0.00    -0.423 A  
HETATM   13  C   UNL     1     -12.105  13.491  70.254  1.00  0.00    -0.355 A  
HETATM   14  C   UNL     1     -11.361  16.038  69.466  1.00  0.00    -0.344 A  
HETATM   15  C   UNL     1     -11.611  15.054  68.492  1.00  0.00    -0.326 A  
HETATM   16 CL   UNL     1     -11.255  15.541  66.873  1.00  0.00    -0.226 Cl 
ENDBRANCH   8   9
ENDBRANCH   2   8
TORSDOF 3
ENDMDL
MODEL       45
REMARK 921   NORMALIZED FREE ENERGY PREDICTED BY IDOCK:   -4.58 KCAL/MOL
REMARK 922        TOTAL FREE ENERGY PREDICTED BY IDOCK:   -5.88 KCAL/MOL
REMARK 923 INTER-LIGAND FREE ENERGY PREDICTED BY IDOCK:   -5.39 KCAL/MOL
REMARK 924 INTRA-LIGAND FREE ENERGY PREDICTED BY IDOCK:   -0.48 KCAL/MOL
REMARK 927      BINDING AFFINITY PREDICTED BY RF-SCORE:    0.00 PKD
ROOT
HETATM    1  C   UNL     1      -9.461   9.387  69.314  1.00  0.00    -0.164 C  
HETATM    2  C   UNL     1     -10.387   9.678  70.485  1.00  0.00    -0.295 C  
ENDROOT
BRANCH   2   3
HETATM    3  C   UNL     1     -10.666   8.381  71.240  1.00  0.00    -0.230 C  
HETATM    4  C   UNL     1     -10.800   6.856  72.837  1.00  0.00    -0.285 C  
HETATM    5  N   UNL     1     -10.291   8.217  72.489  1.00  0.00    -0.308 NA 
HETATM    6  N   UNL     1     -11.350   7.331  70.663  1.00  0.00    -0.277 NA 
HETATM    7  C   UNL     1     -11.792   6.471  71.733  1.00  0.00    -0.335 C  
ENDBRANCH   2   3
BRANCH   2   8
HETATM    8  O   UNL     1     -11.674  10.134  70.055  1.00  0.00    -0.256 OA 
BRANCH   8   9
HETATM    9  C   UNL     1     -12.171  11.349  70.442  1.00  0.00    -0.362 A  
HETATM   10  C   UNL     1     -13.499  12.486  72.173  1.00  0.00    -0.523 A  
HETATM   11 CL   UNL     1     -13.490   9.810  72.295  1.00  0.00    -0.498 Cl 
HETATM   12  C   UNL     1     -13.143  13.724  71.654  1.00  0.00    -0.456 A  
HETATM   13  C   UNL     1     -13.019  11.314  71.571  1.00  0.00    -0.415 A  
HETATM   14  C   UNL     1     -12.308  13.784  70.543  1.00  0.00    -0.429 A  
HETATM   15  C   UNL     1     -11.804  12.611  69.949  1.00  0.00    -0.294 A  
HETATM   16 CL   UNL     1     -10.637  12.883  68.705  1.00  0.00    -0.264 Cl 
ENDBRANCH   8   9
ENDBRANCH   2   8
TORSDOF 3
ENDMDL
MODEL       46
REMARK 921   NORMALIZED FREE ENERGY PREDICTED BY IDOCK:   -4.57 KCAL/MOL
REMARK 922        TOTAL FREE ENERGY PREDICTED BY IDOCK:   -5.86 KCAL/MOL
REMARK 923 INTER-LIGAND FREE ENERGY PREDICTED BY IDOCK:   -5.55 KCAL/MOL
REMARK 924 INTRA-LIGAND FREE ENERGY PREDICTED BY IDOCK:   -0.31 KCAL/MOL
REMARK 927      BINDING AFFINITY PREDICTED BY RF-SCORE:    0.00 PKD
ROOT
HETATM    1  C   UNL     1     -10.008  10.440  66.700  1.00  0.00    -0.262 C  
HETATM    2  C   UNL     1     -11.127  11.063  67.521  1.00  0.00    -0.302 C  
ENDROOT
BRANCH   2   3
HETATM    3  C   UNL     1     -11.541  12.386  66.882  1.00  0.00    -0.370 C  
HETATM    4  C   UNL     1     -12.611  13.908  65.684  1.00  0.00    -0.517 C  
HETATM    5  N   UNL     1     -12.512  12.451  65.998  1.00  0.00    -0.414 NA 
HETATM    6  N   UNL     1     -10.942  13.582  67.220  1.00  0.00    -0.276 NA 
HETATM    7  C   UNL     1     -11.814  14.639  66.771  1.00  0.00    -0.317 C  
ENDBRANCH   2   3
BRANCH   2   8
HETATM    8  O   UNL     1     -10.698  11.414  68.841  1.00  0.00    -0.196 OA 
BRANCH   8   9
HETATM    9  C   UNL     1     -11.329  10.927  69.953  1.00  0.00    -0.305 A  
HETATM   10  C   UNL     1     -13.022  11.451  71.659  1.00  0.00    -0.523 A  
HETATM   11 CL   UNL     1     -12.322  13.485  70.063  1.00  0.00    -0.349 Cl 
HETATM   12  C   UNL     1     -12.987  10.140  72.118  1.00  0.00    -0.436 A  
HETATM   13  C   UNL     1     -12.200  11.837  70.591  1.00  0.00    -0.349 A  
HETATM   14  C   UNL     1     -12.137   9.225  71.505  1.00  0.00    -0.435 A  
HETATM   15  C   UNL     1     -11.328   9.601  70.416  1.00  0.00    -0.277 A  
HETATM   16 CL   UNL     1     -10.486   8.294  69.664  1.00  0.00    -0.220 Cl 
ENDBRANCH   8   9
ENDBRANCH   2   8
TORSDOF 3
ENDMDL
MODEL       47
REMARK 921   NORMALIZED FREE ENERGY PREDICTED BY IDOCK:   -4.56 KCAL/MOL
REMARK 922        TOTAL FREE ENERGY PREDICTED BY IDOCK:   -5.85 KCAL/MOL
REMARK 923 INTER-LIGAND FREE ENERGY PREDICTED BY IDOCK:   -5.46 KCAL/MOL
REMARK 924 INTRA-LIGAND FREE ENERGY PREDICTED BY IDOCK:   -0.39 KCAL/MOL
REMARK 927      BINDING AFFINITY PREDICTED BY RF-SCORE:    0.00 PKD
ROOT
HETATM    1  C   UNL     1      -8.531  15.049  67.216  1.00  0.00    -0.220 C  
HETATM    2  C   UNL     1      -9.486  16.145  66.766  1.00  0.00    -0.238 C  
ENDROOT
BRANCH   2   3
HETATM    3  C   UNL     1     -10.630  15.519  65.974  1.00  0.00    -0.325 C  
HETATM    4  C   UNL     1     -12.029  14.998  64.341  1.00  0.00    -0.353 C  
HETATM    5  N   UNL     1     -10.892  15.881  64.737  1.00  0.00    -0.583 NA 
HETATM    6  N   UNL     1     -11.425  14.521  66.499  1.00  0.00    -0.354 NA 
HETATM    7  C   UNL     1     -12.101  13.887  65.395  1.00  0.00    -0.408 C  
ENDBRANCH   2   3
BRANCH   2   8
HETATM    8  O   UNL     1      -8.867  17.059  65.854  1.00  0.00    -0.518 OA 
BRANCH   8   9
HETATM    9  C   UNL     1      -8.211  18.176  66.293  1.00  0.00    -0.212 A  
HETATM   10  C   UNL     1      -8.539  20.463  67.138  1.00  0.00    -0.402 A  
HETATM   11 CL   UNL     1     -10.735  19.253  66.195  1.00  0.00    -0.511 Cl 
HETATM   12  C   UNL     1      -7.193  20.550  67.468  1.00  0.00    -0.368 A  
HETATM   13  C   UNL     1      -9.039  19.290  66.555  1.00  0.00    -0.350 A  
HETATM   14  C   UNL     1      -6.358  19.466  67.220  1.00  0.00    -0.201 A  
HETATM   15  C   UNL     1      -6.859  18.277  66.658  1.00  0.00    -0.200 A  
HETATM   16 CL   UNL     1      -5.722  16.977  66.600  1.00  0.00    -0.213 Cl 
ENDBRANCH   8   9
ENDBRANCH   2   8
TORSDOF 3
ENDMDL
MODEL       48
REMARK 921   NORMALIZED FREE ENERGY PREDICTED BY IDOCK:   -4.56 KCAL/MOL
REMARK 922        TOTAL FREE ENERGY PREDICTED BY IDOCK:   -5.85 KCAL/MOL
REMARK 923 INTER-LIGAND FREE ENERGY PREDICTED BY IDOCK:   -5.32 KCAL/MOL
REMARK 924 INTRA-LIGAND FREE ENERGY PREDICTED BY IDOCK:   -0.52 KCAL/MOL
REMARK 927      BINDING AFFINITY PREDICTED BY RF-SCORE:    0.00 PKD
ROOT
HETATM    1  C   UNL     1     -12.016  14.105  68.924  1.00  0.00    -0.376 C  
HETATM    2  C   UNL     1     -11.242  13.285  67.903  1.00  0.00    -0.272 C  
ENDROOT
BRANCH   2   3
HETATM    3  C   UNL     1     -11.358  13.948  66.533  1.00  0.00    -0.331 C  
HETATM    4  C   UNL     1     -12.152  14.669  64.598  1.00  0.00    -0.454 C  
HETATM    5  N   UNL     1     -12.449  13.843  65.806  1.00  0.00    -0.485 NA 
HETATM    6  N   UNL     1     -10.342  14.716  66.003  1.00  0.00    -0.291 NA 
HETATM    7  C   UNL     1     -10.914  15.505  64.940  1.00  0.00    -0.436 C  
ENDBRANCH   2   3
BRANCH   2   8
HETATM    8  O   UNL     1     -11.800  11.979  67.725  1.00  0.00    -0.488 OA 
BRANCH   8   9
HETATM    9  C   UNL     1     -11.015  10.858  67.721  1.00  0.00    -0.283 A  
HETATM   10  C   UNL     1     -10.362   8.893  69.049  1.00  0.00    -0.226 A  
HETATM   11 CL   UNL     1     -11.821  10.729  70.343  1.00  0.00    -0.418 Cl 
HETATM   12  C   UNL     1      -9.706   8.350  67.951  1.00  0.00    -0.189 A  
HETATM   13  C   UNL     1     -11.006  10.133  68.934  1.00  0.00    -0.223 A  
HETATM   14  C   UNL     1      -9.703   9.046  66.746  1.00  0.00    -0.279 A  
HETATM   15  C   UNL     1     -10.368  10.279  66.618  1.00  0.00    -0.219 A  
HETATM   16 CL   UNL     1     -10.419  10.901  65.007  1.00  0.00    -0.353 Cl 
ENDBRANCH   8   9
ENDBRANCH   2   8
TORSDOF 3
ENDMDL
MODEL       49
REMARK 921   NORMALIZED FREE ENERGY PREDICTED BY IDOCK:   -4.54 KCAL/MOL
REMARK 922        TOTAL FREE ENERGY PREDICTED BY IDOCK:   -5.82 KCAL/MOL
REMARK 923 INTER-LIGAND FREE ENERGY PREDICTED BY IDOCK:   -5.30 KCAL/MOL
REMARK 924 INTRA-LIGAND FREE ENERGY PREDICTED BY IDOCK:   -0.52 KCAL/MOL
REMARK 927      BINDING AFFINITY PREDICTED BY RF-SCORE:    0.00 PKD
ROOT
HETATM    1  C   UNL     1     -11.723  15.858  69.853  1.00  0.00    -0.327 C  
HETATM    2  C   UNL     1     -10.961  15.503  68.585  1.00  0.00    -0.279 C  
ENDROOT
BRANCH   2   3
HETATM    3  C   UNL     1     -10.216  16.737  68.085  1.00  0.00    -0.301 C  
HETATM    4  C   UNL     1      -8.630  18.084  67.331  1.00  0.00    -0.244 C  
HETATM    5  N   UNL     1      -8.925  16.710  67.837  1.00  0.00    -0.214 NA 
HETATM    6  N   UNL     1     -10.861  17.931  67.836  1.00  0.00    -0.306 NA 
HETATM    7  C   UNL     1      -9.986  18.725  67.010  1.00  0.00    -0.341 C  
ENDBRANCH   2   3
BRANCH   2   8
HETATM    8  O   UNL     1     -11.838  15.145  67.511  1.00  0.00    -0.283 OA 
BRANCH   8   9
HETATM    9  C   UNL     1     -11.610  14.040  66.737  1.00  0.00    -0.386 A  
HETATM   10  C   UNL     1     -10.778  13.295  64.546  1.00  0.00    -0.428 A  
HETATM   11 CL   UNL     1     -11.106  15.939  64.818  1.00  0.00    -0.454 Cl 
HETATM   12  C   UNL     1     -10.797  11.972  64.971  1.00  0.00    -0.351 A  
HETATM   13  C   UNL     1     -11.182  14.314  65.419  1.00  0.00    -0.329 A  
HETATM   14  C   UNL     1     -11.213  11.679  66.266  1.00  0.00    -0.332 A  
HETATM   15  C   UNL     1     -11.597  12.700  67.155  1.00  0.00    -0.368 A  
HETATM   16 CL   UNL     1     -11.899  12.167  68.771  1.00  0.00    -0.360 Cl 
ENDBRANCH   8   9
ENDBRANCH   2   8
TORSDOF 3
ENDMDL
MODEL       50
REMARK 921   NORMALIZED FREE ENERGY PREDICTED BY IDOCK:   -4.53 KCAL/MOL
REMARK 922        TOTAL FREE ENERGY PREDICTED BY IDOCK:   -5.82 KCAL/MOL
REMARK 923 INTER-LIGAND FREE ENERGY PREDICTED BY IDOCK:   -5.32 KCAL/MOL
REMARK 924 INTRA-LIGAND FREE ENERGY PREDICTED BY IDOCK:   -0.49 KCAL/MOL
REMARK 927      BINDING AFFINITY PREDICTED BY RF-SCORE:    0.00 PKD
ROOT
HETATM    1  C   UNL     1     -12.443  14.286  70.477  1.00  0.00    -0.428 C  
HETATM    2  C   UNL     1     -12.117  13.397  69.286  1.00  0.00    -0.264 C  
ENDROOT
BRANCH   2   3
HETATM    3  C   UNL     1     -11.770  11.997  69.785  1.00  0.00    -0.319 C  
HETATM    4  C   UNL     1     -11.792  10.092  70.911  1.00  0.00    -0.374 C  
HETATM    5  N   UNL     1     -12.401  11.451  70.802  1.00  0.00    -0.388 NA 
HETATM    6  N   UNL     1     -10.804  11.222  69.178  1.00  0.00    -0.221 NA 
HETATM    7  C   UNL     1     -11.014   9.862  69.609  1.00  0.00    -0.252 C  
ENDBRANCH   2   3
BRANCH   2   8
HETATM    8  O   UNL     1     -10.947  13.837  68.588  1.00  0.00    -0.249 OA 
BRANCH   8   9
HETATM    9  C   UNL     1     -11.031  14.495  67.391  1.00  0.00    -0.303 A  
HETATM   10  C   UNL     1     -10.348  16.537  66.202  1.00  0.00    -0.344 A  
HETATM   11 CL   UNL     1      -9.852  16.512  68.834  1.00  0.00    -0.250 Cl 
HETATM   12  C   UNL     1     -10.803  16.008  65.001  1.00  0.00    -0.421 A  
HETATM   13  C   UNL     1     -10.464  15.789  67.382  1.00  0.00    -0.297 A  
HETATM   14  C   UNL     1     -11.364  14.735  64.986  1.00  0.00    -0.391 A  
HETATM   15  C   UNL     1     -11.461  13.969  66.163  1.00  0.00    -0.346 A  
HETATM   16 CL   UNL     1     -12.006  12.348  65.920  1.00  0.00    -0.476 Cl 
ENDBRANCH   8   9
ENDBRANCH   2   8
TORSDOF 3
ENDMDL
MODEL       51
REMARK 921   NORMALIZED FREE ENERGY PREDICTED BY IDOCK:   -4.52 KCAL/MOL
REMARK 922        TOTAL FREE ENERGY PREDICTED BY IDOCK:   -5.80 KCAL/MOL
REMARK 923 INTER-LIGAND FREE ENERGY PREDICTED BY IDOCK:   -5.36 KCAL/MOL
REMARK 924 INTRA-LIGAND FREE ENERGY PREDICTED BY IDOCK:   -0.43 KCAL/MOL
REMARK 927      BINDING AFFINITY PREDICTED BY RF-SCORE:    0.00 PKD
ROOT
HETATM    1  C   UNL     1      -8.087  14.841  68.026  1.00  0.00    -0.140 C  
HETATM    2  C   UNL     1      -9.023  15.056  66.847  1.00  0.00    -0.251 C  
ENDROOT
BRANCH   2   3
HETATM    3  C   UNL     1      -9.696  16.420  66.982  1.00  0.00    -0.248 C  
HETATM    4  C   UNL     1     -10.652  18.226  67.828  1.00  0.00    -0.393 C  
HETATM    5  N   UNL     1     -10.123  16.866  68.143  1.00  0.00    -0.284 NA 
HETATM    6  N   UNL     1      -9.859  17.265  65.905  1.00  0.00    -0.534 NA 
HETATM    7  C   UNL     1     -10.129  18.580  66.431  1.00  0.00    -0.405 C  
ENDBRANCH   2   3
BRANCH   2   8
HETATM    8  O   UNL     1     -10.103  14.116  66.835  1.00  0.00    -0.251 OA 
BRANCH   8   9
HETATM    9  C   UNL     1     -10.350  13.320  65.750  1.00  0.00    -0.288 A  
HETATM   10  C   UNL     1     -10.092  11.039  64.866  1.00  0.00    -0.359 A  
HETATM   11 CL   UNL     1      -8.797  11.545  67.156  1.00  0.00    -0.163 Cl 
HETATM   12  C   UNL     1     -10.914  11.347  63.790  1.00  0.00    -0.448 A  
HETATM   13  C   UNL     1      -9.813  12.017  65.832  1.00  0.00    -0.238 A  
HETATM   14  C   UNL     1     -11.455  12.625  63.689  1.00  0.00    -0.563 A  
HETATM   15  C   UNL     1     -11.199  13.602  64.668  1.00  0.00    -0.373 A  
HETATM   16 CL   UNL     1     -12.104  15.061  64.478  1.00  0.00    -0.428 Cl 
ENDBRANCH   8   9
ENDBRANCH   2   8
TORSDOF 3
ENDMDL
MODEL       52
REMARK 921   NORMALIZED FREE ENERGY PREDICTED BY IDOCK:   -4.52 KCAL/MOL
REMARK 922        TOTAL FREE ENERGY PREDICTED BY IDOCK:   -5.80 KCAL/MOL
REMARK 923 INTER-LIGAND FREE ENERGY PREDICTED BY IDOCK:   -5.35 KCAL/MOL
REMARK 924 INTRA-LIGAND FREE ENERGY PREDICTED BY IDOCK:   -0.45 KCAL/MOL
REMARK 927      BINDING AFFINITY PREDICTED BY RF-SCORE:    0.00 PKD
ROOT
HETATM    1  C   UNL     1      -9.900   9.420  68.367  1.00  0.00    -0.177 C  
HETATM    2  C   UNL     1     -10.424   9.985  69.679  1.00  0.00    -0.248 C  
ENDROOT
BRANCH   2   3
HETATM    3  C   UNL     1     -10.594   8.847  70.682  1.00  0.00    -0.229 C  
HETATM    4  C   UNL     1     -10.561   7.654  72.545  1.00  0.00    -0.281 C  
HETATM    5  N   UNL     1     -10.140   8.939  71.913  1.00  0.00    -0.340 NA 
HETATM    6  N   UNL     1     -11.259   7.682  70.362  1.00  0.00    -0.264 NA 
HETATM    7  C   UNL     1     -11.596   7.028  71.602  1.00  0.00    -0.285 C  
ENDBRANCH   2   3
BRANCH   2   8
HETATM    8  O   UNL     1     -11.732  10.549  69.540  1.00  0.00    -0.262 OA 
BRANCH   8   9
HETATM    9  C   UNL     1     -12.165  11.565  70.348  1.00  0.00    -0.355 A  
HETATM   10  C   UNL     1     -12.458  14.003  70.480  1.00  0.00    -0.429 A  
HETATM   11 CL   UNL     1     -11.073  13.119  68.365  1.00  0.00    -0.280 Cl 
HETATM   12  C   UNL     1     -13.187  13.867  71.654  1.00  0.00    -0.446 A  
HETATM   13  C   UNL     1     -11.952  12.864  69.838  1.00  0.00    -0.307 A  
HETATM   14  C   UNL     1     -13.410  12.597  72.175  1.00  0.00    -0.570 A  
HETATM   15  C   UNL     1     -12.926  11.449  71.522  1.00  0.00    -0.399 A  
HETATM   16 CL   UNL     1     -13.460   9.955  72.208  1.00  0.00    -0.478 Cl 
ENDBRANCH   8   9
ENDBRANCH   2   8
TORSDOF 3
ENDMDL
MODEL       53
REMARK 921   NORMALIZED FREE ENERGY PREDICTED BY IDOCK:   -4.51 KCAL/MOL
REMARK 922        TOTAL FREE ENERGY PREDICTED BY IDOCK:   -5.79 KCAL/MOL
REMARK 923 INTER-LIGAND FREE ENERGY PREDICTED BY IDOCK:   -5.28 KCAL/MOL
REMARK 924 INTRA-LIGAND FREE ENERGY PREDICTED BY IDOCK:   -0.50 KCAL/MOL
REMARK 927      BINDING AFFINITY PREDICTED BY RF-SCORE:    0.00 PKD
ROOT
HETATM    1  C   UNL     1     -10.087  10.841  64.819  1.00  0.00    -0.396 C  
HETATM    2  C   UNL     1     -10.962  11.510  65.868  1.00  0.00    -0.243 C  
ENDROOT
BRANCH   2   3
HETATM    3  C   UNL     1     -11.253  12.946  65.439  1.00  0.00    -0.283 C  
HETATM    4  C   UNL     1     -11.015  15.088  64.939  1.00  0.00    -0.413 C  
HETATM    5  N   UNL     1     -10.328  13.880  65.487  1.00  0.00    -0.319 NA 
HETATM    6  N   UNL     1     -12.484  13.329  64.949  1.00  0.00    -0.551 NA 
HETATM    7  C   UNL     1     -12.301  14.588  64.270  1.00  0.00    -0.369 C  
ENDBRANCH   2   3
BRANCH   2   8
HETATM    8  O   UNL     1     -10.295  11.634  67.129  1.00  0.00    -0.209 OA 
BRANCH   8   9
HETATM    9  C   UNL     1     -10.945  11.401  68.310  1.00  0.00    -0.216 A  
HETATM   10  C   UNL     1     -11.181   9.795  70.158  1.00  0.00    -0.324 A  
HETATM   11 CL   UNL     1      -9.761   8.937  68.055  1.00  0.00    -0.171 Cl 
HETATM   12  C   UNL     1     -11.925  10.716  70.884  1.00  0.00    -0.469 A  
HETATM   13  C   UNL     1     -10.700  10.135  68.886  1.00  0.00    -0.223 A  
HETATM   14  C   UNL     1     -12.177  11.971  70.338  1.00  0.00    -0.379 A  
HETATM   15  C   UNL     1     -11.677  12.326  69.072  1.00  0.00    -0.324 A  
HETATM   16 CL   UNL     1     -11.927  13.981  68.641  1.00  0.00    -0.397 Cl 
ENDBRANCH   8   9
ENDBRANCH   2   8
TORSDOF 3
ENDMDL
MODEL       54
REMARK 921   NORMALIZED FREE ENERGY PREDICTED BY IDOCK:   -4.49 KCAL/MOL
REMARK 922        TOTAL FREE ENERGY PREDICTED BY IDOCK:   -5.77 KCAL/MOL
REMARK 923 INTER-LIGAND FREE ENERGY PREDICTED BY IDOCK:   -5.39 KCAL/MOL
REMARK 924 INTRA-LIGAND FREE ENERGY PREDICTED BY IDOCK:   -0.37 KCAL/MOL
REMARK 927      BINDING AFFINITY PREDICTED BY RF-SCORE:    0.00 PKD
ROOT
HETATM    1  C   UNL     1      -9.493  11.635  68.465  1.00  0.00    -0.175 C  
HETATM    2  C   UNL     1     -11.013  11.586  68.482  1.00  0.00    -0.223 C  
ENDROOT
BRANCH   2   3
HETATM    3  C   UNL     1     -11.472  10.616  69.569  1.00  0.00    -0.291 C  
HETATM    4  C   UNL     1     -11.570   8.897  70.958  1.00  0.00    -0.293 C  
HETATM    5  N   UNL     1     -10.825   9.497  69.811  1.00  0.00    -0.237 NA 
HETATM    6  N   UNL     1     -12.563  10.877  70.370  1.00  0.00    -0.314 NA 
HETATM    7  C   UNL     1     -12.470  10.006  71.515  1.00  0.00    -0.419 C  
ENDBRANCH   2   3
BRANCH   2   8
HETATM    8  O   UNL     1     -11.550  11.054  67.267  1.00  0.00    -0.496 OA 
BRANCH   8   9
HETATM    9  C   UNL     1     -11.108  11.474  66.042  1.00  0.00    -0.230 A  
HETATM   10  C   UNL     1      -9.900  10.762  64.021  1.00  0.00    -0.390 A  
HETATM   11 CL   UNL     1      -9.839   9.039  66.071  1.00  0.00    -0.346 Cl 
HETATM   12  C   UNL     1     -10.265  11.935  63.372  1.00  0.00    -0.478 A  
HETATM   13  C   UNL     1     -10.316  10.538  65.341  1.00  0.00    -0.222 A  
HETATM   14  C   UNL     1     -11.045  12.871  64.043  1.00  0.00    -0.455 A  
HETATM   15  C   UNL     1     -11.486  12.641  65.359  1.00  0.00    -0.338 A  
HETATM   16 CL   UNL     1     -12.597  13.819  65.960  1.00  0.00    -0.485 Cl 
ENDBRANCH   8   9
ENDBRANCH   2   8
TORSDOF 3
ENDMDL
MODEL       55
REMARK 921   NORMALIZED FREE ENERGY PREDICTED BY IDOCK:   -4.48 KCAL/MOL
REMARK 922        TOTAL FREE ENERGY PREDICTED BY IDOCK:   -5.75 KCAL/MOL
REMARK 923 INTER-LIGAND FREE ENERGY PREDICTED BY IDOCK:   -5.29 KCAL/MOL
REMARK 924 INTRA-LIGAND FREE ENERGY PREDICTED BY IDOCK:   -0.46 KCAL/MOL
REMARK 927      BINDING AFFINITY PREDICTED BY RF-SCORE:    0.00 PKD
ROOT
HETATM    1  C   UNL     1      -8.821   9.555  68.062  1.00  0.00    -0.123 C  
HETATM    2  C   UNL     1     -10.201  10.088  68.415  1.00  0.00    -0.172 C  
ENDROOT
BRANCH   2   3
HETATM    3  C   UNL     1     -10.508  11.304  67.545  1.00  0.00    -0.201 C  
HETATM    4  C   UNL     1     -10.280  13.103  66.277  1.00  0.00    -0.293 C  
HETATM    5  N   UNL     1      -9.555  12.102  67.115  1.00  0.00    -0.191 NA 
HETATM    6  N   UNL     1     -11.790  11.610  67.139  1.00  0.00    -0.607 NA 
HETATM    7  C   UNL     1     -11.680  12.528  66.033  1.00  0.00    -0.417 C  
ENDBRANCH   2   3
BRANCH   2   8
HETATM    8  O   UNL     1     -10.265  10.576  69.760  1.00  0.00    -0.213 OA 
BRANCH   8   9
HETATM    9  C   UNL     1     -11.172  10.084  70.659  1.00  0.00    -0.350 A  
HETATM   10  C   UNL     1     -13.278  10.589  71.824  1.00  0.00    -0.522 A  
HETATM   11 CL   UNL     1     -12.194  12.625  70.462  1.00  0.00    -0.433 Cl 
HETATM   12  C   UNL     1     -13.351   9.282  72.289  1.00  0.00    -0.547 A  
HETATM   13  C   UNL     1     -12.199  10.984  71.021  1.00  0.00    -0.351 A  
HETATM   14  C   UNL     1     -12.351   8.379  71.945  1.00  0.00    -0.395 A  
HETATM   15  C   UNL     1     -11.279   8.762  71.119  1.00  0.00    -0.277 A  
HETATM   16 CL   UNL     1     -10.241   7.465  70.643  1.00  0.00    -0.198 Cl 
ENDBRANCH   8   9
ENDBRANCH   2   8
TORSDOF 3
ENDMDL
MODEL       56
REMARK 921   NORMALIZED FREE ENERGY PREDICTED BY IDOCK:   -4.47 KCAL/MOL
REMARK 922        TOTAL FREE ENERGY PREDICTED BY IDOCK:   -5.74 KCAL/MOL
REMARK 923 INTER-LIGAND FREE ENERGY PREDICTED BY IDOCK:   -5.30 KCAL/MOL
REMARK 924 INTRA-LIGAND FREE ENERGY PREDICTED BY IDOCK:   -0.44 KCAL/MOL
REMARK 927      BINDING AFFINITY PREDICTED BY RF-SCORE:    0.00 PKD
ROOT
HETATM    1  C   UNL     1     -10.977  15.847  67.654  1.00  0.00    -0.298 C  
HETATM    2  C   UNL     1     -10.995  16.178  66.169  1.00  0.00    -0.036 C  
ENDROOT
BRANCH   2   3
HETATM    3  C   UNL     1     -11.183  14.891  65.370  1.00  0.00    -0.359 C  
HETATM    4  C   UNL     1     -11.955  13.386  63.944  1.00  0.00    -0.465 C  
HETATM    5  N   UNL     1     -12.184  14.741  64.531  1.00  0.00    -0.469 NA 
HETATM    6  N   UNL     1     -10.299  13.837  65.462  1.00  0.00    -0.308 NA 
HETATM    7  C   UNL     1     -10.521  12.991  64.316  1.00  0.00    -0.402 C  
ENDBRANCH   2   3
BRANCH   2   8
HETATM    8  O   UNL     1      -9.745  16.709  65.719  1.00  0.00    -0.485 OA 
BRANCH   8   9
HETATM    9  C   UNL     1      -9.055  17.638  66.449  1.00  0.00    -0.234 A  
HETATM   10  C   UNL     1      -6.978  18.022  67.711  1.00  0.00    -0.209 A  
HETATM   11 CL   UNL     1      -7.422  15.490  66.960  1.00  0.00    -0.240 Cl 
HETATM   12  C   UNL     1      -7.265  19.379  67.798  1.00  0.00    -0.284 A  
HETATM   13  C   UNL     1      -7.865  17.164  67.046  1.00  0.00    -0.198 A  
HETATM   14  C   UNL     1      -8.430  19.868  67.217  1.00  0.00    -0.375 A  
HETATM   15  C   UNL     1      -9.312  19.016  66.528  1.00  0.00    -0.340 A  
HETATM   16 CL   UNL     1     -10.602  19.827  65.713  1.00  0.00    -0.597 Cl 
ENDBRANCH   8   9
ENDBRANCH   2   8
TORSDOF 3
ENDMDL
MODEL       57
REMARK 921   NORMALIZED FREE ENERGY PREDICTED BY IDOCK:   -4.44 KCAL/MOL
REMARK 922        TOTAL FREE ENERGY PREDICTED BY IDOCK:   -5.71 KCAL/MOL
REMARK 923 INTER-LIGAND FREE ENERGY PREDICTED BY IDOCK:   -5.34 KCAL/MOL
REMARK 924 INTRA-LIGAND FREE ENERGY PREDICTED BY IDOCK:   -0.37 KCAL/MOL
REMARK 927      BINDING AFFINITY PREDICTED BY RF-SCORE:    0.00 PKD
ROOT
HETATM    1  C   UNL     1     -12.055  15.924  70.947  1.00  0.00    -0.414 C  
HETATM    2  C   UNL     1     -11.310  14.831  70.195  1.00  0.00    -0.247 C  
ENDROOT
BRANCH   2   3
HETATM    3  C   UNL     1     -10.602  15.444  68.990  1.00  0.00    -0.247 C  
HETATM    4  C   UNL     1      -9.147  15.829  67.368  1.00  0.00    -0.197 C  
HETATM    5  N   UNL     1      -9.438  14.996  68.574  1.00  0.00    -0.197 NA 
HETATM    6  N   UNL     1     -11.158  16.472  68.258  1.00  0.00    -0.353 NA 
HETATM    7  C   UNL     1     -10.461  16.525  66.997  1.00  0.00    -0.289 C  
ENDBRANCH   2   3
BRANCH   2   8
HETATM    8  O   UNL     1     -12.199  13.856  69.640  1.00  0.00    -0.333 OA 
BRANCH   8   9
HETATM    9  C   UNL     1     -12.371  12.628  70.220  1.00  0.00    -0.195 A  
HETATM   10  C   UNL     1     -11.571  10.302  70.207  1.00  0.00    -0.396 A  
HETATM   11 CL   UNL     1     -10.658  11.848  68.220  1.00  0.00    -0.221 Cl 
HETATM   12  C   UNL     1     -12.297  10.031  71.360  1.00  0.00    -0.512 A  
HETATM   13  C   UNL     1     -11.611  11.586  69.645  1.00  0.00    -0.333 A  
HETATM   14  C   UNL     1     -13.052  11.042  71.945  1.00  0.00    -0.525 A  
HETATM   15  C   UNL     1     -13.077  12.339  71.398  1.00  0.00    -0.189 A  
HETATM   16 CL   UNL     1     -13.911  13.507  72.360  1.00  0.00    -0.690 Cl 
ENDBRANCH   8   9
ENDBRANCH   2   8
TORSDOF 3
ENDMDL
MODEL       58
REMARK 921   NORMALIZED FREE ENERGY PREDICTED BY IDOCK:   -4.43 KCAL/MOL
REMARK 922        TOTAL FREE ENERGY PREDICTED BY IDOCK:   -5.69 KCAL/MOL
REMARK 923 INTER-LIGAND FREE ENERGY PREDICTED BY IDOCK:   -5.27 KCAL/MOL
REMARK 924 INTRA-LIGAND FREE ENERGY PREDICTED BY IDOCK:   -0.42 KCAL/MOL
REMARK 927      BINDING AFFINITY PREDICTED BY RF-SCORE:    0.00 PKD
ROOT
HETATM    1  C   UNL     1      -9.271   9.941  68.403  1.00  0.00    -0.130 C  
HETATM    2  C   UNL     1     -10.724  10.102  68.824  1.00  0.00    -0.220 C  
ENDROOT
BRANCH   2   3
HETATM    3  C   UNL     1     -11.222  11.479  68.395  1.00  0.00    -0.255 C  
HETATM    4  C   UNL     1     -11.551  13.664  68.284  1.00  0.00    -0.339 C  
HETATM    5  N   UNL     1     -10.911  12.566  69.067  1.00  0.00    -0.182 NA 
HETATM    6  N   UNL     1     -11.995  11.659  67.266  1.00  0.00    -0.602 NA 
HETATM    7  C   UNL     1     -11.938  13.060  66.929  1.00  0.00    -0.352 C  
ENDBRANCH   2   3
BRANCH   2   8
HETATM    8  O   UNL     1     -10.879  10.084  70.247  1.00  0.00    -0.272 OA 
BRANCH   8   9
HETATM    9  C   UNL     1     -11.728   9.208  70.866  1.00  0.00    -0.284 A  
HETATM   10  C   UNL     1     -13.845   9.042  72.108  1.00  0.00    -0.526 A  
HETATM   11 CL   UNL     1     -12.949  11.529  71.677  1.00  0.00    -0.543 Cl 
HETATM   12  C   UNL     1     -13.807   7.656  72.016  1.00  0.00    -0.275 A  
HETATM   13  C   UNL     1     -12.815   9.806  71.541  1.00  0.00    -0.405 A  
HETATM   14  C   UNL     1     -12.746   7.045  71.356  1.00  0.00    -0.421 A  
HETATM   15  C   UNL     1     -11.722   7.807  70.764  1.00  0.00    -0.225 A  
HETATM   16 CL   UNL     1     -10.596   6.891  69.828  1.00  0.00    -0.244 Cl 
ENDBRANCH   8   9
ENDBRANCH   2   8
TORSDOF 3
ENDMDL
MODEL       59
REMARK 921   NORMALIZED FREE ENERGY PREDICTED BY IDOCK:   -4.42 KCAL/MOL
REMARK 922        TOTAL FREE ENERGY PREDICTED BY IDOCK:   -5.68 KCAL/MOL
REMARK 923 INTER-LIGAND FREE ENERGY PREDICTED BY IDOCK:   -5.24 KCAL/MOL
REMARK 924 INTRA-LIGAND FREE ENERGY PREDICTED BY IDOCK:   -0.44 KCAL/MOL
REMARK 927      BINDING AFFINITY PREDICTED BY RF-SCORE:    0.00 PKD
ROOT
HETATM    1  C   UNL     1     -12.542  15.710  70.724  1.00  0.00    -0.482 C  
HETATM    2  C   UNL     1     -11.581  14.941  69.830  1.00  0.00    -0.303 C  
ENDROOT
BRANCH   2   3
HETATM    3  C   UNL     1     -10.531  15.901  69.278  1.00  0.00    -0.253 C  
HETATM    4  C   UNL     1      -8.599  16.805  68.690  1.00  0.00    -0.263 C  
HETATM    5  N   UNL     1      -9.244  15.662  69.402  1.00  0.00    -0.273 NA 
HETATM    6  N   UNL     1     -10.876  17.048  68.594  1.00  0.00    -0.321 NA 
HETATM    7  C   UNL     1      -9.705  17.485  67.875  1.00  0.00    -0.278 C  
ENDBRANCH   2   3
BRANCH   2   8
HETATM    8  O   UNL     1     -12.231  14.405  68.673  1.00  0.00    -0.267 OA 
BRANCH   8   9
HETATM    9  C   UNL     1     -11.876  13.192  68.148  1.00  0.00    -0.348 A  
HETATM   10  C   UNL     1     -10.875  12.099  66.185  1.00  0.00    -0.317 A  
HETATM   11 CL   UNL     1     -11.425  14.705  65.902  1.00  0.00    -0.346 Cl 
HETATM   12  C   UNL     1     -10.812  10.892  66.870  1.00  0.00    -0.307 A  
HETATM   13  C   UNL     1     -11.404  13.233  66.818  1.00  0.00    -0.327 A  
HETATM   14  C   UNL     1     -11.271  10.828  68.182  1.00  0.00    -0.365 A  
HETATM   15  C   UNL     1     -11.780  11.968  68.830  1.00  0.00    -0.326 A  
HETATM   16 CL   UNL     1     -12.122  11.745  70.509  1.00  0.00    -0.463 Cl 
ENDBRANCH   8   9
ENDBRANCH   2   8
TORSDOF 3
ENDMDL
MODEL       60
REMARK 921   NORMALIZED FREE ENERGY PREDICTED BY IDOCK:   -4.41 KCAL/MOL
REMARK 922        TOTAL FREE ENERGY PREDICTED BY IDOCK:   -5.67 KCAL/MOL
REMARK 923 INTER-LIGAND FREE ENERGY PREDICTED BY IDOCK:   -5.15 KCAL/MOL
REMARK 924 INTRA-LIGAND FREE ENERGY PREDICTED BY IDOCK:   -0.52 KCAL/MOL
REMARK 927      BINDING AFFINITY PREDICTED BY RF-SCORE:    0.00 PKD
ROOT
HETATM    1  C   UNL     1      -9.552   9.110  69.100  1.00  0.00    -0.161 C  
HETATM    2  C   UNL     1     -10.416  10.118  69.843  1.00  0.00    -0.275 C  
ENDROOT
BRANCH   2   3
HETATM    3  C   UNL     1     -11.138   9.412  70.988  1.00  0.00    -0.344 C  
HETATM    4  C   UNL     1     -12.721   8.560  72.278  1.00  0.00    -0.367 C  
HETATM    5  N   UNL     1     -12.451   9.377  71.057  1.00  0.00    -0.275 NA 
HETATM    6  N   UNL     1     -10.456   8.750  71.986  1.00  0.00    -0.346 NA 
HETATM    7  C   UNL     1     -11.398   7.876  72.641  1.00  0.00    -0.408 C  
ENDBRANCH   2   3
BRANCH   2   8
HETATM    8  O   UNL     1     -11.462  10.644  69.020  1.00  0.00    -0.261 OA 
BRANCH   8   9
HETATM    9  C   UNL     1     -11.489  11.961  68.648  1.00  0.00    -0.294 A  
HETATM   10  C   UNL     1     -11.313  13.478  66.720  1.00  0.00    -0.351 A  
HETATM   11 CL   UNL     1     -10.697  10.917  66.235  1.00  0.00    -0.278 Cl 
HETATM   12  C   UNL     1     -11.726  14.547  67.505  1.00  0.00    -0.413 A  
HETATM   13  C   UNL     1     -11.195  12.202  67.288  1.00  0.00    -0.306 A  
HETATM   14  C   UNL     1     -12.022  14.334  68.848  1.00  0.00    -0.356 A  
HETATM   15  C   UNL     1     -11.928  13.050  69.417  1.00  0.00    -0.281 A  
HETATM   16 CL   UNL     1     -12.515  12.941  71.038  1.00  0.00    -0.436 Cl 
ENDBRANCH   8   9
ENDBRANCH   2   8
TORSDOF 3
ENDMDL
MODEL       61
REMARK 921   NORMALIZED FREE ENERGY PREDICTED BY IDOCK:   -4.40 KCAL/MOL
REMARK 922        TOTAL FREE ENERGY PREDICTED BY IDOCK:   -5.66 KCAL/MOL
REMARK 923 INTER-LIGAND FREE ENERGY PREDICTED BY IDOCK:   -5.22 KCAL/MOL
REMARK 924 INTRA-LIGAND FREE ENERGY PREDICTED BY IDOCK:   -0.44 KCAL/MOL
REMARK 927      BINDING AFFINITY PREDICTED BY RF-SCORE:    0.00 PKD
ROOT
HETATM    1  C   UNL     1     -13.112  11.090  71.896  1.00  0.00    -0.525 C  
HETATM    2  C   UNL     1     -11.984  10.720  70.946  1.00  0.00    -0.333 C  
ENDROOT
BRANCH   2   3
HETATM    3  C   UNL     1     -12.016  11.656  69.740  1.00  0.00    -0.332 C  
HETATM    4  C   UNL     1     -11.982  13.472  68.478  1.00  0.00    -0.344 C  
HETATM    5  N   UNL     1     -11.987  12.963  69.881  1.00  0.00    -0.331 NA 
HETATM    6  N   UNL     1     -12.043  11.181  68.445  1.00  0.00    -0.603 NA 
HETATM    7  C   UNL     1     -11.655  12.270  67.584  1.00  0.00    -0.354 C  
ENDBRANCH   2   3
BRANCH   2   8
HETATM    8  O   UNL     1     -12.150   9.409  70.395  1.00  0.00    -0.129 OA 
BRANCH   8   9
HETATM    9  C   UNL     1     -11.556   8.313  70.960  1.00  0.00    -0.275 A  
HETATM   10  C   UNL     1     -12.010   6.151  72.041  1.00  0.00    -0.310 A  
HETATM   11 CL   UNL     1     -14.147   7.717  71.648  1.00  0.00    -0.504 Cl 
HETATM   12  C   UNL     1     -10.663   5.816  71.970  1.00  0.00    -0.285 A  
HETATM   13  C   UNL     1     -12.448   7.386  71.543  1.00  0.00    -0.361 A  
HETATM   14  C   UNL     1      -9.767   6.713  71.399  1.00  0.00    -0.181 A  
HETATM   15  C   UNL     1     -10.204   7.944  70.876  1.00  0.00    -0.198 A  
HETATM   16 CL   UNL     1      -8.987   8.839  70.038  1.00  0.00    -0.152 Cl 
ENDBRANCH   8   9
ENDBRANCH   2   8
TORSDOF 3
ENDMDL
MODEL       62
REMARK 921   NORMALIZED FREE ENERGY PREDICTED BY IDOCK:   -4.39 KCAL/MOL
REMARK 922        TOTAL FREE ENERGY PREDICTED BY IDOCK:   -5.64 KCAL/MOL
REMARK 923 INTER-LIGAND FREE ENERGY PREDICTED BY IDOCK:   -5.23 KCAL/MOL
REMARK 924 INTRA-LIGAND FREE ENERGY PREDICTED BY IDOCK:   -0.42 KCAL/MOL
REMARK 927      BINDING AFFINITY PREDICTED BY RF-SCORE:    0.00 PKD
ROOT
HETATM    1  C   UNL     1     -11.925  13.563  69.657  1.00  0.00    -0.397 C  
HETATM    2  C   UNL     1     -11.760  12.339  68.769  1.00  0.00    -0.340 C  
ENDROOT
BRANCH   2   3
HETATM    3  C   UNL     1     -11.553  11.107  69.645  1.00  0.00    -0.326 C  
HETATM    4  C   UNL     1     -10.615   9.418  70.724  1.00  0.00    -0.303 C  
HETATM    5  N   UNL     1     -10.378  10.524  69.750  1.00  0.00    -0.209 NA 
HETATM    6  N   UNL     1     -12.574  10.561  70.394  1.00  0.00    -0.318 NA 
HETATM    7  C   UNL     1     -11.968   9.708  71.386  1.00  0.00    -0.399 C  
ENDBRANCH   2   3
BRANCH   2   8
HETATM    8  O   UNL     1     -10.582  12.414  67.959  1.00  0.00    -0.209 OA 
BRANCH   8   9
HETATM    9  C   UNL     1     -10.638  12.297  66.597  1.00  0.00    -0.229 A  
HETATM   10  C   UNL     1     -10.600  13.575  64.496  1.00  0.00    -0.439 A  
HETATM   11 CL   UNL     1     -10.792  15.035  66.732  1.00  0.00    -0.314 Cl 
HETATM   12  C   UNL     1     -10.487  12.398  63.765  1.00  0.00    -0.475 A  
HETATM   13  C   UNL     1     -10.677  13.521  65.895  1.00  0.00    -0.277 A  
HETATM   14  C   UNL     1     -10.446  11.180  64.436  1.00  0.00    -0.418 A  
HETATM   15  C   UNL     1     -10.499  11.122  65.841  1.00  0.00    -0.253 A  
HETATM   16 CL   UNL     1     -10.245   9.547  66.503  1.00  0.00    -0.323 Cl 
ENDBRANCH   8   9
ENDBRANCH   2   8
TORSDOF 3
ENDMDL
MODEL       63
REMARK 921   NORMALIZED FREE ENERGY PREDICTED BY IDOCK:   -4.38 KCAL/MOL
REMARK 922        TOTAL FREE ENERGY PREDICTED BY IDOCK:   -5.63 KCAL/MOL
REMARK 923 INTER-LIGAND FREE ENERGY PREDICTED BY IDOCK:   -5.22 KCAL/MOL
REMARK 924 INTRA-LIGAND FREE ENERGY PREDICTED BY IDOCK:   -0.41 KCAL/MOL
REMARK 927      BINDING AFFINITY PREDICTED BY RF-SCORE:    0.00 PKD
ROOT
HETATM    1  C   UNL     1     -12.220  13.374  70.667  1.00  0.00    -0.427 C  
HETATM    2  C   UNL     1     -12.158  12.253  69.639  1.00  0.00    -0.212 C  
ENDROOT
BRANCH   2   3
HETATM    3  C   UNL     1     -11.975  10.920  70.361  1.00  0.00    -0.362 C  
HETATM    4  C   UNL     1     -11.069   9.102  71.236  1.00  0.00    -0.335 C  
HETATM    5  N   UNL     1     -10.808  10.316  70.407  1.00  0.00    -0.291 NA 
HETATM    6  N   UNL     1     -13.012  10.300  71.026  1.00  0.00    -0.384 NA 
HETATM    7  C   UNL     1     -12.427   9.325  71.912  1.00  0.00    -0.382 C  
ENDBRANCH   2   3
BRANCH   2   8
HETATM    8  O   UNL     1     -11.015  12.366  68.785  1.00  0.00    -0.232 OA 
BRANCH   8   9
HETATM    9  C   UNL     1     -11.127  12.793  67.490  1.00  0.00    -0.263 A  
HETATM   10  C   UNL     1     -11.369  12.025  65.165  1.00  0.00    -0.359 A  
HETATM   11 CL   UNL     1     -10.854  10.111  66.967  1.00  0.00    -0.266 Cl 
HETATM   12  C   UNL     1     -11.614  13.327  64.745  1.00  0.00    -0.364 A  
HETATM   13  C   UNL     1     -11.127  11.765  66.521  1.00  0.00    -0.310 A  
HETATM   14  C   UNL     1     -11.620  14.356  65.681  1.00  0.00    -0.347 A  
HETATM   15  C   UNL     1     -11.402  14.097  67.047  1.00  0.00    -0.332 A  
HETATM   16 CL   UNL     1     -11.635  15.461  68.081  1.00  0.00    -0.355 Cl 
ENDBRANCH   8   9
ENDBRANCH   2   8
TORSDOF 3
ENDMDL
MODEL       64
REMARK 921   NORMALIZED FREE ENERGY PREDICTED BY IDOCK:   -4.37 KCAL/MOL
REMARK 922        TOTAL FREE ENERGY PREDICTED BY IDOCK:   -5.62 KCAL/MOL
REMARK 923 INTER-LIGAND FREE ENERGY PREDICTED BY IDOCK:   -5.35 KCAL/MOL
REMARK 924 INTRA-LIGAND FREE ENERGY PREDICTED BY IDOCK:   -0.27 KCAL/MOL
REMARK 927      BINDING AFFINITY PREDICTED BY RF-SCORE:    0.00 PKD
ROOT
HETATM    1  C   UNL     1     -10.750  18.973  67.323  1.00  0.00    -0.556 C  
HETATM    2  C   UNL     1      -9.854  18.810  68.541  1.00  0.00    -0.396 C  
ENDROOT
BRANCH   2   3
HETATM    3  C   UNL     1      -8.530  19.528  68.291  1.00  0.00    -0.340 C  
HETATM    4  C   UNL     1      -6.400  20.120  68.382  1.00  0.00    -0.291 C  
HETATM    5  N   UNL     1      -7.447  19.236  68.977  1.00  0.00    -0.355 NA 
HETATM    6  N   UNL     1      -8.393  20.492  67.314  1.00  0.00    -0.329 NA 
HETATM    7  C   UNL     1      -6.982  20.654  67.068  1.00  0.00    -0.307 C  
ENDBRANCH   2   3
BRANCH   2   8
HETATM    8  O   UNL     1      -9.492  17.444  68.766  1.00  0.00    -0.278 OA 
BRANCH   8   9
HETATM    9  C   UNL     1      -9.812  16.460  67.872  1.00  0.00    -0.238 A  
HETATM   10  C   UNL     1     -11.508  14.769  67.310  1.00  0.00    -0.378 A  
HETATM   11 CL   UNL     1     -11.813  15.966  69.687  1.00  0.00    -0.326 Cl 
HETATM   12  C   UNL     1     -10.892  14.536  66.087  1.00  0.00    -0.317 A  
HETATM   13  C   UNL     1     -10.971  15.718  68.191  1.00  0.00    -0.330 A  
HETATM   14  C   UNL     1      -9.750  15.255  65.750  1.00  0.00    -0.385 A  
HETATM   15  C   UNL     1      -9.221  16.226  66.620  1.00  0.00    -0.244 A  
HETATM   16 CL   UNL     1      -7.919  17.148  65.957  1.00  0.00    -0.282 Cl 
ENDBRANCH   8   9
ENDBRANCH   2   8
TORSDOF 3
ENDMDL
MODEL       65
REMARK 921   NORMALIZED FREE ENERGY PREDICTED BY IDOCK:   -4.35 KCAL/MOL
REMARK 922        TOTAL FREE ENERGY PREDICTED BY IDOCK:   -5.60 KCAL/MOL
REMARK 923 INTER-LIGAND FREE ENERGY PREDICTED BY IDOCK:   -5.14 KCAL/MOL
REMARK 924 INTRA-LIGAND FREE ENERGY PREDICTED BY IDOCK:   -0.46 KCAL/MOL
REMARK 927      BINDING AFFINITY PREDICTED BY RF-SCORE:    0.00 PKD
ROOT
HETATM    1  C   UNL     1      -9.915  10.236  66.602  1.00  0.00    -0.270 C  
HETATM    2  C   UNL     1     -10.896  10.806  67.615  1.00  0.00    -0.279 C  
ENDROOT
BRANCH   2   3
HETATM    3  C   UNL     1     -11.309  12.209  67.180  1.00  0.00    -0.331 C  
HETATM    4  C   UNL     1     -12.281  13.888  66.116  1.00  0.00    -0.464 C  
HETATM    5  N   UNL     1     -12.102  12.406  66.150  1.00  0.00    -0.641 NA 
HETATM    6  N   UNL     1     -10.901  13.337  67.861  1.00  0.00    -0.238 NA 
HETATM    7  C   UNL     1     -11.772  14.415  67.463  1.00  0.00    -0.387 C  
ENDBRANCH   2   3
BRANCH   2   8
HETATM    8  O   UNL     1     -10.299  10.984  68.904  1.00  0.00    -0.192 OA 
BRANCH   8   9
HETATM    9  C   UNL     1     -10.486  10.079  69.913  1.00  0.00    -0.274 A  
HETATM   10  C   UNL     1      -9.315   8.563  71.456  1.00  0.00    -0.289 A  
HETATM   11 CL   UNL     1      -7.800   9.651  69.534  1.00  0.00    -0.104 Cl 
HETATM   12  C   UNL     1     -10.493   8.347  72.161  1.00  0.00    -0.396 A  
HETATM   13  C   UNL     1      -9.315   9.417  70.344  1.00  0.00    -0.268 A  
HETATM   14  C   UNL     1     -11.658   8.989  71.755  1.00  0.00    -0.444 A  
HETATM   15  C   UNL     1     -11.659   9.866  70.655  1.00  0.00    -0.335 A  
HETATM   16 CL   UNL     1     -13.145  10.715  70.415  1.00  0.00    -0.229 Cl 
ENDBRANCH   8   9
ENDBRANCH   2   8
TORSDOF 3
ENDMDL
MODEL       66
REMARK 921   NORMALIZED FREE ENERGY PREDICTED BY IDOCK:   -4.34 KCAL/MOL
REMARK 922        TOTAL FREE ENERGY PREDICTED BY IDOCK:   -5.59 KCAL/MOL
REMARK 923 INTER-LIGAND FREE ENERGY PREDICTED BY IDOCK:   -5.25 KCAL/MOL
REMARK 924 INTRA-LIGAND FREE ENERGY PREDICTED BY IDOCK:   -0.33 KCAL/MOL
REMARK 927      BINDING AFFINITY PREDICTED BY RF-SCORE:    0.00 PKD
ROOT
HETATM    1  C   UNL     1     -11.687  11.418  69.366  1.00  0.00    -0.406 C  
HETATM    2  C   UNL     1     -11.406  10.811  68.000  1.00  0.00    -0.307 C  
ENDROOT
BRANCH   2   3
HETATM    3  C   UNL     1     -10.512   9.585  68.170  1.00  0.00    -0.223 C  
HETATM    4  C   UNL     1      -9.056   8.132  68.984  1.00  0.00    -0.148 C  
HETATM    5  N   UNL     1      -9.673   9.478  69.177  1.00  0.00    -0.171 NA 
HETATM    6  N   UNL     1     -10.561   8.517  67.299  1.00  0.00    -0.288 NA 
HETATM    7  C   UNL     1      -9.928   7.401  67.955  1.00  0.00    -0.164 C  
ENDBRANCH   2   3
BRANCH   2   8
HETATM    8  O   UNL     1     -10.657  11.695  67.160  1.00  0.00    -0.215 OA 
BRANCH   8   9
HETATM    9  C   UNL     1     -11.130  12.098  65.940  1.00  0.00    -0.318 A  
HETATM   10  C   UNL     1     -12.237  13.950  64.759  1.00  0.00    -0.441 A  
HETATM   11 CL   UNL     1     -12.135  14.178  67.425  1.00  0.00    -0.427 Cl 
HETATM   12  C   UNL     1     -11.993  13.336  63.537  1.00  0.00    -0.537 A  
HETATM   13  C   UNL     1     -11.812  13.335  65.945  1.00  0.00    -0.393 A  
HETATM   14  C   UNL     1     -11.322  12.118  63.508  1.00  0.00    -0.535 A  
HETATM   15  C   UNL     1     -10.872  11.508  64.693  1.00  0.00    -0.310 A  
HETATM   16 CL   UNL     1      -9.897  10.102  64.450  1.00  0.00    -0.368 Cl 
ENDBRANCH   8   9
ENDBRANCH   2   8
TORSDOF 3
ENDMDL
MODEL       67
REMARK 921   NORMALIZED FREE ENERGY PREDICTED BY IDOCK:   -4.29 KCAL/MOL
REMARK 922        TOTAL FREE ENERGY PREDICTED BY IDOCK:   -5.53 KCAL/MOL
REMARK 923 INTER-LIGAND FREE ENERGY PREDICTED BY IDOCK:   -5.52 KCAL/MOL
REMARK 924 INTRA-LIGAND FREE ENERGY PREDICTED BY IDOCK:   -0.02 KCAL/MOL
REMARK 927      BINDING AFFINITY PREDICTED BY RF-SCORE:    0.00 PKD
ROOT
HETATM    1  C   UNL     1     -12.656  12.966  65.055  1.00  0.00    -0.538 C  
HETATM    2  C   UNL     1     -11.652  13.091  66.191  1.00  0.00    -0.366 C  
ENDROOT
BRANCH   2   3
HETATM    3  C   UNL     1     -11.296  11.698  66.702  1.00  0.00    -0.270 C  
HETATM    4  C   UNL     1     -10.425   9.671  66.873  1.00  0.00    -0.212 C  
HETATM    5  N   UNL     1     -10.567  10.867  65.990  1.00  0.00    -0.224 NA 
HETATM    6  N   UNL     1     -11.691  11.251  67.946  1.00  0.00    -0.592 NA 
HETATM    7  C   UNL     1     -10.869  10.113  68.272  1.00  0.00    -0.252 C  
ENDBRANCH   2   3
BRANCH   2   8
HETATM    8  O   UNL     1     -12.202  13.768  67.326  1.00  0.00    -0.375 OA 
BRANCH   8   9
HETATM    9  C   UNL     1     -11.655  14.927  67.804  1.00  0.00    -0.339 A  
HETATM   10  C   UNL     1     -11.124  16.166  69.862  1.00  0.00    -0.357 A  
HETATM   11 CL   UNL     1     -12.636  13.978  70.187  1.00  0.00    -0.364 Cl 
HETATM   12  C   UNL     1     -10.385  17.089  69.134  1.00  0.00    -0.313 A  
HETATM   13  C   UNL     1     -11.753  15.100  69.203  1.00  0.00    -0.325 A  
HETATM   14  C   UNL     1     -10.274  16.939  67.755  1.00  0.00    -0.308 A  
HETATM   15  C   UNL     1     -10.882  15.858  67.091  1.00  0.00    -0.267 A  
HETATM   16 CL   UNL     1     -10.480  15.728  65.416  1.00  0.00    -0.415 Cl 
ENDBRANCH   8   9
ENDBRANCH   2   8
TORSDOF 3
ENDMDL
MODEL       68
REMARK 921   NORMALIZED FREE ENERGY PREDICTED BY IDOCK:   -4.28 KCAL/MOL
REMARK 922        TOTAL FREE ENERGY PREDICTED BY IDOCK:   -5.52 KCAL/MOL
REMARK 923 INTER-LIGAND FREE ENERGY PREDICTED BY IDOCK:   -4.98 KCAL/MOL
REMARK 924 INTRA-LIGAND FREE ENERGY PREDICTED BY IDOCK:   -0.53 KCAL/MOL
REMARK 927      BINDING AFFINITY PREDICTED BY RF-SCORE:    0.00 PKD
ROOT
HETATM    1  C   UNL     1     -10.241   8.688  66.720  1.00  0.00    -0.361 C  
HETATM    2  C   UNL     1     -10.305   9.821  67.733  1.00  0.00    -0.225 C  
ENDROOT
BRANCH   2   3
HETATM    3  C   UNL     1     -10.241   9.238  69.143  1.00  0.00    -0.206 C  
HETATM    4  C   UNL     1      -9.724   8.908  71.268  1.00  0.00    -0.289 C  
HETATM    5  N   UNL     1      -9.425   9.722  70.053  1.00  0.00    -0.238 NA 
HETATM    6  N   UNL     1     -11.056   8.199  69.543  1.00  0.00    -0.038 NA 
HETATM    7  C   UNL     1     -11.041   8.176  70.985  1.00  0.00    -0.253 C  
ENDBRANCH   2   3
BRANCH   2   8
HETATM    8  O   UNL     1     -11.553  10.520  67.683  1.00  0.00    -0.447 OA 
BRANCH   8   9
HETATM    9  C   UNL     1     -11.616  11.883  67.791  1.00  0.00    -0.323 A  
HETATM   10  C   UNL     1     -11.813  13.965  66.497  1.00  0.00    -0.440 A  
HETATM   11 CL   UNL     1     -11.401  11.745  65.057  1.00  0.00    -0.326 Cl 
HETATM   12  C   UNL     1     -12.010  14.690  67.666  1.00  0.00    -0.307 A  
HETATM   13  C   UNL     1     -11.616  12.579  66.562  1.00  0.00    -0.388 A  
HETATM   14  C   UNL     1     -12.015  14.026  68.888  1.00  0.00    -0.387 A  
HETATM   15  C   UNL     1     -11.843  12.631  68.957  1.00  0.00    -0.294 A  
HETATM   16 CL   UNL     1     -12.068  11.959  70.533  1.00  0.00    -0.460 Cl 
ENDBRANCH   8   9
ENDBRANCH   2   8
TORSDOF 3
ENDMDL
MODEL       69
REMARK 921   NORMALIZED FREE ENERGY PREDICTED BY IDOCK:   -4.27 KCAL/MOL
REMARK 922        TOTAL FREE ENERGY PREDICTED BY IDOCK:   -5.51 KCAL/MOL
REMARK 923 INTER-LIGAND FREE ENERGY PREDICTED BY IDOCK:   -5.03 KCAL/MOL
REMARK 924 INTRA-LIGAND FREE ENERGY PREDICTED BY IDOCK:   -0.47 KCAL/MOL
REMARK 927      BINDING AFFINITY PREDICTED BY RF-SCORE:    0.00 PKD
ROOT
HETATM    1  C   UNL     1     -12.469  13.858  65.629  1.00  0.00    -0.538 C  
HETATM    2  C   UNL     1     -11.929  13.447  66.991  1.00  0.00    -0.379 C  
ENDROOT
BRANCH   2   3
HETATM    3  C   UNL     1     -11.603  14.700  67.801  1.00  0.00    -0.359 C  
HETATM    4  C   UNL     1     -11.345  16.121  69.476  1.00  0.00    -0.321 C  
HETATM    5  N   UNL     1     -11.860  14.774  69.088  1.00  0.00    -0.304 NA 
HETATM    6  N   UNL     1     -10.997  15.801  67.234  1.00  0.00    -0.297 NA 
HETATM    7  C   UNL     1     -10.470  16.601  68.312  1.00  0.00    -0.321 C  
ENDBRANCH   2   3
BRANCH   2   8
HETATM    8  O   UNL     1     -10.686  12.744  66.890  1.00  0.00    -0.249 OA 
BRANCH   8   9
HETATM    9  C   UNL     1     -10.623  11.381  66.986  1.00  0.00    -0.248 A  
HETATM   10  C   UNL     1      -9.880   9.345  65.822  1.00  0.00    -0.345 A  
HETATM   11 CL   UNL     1      -9.787  11.600  64.380  1.00  0.00    -0.265 Cl 
HETATM   12  C   UNL     1     -10.118   8.588  66.962  1.00  0.00    -0.347 A  
HETATM   13  C   UNL     1     -10.132  10.724  65.836  1.00  0.00    -0.256 A  
HETATM   14  C   UNL     1     -10.600   9.214  68.108  1.00  0.00    -0.235 A  
HETATM   15  C   UNL     1     -10.832  10.601  68.135  1.00  0.00    -0.245 A  
HETATM   16 CL   UNL     1     -11.246  11.228  69.691  1.00  0.00    -0.323 Cl 
ENDBRANCH   8   9
ENDBRANCH   2   8
TORSDOF 3
ENDMDL
MODEL       70
REMARK 921   NORMALIZED FREE ENERGY PREDICTED BY IDOCK:   -4.27 KCAL/MOL
REMARK 922        TOTAL FREE ENERGY PREDICTED BY IDOCK:   -5.50 KCAL/MOL
REMARK 923 INTER-LIGAND FREE ENERGY PREDICTED BY IDOCK:   -5.09 KCAL/MOL
REMARK 924 INTRA-LIGAND FREE ENERGY PREDICTED BY IDOCK:   -0.42 KCAL/MOL
REMARK 927      BINDING AFFINITY PREDICTED BY RF-SCORE:    0.00 PKD
ROOT
HETATM    1  C   UNL     1     -11.878  15.343  70.127  1.00  0.00    -0.362 C  
HETATM    2  C   UNL     1     -10.990  14.977  68.947  1.00  0.00    -0.252 C  
ENDROOT
BRANCH   2   3
HETATM    3  C   UNL     1     -10.244  16.222  68.474  1.00  0.00    -0.247 C  
HETATM    4  C   UNL     1      -9.793  18.258  67.734  1.00  0.00    -0.318 C  
HETATM    5  N   UNL     1     -10.884  17.283  68.032  1.00  0.00    -0.357 NA 
HETATM    6  N   UNL     1      -8.868  16.312  68.517  1.00  0.00    -0.209 NA 
HETATM    7  C   UNL     1      -8.528  17.708  68.405  1.00  0.00    -0.287 C  
ENDBRANCH   2   3
BRANCH   2   8
HETATM    8  O   UNL     1     -11.750  14.553  67.810  1.00  0.00    -0.349 OA 
BRANCH   8   9
HETATM    9  C   UNL     1     -11.248  13.658  66.905  1.00  0.00    -0.312 A  
HETATM   10  C   UNL     1     -11.047  11.261  66.392  1.00  0.00    -0.257 A  
HETATM   11 CL   UNL     1     -12.014  11.846  68.820  1.00  0.00    -0.348 Cl 
HETATM   12  C   UNL     1     -10.555  11.557  65.127  1.00  0.00    -0.350 A  
HETATM   13  C   UNL     1     -11.386  12.300  67.269  1.00  0.00    -0.328 A  
HETATM   14  C   UNL     1     -10.412  12.887  64.746  1.00  0.00    -0.371 A  
HETATM   15  C   UNL     1     -10.773  13.935  65.613  1.00  0.00    -0.290 A  
HETATM   16 CL   UNL     1     -10.706  15.509  64.903  1.00  0.00    -0.450 Cl 
ENDBRANCH   8   9
ENDBRANCH   2   8
TORSDOF 3
ENDMDL
MODEL       71
REMARK 921   NORMALIZED FREE ENERGY PREDICTED BY IDOCK:   -4.26 KCAL/MOL
REMARK 922        TOTAL FREE ENERGY PREDICTED BY IDOCK:   -5.50 KCAL/MOL
REMARK 923 INTER-LIGAND FREE ENERGY PREDICTED BY IDOCK:   -4.98 KCAL/MOL
REMARK 924 INTRA-LIGAND FREE ENERGY PREDICTED BY IDOCK:   -0.52 KCAL/MOL
REMARK 927      BINDING AFFINITY PREDICTED BY RF-SCORE:    0.00 PKD
ROOT
HETATM    1  C   UNL     1      -7.585  15.156  69.448  1.00  0.00    -0.210 C  
HETATM    2  C   UNL     1      -8.811  15.812  68.832  1.00  0.00    -0.220 C  
ENDROOT
BRANCH   2   3
HETATM    3  C   UNL     1      -9.866  14.743  68.555  1.00  0.00    -0.218 C  
HETATM    4  C   UNL     1     -11.766  13.610  68.531  1.00  0.00    -0.357 C  
HETATM    5  N   UNL     1     -11.060  14.794  69.104  1.00  0.00    -0.253 NA 
HETATM    6  N   UNL     1      -9.634  13.692  67.692  1.00  0.00    -0.215 NA 
HETATM    7  C   UNL     1     -10.918  13.134  67.345  1.00  0.00    -0.264 C  
ENDBRANCH   2   3
BRANCH   2   8
HETATM    8  O   UNL     1      -8.531  16.389  67.552  1.00  0.00    -0.166 OA 
BRANCH   8   9
HETATM    9  C   UNL     1      -8.860  17.684  67.261  1.00  0.00    -0.236 A  
HETATM   10  C   UNL     1     -10.476  19.095  66.059  1.00  0.00    -0.546 A  
HETATM   11 CL   UNL     1     -10.651  16.467  65.574  1.00  0.00    -0.361 Cl 
HETATM   12  C   UNL     1      -9.957  20.233  66.665  1.00  0.00    -0.561 A  
HETATM   13  C   UNL     1      -9.931  17.838  66.354  1.00  0.00    -0.344 A  
HETATM   14  C   UNL     1      -8.902  20.106  67.563  1.00  0.00    -0.431 A  
HETATM   15  C   UNL     1      -8.367  18.844  67.881  1.00  0.00    -0.281 A  
HETATM   16 CL   UNL     1      -7.197  18.862  69.153  1.00  0.00    -0.318 Cl 
ENDBRANCH   8   9
ENDBRANCH   2   8
TORSDOF 3
ENDMDL
MODEL       72
REMARK 921   NORMALIZED FREE ENERGY PREDICTED BY IDOCK:   -4.26 KCAL/MOL
REMARK 922        TOTAL FREE ENERGY PREDICTED BY IDOCK:   -5.49 KCAL/MOL
REMARK 923 INTER-LIGAND FREE ENERGY PREDICTED BY IDOCK:   -5.06 KCAL/MOL
REMARK 924 INTRA-LIGAND FREE ENERGY PREDICTED BY IDOCK:   -0.43 KCAL/MOL
REMARK 927      BINDING AFFINITY PREDICTED BY RF-SCORE:    0.00 PKD
ROOT
HETATM    1  C   UNL     1     -11.130  10.678  69.117  1.00  0.00    -0.309 C  
HETATM    2  C   UNL     1     -10.985  10.232  67.670  1.00  0.00    -0.294 C  
ENDROOT
BRANCH   2   3
HETATM    3  C   UNL     1     -10.171   8.942  67.622  1.00  0.00    -0.237 C  
HETATM    4  C   UNL     1      -8.561   7.451  67.902  1.00  0.00    -0.125 C  
HETATM    5  N   UNL     1      -8.951   8.877  68.108  1.00  0.00    -0.137 NA 
HETATM    6  N   UNL     1     -10.683   7.773  67.098  1.00  0.00    -0.321 NA 
HETATM    7  C   UNL     1      -9.852   6.693  67.571  1.00  0.00    -0.129 C  
ENDBRANCH   2   3
BRANCH   2   8
HETATM    8  O   UNL     1     -10.234  11.167  66.889  1.00  0.00    -0.207 OA 
BRANCH   8   9
HETATM    9  C   UNL     1     -10.832  11.956  65.944  1.00  0.00    -0.297 A  
HETATM   10  C   UNL     1     -11.363  12.119  63.548  1.00  0.00    -0.535 A  
HETATM   11 CL   UNL     1      -9.715  10.122  64.232  1.00  0.00    -0.367 Cl 
HETATM   12  C   UNL     1     -12.181  13.217  63.789  1.00  0.00    -0.528 A  
HETATM   13  C   UNL     1     -10.696  11.500  64.614  1.00  0.00    -0.319 A  
HETATM   14  C   UNL     1     -12.330  13.683  65.091  1.00  0.00    -0.486 A  
HETATM   15  C   UNL     1     -11.682  13.050  66.168  1.00  0.00    -0.394 A  
HETATM   16 CL   UNL     1     -12.134  13.647  67.726  1.00  0.00    -0.374 Cl 
ENDBRANCH   8   9
ENDBRANCH   2   8
TORSDOF 3
ENDMDL
MODEL       73
REMARK 921   NORMALIZED FREE ENERGY PREDICTED BY IDOCK:   -4.25 KCAL/MOL
REMARK 922        TOTAL FREE ENERGY PREDICTED BY IDOCK:   -5.48 KCAL/MOL
REMARK 923 INTER-LIGAND FREE ENERGY PREDICTED BY IDOCK:   -4.98 KCAL/MOL
REMARK 924 INTRA-LIGAND FREE ENERGY PREDICTED BY IDOCK:   -0.50 KCAL/MOL
REMARK 927      BINDING AFFINITY PREDICTED BY RF-SCORE:    0.00 PKD
ROOT
HETATM    1  C   UNL     1      -9.474   9.331  67.401  1.00  0.00    -0.165 C  
HETATM    2  C   UNL     1     -10.701   9.845  68.139  1.00  0.00    -0.233 C  
ENDROOT
BRANCH   2   3
HETATM    3  C   UNL     1     -10.902  11.322  67.810  1.00  0.00    -0.235 C  
HETATM    4  C   UNL     1     -10.565  13.496  67.572  1.00  0.00    -0.244 C  
HETATM    5  N   UNL     1      -9.992  12.224  68.105  1.00  0.00    -0.206 NA 
HETATM    6  N   UNL     1     -12.028  11.780  67.160  1.00  0.00    -0.595 NA 
HETATM    7  C   UNL     1     -11.722  13.093  66.649  1.00  0.00    -0.375 C  
ENDBRANCH   2   3
BRANCH   2   8
HETATM    8  O   UNL     1     -10.532   9.807  69.560  1.00  0.00    -0.204 OA 
BRANCH   8   9
HETATM    9  C   UNL     1     -11.565   9.483  70.397  1.00  0.00    -0.212 A  
HETATM   10  C   UNL     1     -12.581   7.638  71.667  1.00  0.00    -0.365 A  
HETATM   11 CL   UNL     1     -10.628   6.937  69.973  1.00  0.00    -0.238 Cl 
HETATM   12  C   UNL     1     -13.428   8.529  72.314  1.00  0.00    -0.362 A  
HETATM   13  C   UNL     1     -11.664   8.111  70.718  1.00  0.00    -0.201 A  
HETATM   14  C   UNL     1     -13.348   9.885  72.014  1.00  0.00    -0.532 A  
HETATM   15  C   UNL     1     -12.412  10.369  71.081  1.00  0.00    -0.404 A  
HETATM   16 CL   UNL     1     -12.328  12.092  70.978  1.00  0.00    -0.411 Cl 
ENDBRANCH   8   9
ENDBRANCH   2   8
TORSDOF 3
ENDMDL
MODEL       74
REMARK 921   NORMALIZED FREE ENERGY PREDICTED BY IDOCK:   -4.21 KCAL/MOL
REMARK 922        TOTAL FREE ENERGY PREDICTED BY IDOCK:   -5.43 KCAL/MOL
REMARK 923 INTER-LIGAND FREE ENERGY PREDICTED BY IDOCK:   -4.98 KCAL/MOL
REMARK 924 INTRA-LIGAND FREE ENERGY PREDICTED BY IDOCK:   -0.45 KCAL/MOL
REMARK 927      BINDING AFFINITY PREDICTED BY RF-SCORE:    0.00 PKD
ROOT
HETATM    1  C   UNL     1     -10.830  12.175  63.564  1.00  0.00    -0.518 C  
HETATM    2  C   UNL     1     -10.429  12.487  64.998  1.00  0.00    -0.297 C  
ENDROOT
BRANCH   2   3
HETATM    3  C   UNL     1      -9.750  11.263  65.607  1.00  0.00    -0.230 C  
HETATM    4  C   UNL     1      -8.501   9.961  66.889  1.00  0.00    -0.125 C  
HETATM    5  N   UNL     1      -8.855  11.375  66.564  1.00  0.00    -0.183 NA 
HETATM    6  N   UNL     1     -10.063   9.979  65.211  1.00  0.00    -0.297 NA 
HETATM    7  C   UNL     1      -9.576   9.086  66.233  1.00  0.00    -0.260 C  
ENDBRANCH   2   3
BRANCH   2   8
HETATM    8  O   UNL     1     -11.563  12.730  65.836  1.00  0.00    -0.340 OA 
BRANCH   8   9
HETATM    9  C   UNL     1     -11.541  13.686  66.814  1.00  0.00    -0.364 A  
HETATM   10  C   UNL     1     -11.536  14.028  69.250  1.00  0.00    -0.344 A  
HETATM   11 CL   UNL     1     -11.990  11.517  68.436  1.00  0.00    -0.340 Cl 
HETATM   12  C   UNL     1     -11.264  15.379  69.075  1.00  0.00    -0.295 A  
HETATM   13  C   UNL     1     -11.675  13.194  68.131  1.00  0.00    -0.355 A  
HETATM   14  C   UNL     1     -11.127  15.886  67.787  1.00  0.00    -0.288 A  
HETATM   15  C   UNL     1     -11.242  15.049  66.661  1.00  0.00    -0.311 A  
HETATM   16 CL   UNL     1     -10.855  15.812  65.159  1.00  0.00    -0.435 Cl 
ENDBRANCH   8   9
ENDBRANCH   2   8
TORSDOF 3
ENDMDL
MODEL       75
REMARK 921   NORMALIZED FREE ENERGY PREDICTED BY IDOCK:   -4.20 KCAL/MOL
REMARK 922        TOTAL FREE ENERGY PREDICTED BY IDOCK:   -5.42 KCAL/MOL
REMARK 923 INTER-LIGAND FREE ENERGY PREDICTED BY IDOCK:   -4.95 KCAL/MOL
REMARK 924 INTRA-LIGAND FREE ENERGY PREDICTED BY IDOCK:   -0.47 KCAL/MOL
REMARK 927      BINDING AFFINITY PREDICTED BY RF-SCORE:    0.00 PKD
ROOT
HETATM    1  C   UNL     1     -11.724  14.550  64.819  1.00  0.00    -0.425 C  
HETATM    2  C   UNL     1     -10.316  14.025  65.056  1.00  0.00    -0.409 C  
ENDROOT
BRANCH   2   3
HETATM    3  C   UNL     1     -10.278  12.532  64.740  1.00  0.00    -0.280 C  
HETATM    4  C   UNL     1     -10.105  10.607  63.664  1.00  0.00    -0.245 C  
HETATM    5  N   UNL     1     -10.144  12.091  63.508  1.00  0.00    -0.433 NA 
HETATM    6  N   UNL     1     -10.349  11.572  65.728  1.00  0.00    -0.240 NA 
HETATM    7  C   UNL     1      -9.879  10.335  65.156  1.00  0.00    -0.321 C  
ENDBRANCH   2   3
BRANCH   2   8
HETATM    8  O   UNL     1      -9.929  14.117  66.431  1.00  0.00    -0.274 OA 
BRANCH   8   9
HETATM    9  C   UNL     1     -10.190  15.235  67.176  1.00  0.00    -0.252 A  
HETATM   10  C   UNL     1     -11.422  16.065  69.137  1.00  0.00    -0.347 A  
HETATM   11 CL   UNL     1     -12.007  13.564  68.379  1.00  0.00    -0.398 Cl 
HETATM   12  C   UNL     1     -10.752  17.280  69.062  1.00  0.00    -0.158 A  
HETATM   13  C   UNL     1     -11.145  15.057  68.202  1.00  0.00    -0.291 A  
HETATM   14  C   UNL     1      -9.807  17.477  68.061  1.00  0.00    -0.299 A  
HETATM   15  C   UNL     1      -9.507  16.460  67.135  1.00  0.00    -0.231 A  
HETATM   16 CL   UNL     1      -8.179  16.814  66.088  1.00  0.00    -0.347 Cl 
ENDBRANCH   8   9
ENDBRANCH   2   8
TORSDOF 3
ENDMDL
MODEL       76
REMARK 921   NORMALIZED FREE ENERGY PREDICTED BY IDOCK:   -4.18 KCAL/MOL
REMARK 922        TOTAL FREE ENERGY PREDICTED BY IDOCK:   -5.40 KCAL/MOL
REMARK 923 INTER-LIGAND FREE ENERGY PREDICTED BY IDOCK:   -4.91 KCAL/MOL
REMARK 924 INTRA-LIGAND FREE ENERGY PREDICTED BY IDOCK:   -0.50 KCAL/MOL
REMARK 927      BINDING AFFINITY PREDICTED BY RF-SCORE:    0.00 PKD
ROOT
HETATM    1  C   UNL     1      -9.027  11.500  67.708  1.00  0.00    -0.160 C  
HETATM    2  C   UNL     1     -10.114  10.834  66.878  1.00  0.00    -0.212 C  
ENDROOT
BRANCH   2   3
HETATM    3  C   UNL     1     -10.822  11.893  66.036  1.00  0.00    -0.299 C  
HETATM    4  C   UNL     1     -12.262  13.425  65.347  1.00  0.00    -0.452 C  
HETATM    5  N   UNL     1     -11.964  12.424  66.414  1.00  0.00    -0.607 NA 
HETATM    6  N   UNL     1     -10.287  12.369  64.857  1.00  0.00    -0.287 NA 
HETATM    7  C   UNL     1     -10.964  13.604  64.550  1.00  0.00    -0.396 C  
ENDBRANCH   2   3
BRANCH   2   8
HETATM    8  O   UNL     1     -11.144  10.266  67.692  1.00  0.00    -0.306 OA 
BRANCH   8   9
HETATM    9  C   UNL     1     -10.856   9.598  68.851  1.00  0.00    -0.174 A  
HETATM   10  C   UNL     1     -11.243   9.589  71.280  1.00  0.00    -0.452 A  
HETATM   11 CL   UNL     1     -12.099  11.770  69.982  1.00  0.00    -0.395 Cl 
HETATM   12  C   UNL     1     -10.659   8.332  71.384  1.00  0.00    -0.279 A  
HETATM   13  C   UNL     1     -11.336  10.213  70.028  1.00  0.00    -0.287 A  
HETATM   14  C   UNL     1     -10.180   7.707  70.237  1.00  0.00    -0.205 A  
HETATM   15  C   UNL     1     -10.293   8.318  68.975  1.00  0.00    -0.221 A  
HETATM   16 CL   UNL     1      -9.819   7.317  67.649  1.00  0.00    -0.175 Cl 
ENDBRANCH   8   9
ENDBRANCH   2   8
TORSDOF 3
ENDMDL
MODEL       77
REMARK 921   NORMALIZED FREE ENERGY PREDICTED BY IDOCK:   -4.17 KCAL/MOL
REMARK 922        TOTAL FREE ENERGY PREDICTED BY IDOCK:   -5.39 KCAL/MOL
REMARK 923 INTER-LIGAND FREE ENERGY PREDICTED BY IDOCK:   -4.87 KCAL/MOL
REMARK 924 INTRA-LIGAND FREE ENERGY PREDICTED BY IDOCK:   -0.52 KCAL/MOL
REMARK 927      BINDING AFFINITY PREDICTED BY RF-SCORE:    0.00 PKD
ROOT
HETATM    1  C   UNL     1      -7.775  14.300  68.425  1.00  0.00    -0.134 C  
HETATM    2  C   UNL     1      -8.930  15.210  68.036  1.00  0.00    -0.172 C  
ENDROOT
BRANCH   2   3
HETATM    3  C   UNL     1      -9.995  14.389  67.314  1.00  0.00    -0.247 C  
HETATM    4  C   UNL     1     -11.945  13.589  66.639  1.00  0.00    -0.404 C  
HETATM    5  N   UNL     1     -11.274  14.521  67.594  1.00  0.00    -0.308 NA 
HETATM    6  N   UNL     1      -9.678  13.494  66.314  1.00  0.00    -0.289 NA 
HETATM    7  C   UNL     1     -10.892  13.216  65.588  1.00  0.00    -0.278 C  
ENDBRANCH   2   3
BRANCH   2   8
HETATM    8  O   UNL     1      -8.535  16.209  67.089  1.00  0.00    -0.170 OA 
BRANCH   8   9
HETATM    9  C   UNL     1      -9.103  17.454  67.081  1.00  0.00    -0.237 A  
HETATM   10  C   UNL     1      -8.841  19.756  67.906  1.00  0.00    -0.381 A  
HETATM   11 CL   UNL     1      -7.157  17.955  68.952  1.00  0.00    -0.269 Cl 
HETATM   12  C   UNL     1      -9.870  20.186  67.078  1.00  0.00    -0.595 A  
HETATM   13  C   UNL     1      -8.466  18.405  67.908  1.00  0.00    -0.261 A  
HETATM   14  C   UNL     1     -10.512  19.267  66.254  1.00  0.00    -0.567 A  
HETATM   15  C   UNL     1     -10.123  17.915  66.233  1.00  0.00    -0.351 A  
HETATM   16 CL   UNL     1     -10.899  16.964  65.017  1.00  0.00    -0.212 Cl 
ENDBRANCH   8   9
ENDBRANCH   2   8
TORSDOF 3
ENDMDL
MODEL       78
REMARK 921   NORMALIZED FREE ENERGY PREDICTED BY IDOCK:   -4.17 KCAL/MOL
REMARK 922        TOTAL FREE ENERGY PREDICTED BY IDOCK:   -5.38 KCAL/MOL
REMARK 923 INTER-LIGAND FREE ENERGY PREDICTED BY IDOCK:   -4.96 KCAL/MOL
REMARK 924 INTRA-LIGAND FREE ENERGY PREDICTED BY IDOCK:   -0.43 KCAL/MOL
REMARK 927      BINDING AFFINITY PREDICTED BY RF-SCORE:    0.00 PKD
ROOT
HETATM    1  C   UNL     1     -11.120  16.198  69.537  1.00  0.00    -0.344 C  
HETATM    2  C   UNL     1     -11.209  16.079  68.023  1.00  0.00    -0.303 C  
ENDROOT
BRANCH   2   3
HETATM    3  C   UNL     1     -11.390  14.612  67.644  1.00  0.00    -0.336 C  
HETATM    4  C   UNL     1     -11.662  12.752  66.478  1.00  0.00    -0.400 C  
HETATM    5  N   UNL     1     -11.595  14.241  66.399  1.00  0.00    -0.359 NA 
HETATM    6  N   UNL     1     -11.317  13.600  68.579  1.00  0.00    -0.270 NA 
HETATM    7  C   UNL     1     -11.117  12.367  67.858  1.00  0.00    -0.239 C  
ENDBRANCH   2   3
BRANCH   2   8
HETATM    8  O   UNL     1      -9.994  16.476  67.378  1.00  0.00    -0.255 OA 
BRANCH   8   9
HETATM    9  C   UNL     1      -9.200  17.467  67.889  1.00  0.00    -0.256 A  
HETATM   10  C   UNL     1      -6.987  17.930  68.856  1.00  0.00    -0.260 A  
HETATM   11 CL   UNL     1      -7.586  15.340  68.532  1.00  0.00    -0.114 Cl 
HETATM   12  C   UNL     1      -7.222  19.297  68.775  1.00  0.00    -0.380 A  
HETATM   13  C   UNL     1      -7.967  17.028  68.419  1.00  0.00    -0.239 A  
HETATM   14  C   UNL     1      -8.429  19.752  68.255  1.00  0.00    -0.311 A  
HETATM   15  C   UNL     1      -9.407  18.852  67.793  1.00  0.00    -0.293 A  
HETATM   16 CL   UNL     1     -10.754  19.597  67.009  1.00  0.00    -0.595 Cl 
ENDBRANCH   8   9
ENDBRANCH   2   8
TORSDOF 3
ENDMDL
MODEL       79
REMARK 921   NORMALIZED FREE ENERGY PREDICTED BY IDOCK:   -4.16 KCAL/MOL
REMARK 922        TOTAL FREE ENERGY PREDICTED BY IDOCK:   -5.38 KCAL/MOL
REMARK 923 INTER-LIGAND FREE ENERGY PREDICTED BY IDOCK:   -5.13 KCAL/MOL
REMARK 924 INTRA-LIGAND FREE ENERGY PREDICTED BY IDOCK:   -0.25 KCAL/MOL
REMARK 927      BINDING AFFINITY PREDICTED BY RF-SCORE:    0.00 PKD
ROOT
HETATM    1  C   UNL     1     -10.090  15.496  69.181  1.00  0.00    -0.239 C  
HETATM    2  C   UNL     1     -10.675  14.289  68.463  1.00  0.00    -0.255 C  
ENDROOT
BRANCH   2   3
HETATM    3  C   UNL     1     -10.591  14.511  66.955  1.00  0.00    -0.278 C  
HETATM    4  C   UNL     1     -10.125  15.376  64.973  1.00  0.00    -0.175 C  
HETATM    5  N   UNL     1     -10.042  15.593  66.448  1.00  0.00    -0.272 NA 
HETATM    6  N   UNL     1     -11.053  13.579  66.050  1.00  0.00    -0.292 NA 
HETATM    7  C   UNL     1     -10.463  13.894  64.773  1.00  0.00    -0.429 C  
ENDBRANCH   2   3
BRANCH   2   8
HETATM    8  O   UNL     1     -12.072  14.126  68.730  1.00  0.00    -0.341 OA 
BRANCH   8   9
HETATM    9  C   UNL     1     -12.517  13.475  69.849  1.00  0.00    -0.134 A  
HETATM   10  C   UNL     1     -12.586  11.288  70.972  1.00  0.00    -0.495 A  
HETATM   11 CL   UNL     1     -11.672  11.265  68.455  1.00  0.00    -0.378 Cl 
HETATM   12  C   UNL     1     -13.082  11.880  72.127  1.00  0.00    -0.327 A  
HETATM   13  C   UNL     1     -12.310  12.078  69.847  1.00  0.00    -0.074 A  
HETATM   14  C   UNL     1     -13.293  13.255  72.152  1.00  0.00    -0.618 A  
HETATM   15  C   UNL     1     -12.995  14.056  71.034  1.00  0.00    -0.308 A  
HETATM   16 CL   UNL     1     -13.140  15.755  71.311  1.00  0.00    -0.515 Cl 
ENDBRANCH   8   9
ENDBRANCH   2   8
TORSDOF 3
ENDMDL
MODEL       80
REMARK 921   NORMALIZED FREE ENERGY PREDICTED BY IDOCK:   -4.14 KCAL/MOL
REMARK 922        TOTAL FREE ENERGY PREDICTED BY IDOCK:   -5.35 KCAL/MOL
REMARK 923 INTER-LIGAND FREE ENERGY PREDICTED BY IDOCK:   -4.88 KCAL/MOL
REMARK 924 INTRA-LIGAND FREE ENERGY PREDICTED BY IDOCK:   -0.47 KCAL/MOL
REMARK 927      BINDING AFFINITY PREDICTED BY RF-SCORE:    0.00 PKD
ROOT
HETATM    1  C   UNL     1     -11.121  16.307  64.854  1.00  0.00    -0.301 C  
HETATM    2  C   UNL     1     -10.272  15.777  66.000  1.00  0.00    -0.333 C  
ENDROOT
BRANCH   2   3
HETATM    3  C   UNL     1     -10.802  14.412  66.430  1.00  0.00    -0.314 C  
HETATM    4  C   UNL     1     -10.958  12.245  66.848  1.00  0.00    -0.267 C  
HETATM    5  N   UNL     1     -10.103  13.313  66.249  1.00  0.00    -0.288 NA 
HETATM    6  N   UNL     1     -12.022  14.264  67.055  1.00  0.00    -0.431 NA 
HETATM    7  C   UNL     1     -12.028  12.964  67.678  1.00  0.00    -0.289 C  
ENDBRANCH   2   3
BRANCH   2   8
HETATM    8  O   UNL     1     -10.375  16.594  67.171  1.00  0.00    -0.293 OA 
BRANCH   8   9
HETATM    9  C   UNL     1      -9.337  17.380  67.592  1.00  0.00    -0.245 A  
HETATM   10  C   UNL     1      -8.636  19.710  67.951  1.00  0.00    -0.360 A  
HETATM   11 CL   UNL     1     -10.956  19.389  66.652  1.00  0.00    -0.433 Cl 
HETATM   12  C   UNL     1      -7.493  19.280  68.614  1.00  0.00    -0.380 A  
HETATM   13  C   UNL     1      -9.544  18.770  67.445  1.00  0.00    -0.306 A  
HETATM   14  C   UNL     1      -7.269  17.916  68.771  1.00  0.00    -0.275 A  
HETATM   15  C   UNL     1      -8.189  16.968  68.287  1.00  0.00    -0.227 A  
HETATM   16 CL   UNL     1      -7.842  15.337  68.739  1.00  0.00    -0.142 Cl 
ENDBRANCH   8   9
ENDBRANCH   2   8
TORSDOF 3
ENDMDL
MODEL       81
REMARK 921   NORMALIZED FREE ENERGY PREDICTED BY IDOCK:   -4.13 KCAL/MOL
REMARK 922        TOTAL FREE ENERGY PREDICTED BY IDOCK:   -5.34 KCAL/MOL
REMARK 923 INTER-LIGAND FREE ENERGY PREDICTED BY IDOCK:   -4.94 KCAL/MOL
REMARK 924 INTRA-LIGAND FREE ENERGY PREDICTED BY IDOCK:   -0.40 KCAL/MOL
REMARK 927      BINDING AFFINITY PREDICTED BY RF-SCORE:    0.00 PKD
ROOT
HETATM    1  C   UNL     1     -10.638  17.969  67.509  1.00  0.00    -0.402 C  
HETATM    2  C   UNL     1      -9.364  17.199  67.192  1.00  0.00    -0.245 C  
ENDROOT
BRANCH   2   3
HETATM    3  C   UNL     1      -8.323  18.162  66.628  1.00  0.00    -0.263 C  
HETATM    4  C   UNL     1      -6.713  19.042  65.391  1.00  0.00    -0.228 C  
HETATM    5  N   UNL     1      -7.507  17.806  65.660  1.00  0.00    -0.502 NA 
HETATM    6  N   UNL     1      -8.205  19.460  67.080  1.00  0.00    -0.265 NA 
HETATM    7  C   UNL     1      -7.451  20.189  66.091  1.00  0.00    -0.278 C  
ENDBRANCH   2   3
BRANCH   2   8
HETATM    8  O   UNL     1      -9.562  16.229  66.159  1.00  0.00    -0.289 OA 
BRANCH   8   9
HETATM    9  C   UNL     1     -10.267  15.077  66.381  1.00  0.00    -0.277 A  
HETATM   10  C   UNL     1     -12.014  13.614  65.456  1.00  0.00    -0.409 A  
HETATM   11 CL   UNL     1     -11.697  15.964  64.211  1.00  0.00    -0.295 Cl 
HETATM   12  C   UNL     1     -11.727  12.644  66.408  1.00  0.00    -0.466 A  
HETATM   13  C   UNL     1     -11.293  14.816  65.446  1.00  0.00    -0.356 A  
HETATM   14  C   UNL     1     -10.720  12.879  67.338  1.00  0.00    -0.252 A  
HETATM   15  C   UNL     1      -9.976  14.073  67.318  1.00  0.00    -0.242 A  
HETATM   16 CL   UNL     1      -8.647  14.108  68.422  1.00  0.00    -0.173 Cl 
ENDBRANCH   8   9
ENDBRANCH   2   8
TORSDOF 3
ENDMDL
MODEL       82
REMARK 921   NORMALIZED FREE ENERGY PREDICTED BY IDOCK:   -4.12 KCAL/MOL
REMARK 922        TOTAL FREE ENERGY PREDICTED BY IDOCK:   -5.33 KCAL/MOL
REMARK 923 INTER-LIGAND FREE ENERGY PREDICTED BY IDOCK:   -4.86 KCAL/MOL
REMARK 924 INTRA-LIGAND FREE ENERGY PREDICTED BY IDOCK:   -0.47 KCAL/MOL
REMARK 927      BINDING AFFINITY PREDICTED BY RF-SCORE:    0.00 PKD
ROOT
HETATM    1  C   UNL     1     -12.284  12.855  70.508  1.00  0.00    -0.395 C  
HETATM    2  C   UNL     1     -12.060  11.575  69.717  1.00  0.00    -0.306 C  
ENDROOT
BRANCH   2   3
HETATM    3  C   UNL     1     -12.129  10.381  70.665  1.00  0.00    -0.348 C  
HETATM    4  C   UNL     1     -11.564   8.737  72.035  1.00  0.00    -0.366 C  
HETATM    5  N   UNL     1     -11.042   9.800  71.124  1.00  0.00    -0.360 NA 
HETATM    6  N   UNL     1     -13.330   9.872  71.115  1.00  0.00    -0.358 NA 
HETATM    7  C   UNL     1     -13.044   9.060  72.272  1.00  0.00    -0.445 C  
ENDBRANCH   2   3
BRANCH   2   8
HETATM    8  O   UNL     1     -10.747  11.514  69.149  1.00  0.00    -0.214 OA 
BRANCH   8   9
HETATM    9  C   UNL     1     -10.554  11.372  67.802  1.00  0.00    -0.195 A  
HETATM   10  C   UNL     1      -9.918  12.576  65.754  1.00  0.00    -0.272 A  
HETATM   11 CL   UNL     1     -10.323  14.106  67.915  1.00  0.00    -0.232 Cl 
HETATM   12  C   UNL     1      -9.842  11.378  65.055  1.00  0.00    -0.304 A  
HETATM   13  C   UNL     1     -10.273  12.571  67.110  1.00  0.00    -0.217 A  
HETATM   14  C   UNL     1     -10.114  10.185  65.716  1.00  0.00    -0.324 A  
HETATM   15  C   UNL     1     -10.446  10.171  67.083  1.00  0.00    -0.246 A  
HETATM   16 CL   UNL     1     -10.563   8.592  67.776  1.00  0.00    -0.280 Cl 
ENDBRANCH   8   9
ENDBRANCH   2   8
TORSDOF 3
ENDMDL
MODEL       83
REMARK 921   NORMALIZED FREE ENERGY PREDICTED BY IDOCK:   -4.10 KCAL/MOL
REMARK 922        TOTAL FREE ENERGY PREDICTED BY IDOCK:   -5.30 KCAL/MOL
REMARK 923 INTER-LIGAND FREE ENERGY PREDICTED BY IDOCK:   -5.08 KCAL/MOL
REMARK 924 INTRA-LIGAND FREE ENERGY PREDICTED BY IDOCK:   -0.23 KCAL/MOL
REMARK 927      BINDING AFFINITY PREDICTED BY RF-SCORE:    0.00 PKD
ROOT
HETATM    1  C   UNL     1     -10.928  16.058  69.495  1.00  0.00    -0.326 C  
HETATM    2  C   UNL     1     -11.374  16.004  68.041  1.00  0.00    -0.266 C  
ENDROOT
BRANCH   2   3
HETATM    3  C   UNL     1     -11.443  14.547  67.591  1.00  0.00    -0.353 C  
HETATM    4  C   UNL     1     -11.766  12.358  67.570  1.00  0.00    -0.357 C  
HETATM    5  N   UNL     1     -11.775  13.583  68.423  1.00  0.00    -0.338 NA 
HETATM    6  N   UNL     1     -11.194  14.170  66.288  1.00  0.00    -0.322 NA 
HETATM    7  C   UNL     1     -11.735  12.845  66.116  1.00  0.00    -0.396 C  
ENDBRANCH   2   3
BRANCH   2   8
HETATM    8  O   UNL     1     -10.425  16.613  67.161  1.00  0.00    -0.312 OA 
BRANCH   8   9
HETATM    9  C   UNL     1      -9.306  17.242  67.637  1.00  0.00    -0.237 A  
HETATM   10  C   UNL     1      -8.444  19.387  68.475  1.00  0.00    -0.397 A  
HETATM   11 CL   UNL     1     -10.905  19.463  67.421  1.00  0.00    -0.598 Cl 
HETATM   12  C   UNL     1      -7.262  18.775  68.871  1.00  0.00    -0.333 A  
HETATM   13  C   UNL     1      -9.452  18.628  67.863  1.00  0.00    -0.303 A  
HETATM   14  C   UNL     1      -7.096  17.410  68.658  1.00  0.00    -0.237 A  
HETATM   15  C   UNL     1      -8.113  16.638  68.067  1.00  0.00    -0.180 A  
HETATM   16 CL   UNL     1      -7.809  14.938  68.058  1.00  0.00    -0.120 Cl 
ENDBRANCH   8   9
ENDBRANCH   2   8
TORSDOF 3
ENDMDL
MODEL       84
REMARK 921   NORMALIZED FREE ENERGY PREDICTED BY IDOCK:   -4.10 KCAL/MOL
REMARK 922        TOTAL FREE ENERGY PREDICTED BY IDOCK:   -5.30 KCAL/MOL
REMARK 923 INTER-LIGAND FREE ENERGY PREDICTED BY IDOCK:   -4.86 KCAL/MOL
REMARK 924 INTRA-LIGAND FREE ENERGY PREDICTED BY IDOCK:   -0.45 KCAL/MOL
REMARK 927      BINDING AFFINITY PREDICTED BY RF-SCORE:    0.00 PKD
ROOT
HETATM    1  C   UNL     1     -10.626  11.252  65.760  1.00  0.00    -0.306 C  
HETATM    2  C   UNL     1     -10.556  11.498  67.260  1.00  0.00    -0.228 C  
ENDROOT
BRANCH   2   3
HETATM    3  C   UNL     1     -10.341  10.168  67.977  1.00  0.00    -0.190 C  
HETATM    4  C   UNL     1     -10.328   8.009  68.459  1.00  0.00    -0.199 C  
HETATM    5  N   UNL     1     -10.799   9.038  67.485  1.00  0.00    -0.163 NA 
HETATM    6  N   UNL     1      -9.630  10.078  69.155  1.00  0.00    -0.197 NA 
HETATM    7  C   UNL     1      -9.269   8.693  69.332  1.00  0.00    -0.150 C  
ENDBRANCH   2   3
BRANCH   2   8
HETATM    8  O   UNL     1     -11.789  12.001  67.783  1.00  0.00    -0.488 OA 
BRANCH   8   9
HETATM    9  C   UNL     1     -11.856  13.202  68.435  1.00  0.00    -0.351 A  
HETATM   10  C   UNL     1     -11.992  14.243  70.660  1.00  0.00    -0.392 A  
HETATM   11 CL   UNL     1     -12.305  11.584  70.608  1.00  0.00    -0.462 Cl 
HETATM   12  C   UNL     1     -11.764  15.496  70.104  1.00  0.00    -0.367 A  
HETATM   13  C   UNL     1     -12.039  13.112  69.833  1.00  0.00    -0.287 A  
HETATM   14  C   UNL     1     -11.580  15.609  68.729  1.00  0.00    -0.393 A  
HETATM   15  C   UNL     1     -11.602  14.474  67.898  1.00  0.00    -0.344 A  
HETATM   16 CL   UNL     1     -11.166  14.781  66.254  1.00  0.00    -0.342 Cl 
ENDBRANCH   8   9
ENDBRANCH   2   8
TORSDOF 3
ENDMDL
MODEL       85
REMARK 921   NORMALIZED FREE ENERGY PREDICTED BY IDOCK:   -4.09 KCAL/MOL
REMARK 922        TOTAL FREE ENERGY PREDICTED BY IDOCK:   -5.30 KCAL/MOL
REMARK 923 INTER-LIGAND FREE ENERGY PREDICTED BY IDOCK:   -4.86 KCAL/MOL
REMARK 924 INTRA-LIGAND FREE ENERGY PREDICTED BY IDOCK:   -0.43 KCAL/MOL
REMARK 927      BINDING AFFINITY PREDICTED BY RF-SCORE:    0.00 PKD
ROOT
HETATM    1  C   UNL     1     -12.282  12.377  70.049  1.00  0.00    -0.264 C  
HETATM    2  C   UNL     1     -11.254  11.518  69.328  1.00  0.00    -0.272 C  
ENDROOT
BRANCH   2   3
HETATM    3  C   UNL     1     -11.425  11.689  67.821  1.00  0.00    -0.302 C  
HETATM    4  C   UNL     1     -11.929  12.526  65.836  1.00  0.00    -0.409 C  
HETATM    5  N   UNL     1     -12.032  12.738  67.311  1.00  0.00    -0.416 NA 
HETATM    6  N   UNL     1     -10.925  10.773  66.919  1.00  0.00    -0.231 NA 
HETATM    7  C   UNL     1     -10.888  11.420  65.630  1.00  0.00    -0.218 C  
ENDBRANCH   2   3
BRANCH   2   8
HETATM    8  O   UNL     1     -11.458  10.121  69.562  1.00  0.00    -0.229 OA 
BRANCH   8   9
HETATM    9  C   UNL     1     -10.998   9.509  70.697  1.00  0.00    -0.306 A  
HETATM   10  C   UNL     1     -11.672   8.110  72.604  1.00  0.00    -0.419 A  
HETATM   11 CL   UNL     1     -13.676   9.045  71.093  1.00  0.00    -0.240 Cl 
HETATM   12  C   UNL     1     -10.342   7.931  72.963  1.00  0.00    -0.401 A  
HETATM   13  C   UNL     1     -11.994   8.892  71.486  1.00  0.00    -0.333 A  
HETATM   14  C   UNL     1      -9.344   8.529  72.200  1.00  0.00    -0.353 A  
HETATM   15  C   UNL     1      -9.660   9.295  71.062  1.00  0.00    -0.259 A  
HETATM   16 CL   UNL     1      -8.292   9.798  70.134  1.00  0.00    -0.210 Cl 
ENDBRANCH   8   9
ENDBRANCH   2   8
TORSDOF 3
ENDMDL
MODEL       86
REMARK 921   NORMALIZED FREE ENERGY PREDICTED BY IDOCK:   -4.06 KCAL/MOL
REMARK 922        TOTAL FREE ENERGY PREDICTED BY IDOCK:   -5.26 KCAL/MOL
REMARK 923 INTER-LIGAND FREE ENERGY PREDICTED BY IDOCK:   -4.91 KCAL/MOL
REMARK 924 INTRA-LIGAND FREE ENERGY PREDICTED BY IDOCK:   -0.35 KCAL/MOL
REMARK 927      BINDING AFFINITY PREDICTED BY RF-SCORE:    0.00 PKD
ROOT
HETATM    1  C   UNL     1     -12.839  10.789  71.429  1.00  0.00    -0.557 C  
HETATM    2  C   UNL     1     -11.630  10.415  70.585  1.00  0.00    -0.349 C  
ENDROOT
BRANCH   2   3
HETATM    3  C   UNL     1     -11.540  11.362  69.391  1.00  0.00    -0.323 C  
HETATM    4  C   UNL     1     -11.596  12.176  67.334  1.00  0.00    -0.340 C  
HETATM    5  N   UNL     1     -11.719  10.937  68.159  1.00  0.00    -0.544 NA 
HETATM    6  N   UNL     1     -11.298  12.711  69.543  1.00  0.00    -0.202 NA 
HETATM    7  C   UNL     1     -11.681  13.355  68.311  1.00  0.00    -0.356 C  
ENDBRANCH   2   3
BRANCH   2   8
HETATM    8  O   UNL     1     -11.757   9.111  70.009  1.00  0.00    -0.041 OA 
BRANCH   8   9
HETATM    9  C   UNL     1     -11.407   7.984  70.701  1.00  0.00    -0.252 A  
HETATM   10  C   UNL     1      -9.491   6.693  71.545  1.00  0.00    -0.159 A  
HETATM   11 CL   UNL     1      -8.886   8.711  69.891  1.00  0.00    -0.141 Cl 
HETATM   12  C   UNL     1     -10.343   5.882  72.283  1.00  0.00    -0.236 A  
HETATM   13  C   UNL     1     -10.019   7.729  70.762  1.00  0.00    -0.181 A  
HETATM   14  C   UNL     1     -11.714   6.114  72.239  1.00  0.00    -0.352 A  
HETATM   15  C   UNL     1     -12.248   7.168  71.474  1.00  0.00    -0.360 A  
HETATM   16 CL   UNL     1     -13.943   7.422  71.689  1.00  0.00    -0.519 Cl 
ENDBRANCH   8   9
ENDBRANCH   2   8
TORSDOF 3
ENDMDL
MODEL       87
REMARK 921   NORMALIZED FREE ENERGY PREDICTED BY IDOCK:   -4.06 KCAL/MOL
REMARK 922        TOTAL FREE ENERGY PREDICTED BY IDOCK:   -5.26 KCAL/MOL
REMARK 923 INTER-LIGAND FREE ENERGY PREDICTED BY IDOCK:   -5.05 KCAL/MOL
REMARK 924 INTRA-LIGAND FREE ENERGY PREDICTED BY IDOCK:   -0.21 KCAL/MOL
REMARK 927      BINDING AFFINITY PREDICTED BY RF-SCORE:    0.00 PKD
ROOT
HETATM    1  C   UNL     1     -12.134  15.643  65.001  1.00  0.00     0.369 C  
HETATM    2  C   UNL     1     -10.829  14.915  64.715  1.00  0.00    -0.363 C  
ENDROOT
BRANCH   2   3
HETATM    3  C   UNL     1     -11.139  13.547  64.114  1.00  0.00    -0.278 C  
HETATM    4  C   UNL     1     -11.014  11.409  63.557  1.00  0.00    -0.324 C  
HETATM    5  N   UNL     1     -10.305  12.537  64.231  1.00  0.00    -0.362 NA 
HETATM    6  N   UNL     1     -12.319  13.290  63.447  1.00  0.00    -0.749 NA 
HETATM    7  C   UNL     1     -12.470  11.858  63.381  1.00  0.00    -0.463 C  
ENDBRANCH   2   3
BRANCH   2   8
HETATM    8  O   UNL     1     -10.096  14.631  65.912  1.00  0.00    -0.287 OA 
BRANCH   8   9
HETATM    9  C   UNL     1     -10.642  14.825  67.151  1.00  0.00    -0.285 A  
HETATM   10  C   UNL     1     -11.120  16.527  68.860  1.00  0.00    -0.300 A  
HETATM   11 CL   UNL     1      -9.570  17.332  66.830  1.00  0.00    -0.259 Cl 
HETATM   12  C   UNL     1     -11.896  15.619  69.570  1.00  0.00    -0.387 A  
HETATM   13  C   UNL     1     -10.500  16.132  67.667  1.00  0.00    -0.292 A  
HETATM   14  C   UNL     1     -12.051  14.326  69.080  1.00  0.00    -0.337 A  
HETATM   15  C   UNL     1     -11.451  13.930  67.871  1.00  0.00    -0.318 A  
HETATM   16 CL   UNL     1     -11.907  12.355  67.326  1.00  0.00    -0.414 Cl 
ENDBRANCH   8   9
ENDBRANCH   2   8
TORSDOF 3
ENDMDL
MODEL       88
REMARK 921   NORMALIZED FREE ENERGY PREDICTED BY IDOCK:   -4.03 KCAL/MOL
REMARK 922        TOTAL FREE ENERGY PREDICTED BY IDOCK:   -5.23 KCAL/MOL
REMARK 923 INTER-LIGAND FREE ENERGY PREDICTED BY IDOCK:   -4.75 KCAL/MOL
REMARK 924 INTRA-LIGAND FREE ENERGY PREDICTED BY IDOCK:   -0.47 KCAL/MOL
REMARK 927      BINDING AFFINITY PREDICTED BY RF-SCORE:    0.00 PKD
ROOT
HETATM    1  C   UNL     1      -9.581   7.504  69.448  1.00  0.00    -0.155 C  
HETATM    2  C   UNL     1     -10.255   8.325  70.537  1.00  0.00    -0.198 C  
ENDROOT
BRANCH   2   3
HETATM    3  C   UNL     1     -10.706   7.396  71.660  1.00  0.00    -0.214 C  
HETATM    4  C   UNL     1     -11.528   5.663  72.764  1.00  0.00    -0.274 C  
HETATM    5  N   UNL     1     -11.323   6.261  71.411  1.00  0.00    -0.292 NA 
HETATM    6  N   UNL     1     -10.462   7.679  72.988  1.00  0.00    -0.326 NA 
HETATM    7  C   UNL     1     -10.631   6.452  73.725  1.00  0.00    -0.253 C  
ENDBRANCH   2   3
BRANCH   2   8
HETATM    8  O   UNL     1     -11.457   8.951  70.076  1.00  0.00    -0.131 OA 
BRANCH   8   9
HETATM    9  C   UNL     1     -11.880  10.151  70.579  1.00  0.00    -0.321 A  
HETATM   10  C   UNL     1     -11.834  12.582  70.207  1.00  0.00    -0.305 A  
HETATM   11 CL   UNL     1     -10.223  11.140  68.626  1.00  0.00    -0.203 Cl 
HETATM   12  C   UNL     1     -12.782  12.767  71.206  1.00  0.00    -0.364 A  
HETATM   13  C   UNL     1     -11.389  11.288  69.901  1.00  0.00    -0.249 A  
HETATM   14  C   UNL     1     -13.282  11.662  71.886  1.00  0.00    -0.475 A  
HETATM   15  C   UNL     1     -12.856  10.359  71.567  1.00  0.00    -0.464 A  
HETATM   16 CL   UNL     1     -13.721   9.103  72.380  1.00  0.00    -0.529 Cl 
ENDBRANCH   8   9
ENDBRANCH   2   8
TORSDOF 3
ENDMDL
MODEL       89
REMARK 921   NORMALIZED FREE ENERGY PREDICTED BY IDOCK:   -4.02 KCAL/MOL
REMARK 922        TOTAL FREE ENERGY PREDICTED BY IDOCK:   -5.22 KCAL/MOL
REMARK 923 INTER-LIGAND FREE ENERGY PREDICTED BY IDOCK:   -4.78 KCAL/MOL
REMARK 924 INTRA-LIGAND FREE ENERGY PREDICTED BY IDOCK:   -0.44 KCAL/MOL
REMARK 927      BINDING AFFINITY PREDICTED BY RF-SCORE:    0.00 PKD
ROOT
HETATM    1  C   UNL     1     -11.575  12.335  69.098  1.00  0.00    -0.373 C  
HETATM    2  C   UNL     1     -11.518  11.490  67.834  1.00  0.00    -0.301 C  
ENDROOT
BRANCH   2   3
HETATM    3  C   UNL     1     -10.996  10.099  68.183  1.00  0.00    -0.259 C  
HETATM    4  C   UNL     1     -10.106   8.079  68.030  1.00  0.00    -0.194 C  
HETATM    5  N   UNL     1     -10.558   9.274  67.257  1.00  0.00    -0.261 NA 
HETATM    6  N   UNL     1     -10.924   9.649  69.485  1.00  0.00    -0.229 NA 
HETATM    7  C   UNL     1     -10.032   8.516  69.497  1.00  0.00    -0.193 C  
ENDBRANCH   2   3
BRANCH   2   8
HETATM    8  O   UNL     1     -10.581  12.004  66.882  1.00  0.00    -0.219 OA 
BRANCH   8   9
HETATM    9  C   UNL     1     -10.751  13.229  66.297  1.00  0.00    -0.286 A  
HETATM   10  C   UNL     1      -9.713  15.436  65.983  1.00  0.00    -0.370 A  
HETATM   11 CL   UNL     1      -8.510  13.836  67.762  1.00  0.00    -0.167 Cl 
HETATM   12  C   UNL     1     -10.671  15.769  65.033  1.00  0.00    -0.443 A  
HETATM   13  C   UNL     1      -9.756  14.181  66.607  1.00  0.00    -0.288 A  
HETATM   14  C   UNL     1     -11.660  14.845  64.711  1.00  0.00    -0.410 A  
HETATM   15  C   UNL     1     -11.695  13.576  65.317  1.00  0.00    -0.322 A  
HETATM   16 CL   UNL     1     -12.874  12.499  64.657  1.00  0.00    -0.462 Cl 
ENDBRANCH   8   9
ENDBRANCH   2   8
TORSDOF 3
ENDMDL
MODEL       90
REMARK 921   NORMALIZED FREE ENERGY PREDICTED BY IDOCK:   -3.99 KCAL/MOL
REMARK 922        TOTAL FREE ENERGY PREDICTED BY IDOCK:   -5.18 KCAL/MOL
REMARK 923 INTER-LIGAND FREE ENERGY PREDICTED BY IDOCK:   -4.91 KCAL/MOL
REMARK 924 INTRA-LIGAND FREE ENERGY PREDICTED BY IDOCK:   -0.27 KCAL/MOL
REMARK 927      BINDING AFFINITY PREDICTED BY RF-SCORE:    0.00 PKD
ROOT
HETATM    1  C   UNL     1      -7.765  15.340  67.731  1.00  0.00    -0.164 C  
HETATM    2  C   UNL     1      -8.016  16.110  66.443  1.00  0.00    -0.217 C  
ENDROOT
BRANCH   2   3
HETATM    3  C   UNL     1      -7.525  17.545  66.613  1.00  0.00    -0.245 C  
HETATM    4  C   UNL     1      -7.175  19.707  66.297  1.00  0.00    -0.263 C  
HETATM    5  N   UNL     1      -7.785  18.473  65.718  1.00  0.00    -0.514 NA 
HETATM    6  N   UNL     1      -6.815  17.950  67.724  1.00  0.00    -0.188 NA 
HETATM    7  C   UNL     1      -6.872  19.390  67.767  1.00  0.00    -0.229 C  
ENDBRANCH   2   3
BRANCH   2   8
HETATM    8  O   UNL     1      -9.412  16.234  66.152  1.00  0.00    -0.295 OA 
BRANCH   8   9
HETATM    9  C   UNL     1     -10.367  15.697  66.972  1.00  0.00    -0.289 A  
HETATM   10  C   UNL     1     -11.670  13.662  67.428  1.00  0.00    -0.416 A  
HETATM   11 CL   UNL     1     -10.248  13.639  65.159  1.00  0.00    -0.358 Cl 
HETATM   12  C   UNL     1     -12.134  14.208  68.619  1.00  0.00    -0.320 A  
HETATM   13  C   UNL     1     -10.799  14.401  66.615  1.00  0.00    -0.304 A  
HETATM   14  C   UNL     1     -11.721  15.483  68.991  1.00  0.00    -0.392 A  
HETATM   15  C   UNL     1     -10.828  16.220  68.191  1.00  0.00    -0.342 A  
HETATM   16 CL   UNL     1     -10.280  17.696  68.902  1.00  0.00    -0.371 Cl 
ENDBRANCH   8   9
ENDBRANCH   2   8
TORSDOF 3
ENDMDL
MODEL       91
REMARK 921   NORMALIZED FREE ENERGY PREDICTED BY IDOCK:   -3.99 KCAL/MOL
REMARK 922        TOTAL FREE ENERGY PREDICTED BY IDOCK:   -5.18 KCAL/MOL
REMARK 923 INTER-LIGAND FREE ENERGY PREDICTED BY IDOCK:   -4.73 KCAL/MOL
REMARK 924 INTRA-LIGAND FREE ENERGY PREDICTED BY IDOCK:   -0.45 KCAL/MOL
REMARK 927      BINDING AFFINITY PREDICTED BY RF-SCORE:    0.00 PKD
ROOT
HETATM    1  C   UNL     1      -9.449   8.636  70.919  1.00  0.00    -0.242 C  
HETATM    2  C   UNL     1     -10.806   8.551  70.237  1.00  0.00    -0.238 C  
ENDROOT
BRANCH   2   3
HETATM    3  C   UNL     1     -11.823   9.357  71.041  1.00  0.00    -0.322 C  
HETATM    4  C   UNL     1     -13.120  10.998  71.761  1.00  0.00    -0.449 C  
HETATM    5  N   UNL     1     -12.036  10.632  70.801  1.00  0.00    -0.341 NA 
HETATM    6  N   UNL     1     -12.591   8.785  72.033  1.00  0.00    -0.358 NA 
HETATM    7  C   UNL     1     -13.694   9.677  72.287  1.00  0.00    -0.305 C  
ENDBRANCH   2   3
BRANCH   2   8
HETATM    8  O   UNL     1     -11.323   7.216  70.227  1.00  0.00    -0.281 OA 
BRANCH   8   9
HETATM    9  C   UNL     1     -10.628   6.182  69.662  1.00  0.00    -0.284 A  
HETATM   10  C   UNL     1      -9.624   3.984  70.124  1.00  0.00    -0.270 A  
HETATM   11 CL   UNL     1     -10.479   5.338  72.271  1.00  0.00    -0.264 Cl 
HETATM   12  C   UNL     1      -9.409   3.780  68.766  1.00  0.00    -0.230 A  
HETATM   13  C   UNL     1     -10.224   5.172  70.564  1.00  0.00    -0.260 A  
HETATM   14  C   UNL     1      -9.800   4.760  67.860  1.00  0.00    -0.191 A  
HETATM   15  C   UNL     1     -10.424   5.944  68.294  1.00  0.00    -0.236 A  
HETATM   16 CL   UNL     1     -11.009   6.955  67.019  1.00  0.00    -0.457 Cl 
ENDBRANCH   8   9
ENDBRANCH   2   8
TORSDOF 3
ENDMDL
MODEL       92
REMARK 921   NORMALIZED FREE ENERGY PREDICTED BY IDOCK:   -3.98 KCAL/MOL
REMARK 922        TOTAL FREE ENERGY PREDICTED BY IDOCK:   -5.17 KCAL/MOL
REMARK 923 INTER-LIGAND FREE ENERGY PREDICTED BY IDOCK:   -5.02 KCAL/MOL
REMARK 924 INTRA-LIGAND FREE ENERGY PREDICTED BY IDOCK:   -0.15 KCAL/MOL
REMARK 927      BINDING AFFINITY PREDICTED BY RF-SCORE:    0.00 PKD
ROOT
HETATM    1  C   UNL     1     -11.870  12.485  66.318  1.00  0.00    -0.453 C  
HETATM    2  C   UNL     1     -11.801  13.525  67.426  1.00  0.00    -0.384 C  
ENDROOT
BRANCH   2   3
HETATM    3  C   UNL     1     -11.236  14.825  66.861  1.00  0.00    -0.347 C  
HETATM    4  C   UNL     1     -10.659  16.447  65.471  1.00  0.00    -0.330 C  
HETATM    5  N   UNL     1     -11.249  15.079  65.571  1.00  0.00    -0.350 NA 
HETATM    6  N   UNL     1     -10.713  15.811  67.672  1.00  0.00    -0.305 NA 
HETATM    7  C   UNL     1     -10.661  17.022  66.892  1.00  0.00    -0.208 C  
ENDBRANCH   2   3
BRANCH   2   8
HETATM    8  O   UNL     1     -10.889  13.150  68.463  1.00  0.00    -0.246 OA 
BRANCH   8   9
HETATM    9  C   UNL     1     -11.067  12.010  69.198  1.00  0.00    -0.215 A  
HETATM   10  C   UNL     1     -12.379  11.016  71.027  1.00  0.00    -0.490 A  
HETATM   11 CL   UNL     1     -12.699  13.652  70.674  1.00  0.00    -0.342 Cl 
HETATM   12  C   UNL     1     -11.858   9.761  70.739  1.00  0.00    -0.400 A  
HETATM   13  C   UNL     1     -11.985  12.126  70.266  1.00  0.00    -0.305 A  
HETATM   14  C   UNL     1     -10.953   9.622  69.691  1.00  0.00    -0.253 A  
HETATM   15  C   UNL     1     -10.573  10.728  68.908  1.00  0.00    -0.216 A  
HETATM   16 CL   UNL     1      -9.594  10.334  67.540  1.00  0.00    -0.175 Cl 
ENDBRANCH   8   9
ENDBRANCH   2   8
TORSDOF 3
ENDMDL
MODEL       93
REMARK 921   NORMALIZED FREE ENERGY PREDICTED BY IDOCK:   -3.96 KCAL/MOL
REMARK 922        TOTAL FREE ENERGY PREDICTED BY IDOCK:   -5.14 KCAL/MOL
REMARK 923 INTER-LIGAND FREE ENERGY PREDICTED BY IDOCK:   -4.66 KCAL/MOL
REMARK 924 INTRA-LIGAND FREE ENERGY PREDICTED BY IDOCK:   -0.49 KCAL/MOL
REMARK 927      BINDING AFFINITY PREDICTED BY RF-SCORE:    0.00 PKD
ROOT
HETATM    1  C   UNL     1     -11.592   6.407  70.283  1.00  0.00    -0.451 C  
HETATM    2  C   UNL     1     -10.400   6.767  71.157  1.00  0.00    -0.205 C  
ENDROOT
BRANCH   2   3
HETATM    3  C   UNL     1     -10.373   5.847  72.374  1.00  0.00    -0.197 C  
HETATM    4  C   UNL     1     -10.485   5.090  74.451  1.00  0.00    -0.270 C  
HETATM    5  N   UNL     1     -10.526   6.313  73.594  1.00  0.00    -0.265 NA 
HETATM    6  N   UNL     1     -10.222   4.481  72.257  1.00  0.00    -0.190 NA 
HETATM    7  C   UNL     1     -10.647   3.895  73.503  1.00  0.00    -0.200 C  
ENDBRANCH   2   3
BRANCH   2   8
HETATM    8  O   UNL     1     -10.506   8.087  71.699  1.00  0.00    -0.207 OA 
BRANCH   8   9
HETATM    9  C   UNL     1     -10.920   9.145  70.936  1.00  0.00    -0.282 A  
HETATM   10  C   UNL     1     -12.656  10.875  70.723  1.00  0.00    -0.470 A  
HETATM   11 CL   UNL     1     -13.125   8.988  72.566  1.00  0.00    -0.487 Cl 
HETATM   12  C   UNL     1     -11.923  11.510  69.729  1.00  0.00    -0.415 A  
HETATM   13  C   UNL     1     -12.160   9.705  71.316  1.00  0.00    -0.371 A  
HETATM   14  C   UNL     1     -10.698  10.976  69.338  1.00  0.00    -0.247 A  
HETATM   15  C   UNL     1     -10.184   9.817  69.947  1.00  0.00    -0.254 A  
HETATM   16 CL   UNL     1      -8.573   9.412  69.471  1.00  0.00    -0.146 Cl 
ENDBRANCH   8   9
ENDBRANCH   2   8
TORSDOF 3
ENDMDL
MODEL       94
REMARK 921   NORMALIZED FREE ENERGY PREDICTED BY IDOCK:   -3.94 KCAL/MOL
REMARK 922        TOTAL FREE ENERGY PREDICTED BY IDOCK:   -5.12 KCAL/MOL
REMARK 923 INTER-LIGAND FREE ENERGY PREDICTED BY IDOCK:   -4.67 KCAL/MOL
REMARK 924 INTRA-LIGAND FREE ENERGY PREDICTED BY IDOCK:   -0.44 KCAL/MOL
REMARK 927      BINDING AFFINITY PREDICTED BY RF-SCORE:    0.00 PKD
ROOT
HETATM    1  C   UNL     1     -10.192  11.306  63.606  1.00  0.00    -0.446 C  
HETATM    2  C   UNL     1     -10.755  11.019  64.990  1.00  0.00    -0.194 C  
ENDROOT
BRANCH   2   3
HETATM    3  C   UNL     1     -11.375  12.295  65.554  1.00  0.00    -0.349 C  
HETATM    4  C   UNL     1     -11.651  14.216  66.617  1.00  0.00    -0.384 C  
HETATM    5  N   UNL     1     -10.704  13.091  66.357  1.00  0.00    -0.280 NA 
HETATM    6  N   UNL     1     -12.654  12.695  65.227  1.00  0.00    -0.663 NA 
HETATM    7  C   UNL     1     -12.768  14.089  65.574  1.00  0.00    -0.486 C  
ENDBRANCH   2   3
BRANCH   2   8
HETATM    8  O   UNL     1      -9.732  10.665  65.927  1.00  0.00    -0.202 OA 
BRANCH   8   9
HETATM    9  C   UNL     1      -9.600   9.386  66.396  1.00  0.00    -0.224 A  
HETATM   10  C   UNL     1     -10.395   7.815  68.113  1.00  0.00    -0.248 A  
HETATM   11 CL   UNL     1     -11.168  10.359  68.430  1.00  0.00    -0.327 Cl 
HETATM   12  C   UNL     1      -9.751   6.764  67.471  1.00  0.00    -0.154 A  
HETATM   13  C   UNL     1     -10.317   9.110  67.581  1.00  0.00    -0.255 A  
HETATM   14  C   UNL     1      -9.040   7.013  66.301  1.00  0.00    -0.178 A  
HETATM   15  C   UNL     1      -8.978   8.306  65.750  1.00  0.00    -0.138 A  
HETATM   16 CL   UNL     1      -8.215   8.389  64.202  1.00  0.00    -0.148 Cl 
ENDBRANCH   8   9
ENDBRANCH   2   8
TORSDOF 3
ENDMDL
MODEL       95
REMARK 921   NORMALIZED FREE ENERGY PREDICTED BY IDOCK:   -3.94 KCAL/MOL
REMARK 922        TOTAL FREE ENERGY PREDICTED BY IDOCK:   -5.12 KCAL/MOL
REMARK 923 INTER-LIGAND FREE ENERGY PREDICTED BY IDOCK:   -4.75 KCAL/MOL
REMARK 924 INTRA-LIGAND FREE ENERGY PREDICTED BY IDOCK:   -0.37 KCAL/MOL
REMARK 927      BINDING AFFINITY PREDICTED BY RF-SCORE:    0.00 PKD
ROOT
HETATM    1  C   UNL     1     -10.784   8.890  68.537  1.00  0.00    -0.124 C  
HETATM    2  C   UNL     1     -10.927   9.973  69.595  1.00  0.00    -0.264 C  
ENDROOT
BRANCH   2   3
HETATM    3  C   UNL     1     -11.158   9.319  70.955  1.00  0.00    -0.306 C  
HETATM    4  C   UNL     1     -12.136   8.465  72.747  1.00  0.00    -0.119 C  
HETATM    5  N   UNL     1     -12.365   9.186  71.460  1.00  0.00    -0.328 NA 
HETATM    6  N   UNL     1     -10.122   8.805  71.706  1.00  0.00    -0.306 NA 
HETATM    7  C   UNL     1     -10.703   7.923  72.688  1.00  0.00    -0.347 C  
ENDBRANCH   2   3
BRANCH   2   8
HETATM    8  O   UNL     1     -12.083  10.789  69.381  1.00  0.00    -0.308 OA 
BRANCH   8   9
HETATM    9  C   UNL     1     -11.978  12.091  68.976  1.00  0.00    -0.264 A  
HETATM   10  C   UNL     1     -12.073  14.422  69.756  1.00  0.00    -0.386 A  
HETATM   11 CL   UNL     1     -12.851  12.576  71.534  1.00  0.00    -0.426 Cl 
HETATM   12  C   UNL     1     -11.589  14.867  68.532  1.00  0.00    -0.347 A  
HETATM   13  C   UNL     1     -12.266  13.050  69.972  1.00  0.00    -0.236 A  
HETATM   14  C   UNL     1     -11.297  13.941  67.536  1.00  0.00    -0.342 A  
HETATM   15  C   UNL     1     -11.466  12.561  67.756  1.00  0.00    -0.321 A  
HETATM   16 CL   UNL     1     -10.874  11.555  66.481  1.00  0.00    -0.322 Cl 
ENDBRANCH   8   9
ENDBRANCH   2   8
TORSDOF 3
ENDMDL
MODEL       96
REMARK 921   NORMALIZED FREE ENERGY PREDICTED BY IDOCK:   -3.94 KCAL/MOL
REMARK 922        TOTAL FREE ENERGY PREDICTED BY IDOCK:   -5.12 KCAL/MOL
REMARK 923 INTER-LIGAND FREE ENERGY PREDICTED BY IDOCK:   -4.67 KCAL/MOL
REMARK 924 INTRA-LIGAND FREE ENERGY PREDICTED BY IDOCK:   -0.44 KCAL/MOL
REMARK 927      BINDING AFFINITY PREDICTED BY RF-SCORE:    0.00 PKD
ROOT
HETATM    1  C   UNL     1     -11.882  13.178  69.356  1.00  0.00    -0.383 C  
HETATM    2  C   UNL     1     -11.028  12.664  68.207  1.00  0.00    -0.248 C  
ENDROOT
BRANCH   2   3
HETATM    3  C   UNL     1     -10.998  13.710  67.096  1.00  0.00    -0.288 C  
HETATM    4  C   UNL     1     -11.534  14.926  65.327  1.00  0.00    -0.336 C  
HETATM    5  N   UNL     1     -11.911  13.738  66.150  1.00  0.00    -0.376 NA 
HETATM    6  N   UNL     1     -10.035  14.697  67.046  1.00  0.00    -0.243 NA 
HETATM    7  C   UNL     1     -10.522  15.724  66.158  1.00  0.00    -0.317 C  
ENDBRANCH   2   3
BRANCH   2   8
HETATM    8  O   UNL     1     -11.591  11.498  67.595  1.00  0.00    -0.442 OA 
BRANCH   8   9
HETATM    9  C   UNL     1     -10.971  10.280  67.665  1.00  0.00    -0.294 A  
HETATM   10  C   UNL     1      -9.548   8.707  66.420  1.00  0.00    -0.316 A  
HETATM   11 CL   UNL     1     -10.485  10.782  65.010  1.00  0.00    -0.344 Cl 
HETATM   12  C   UNL     1      -9.375   7.936  67.563  1.00  0.00    -0.166 A  
HETATM   13  C   UNL     1     -10.339   9.864  66.473  1.00  0.00    -0.188 A  
HETATM   14  C   UNL     1      -9.987   8.328  68.749  1.00  0.00    -0.193 A  
HETATM   15  C   UNL     1     -10.762   9.501  68.814  1.00  0.00    -0.190 A  
HETATM   16 CL   UNL     1     -11.283   9.928  70.405  1.00  0.00    -0.348 Cl 
ENDBRANCH   8   9
ENDBRANCH   2   8
TORSDOF 3
ENDMDL
MODEL       97
REMARK 921   NORMALIZED FREE ENERGY PREDICTED BY IDOCK:   -3.94 KCAL/MOL
REMARK 922        TOTAL FREE ENERGY PREDICTED BY IDOCK:   -5.12 KCAL/MOL
REMARK 923 INTER-LIGAND FREE ENERGY PREDICTED BY IDOCK:   -4.61 KCAL/MOL
REMARK 924 INTRA-LIGAND FREE ENERGY PREDICTED BY IDOCK:   -0.50 KCAL/MOL
REMARK 927      BINDING AFFINITY PREDICTED BY RF-SCORE:    0.00 PKD
ROOT
HETATM    1  C   UNL     1      -9.849  10.552  63.203  1.00  0.00    -0.295 C  
HETATM    2  C   UNL     1      -9.558  11.013  64.623  1.00  0.00    -0.254 C  
ENDROOT
BRANCH   2   3
HETATM    3  C   UNL     1      -9.532   9.800  65.550  1.00  0.00    -0.262 C  
HETATM    4  C   UNL     1     -10.075   8.314  67.097  1.00  0.00    -0.264 C  
HETATM    5  N   UNL     1     -10.449   9.620  66.475  1.00  0.00    -0.186 NA 
HETATM    6  N   UNL     1      -8.569   8.819  65.444  1.00  0.00    -0.169 NA 
HETATM    7  C   UNL     1      -9.059   7.662  66.152  1.00  0.00    -0.144 C  
ENDBRANCH   2   3
BRANCH   2   8
HETATM    8  O   UNL     1     -10.597  11.849  65.144  1.00  0.00    -0.267 OA 
BRANCH   8   9
HETATM    9  C   UNL     1     -10.423  13.197  65.301  1.00  0.00    -0.307 A  
HETATM   10  C   UNL     1     -11.257  15.398  64.590  1.00  0.00    -0.374 A  
HETATM   11 CL   UNL     1     -12.219  13.303  63.228  1.00  0.00    -0.536 Cl 
HETATM   12  C   UNL     1     -10.493  16.021  65.569  1.00  0.00    -0.426 A  
HETATM   13  C   UNL     1     -11.219  14.003  64.458  1.00  0.00    -0.350 A  
HETATM   14  C   UNL     1      -9.702  15.247  66.412  1.00  0.00    -0.308 A  
HETATM   15  C   UNL     1      -9.678  13.844  66.300  1.00  0.00    -0.289 A  
HETATM   16 CL   UNL     1      -8.792  13.041  67.547  1.00  0.00    -0.184 Cl 
ENDBRANCH   8   9
ENDBRANCH   2   8
TORSDOF 3
ENDMDL
MODEL       98
REMARK 921   NORMALIZED FREE ENERGY PREDICTED BY IDOCK:   -3.94 KCAL/MOL
REMARK 922        TOTAL FREE ENERGY PREDICTED BY IDOCK:   -5.11 KCAL/MOL
REMARK 923 INTER-LIGAND FREE ENERGY PREDICTED BY IDOCK:   -5.25 KCAL/MOL
REMARK 924 INTRA-LIGAND FREE ENERGY PREDICTED BY IDOCK:    0.14 KCAL/MOL
REMARK 927      BINDING AFFINITY PREDICTED BY RF-SCORE:    0.00 PKD
ROOT
HETATM    1  C   UNL     1      -6.198  21.204  67.583  1.00  0.00    -0.426 C  
HETATM    2  C   UNL     1      -6.958  20.086  68.281  1.00  0.00    -0.295 C  
ENDROOT
BRANCH   2   3
HETATM    3  C   UNL     1      -6.220  19.702  69.562  1.00  0.00    -0.314 C  
HETATM    4  C   UNL     1      -5.490  19.679  71.650  1.00  0.00    -0.381 C  
HETATM    5  N   UNL     1      -6.305  20.433  70.652  1.00  0.00    -0.496 NA 
HETATM    6  N   UNL     1      -5.457  18.557  69.652  1.00  0.00    -0.205 NA 
HETATM    7  C   UNL     1      -5.258  18.286  71.054  1.00  0.00    -0.271 C  
ENDBRANCH   2   3
BRANCH   2   8
HETATM    8  O   UNL     1      -6.988  18.885  67.503  1.00  0.00    -0.202 OA 
BRANCH   8   9
HETATM    9  C   UNL     1      -8.147  18.426  66.938  1.00  0.00    -0.245 A  
HETATM   10  C   UNL     1      -9.345  16.390  66.253  1.00  0.00    -0.348 A  
HETATM   11 CL   UNL     1      -6.790  16.038  66.978  1.00  0.00    -0.228 Cl 
HETATM   12  C   UNL     1     -10.500  17.127  66.028  1.00  0.00    -0.271 A  
HETATM   13  C   UNL     1      -8.182  17.034  66.700  1.00  0.00    -0.260 A  
HETATM   14  C   UNL     1     -10.489  18.499  66.257  1.00  0.00    -0.441 A  
HETATM   15  C   UNL     1      -9.332  19.148  66.729  1.00  0.00    -0.323 A  
HETATM   16 CL   UNL     1      -9.559  20.812  67.135  1.00  0.00    -0.544 Cl 
ENDBRANCH   8   9
ENDBRANCH   2   8
TORSDOF 3
ENDMDL
MODEL       99
REMARK 921   NORMALIZED FREE ENERGY PREDICTED BY IDOCK:   -3.92 KCAL/MOL
REMARK 922        TOTAL FREE ENERGY PREDICTED BY IDOCK:   -5.10 KCAL/MOL
REMARK 923 INTER-LIGAND FREE ENERGY PREDICTED BY IDOCK:   -4.58 KCAL/MOL
REMARK 924 INTRA-LIGAND FREE ENERGY PREDICTED BY IDOCK:   -0.52 KCAL/MOL
REMARK 927      BINDING AFFINITY PREDICTED BY RF-SCORE:    0.00 PKD
ROOT
HETATM    1  C   UNL     1     -11.912  12.455  64.754  1.00  0.00    -0.462 C  
HETATM    2  C   UNL     1     -10.565  12.439  65.461  1.00  0.00    -0.275 C  
ENDROOT
BRANCH   2   3
HETATM    3  C   UNL     1     -10.413  11.124  66.221  1.00  0.00    -0.259 C  
HETATM    4  C   UNL     1     -10.748   9.448  67.626  1.00  0.00    -0.230 C  
HETATM    5  N   UNL     1     -11.211  10.808  67.218  1.00  0.00    -0.374 NA 
HETATM    6  N   UNL     1      -9.457  10.190  65.883  1.00  0.00    -0.182 NA 
HETATM    7  C   UNL     1      -9.844   8.943  66.495  1.00  0.00    -0.274 C  
ENDBRANCH   2   3
BRANCH   2   8
HETATM    8  O   UNL     1     -10.471  13.455  66.465  1.00  0.00    -0.276 OA 
BRANCH   8   9
HETATM    9  C   UNL     1      -9.351  14.231  66.598  1.00  0.00    -0.284 A  
HETATM   10  C   UNL     1      -8.450  16.488  66.221  1.00  0.00    -0.363 A  
HETATM   11 CL   UNL     1     -10.860  16.014  65.154  1.00  0.00    -0.436 Cl 
HETATM   12  C   UNL     1      -7.308  16.169  66.945  1.00  0.00    -0.255 A  
HETATM   13  C   UNL     1      -9.457  15.528  66.049  1.00  0.00    -0.352 A  
HETATM   14  C   UNL     1      -7.183  14.898  67.496  1.00  0.00    -0.227 A  
HETATM   15  C   UNL     1      -8.201  13.938  67.347  1.00  0.00    -0.187 A  
HETATM   16 CL   UNL     1      -7.956  12.488  68.254  1.00  0.00    -0.148 Cl 
ENDBRANCH   8   9
ENDBRANCH   2   8
TORSDOF 3
ENDMDL
MODEL      100
REMARK 921   NORMALIZED FREE ENERGY PREDICTED BY IDOCK:   -3.91 KCAL/MOL
REMARK 922        TOTAL FREE ENERGY PREDICTED BY IDOCK:   -5.08 KCAL/MOL
REMARK 923 INTER-LIGAND FREE ENERGY PREDICTED BY IDOCK:   -4.74 KCAL/MOL
REMARK 924 INTRA-LIGAND FREE ENERGY PREDICTED BY IDOCK:   -0.34 KCAL/MOL
REMARK 927      BINDING AFFINITY PREDICTED BY RF-SCORE:    0.00 PKD
ROOT
HETATM    1  C   UNL     1     -12.245  10.604  70.038  1.00  0.00    -0.373 C  
HETATM    2  C   UNL     1     -10.845  11.032  69.625  1.00  0.00    -0.183 C  
ENDROOT
BRANCH   2   3
HETATM    3  C   UNL     1     -10.914  11.736  68.272  1.00  0.00    -0.229 C  
HETATM    4  C   UNL     1     -11.673  12.691  66.426  1.00  0.00    -0.405 C  
HETATM    5  N   UNL     1     -12.059  11.946  67.662  1.00  0.00    -0.528 NA 
HETATM    6  N   UNL     1      -9.787  12.216  67.638  1.00  0.00    -0.191 NA 
HETATM    7  C   UNL     1     -10.227  13.155  66.637  1.00  0.00    -0.259 C  
ENDBRANCH   2   3
BRANCH   2   8
HETATM    8  O   UNL     1      -9.979   9.913  69.411  1.00  0.00    -0.187 OA 
BRANCH   8   9
HETATM    9  C   UNL     1     -10.413   8.627  69.582  1.00  0.00    -0.220 A  
HETATM   10  C   UNL     1     -10.867   6.517  68.403  1.00  0.00    -0.357 A  
HETATM   11 CL   UNL     1     -10.346   8.626  66.837  1.00  0.00    -0.363 Cl 
HETATM   12  C   UNL     1     -11.035   5.858  69.615  1.00  0.00    -0.447 A  
HETATM   13  C   UNL     1     -10.562   7.885  68.389  1.00  0.00    -0.107 A  
HETATM   14  C   UNL     1     -10.891   6.568  70.802  1.00  0.00    -0.311 A  
HETATM   15  C   UNL     1     -10.561   7.936  70.795  1.00  0.00    -0.214 A  
HETATM   16 CL   UNL     1     -10.238   8.603  72.356  1.00  0.00    -0.367 Cl 
ENDBRANCH   8   9
ENDBRANCH   2   8
TORSDOF 3
ENDMDL
MODEL      101
REMARK 921   NORMALIZED FREE ENERGY PREDICTED BY IDOCK:   -3.82 KCAL/MOL
REMARK 922        TOTAL FREE ENERGY PREDICTED BY IDOCK:   -4.98 KCAL/MOL
REMARK 923 INTER-LIGAND FREE ENERGY PREDICTED BY IDOCK:   -4.58 KCAL/MOL
REMARK 924 INTRA-LIGAND FREE ENERGY PREDICTED BY IDOCK:   -0.40 KCAL/MOL
REMARK 927      BINDING AFFINITY PREDICTED BY RF-SCORE:    0.00 PKD
ROOT
HETATM    1  C   UNL     1      -9.738   7.274  66.740  1.00  0.00    -0.260 C  
HETATM    2  C   UNL     1     -10.283   8.694  66.778  1.00  0.00    -0.291 C  
ENDROOT
BRANCH   2   3
HETATM    3  C   UNL     1      -9.725   9.478  65.593  1.00  0.00    -0.290 C  
HETATM    4  C   UNL     1      -8.461  10.120  63.895  1.00  0.00    -0.181 C  
HETATM    5  N   UNL     1      -8.596   9.138  65.012  1.00  0.00    -0.171 NA 
HETATM    6  N   UNL     1     -10.391  10.558  65.052  1.00  0.00    -0.295 NA 
HETATM    7  C   UNL     1      -9.831  10.792  63.744  1.00  0.00    -0.339 C  
ENDBRANCH   2   3
BRANCH   2   8
HETATM    8  O   UNL     1      -9.837   9.412  67.934  1.00  0.00    -0.154 OA 
BRANCH   8   9
HETATM    9  C   UNL     1     -10.692   9.730  68.954  1.00  0.00    -0.217 A  
HETATM   10  C   UNL     1     -11.248   9.236  71.299  1.00  0.00    -0.425 A  
HETATM   11 CL   UNL     1      -9.455   7.600  70.167  1.00  0.00    -0.161 Cl 
HETATM   12  C   UNL     1     -12.123  10.314  71.334  1.00  0.00    -0.457 A  
HETATM   13  C   UNL     1     -10.544   8.948  70.121  1.00  0.00    -0.222 A  
HETATM   14  C   UNL     1     -12.284  11.100  70.197  1.00  0.00    -0.417 A  
HETATM   15  C   UNL     1     -11.561  10.830  69.020  1.00  0.00    -0.299 A  
HETATM   16 CL   UNL     1     -11.745  12.018  67.778  1.00  0.00    -0.399 Cl 
ENDBRANCH   8   9
ENDBRANCH   2   8
TORSDOF 3
ENDMDL
MODEL      102
REMARK 921   NORMALIZED FREE ENERGY PREDICTED BY IDOCK:   -3.82 KCAL/MOL
REMARK 922        TOTAL FREE ENERGY PREDICTED BY IDOCK:   -4.97 KCAL/MOL
REMARK 923 INTER-LIGAND FREE ENERGY PREDICTED BY IDOCK:   -4.49 KCAL/MOL
REMARK 924 INTRA-LIGAND FREE ENERGY PREDICTED BY IDOCK:   -0.48 KCAL/MOL
REMARK 927      BINDING AFFINITY PREDICTED BY RF-SCORE:    0.00 PKD
ROOT
HETATM    1  C   UNL     1      -9.829   9.748  65.569  1.00  0.00    -0.378 C  
HETATM    2  C   UNL     1      -9.631  10.897  66.547  1.00  0.00    -0.194 C  
ENDROOT
BRANCH   2   3
HETATM    3  C   UNL     1      -9.578  10.343  67.968  1.00  0.00    -0.143 C  
HETATM    4  C   UNL     1      -8.872   9.773  69.986  1.00  0.00    -0.215 C  
HETATM    5  N   UNL     1      -8.464  10.344  68.668  1.00  0.00    -0.121 NA 
HETATM    6  N   UNL     1     -10.697   9.845  68.602  1.00  0.00    -0.223 NA 
HETATM    7  C   UNL     1     -10.404   9.801  70.013  1.00  0.00    -0.263 C  
ENDBRANCH   2   3
BRANCH   2   8
HETATM    8  O   UNL     1     -10.739  11.802  66.548  1.00  0.00    -0.244 OA 
BRANCH   8   9
HETATM    9  C   UNL     1     -10.628  13.073  66.053  1.00  0.00    -0.279 A  
HETATM   10  C   UNL     1     -11.541  14.637  64.389  1.00  0.00    -0.315 A  
HETATM   11 CL   UNL     1     -12.377  12.102  64.172  1.00  0.00    -0.512 Cl 
HETATM   12  C   UNL     1     -10.830  15.684  64.961  1.00  0.00    -0.468 A  
HETATM   13  C   UNL     1     -11.438  13.347  64.929  1.00  0.00    -0.325 A  
HETATM   14  C   UNL     1     -10.026  15.438  66.069  1.00  0.00    -0.350 A  
HETATM   15  C   UNL     1      -9.938  14.150  66.630  1.00  0.00    -0.277 A  
HETATM   16 CL   UNL     1      -9.048  14.073  68.109  1.00  0.00    -0.186 Cl 
ENDBRANCH   8   9
ENDBRANCH   2   8
TORSDOF 3
ENDMDL
MODEL      103
REMARK 921   NORMALIZED FREE ENERGY PREDICTED BY IDOCK:   -3.80 KCAL/MOL
REMARK 922        TOTAL FREE ENERGY PREDICTED BY IDOCK:   -4.96 KCAL/MOL
REMARK 923 INTER-LIGAND FREE ENERGY PREDICTED BY IDOCK:   -4.50 KCAL/MOL
REMARK 924 INTRA-LIGAND FREE ENERGY PREDICTED BY IDOCK:   -0.45 KCAL/MOL
REMARK 927      BINDING AFFINITY PREDICTED BY RF-SCORE:    0.00 PKD
ROOT
HETATM    1  C   UNL     1     -10.704   5.621  70.147  1.00  0.00    -0.376 C  
HETATM    2  C   UNL     1     -10.892   6.785  69.185  1.00  0.00    -0.258 C  
ENDROOT
BRANCH   2   3
HETATM    3  C   UNL     1     -10.246   6.439  67.846  1.00  0.00    -0.168 C  
HETATM    4  C   UNL     1      -8.788   6.249  66.193  1.00  0.00    -0.153 C  
HETATM    5  N   UNL     1      -9.032   6.842  67.542  1.00  0.00    -0.117 NA 
HETATM    6  N   UNL     1     -10.887   5.662  66.903  1.00  0.00    -0.264 NA 
HETATM    7  C   UNL     1      -9.882   5.196  65.981  1.00  0.00    -0.163 C  
ENDBRANCH   2   3
BRANCH   2   8
HETATM    8  O   UNL     1     -10.211   7.965  69.625  1.00  0.00    -0.197 OA 
BRANCH   8   9
HETATM    9  C   UNL     1     -10.894   9.055  70.092  1.00  0.00    -0.237 A  
HETATM   10  C   UNL     1     -11.908  11.194  69.423  1.00  0.00    -0.415 A  
HETATM   11 CL   UNL     1     -10.420   9.984  67.553  1.00  0.00    -0.286 Cl 
HETATM   12  C   UNL     1     -12.506  11.318  70.671  1.00  0.00    -0.439 A  
HETATM   13  C   UNL     1     -11.110  10.076  69.141  1.00  0.00    -0.190 A  
HETATM   14  C   UNL     1     -12.308  10.324  71.624  1.00  0.00    -0.445 A  
HETATM   15  C   UNL     1     -11.528   9.188  71.338  1.00  0.00    -0.350 A  
HETATM   16 CL   UNL     1     -11.550   7.976  72.569  1.00  0.00    -0.447 Cl 
ENDBRANCH   8   9
ENDBRANCH   2   8
TORSDOF 3
ENDMDL
MODEL      104
REMARK 921   NORMALIZED FREE ENERGY PREDICTED BY IDOCK:   -3.77 KCAL/MOL
REMARK 922        TOTAL FREE ENERGY PREDICTED BY IDOCK:   -4.92 KCAL/MOL
REMARK 923 INTER-LIGAND FREE ENERGY PREDICTED BY IDOCK:   -4.60 KCAL/MOL
REMARK 924 INTRA-LIGAND FREE ENERGY PREDICTED BY IDOCK:   -0.32 KCAL/MOL
REMARK 927      BINDING AFFINITY PREDICTED BY RF-SCORE:    0.00 PKD
ROOT
HETATM    1  C   UNL     1      -9.545  10.217  64.677  1.00  0.00    -0.374 C  
HETATM    2  C   UNL     1      -9.718  10.848  66.051  1.00  0.00    -0.224 C  
ENDROOT
BRANCH   2   3
HETATM    3  C   UNL     1      -9.630   9.759  67.117  1.00  0.00    -0.169 C  
HETATM    4  C   UNL     1     -10.171   8.202  68.593  1.00  0.00    -0.207 C  
HETATM    5  N   UNL     1     -10.708   9.241  67.664  1.00  0.00    -0.255 NA 
HETATM    6  N   UNL     1      -8.422   9.242  67.538  1.00  0.00    -0.115 NA 
HETATM    7  C   UNL     1      -8.701   7.996  68.207  1.00  0.00    -0.130 C  
ENDBRANCH   2   3
BRANCH   2   8
HETATM    8  O   UNL     1     -11.017  11.423  66.222  1.00  0.00    -0.285 OA 
BRANCH   8   9
HETATM    9  C   UNL     1     -11.307  12.686  65.782  1.00  0.00    -0.333 A  
HETATM   10  C   UNL     1     -10.893  15.073  66.202  1.00  0.00    -0.329 A  
HETATM   11 CL   UNL     1     -10.004  13.397  68.092  1.00  0.00    -0.232 Cl 
HETATM   12  C   UNL     1     -11.503  15.406  64.999  1.00  0.00    -0.263 A  
HETATM   13  C   UNL     1     -10.800  13.729  66.588  1.00  0.00    -0.288 A  
HETATM   14  C   UNL     1     -12.008  14.395  64.188  1.00  0.00    -0.373 A  
HETATM   15  C   UNL     1     -11.896  13.042  64.558  1.00  0.00    -0.377 A  
HETATM   16 CL   UNL     1     -12.406  11.923  63.345  1.00  0.00    -0.647 Cl 
ENDBRANCH   8   9
ENDBRANCH   2   8
TORSDOF 3
ENDMDL
MODEL      105
REMARK 921   NORMALIZED FREE ENERGY PREDICTED BY IDOCK:   -3.77 KCAL/MOL
REMARK 922        TOTAL FREE ENERGY PREDICTED BY IDOCK:   -4.92 KCAL/MOL
REMARK 923 INTER-LIGAND FREE ENERGY PREDICTED BY IDOCK:   -4.48 KCAL/MOL
REMARK 924 INTRA-LIGAND FREE ENERGY PREDICTED BY IDOCK:   -0.44 KCAL/MOL
REMARK 927      BINDING AFFINITY PREDICTED BY RF-SCORE:    0.00 PKD
ROOT
HETATM    1  C   UNL     1     -12.696   9.674  72.003  1.00  0.00    -0.470 C  
HETATM    2  C   UNL     1     -12.067   8.590  71.140  1.00  0.00    -0.252 C  
ENDROOT
BRANCH   2   3
HETATM    3  C   UNL     1     -11.667   7.413  72.026  1.00  0.00    -0.289 C  
HETATM    4  C   UNL     1     -11.315   5.363  72.780  1.00  0.00    -0.296 C  
HETATM    5  N   UNL     1     -11.905   6.170  71.670  1.00  0.00    -0.249 NA 
HETATM    6  N   UNL     1     -11.009   7.590  73.225  1.00  0.00    -0.375 NA 
HETATM    7  C   UNL     1     -10.429   6.320  73.586  1.00  0.00    -0.284 C  
ENDBRANCH   2   3
BRANCH   2   8
HETATM    8  O   UNL     1     -10.846   9.023  70.533  1.00  0.00    -0.228 OA 
BRANCH   8   9
HETATM    9  C   UNL     1     -10.621   8.879  69.191  1.00  0.00    -0.195 A  
HETATM   10  C   UNL     1     -10.452  10.108  67.068  1.00  0.00    -0.302 A  
HETATM   11 CL   UNL     1     -11.355  11.524  69.154  1.00  0.00    -0.318 Cl 
HETATM   12  C   UNL     1      -9.966   8.973  66.431  1.00  0.00    -0.370 A  
HETATM   13  C   UNL     1     -10.777  10.058  68.431  1.00  0.00    -0.234 A  
HETATM   14  C   UNL     1      -9.803   7.800  67.161  1.00  0.00    -0.270 A  
HETATM   15  C   UNL     1     -10.105   7.750  68.534  1.00  0.00    -0.199 A  
HETATM   16 CL   UNL     1      -9.661   6.272  69.313  1.00  0.00    -0.149 Cl 
ENDBRANCH   8   9
ENDBRANCH   2   8
TORSDOF 3
ENDMDL
MODEL      106
REMARK 921   NORMALIZED FREE ENERGY PREDICTED BY IDOCK:   -3.73 KCAL/MOL
REMARK 922        TOTAL FREE ENERGY PREDICTED BY IDOCK:   -4.87 KCAL/MOL
REMARK 923 INTER-LIGAND FREE ENERGY PREDICTED BY IDOCK:   -4.32 KCAL/MOL
REMARK 924 INTRA-LIGAND FREE ENERGY PREDICTED BY IDOCK:   -0.56 KCAL/MOL
REMARK 927      BINDING AFFINITY PREDICTED BY RF-SCORE:    0.00 PKD
ROOT
HETATM    1  C   UNL     1      -8.302   8.501  68.773  1.00  0.00    -0.122 C  
HETATM    2  C   UNL     1      -9.268   8.309  69.933  1.00  0.00    -0.154 C  
ENDROOT
BRANCH   2   3
HETATM    3  C   UNL     1      -9.311   6.831  70.311  1.00  0.00    -0.159 C  
HETATM    4  C   UNL     1      -9.228   4.945  71.465  1.00  0.00    -0.145 C  
HETATM    5  N   UNL     1      -9.006   6.421  71.523  1.00  0.00    -0.144 NA 
HETATM    6  N   UNL     1      -9.702   5.857  69.416  1.00  0.00    -0.146 NA 
HETATM    7  C   UNL     1     -10.024   4.679  70.182  1.00  0.00    -0.233 C  
ENDBRANCH   2   3
BRANCH   2   8
HETATM    8  O   UNL     1     -10.615   8.634  69.573  1.00  0.00    -0.223 OA 
BRANCH   8   9
HETATM    9  C   UNL     1     -11.445   9.303  70.431  1.00  0.00    -0.213 A  
HETATM   10  C   UNL     1     -12.442  11.500  70.912  1.00  0.00    -0.464 A  
HETATM   11 CL   UNL     1     -10.539  11.483  69.027  1.00  0.00    -0.227 Cl 
HETATM   12  C   UNL     1     -13.281  10.928  71.860  1.00  0.00    -0.508 A  
HETATM   13  C   UNL     1     -11.534  10.695  70.209  1.00  0.00    -0.337 A  
HETATM   14  C   UNL     1     -13.212   9.559  72.095  1.00  0.00    -0.539 A  
HETATM   15  C   UNL     1     -12.320   8.742  71.375  1.00  0.00    -0.306 A  
HETATM   16 CL   UNL     1     -12.507   7.049  71.662  1.00  0.00    -0.395 Cl 
ENDBRANCH   8   9
ENDBRANCH   2   8
TORSDOF 3
ENDMDL
MODEL      107
REMARK 921   NORMALIZED FREE ENERGY PREDICTED BY IDOCK:   -3.72 KCAL/MOL
REMARK 922        TOTAL FREE ENERGY PREDICTED BY IDOCK:   -4.86 KCAL/MOL
REMARK 923 INTER-LIGAND FREE ENERGY PREDICTED BY IDOCK:   -4.33 KCAL/MOL
REMARK 924 INTRA-LIGAND FREE ENERGY PREDICTED BY IDOCK:   -0.54 KCAL/MOL
REMARK 927      BINDING AFFINITY PREDICTED BY RF-SCORE:    0.00 PKD
ROOT
HETATM    1  C   UNL     1     -10.029   8.855  67.868  1.00  0.00    -0.223 C  
HETATM    2  C   UNL     1      -9.940   9.204  66.390  1.00  0.00    -0.288 C  
ENDROOT
BRANCH   2   3
HETATM    3  C   UNL     1      -8.716   8.521  65.786  1.00  0.00    -0.179 C  
HETATM    4  C   UNL     1      -6.702   8.158  64.945  1.00  0.00    -0.055 C  
HETATM    5  N   UNL     1      -7.654   9.205  65.423  1.00  0.00    -0.096 NA 
HETATM    6  N   UNL     1      -8.649   7.153  65.619  1.00  0.00    -0.137 NA 
HETATM    7  C   UNL     1      -7.260   6.815  65.429  1.00  0.00    -0.077 C  
ENDBRANCH   2   3
BRANCH   2   8
HETATM    8  O   UNL     1      -9.721  10.602  66.178  1.00  0.00    -0.190 OA 
BRANCH   8   9
HETATM    9  C   UNL     1     -10.614  11.371  65.483  1.00  0.00    -0.271 A  
HETATM   10  C   UNL     1     -12.188  13.251  65.686  1.00  0.00    -0.514 A  
HETATM   11 CL   UNL     1     -11.183  12.331  67.992  1.00  0.00    -0.294 Cl 
HETATM   12  C   UNL     1     -12.341  13.291  64.305  1.00  0.00    -0.406 A  
HETATM   13  C   UNL     1     -11.336  12.299  66.265  1.00  0.00    -0.345 A  
HETATM   14  C   UNL     1     -11.639  12.387  63.515  1.00  0.00    -0.577 A  
HETATM   15  C   UNL     1     -10.764  11.446  64.089  1.00  0.00    -0.371 A  
HETATM   16 CL   UNL     1      -9.838  10.538  62.947  1.00  0.00    -0.307 Cl 
ENDBRANCH   8   9
ENDBRANCH   2   8
TORSDOF 3
ENDMDL
MODEL      108
REMARK 921   NORMALIZED FREE ENERGY PREDICTED BY IDOCK:   -3.72 KCAL/MOL
REMARK 922        TOTAL FREE ENERGY PREDICTED BY IDOCK:   -4.86 KCAL/MOL
REMARK 923 INTER-LIGAND FREE ENERGY PREDICTED BY IDOCK:   -4.56 KCAL/MOL
REMARK 924 INTRA-LIGAND FREE ENERGY PREDICTED BY IDOCK:   -0.30 KCAL/MOL
REMARK 927      BINDING AFFINITY PREDICTED BY RF-SCORE:    0.00 PKD
ROOT
HETATM    1  C   UNL     1      -9.915   7.879  73.222  1.00  0.00    -0.331 C  
HETATM    2  C   UNL     1     -10.624   7.760  71.881  1.00  0.00    -0.223 C  
ENDROOT
BRANCH   2   3
HETATM    3  C   UNL     1     -11.674   8.863  71.768  1.00  0.00    -0.362 C  
HETATM    4  C   UNL     1     -13.496  10.080  72.071  1.00  0.00    -0.347 C  
HETATM    5  N   UNL     1     -12.812   8.800  72.423  1.00  0.00    -0.394 NA 
HETATM    6  N   UNL     1     -11.469   9.993  71.004  1.00  0.00    -0.374 NA 
HETATM    7  C   UNL     1     -12.429  10.979  71.435  1.00  0.00    -0.331 C  
ENDBRANCH   2   3
BRANCH   2   8
HETATM    8  O   UNL     1     -11.363   6.540  71.767  1.00  0.00    -0.254 OA 
BRANCH   8   9
HETATM    9  C   UNL     1     -10.763   5.371  71.386  1.00  0.00    -0.188 A  
HETATM   10  C   UNL     1      -9.704   4.212  69.492  1.00  0.00    -0.254 A  
HETATM   11 CL   UNL     1     -10.922   6.522  68.899  1.00  0.00    -0.354 Cl 
HETATM   12  C   UNL     1      -9.273   3.195  70.336  1.00  0.00    -0.215 A  
HETATM   13  C   UNL     1     -10.442   5.284  70.014  1.00  0.00    -0.281 A  
HETATM   14  C   UNL     1      -9.576   3.260  71.692  1.00  0.00    -0.230 A  
HETATM   15  C   UNL     1     -10.295   4.346  72.225  1.00  0.00    -0.160 A  
HETATM   16 CL   UNL     1     -10.412   4.351  73.949  1.00  0.00    -0.262 Cl 
ENDBRANCH   8   9
ENDBRANCH   2   8
TORSDOF 3
ENDMDL
MODEL      109
REMARK 921   NORMALIZED FREE ENERGY PREDICTED BY IDOCK:   -3.69 KCAL/MOL
REMARK 922        TOTAL FREE ENERGY PREDICTED BY IDOCK:   -4.83 KCAL/MOL
REMARK 923 INTER-LIGAND FREE ENERGY PREDICTED BY IDOCK:   -4.34 KCAL/MOL
REMARK 924 INTRA-LIGAND FREE ENERGY PREDICTED BY IDOCK:   -0.49 KCAL/MOL
REMARK 927      BINDING AFFINITY PREDICTED BY RF-SCORE:    0.00 PKD
ROOT
HETATM    1  C   UNL     1      -9.903   7.502  71.929  1.00  0.00    -0.196 C  
HETATM    2  C   UNL     1     -10.489   8.431  70.877  1.00  0.00    -0.196 C  
ENDROOT
BRANCH   2   3
HETATM    3  C   UNL     1     -11.711   9.138  71.457  1.00  0.00    -0.363 C  
HETATM    4  C   UNL     1     -13.253  10.661  71.906  1.00  0.00    -0.423 C  
HETATM    5  N   UNL     1     -11.966  10.401  71.193  1.00  0.00    -0.366 NA 
HETATM    6  N   UNL     1     -12.625   8.484  72.256  1.00  0.00    -0.377 NA 
HETATM    7  C   UNL     1     -13.822   9.287  72.282  1.00  0.00    -0.426 C  
ENDBRANCH   2   3
BRANCH   2   8
HETATM    8  O   UNL     1     -10.985   7.716  69.741  1.00  0.00    -0.241 OA 
BRANCH   8   9
HETATM    9  C   UNL     1     -10.336   7.744  68.536  1.00  0.00    -0.197 A  
HETATM   10  C   UNL     1      -9.186   6.343  66.874  1.00  0.00    -0.144 A  
HETATM   11 CL   UNL     1      -9.778   5.136  69.190  1.00  0.00    -0.210 Cl 
HETATM   12  C   UNL     1      -9.161   7.403  65.976  1.00  0.00    -0.129 A  
HETATM   13  C   UNL     1      -9.766   6.514  68.139  1.00  0.00    -0.126 A  
HETATM   14  C   UNL     1      -9.718   8.623  66.345  1.00  0.00    -0.333 A  
HETATM   15  C   UNL     1     -10.322   8.794  67.605  1.00  0.00    -0.254 A  
HETATM   16 CL   UNL     1     -11.125  10.309  67.814  1.00  0.00    -0.362 Cl 
ENDBRANCH   8   9
ENDBRANCH   2   8
TORSDOF 3
ENDMDL
MODEL      110
REMARK 921   NORMALIZED FREE ENERGY PREDICTED BY IDOCK:   -3.68 KCAL/MOL
REMARK 922        TOTAL FREE ENERGY PREDICTED BY IDOCK:   -4.81 KCAL/MOL
REMARK 923 INTER-LIGAND FREE ENERGY PREDICTED BY IDOCK:   -4.38 KCAL/MOL
REMARK 924 INTRA-LIGAND FREE ENERGY PREDICTED BY IDOCK:   -0.43 KCAL/MOL
REMARK 927      BINDING AFFINITY PREDICTED BY RF-SCORE:    0.00 PKD
ROOT
HETATM    1  C   UNL     1     -10.211  15.105  66.521  1.00  0.00    -0.283 C  
HETATM    2  C   UNL     1      -8.726  15.353  66.739  1.00  0.00    -0.269 C  
ENDROOT
BRANCH   2   3
HETATM    3  C   UNL     1      -8.094  14.109  67.357  1.00  0.00    -0.189 C  
HETATM    4  C   UNL     1      -6.829  12.774  68.588  1.00  0.00    -0.099 C  
HETATM    5  N   UNL     1      -7.092  14.194  68.204  1.00  0.00    -0.111 NA 
HETATM    6  N   UNL     1      -8.560  12.840  67.087  1.00  0.00    -0.198 NA 
HETATM    7  C   UNL     1      -8.043  11.968  68.112  1.00  0.00    -0.160 C  
ENDBRANCH   2   3
BRANCH   2   8
HETATM    8  O   UNL     1      -8.487  16.396  67.690  1.00  0.00    -0.167 OA 
BRANCH   8   9
HETATM    9  C   UNL     1      -8.866  17.688  67.449  1.00  0.00    -0.235 A  
HETATM   10  C   UNL     1     -10.272  19.528  68.279  1.00  0.00    -0.552 A  
HETATM   11 CL   UNL     1     -10.647  17.159  69.471  1.00  0.00    -0.216 Cl 
HETATM   12  C   UNL     1      -9.677  20.407  67.383  1.00  0.00    -0.597 A  
HETATM   13  C   UNL     1      -9.871  18.185  68.307  1.00  0.00    -0.351 A  
HETATM   14  C   UNL     1      -8.683  19.941  66.528  1.00  0.00    -0.406 A  
HETATM   15  C   UNL     1      -8.260  18.599  66.569  1.00  0.00    -0.286 A  
HETATM   16 CL   UNL     1      -6.892  18.249  65.573  1.00  0.00    -0.263 Cl 
ENDBRANCH   8   9
ENDBRANCH   2   8
TORSDOF 3
ENDMDL
MODEL      111
REMARK 921   NORMALIZED FREE ENERGY PREDICTED BY IDOCK:   -3.68 KCAL/MOL
REMARK 922        TOTAL FREE ENERGY PREDICTED BY IDOCK:   -4.81 KCAL/MOL
REMARK 923 INTER-LIGAND FREE ENERGY PREDICTED BY IDOCK:   -4.41 KCAL/MOL
REMARK 924 INTRA-LIGAND FREE ENERGY PREDICTED BY IDOCK:   -0.40 KCAL/MOL
REMARK 927      BINDING AFFINITY PREDICTED BY RF-SCORE:    0.00 PKD
ROOT
HETATM    1  C   UNL     1     -12.511   6.981  71.631  1.00  0.00    -0.413 C  
HETATM    2  C   UNL     1     -11.483   7.092  70.515  1.00  0.00    -0.319 C  
ENDROOT
BRANCH   2   3
HETATM    3  C   UNL     1     -10.484   5.945  70.638  1.00  0.00    -0.253 C  
HETATM    4  C   UNL     1      -8.980   4.533  71.438  1.00  0.00    -0.127 C  
HETATM    5  N   UNL     1      -9.763   5.771  71.724  1.00  0.00    -0.156 NA 
HETATM    6  N   UNL     1     -10.309   5.015  69.634  1.00  0.00    -0.246 NA 
HETATM    7  C   UNL     1      -9.636   3.880  70.215  1.00  0.00    -0.201 C  
ENDBRANCH   2   3
BRANCH   2   8
HETATM    8  O   UNL     1     -10.692   8.279  70.625  1.00  0.00    -0.212 OA 
BRANCH   8   9
HETATM    9  C   UNL     1     -10.968   9.397  69.885  1.00  0.00    -0.229 A  
HETATM   10  C   UNL     1     -10.708  10.414  67.661  1.00  0.00    -0.335 A  
HETATM   11 CL   UNL     1      -9.335   8.150  68.064  1.00  0.00    -0.140 Cl 
HETATM   12  C   UNL     1     -11.576  11.440  68.012  1.00  0.00    -0.357 A  
HETATM   13  C   UNL     1     -10.408   9.407  68.589  1.00  0.00    -0.203 A  
HETATM   14  C   UNL     1     -12.141  11.450  69.283  1.00  0.00    -0.356 A  
HETATM   15  C   UNL     1     -11.862  10.429  70.211  1.00  0.00    -0.312 A  
HETATM   16 CL   UNL     1     -12.797  10.504  71.662  1.00  0.00    -0.553 Cl 
ENDBRANCH   8   9
ENDBRANCH   2   8
TORSDOF 3
ENDMDL
MODEL      112
REMARK 921   NORMALIZED FREE ENERGY PREDICTED BY IDOCK:   -3.67 KCAL/MOL
REMARK 922        TOTAL FREE ENERGY PREDICTED BY IDOCK:   -4.80 KCAL/MOL
REMARK 923 INTER-LIGAND FREE ENERGY PREDICTED BY IDOCK:   -4.68 KCAL/MOL
REMARK 924 INTRA-LIGAND FREE ENERGY PREDICTED BY IDOCK:   -0.12 KCAL/MOL
REMARK 927      BINDING AFFINITY PREDICTED BY RF-SCORE:    0.00 PKD
ROOT
HETATM    1  C   UNL     1     -11.642   6.545  70.183  1.00  0.00    -0.466 C  
HETATM    2  C   UNL     1     -10.389   6.749  71.022  1.00  0.00    -0.206 C  
ENDROOT
BRANCH   2   3
HETATM    3  C   UNL     1     -10.265   5.603  72.023  1.00  0.00    -0.205 C  
HETATM    4  C   UNL     1      -9.508   3.850  73.140  1.00  0.00    -0.112 C  
HETATM    5  N   UNL     1      -9.268   4.747  71.971  1.00  0.00    -0.134 NA 
HETATM    6  N   UNL     1     -11.168   5.427  73.050  1.00  0.00    -0.308 NA 
HETATM    7  C   UNL     1     -10.551   4.552  74.017  1.00  0.00    -0.276 C  
ENDBRANCH   2   3
BRANCH   2   8
HETATM    8  O   UNL     1     -10.464   7.930  71.826  1.00  0.00    -0.209 OA 
BRANCH   8   9
HETATM    9  C   UNL     1     -10.992   9.096  71.341  1.00  0.00    -0.344 A  
HETATM   10  C   UNL     1     -10.677  10.864  69.661  1.00  0.00    -0.232 A  
HETATM   11 CL   UNL     1      -8.644   9.141  69.918  1.00  0.00    -0.138 Cl 
HETATM   12  C   UNL     1     -11.934  11.381  69.948  1.00  0.00    -0.434 A  
HETATM   13  C   UNL     1     -10.213   9.737  70.352  1.00  0.00    -0.281 A  
HETATM   14  C   UNL     1     -12.720  10.766  70.917  1.00  0.00    -0.478 A  
HETATM   15  C   UNL     1     -12.269   9.620  71.598  1.00  0.00    -0.402 A  
HETATM   16 CL   UNL     1     -13.449   8.885  72.624  1.00  0.00    -0.453 Cl 
ENDBRANCH   8   9
ENDBRANCH   2   8
TORSDOF 3
ENDMDL
MODEL      113
REMARK 921   NORMALIZED FREE ENERGY PREDICTED BY IDOCK:   -3.66 KCAL/MOL
REMARK 922        TOTAL FREE ENERGY PREDICTED BY IDOCK:   -4.79 KCAL/MOL
REMARK 923 INTER-LIGAND FREE ENERGY PREDICTED BY IDOCK:   -4.29 KCAL/MOL
REMARK 924 INTRA-LIGAND FREE ENERGY PREDICTED BY IDOCK:   -0.50 KCAL/MOL
REMARK 927      BINDING AFFINITY PREDICTED BY RF-SCORE:    0.00 PKD
ROOT
HETATM    1  C   UNL     1      -8.409   7.254  69.539  1.00  0.00    -0.133 C  
HETATM    2  C   UNL     1      -9.514   8.077  70.184  1.00  0.00    -0.160 C  
ENDROOT
BRANCH   2   3
HETATM    3  C   UNL     1     -10.176   7.253  71.285  1.00  0.00    -0.189 C  
HETATM    4  C   UNL     1     -10.858   6.538  73.265  1.00  0.00    -0.248 C  
HETATM    5  N   UNL     1     -10.011   7.544  72.557  1.00  0.00    -0.184 NA 
HETATM    6  N   UNL     1     -11.004   6.187  71.004  1.00  0.00    -0.280 NA 
HETATM    7  C   UNL     1     -11.763   5.909  72.198  1.00  0.00    -0.227 C  
ENDBRANCH   2   3
BRANCH   2   8
HETATM    8  O   UNL     1     -10.571   8.377  69.266  1.00  0.00    -0.223 OA 
BRANCH   8   9
HETATM    9  C   UNL     1     -10.852   9.662  68.890  1.00  0.00    -0.174 A  
HETATM   10  C   UNL     1     -10.890  11.200  66.971  1.00  0.00    -0.338 A  
HETATM   11 CL   UNL     1      -9.725   8.830  66.528  1.00  0.00    -0.303 Cl 
HETATM   12  C   UNL     1     -11.561  12.152  67.729  1.00  0.00    -0.410 A  
HETATM   13  C   UNL     1     -10.539   9.972  67.548  1.00  0.00    -0.280 A  
HETATM   14  C   UNL     1     -11.880  11.869  69.053  1.00  0.00    -0.368 A  
HETATM   15  C   UNL     1     -11.552  10.628  69.629  1.00  0.00    -0.296 A  
HETATM   16 CL   UNL     1     -12.193  10.383  71.215  1.00  0.00    -0.478 Cl 
ENDBRANCH   8   9
ENDBRANCH   2   8
TORSDOF 3
ENDMDL
MODEL      114
REMARK 921   NORMALIZED FREE ENERGY PREDICTED BY IDOCK:   -3.64 KCAL/MOL
REMARK 922        TOTAL FREE ENERGY PREDICTED BY IDOCK:   -4.76 KCAL/MOL
REMARK 923 INTER-LIGAND FREE ENERGY PREDICTED BY IDOCK:   -4.53 KCAL/MOL
REMARK 924 INTRA-LIGAND FREE ENERGY PREDICTED BY IDOCK:   -0.23 KCAL/MOL
REMARK 927      BINDING AFFINITY PREDICTED BY RF-SCORE:    0.00 PKD
ROOT
HETATM    1  C   UNL     1      -9.317  10.085  64.363  1.00  0.00    -0.348 C  
HETATM    2  C   UNL     1      -9.731  10.159  65.825  1.00  0.00    -0.245 C  
ENDROOT
BRANCH   2   3
HETATM    3  C   UNL     1      -9.805   8.747  66.398  1.00  0.00    -0.282 C  
HETATM    4  C   UNL     1      -9.384   6.616  66.821  1.00  0.00    -0.158 C  
HETATM    5  N   UNL     1      -9.014   7.787  65.971  1.00  0.00    -0.166 NA 
HETATM    6  N   UNL     1     -10.678   8.412  67.412  1.00  0.00    -0.229 NA 
HETATM    7  C   UNL     1     -10.216   7.172  67.982  1.00  0.00    -0.185 C  
ENDBRANCH   2   3
BRANCH   2   8
HETATM    8  O   UNL     1     -11.051  10.689  65.987  1.00  0.00     0.030 OA 
BRANCH   8   9
HETATM    9  C   UNL     1     -11.267  11.917  66.550  1.00  0.00    -0.327 A  
HETATM   10  C   UNL     1     -11.803  14.263  66.042  1.00  0.00    -0.399 A  
HETATM   11 CL   UNL     1     -11.238  12.722  63.925  1.00  0.00    -0.456 Cl 
HETATM   12  C   UNL     1     -11.999  14.527  67.392  1.00  0.00    -0.367 A  
HETATM   13  C   UNL     1     -11.440  12.973  65.629  1.00  0.00    -0.333 A  
HETATM   14  C   UNL     1     -11.836  13.501  68.317  1.00  0.00    -0.401 A  
HETATM   15  C   UNL     1     -11.494  12.199  67.907  1.00  0.00    -0.328 A  
HETATM   16 CL   UNL     1     -11.522  11.019  69.169  1.00  0.00    -0.335 Cl 
ENDBRANCH   8   9
ENDBRANCH   2   8
TORSDOF 3
ENDMDL
MODEL      115
REMARK 921   NORMALIZED FREE ENERGY PREDICTED BY IDOCK:   -3.64 KCAL/MOL
REMARK 922        TOTAL FREE ENERGY PREDICTED BY IDOCK:   -4.76 KCAL/MOL
REMARK 923 INTER-LIGAND FREE ENERGY PREDICTED BY IDOCK:   -4.28 KCAL/MOL
REMARK 924 INTRA-LIGAND FREE ENERGY PREDICTED BY IDOCK:   -0.49 KCAL/MOL
REMARK 927      BINDING AFFINITY PREDICTED BY RF-SCORE:    0.00 PKD
ROOT
HETATM    1  C   UNL     1      -7.617   8.609  69.751  1.00  0.00    -0.079 C  
HETATM    2  C   UNL     1      -8.606   8.952  70.855  1.00  0.00    -0.199 C  
ENDROOT
BRANCH   2   3
HETATM    3  C   UNL     1      -8.322   8.078  72.073  1.00  0.00    -0.139 C  
HETATM    4  C   UNL     1      -7.919   6.330  73.369  1.00  0.00    -0.101 C  
HETATM    5  N   UNL     1      -8.262   6.767  71.982  1.00  0.00    -0.105 NA 
HETATM    6  N   UNL     1      -8.083   8.615  73.321  1.00  0.00    -0.410 NA 
HETATM    7  C   UNL     1      -7.461   7.587  74.117  1.00  0.00    -0.126 C  
ENDBRANCH   2   3
BRANCH   2   8
HETATM    8  O   UNL     1      -9.954   8.641  70.488  1.00  0.00    -0.179 OA 
BRANCH   8   9
HETATM    9  C   UNL     1     -10.966   9.550  70.635  1.00  0.00    -0.306 A  
HETATM   10  C   UNL     1     -12.882  10.170  72.048  1.00  0.00    -0.472 A  
HETATM   11 CL   UNL     1     -11.764   7.798  72.593  1.00  0.00    -0.386 Cl 
HETATM   12  C   UNL     1     -13.011  11.376  71.370  1.00  0.00    -0.468 A  
HETATM   13  C   UNL     1     -11.872   9.269  71.681  1.00  0.00    -0.383 A  
HETATM   14  C   UNL     1     -12.129  11.675  70.336  1.00  0.00    -0.462 A  
HETATM   15  C   UNL     1     -11.099  10.784  69.980  1.00  0.00    -0.255 A  
HETATM   16 CL   UNL     1      -9.990  11.404  68.808  1.00  0.00    -0.208 Cl 
ENDBRANCH   8   9
ENDBRANCH   2   8
TORSDOF 3
ENDMDL
MODEL      116
REMARK 921   NORMALIZED FREE ENERGY PREDICTED BY IDOCK:   -3.63 KCAL/MOL
REMARK 922        TOTAL FREE ENERGY PREDICTED BY IDOCK:   -4.76 KCAL/MOL
REMARK 923 INTER-LIGAND FREE ENERGY PREDICTED BY IDOCK:   -4.48 KCAL/MOL
REMARK 924 INTRA-LIGAND FREE ENERGY PREDICTED BY IDOCK:   -0.27 KCAL/MOL
REMARK 927      BINDING AFFINITY PREDICTED BY RF-SCORE:    0.00 PKD
ROOT
HETATM    1  C   UNL     1     -11.762  13.033  69.424  1.00  0.00    -0.386 C  
HETATM    2  C   UNL     1     -11.300  12.535  68.062  1.00  0.00    -0.289 C  
ENDROOT
BRANCH   2   3
HETATM    3  C   UNL     1     -10.893  11.068  68.176  1.00  0.00    -0.226 C  
HETATM    4  C   UNL     1     -10.480   9.049  68.980  1.00  0.00    -0.218 C  
HETATM    5  N   UNL     1     -10.877  10.445  69.333  1.00  0.00    -0.231 NA 
HETATM    6  N   UNL     1     -10.556  10.314  67.071  1.00  0.00    -0.251 NA 
HETATM    7  C   UNL     1     -10.634   8.928  67.460  1.00  0.00    -0.237 C  
ENDBRANCH   2   3
BRANCH   2   8
HETATM    8  O   UNL     1     -10.119  13.208  67.614  1.00  0.00    -0.215 OA 
BRANCH   8   9
HETATM    9  C   UNL     1     -10.172  14.456  67.056  1.00  0.00    -0.263 A  
HETATM   10  C   UNL     1     -10.708  15.682  64.992  1.00  0.00    -0.458 A  
HETATM   11 CL   UNL     1     -10.633  13.014  64.765  1.00  0.00    -0.353 Cl 
HETATM   12  C   UNL     1     -10.622  16.891  65.670  1.00  0.00    -0.231 A  
HETATM   13  C   UNL     1     -10.483  14.480  65.678  1.00  0.00    -0.336 A  
HETATM   14  C   UNL     1     -10.318  16.892  67.028  1.00  0.00    -0.307 A  
HETATM   15  C   UNL     1     -10.115  15.688  67.727  1.00  0.00    -0.226 A  
HETATM   16 CL   UNL     1      -9.937  15.873  69.436  1.00  0.00    -0.259 Cl 
ENDBRANCH   8   9
ENDBRANCH   2   8
TORSDOF 3
ENDMDL
MODEL      117
REMARK 921   NORMALIZED FREE ENERGY PREDICTED BY IDOCK:   -3.60 KCAL/MOL
REMARK 922        TOTAL FREE ENERGY PREDICTED BY IDOCK:   -4.72 KCAL/MOL
REMARK 923 INTER-LIGAND FREE ENERGY PREDICTED BY IDOCK:   -4.31 KCAL/MOL
REMARK 924 INTRA-LIGAND FREE ENERGY PREDICTED BY IDOCK:   -0.41 KCAL/MOL
REMARK 927      BINDING AFFINITY PREDICTED BY RF-SCORE:    0.00 PKD
ROOT
HETATM    1  C   UNL     1      -8.839   8.471  67.139  1.00  0.00    -0.139 C  
HETATM    2  C   UNL     1      -9.716   9.171  68.166  1.00  0.00    -0.154 C  
ENDROOT
BRANCH   2   3
HETATM    3  C   UNL     1     -10.165   8.158  69.216  1.00  0.00    -0.214 C  
HETATM    4  C   UNL     1     -10.953   6.332  70.185  1.00  0.00    -0.347 C  
HETATM    5  N   UNL     1     -10.731   7.020  68.879  1.00  0.00    -0.215 NA 
HETATM    6  N   UNL     1      -9.972   8.368  70.566  1.00  0.00    -0.183 NA 
HETATM    7  C   UNL     1     -10.116   7.092  71.221  1.00  0.00    -0.189 C  
ENDBRANCH   2   3
BRANCH   2   8
HETATM    8  O   UNL     1     -10.931   9.666  67.593  1.00  0.00    -0.268 OA 
BRANCH   8   9
HETATM    9  C   UNL     1     -11.083  10.985  67.263  1.00  0.00    -0.294 A  
HETATM   10  C   UNL     1     -11.637  13.202  68.171  1.00  0.00    -0.375 A  
HETATM   11 CL   UNL     1     -12.037  11.140  69.833  1.00  0.00    -0.395 Cl 
HETATM   12  C   UNL     1     -11.250  13.804  66.980  1.00  0.00    -0.326 A  
HETATM   13  C   UNL     1     -11.557  11.809  68.307  1.00  0.00    -0.308 A  
HETATM   14  C   UNL     1     -10.780  13.011  65.938  1.00  0.00    -0.292 A  
HETATM   15  C   UNL     1     -10.673  11.615  66.077  1.00  0.00    -0.280 A  
HETATM   16 CL   UNL     1      -9.894  10.820  64.756  1.00  0.00    -0.327 Cl 
ENDBRANCH   8   9
ENDBRANCH   2   8
TORSDOF 3
ENDMDL
MODEL      118
REMARK 921   NORMALIZED FREE ENERGY PREDICTED BY IDOCK:   -3.58 KCAL/MOL
REMARK 922        TOTAL FREE ENERGY PREDICTED BY IDOCK:   -4.70 KCAL/MOL
REMARK 923 INTER-LIGAND FREE ENERGY PREDICTED BY IDOCK:   -4.38 KCAL/MOL
REMARK 924 INTRA-LIGAND FREE ENERGY PREDICTED BY IDOCK:   -0.32 KCAL/MOL
REMARK 927      BINDING AFFINITY PREDICTED BY RF-SCORE:    0.00 PKD
ROOT
HETATM    1  C   UNL     1     -10.646   9.177  67.193  1.00  0.00    -0.286 C  
HETATM    2  C   UNL     1     -10.018   9.690  65.906  1.00  0.00    -0.281 C  
ENDROOT
BRANCH   2   3
HETATM    3  C   UNL     1      -8.688   8.976  65.677  1.00  0.00    -0.175 C  
HETATM    4  C   UNL     1      -7.059   7.481  65.734  1.00  0.00    -0.065 C  
HETATM    5  N   UNL     1      -8.405   7.838  66.272  1.00  0.00    -0.124 NA 
HETATM    6  N   UNL     1      -7.732   9.469  64.813  1.00  0.00    -0.114 NA 
HETATM    7  C   UNL     1      -6.824   8.388  64.520  1.00  0.00    -0.069 C  
ENDBRANCH   2   3
BRANCH   2   8
HETATM    8  O   UNL     1      -9.679  11.078  65.986  1.00  0.00    -0.207 OA 
BRANCH   8   9
HETATM    9  C   UNL     1     -10.585  12.057  65.679  1.00  0.00    -0.265 A  
HETATM   10  C   UNL     1     -11.747  13.166  63.816  1.00  0.00    -0.519 A  
HETATM   11 CL   UNL     1      -9.777  11.492  63.116  1.00  0.00    -0.406 Cl 
HETATM   12  C   UNL     1     -12.580  13.827  64.710  1.00  0.00    -0.330 A  
HETATM   13  C   UNL     1     -10.760  12.294  64.298  1.00  0.00    -0.351 A  
HETATM   14  C   UNL     1     -12.427  13.608  66.075  1.00  0.00    -0.477 A  
HETATM   15  C   UNL     1     -11.454  12.715  66.563  1.00  0.00    -0.353 A  
HETATM   16 CL   UNL     1     -11.536  12.426  68.264  1.00  0.00    -0.360 Cl 
ENDBRANCH   8   9
ENDBRANCH   2   8
TORSDOF 3
ENDMDL
MODEL      119
REMARK 921   NORMALIZED FREE ENERGY PREDICTED BY IDOCK:   -3.56 KCAL/MOL
REMARK 922        TOTAL FREE ENERGY PREDICTED BY IDOCK:   -4.67 KCAL/MOL
REMARK 923 INTER-LIGAND FREE ENERGY PREDICTED BY IDOCK:   -4.35 KCAL/MOL
REMARK 924 INTRA-LIGAND FREE ENERGY PREDICTED BY IDOCK:   -0.32 KCAL/MOL
REMARK 927      BINDING AFFINITY PREDICTED BY RF-SCORE:    0.00 PKD
ROOT
HETATM    1  C   UNL     1     -11.327  16.067  68.547  1.00  0.00    -0.382 C  
HETATM    2  C   UNL     1      -9.872  15.633  68.441  1.00  0.00    -0.206 C  
ENDROOT
BRANCH   2   3
HETATM    3  C   UNL     1      -8.970  16.848  68.641  1.00  0.00    -0.266 C  
HETATM    4  C   UNL     1      -7.187  18.139  68.867  1.00  0.00    -0.258 C  
HETATM    5  N   UNL     1      -7.664  16.730  68.735  1.00  0.00    -0.232 NA 
HETATM    6  N   UNL     1      -9.473  18.131  68.699  1.00  0.00    -0.323 NA 
HETATM    7  C   UNL     1      -8.370  19.033  68.477  1.00  0.00    -0.352 C  
ENDBRANCH   2   3
BRANCH   2   8
HETATM    8  O   UNL     1      -9.547  15.147  67.135  1.00  0.00    -0.213 OA 
BRANCH   8   9
HETATM    9  C   UNL     1      -9.886  13.883  66.735  1.00  0.00    -0.274 A  
HETATM   10  C   UNL     1      -9.327  11.503  67.004  1.00  0.00    -0.185 A  
HETATM   11 CL   UNL     1      -7.603  13.227  68.111  1.00  0.00    -0.128 Cl 
HETATM   12  C   UNL     1     -10.473  11.140  66.307  1.00  0.00    -0.312 A  
HETATM   13  C   UNL     1      -9.039  12.859  67.212  1.00  0.00    -0.208 A  
HETATM   14  C   UNL     1     -11.323  12.132  65.828  1.00  0.00    -0.402 A  
HETATM   15  C   UNL     1     -11.051  13.493  66.055  1.00  0.00    -0.293 A  
HETATM   16 CL   UNL     1     -12.309  14.568  65.556  1.00  0.00    -0.317 Cl 
ENDBRANCH   8   9
ENDBRANCH   2   8
TORSDOF 3
ENDMDL
MODEL      120
REMARK 921   NORMALIZED FREE ENERGY PREDICTED BY IDOCK:   -3.55 KCAL/MOL
REMARK 922        TOTAL FREE ENERGY PREDICTED BY IDOCK:   -4.66 KCAL/MOL
REMARK 923 INTER-LIGAND FREE ENERGY PREDICTED BY IDOCK:   -4.47 KCAL/MOL
REMARK 924 INTRA-LIGAND FREE ENERGY PREDICTED BY IDOCK:   -0.20 KCAL/MOL
REMARK 927      BINDING AFFINITY PREDICTED BY RF-SCORE:    0.00 PKD
ROOT
HETATM    1  C   UNL     1     -12.015  13.106  66.331  1.00  0.00    -0.462 C  
HETATM    2  C   UNL     1     -10.544  12.729  66.248  1.00  0.00    -0.257 C  
ENDROOT
BRANCH   2   3
HETATM    3  C   UNL     1     -10.411  11.210  66.317  1.00  0.00    -0.259 C  
HETATM    4  C   UNL     1      -9.809   9.123  65.897  1.00  0.00    -0.235 C  
HETATM    5  N   UNL     1      -9.716  10.537  65.427  1.00  0.00    -0.237 NA 
HETATM    6  N   UNL     1     -10.983  10.470  67.331  1.00  0.00    -0.301 NA 
HETATM    7  C   UNL     1     -10.340   9.180  67.334  1.00  0.00    -0.264 C  
ENDBRANCH   2   3
BRANCH   2   8
HETATM    8  O   UNL     1      -9.798  13.212  67.370  1.00  0.00    -0.219 OA 
BRANCH   8   9
HETATM    9  C   UNL     1     -10.244  14.259  68.130  1.00  0.00    -0.231 A  
HETATM   10  C   UNL     1     -10.445  16.710  68.203  1.00  0.00    -0.321 A  
HETATM   11 CL   UNL     1      -8.954  15.732  66.204  1.00  0.00    -0.375 Cl 
HETATM   12  C   UNL     1     -11.259  16.624  69.326  1.00  0.00    -0.123 A  
HETATM   13  C   UNL     1      -9.943  15.540  67.616  1.00  0.00    -0.233 A  
HETATM   14  C   UNL     1     -11.569  15.373  69.849  1.00  0.00    -0.342 A  
HETATM   15  C   UNL     1     -11.088  14.195  69.250  1.00  0.00    -0.250 A  
HETATM   16 CL   UNL     1     -11.729  12.737  69.919  1.00  0.00    -0.356 Cl 
ENDBRANCH   8   9
ENDBRANCH   2   8
TORSDOF 3
ENDMDL
MODEL      121
REMARK 921   NORMALIZED FREE ENERGY PREDICTED BY IDOCK:   -3.52 KCAL/MOL
REMARK 922        TOTAL FREE ENERGY PREDICTED BY IDOCK:   -4.62 KCAL/MOL
REMARK 923 INTER-LIGAND FREE ENERGY PREDICTED BY IDOCK:   -4.11 KCAL/MOL
REMARK 924 INTRA-LIGAND FREE ENERGY PREDICTED BY IDOCK:   -0.52 KCAL/MOL
REMARK 927      BINDING AFFINITY PREDICTED BY RF-SCORE:    0.00 PKD
ROOT
HETATM    1  C   UNL     1     -10.504   5.618  69.401  1.00  0.00    -0.367 C  
HETATM    2  C   UNL     1     -10.540   7.101  69.065  1.00  0.00    -0.210 C  
ENDROOT
BRANCH   2   3
HETATM    3  C   UNL     1      -9.362   7.438  68.155  1.00  0.00    -0.135 C  
HETATM    4  C   UNL     1      -7.342   7.975  67.429  1.00  0.00    -0.089 C  
HETATM    5  N   UNL     1      -8.194   7.793  68.642  1.00  0.00    -0.127 NA 
HETATM    6  N   UNL     1      -9.452   7.357  66.781  1.00  0.00    -0.168 NA 
HETATM    7  C   UNL     1      -8.106   7.330  66.266  1.00  0.00    -0.121 C  
ENDBRANCH   2   3
BRANCH   2   8
HETATM    8  O   UNL     1     -10.353   7.922  70.223  1.00  0.00    -0.205 OA 
BRANCH   8   9
HETATM    9  C   UNL     1     -11.297   8.830  70.618  1.00  0.00    -0.254 A  
HETATM   10  C   UNL     1     -12.887   9.382  72.412  1.00  0.00    -0.394 A  
HETATM   11 CL   UNL     1     -11.737   6.969  72.589  1.00  0.00    -0.196 Cl 
HETATM   12  C   UNL     1     -13.119  10.628  71.844  1.00  0.00    -0.563 A  
HETATM   13  C   UNL     1     -11.988   8.495  71.803  1.00  0.00    -0.332 A  
HETATM   14  C   UNL     1     -12.449  10.981  70.677  1.00  0.00    -0.465 A  
HETATM   15  C   UNL     1     -11.528  10.104  70.075  1.00  0.00    -0.277 A  
HETATM   16 CL   UNL     1     -10.654  10.783  68.748  1.00  0.00    -0.206 Cl 
ENDBRANCH   8   9
ENDBRANCH   2   8
TORSDOF 3
ENDMDL
MODEL      122
REMARK 921   NORMALIZED FREE ENERGY PREDICTED BY IDOCK:   -3.50 KCAL/MOL
REMARK 922        TOTAL FREE ENERGY PREDICTED BY IDOCK:   -4.60 KCAL/MOL
REMARK 923 INTER-LIGAND FREE ENERGY PREDICTED BY IDOCK:   -4.50 KCAL/MOL
REMARK 924 INTRA-LIGAND FREE ENERGY PREDICTED BY IDOCK:   -0.10 KCAL/MOL
REMARK 927      BINDING AFFINITY PREDICTED BY RF-SCORE:    0.00 PKD
ROOT
HETATM    1  C   UNL     1     -10.015  10.169  65.398  1.00  0.00    -0.377 C  
HETATM    2  C   UNL     1      -9.651  11.294  66.355  1.00  0.00    -0.198 C  
ENDROOT
BRANCH   2   3
HETATM    3  C   UNL     1     -10.445  11.131  67.648  1.00  0.00    -0.196 C  
HETATM    4  C   UNL     1     -12.108  10.879  69.086  1.00  0.00    -0.221 C  
HETATM    5  N   UNL     1     -11.760  11.101  67.651  1.00  0.00    -0.598 NA 
HETATM    6  N   UNL     1      -9.828  10.973  68.872  1.00  0.00    -0.194 NA 
HETATM    7  C   UNL     1     -10.813  10.444  69.782  1.00  0.00    -0.292 C  
ENDBRANCH   2   3
BRANCH   2   8
HETATM    8  O   UNL     1     -10.034  12.578  65.851  1.00  0.00    -0.253 OA 
BRANCH   8   9
HETATM    9  C   UNL     1      -9.887  13.715  66.597  1.00  0.00    -0.284 A  
HETATM   10  C   UNL     1     -11.110  15.599  67.600  1.00  0.00    -0.305 A  
HETATM   11 CL   UNL     1     -12.527  14.060  65.927  1.00  0.00    -0.516 Cl 
HETATM   12  C   UNL     1      -9.976  15.979  68.306  1.00  0.00    -0.220 A  
HETATM   13  C   UNL     1     -11.063  14.481  66.754  1.00  0.00    -0.325 A  
HETATM   14  C   UNL     1      -8.806  15.238  68.168  1.00  0.00    -0.171 A  
HETATM   15  C   UNL     1      -8.760  14.102  67.339  1.00  0.00    -0.210 A  
HETATM   16 CL   UNL     1      -7.288  13.203  67.439  1.00  0.00    -0.146 Cl 
ENDBRANCH   8   9
ENDBRANCH   2   8
TORSDOF 3
ENDMDL
MODEL      123
REMARK 921   NORMALIZED FREE ENERGY PREDICTED BY IDOCK:   -3.50 KCAL/MOL
REMARK 922        TOTAL FREE ENERGY PREDICTED BY IDOCK:   -4.60 KCAL/MOL
REMARK 923 INTER-LIGAND FREE ENERGY PREDICTED BY IDOCK:   -4.17 KCAL/MOL
REMARK 924 INTRA-LIGAND FREE ENERGY PREDICTED BY IDOCK:   -0.43 KCAL/MOL
REMARK 927      BINDING AFFINITY PREDICTED BY RF-SCORE:    0.00 PKD
ROOT
HETATM    1  C   UNL     1     -11.138   7.138  69.709  1.00  0.00    -0.239 C  
HETATM    2  C   UNL     1     -10.181   7.655  70.774  1.00  0.00    -0.201 C  
ENDROOT
BRANCH   2   3
HETATM    3  C   UNL     1     -10.399   6.872  72.066  1.00  0.00    -0.199 C  
HETATM    4  C   UNL     1     -10.994   5.303  73.508  1.00  0.00    -0.296 C  
HETATM    5  N   UNL     1     -11.069   5.741  72.082  1.00  0.00    -0.266 NA 
HETATM    6  N   UNL     1      -9.880   7.292  73.273  1.00  0.00    -0.227 NA 
HETATM    7  C   UNL     1      -9.907   6.161  74.166  1.00  0.00    -0.238 C  
ENDBRANCH   2   3
BRANCH   2   8
HETATM    8  O   UNL     1     -10.446   9.017  71.123  1.00  0.00    -0.241 OA 
BRANCH   8   9
HETATM    9  C   UNL     1     -10.630   9.980  70.167  1.00  0.00    -0.296 A  
HETATM   10  C   UNL     1     -12.151  11.762  69.419  1.00  0.00    -0.301 A  
HETATM   11 CL   UNL     1     -13.091  10.185  71.368  1.00  0.00    -0.490 Cl 
HETATM   12  C   UNL     1     -11.204  12.207  68.504  1.00  0.00    -0.307 A  
HETATM   13  C   UNL     1     -11.866  10.661  70.238  1.00  0.00    -0.342 A  
HETATM   14  C   UNL     1      -9.980  11.552  68.418  1.00  0.00    -0.206 A  
HETATM   15  C   UNL     1      -9.679  10.461  69.254  1.00  0.00    -0.214 A  
HETATM   16 CL   UNL     1      -8.049   9.899  69.139  1.00  0.00    -0.108 Cl 
ENDBRANCH   8   9
ENDBRANCH   2   8
TORSDOF 3
ENDMDL
MODEL      124
REMARK 921   NORMALIZED FREE ENERGY PREDICTED BY IDOCK:   -3.49 KCAL/MOL
REMARK 922        TOTAL FREE ENERGY PREDICTED BY IDOCK:   -4.59 KCAL/MOL
REMARK 923 INTER-LIGAND FREE ENERGY PREDICTED BY IDOCK:   -4.70 KCAL/MOL
REMARK 924 INTRA-LIGAND FREE ENERGY PREDICTED BY IDOCK:    0.11 KCAL/MOL
REMARK 927      BINDING AFFINITY PREDICTED BY RF-SCORE:    0.00 PKD
ROOT
HETATM    1  C   UNL     1     -10.261  15.153  68.790  1.00  0.00    -0.235 C  
HETATM    2  C   UNL     1      -9.579  14.633  67.534  1.00  0.00    -0.206 C  
ENDROOT
BRANCH   2   3
HETATM    3  C   UNL     1      -8.561  15.663  67.052  1.00  0.00    -0.224 C  
HETATM    4  C   UNL     1      -7.644  17.450  66.124  1.00  0.00    -0.286 C  
HETATM    5  N   UNL     1      -8.917  16.694  66.317  1.00  0.00    -0.315 NA 
HETATM    6  N   UNL     1      -7.226  15.585  67.389  1.00  0.00    -0.194 NA 
HETATM    7  C   UNL     1      -6.646  16.881  67.140  1.00  0.00    -0.189 C  
ENDBRANCH   2   3
BRANCH   2   8
HETATM    8  O   UNL     1     -10.495  14.488  66.443  1.00  0.00    -0.284 OA 
BRANCH   8   9
HETATM    9  C   UNL     1     -10.474  13.386  65.631  1.00  0.00    -0.290 A  
HETATM   10  C   UNL     1     -11.293  12.486  63.493  1.00  0.00    -0.556 A  
HETATM   11 CL   UNL     1     -12.366  14.820  64.251  1.00  0.00    -0.472 Cl 
HETATM   12  C   UNL     1     -10.451  11.388  63.616  1.00  0.00    -0.472 A  
HETATM   13  C   UNL     1     -11.304  13.471  64.491  1.00  0.00    -0.365 A  
HETATM   14  C   UNL     1      -9.623  11.284  64.730  1.00  0.00    -0.269 A  
HETATM   15  C   UNL     1      -9.613  12.282  65.722  1.00  0.00    -0.176 A  
HETATM   16 CL   UNL     1      -8.391  12.080  66.928  1.00  0.00    -0.173 Cl 
ENDBRANCH   8   9
ENDBRANCH   2   8
TORSDOF 3
ENDMDL
MODEL      125
REMARK 921   NORMALIZED FREE ENERGY PREDICTED BY IDOCK:   -3.49 KCAL/MOL
REMARK 922        TOTAL FREE ENERGY PREDICTED BY IDOCK:   -4.59 KCAL/MOL
REMARK 923 INTER-LIGAND FREE ENERGY PREDICTED BY IDOCK:   -4.14 KCAL/MOL
REMARK 924 INTRA-LIGAND FREE ENERGY PREDICTED BY IDOCK:   -0.44 KCAL/MOL
REMARK 927      BINDING AFFINITY PREDICTED BY RF-SCORE:    0.00 PKD
ROOT
HETATM    1  C   UNL     1     -12.206  14.133  66.343  1.00  0.00    -0.473 C  
HETATM    2  C   UNL     1     -10.766  13.723  66.613  1.00  0.00    -0.277 C  
ENDROOT
BRANCH   2   3
HETATM    3  C   UNL     1     -10.746  12.306  67.181  1.00  0.00    -0.233 C  
HETATM    4  C   UNL     1     -10.120  10.246  67.691  1.00  0.00    -0.191 C  
HETATM    5  N   UNL     1      -9.772  11.467  66.905  1.00  0.00    -0.190 NA 
HETATM    6  N   UNL     1     -11.726  11.845  68.034  1.00  0.00    -0.460 NA 
HETATM    7  C   UNL     1     -11.205  10.670  68.688  1.00  0.00    -0.278 C  
ENDBRANCH   2   3
BRANCH   2   8
HETATM    8  O   UNL     1     -10.155  14.530  67.625  1.00  0.00    -0.227 OA 
BRANCH   8   9
HETATM    9  C   UNL     1      -9.107  15.363  67.343  1.00  0.00    -0.197 A  
HETATM   10  C   UNL     1      -6.663  15.596  67.501  1.00  0.00    -0.221 A  
HETATM   11 CL   UNL     1      -7.714  13.514  68.819  1.00  0.00    -0.090 Cl 
HETATM   12  C   UNL     1      -6.703  16.724  66.692  1.00  0.00    -0.241 A  
HETATM   13  C   UNL     1      -7.853  14.927  67.823  1.00  0.00    -0.152 A  
HETATM   14  C   UNL     1      -7.927  17.172  66.206  1.00  0.00    -0.339 A  
HETATM   15  C   UNL     1      -9.121  16.490  66.506  1.00  0.00    -0.276 A  
HETATM   16 CL   UNL     1     -10.512  17.077  65.664  1.00  0.00    -0.300 Cl 
ENDBRANCH   8   9
ENDBRANCH   2   8
TORSDOF 3
ENDMDL
MODEL      126
REMARK 921   NORMALIZED FREE ENERGY PREDICTED BY IDOCK:   -3.48 KCAL/MOL
REMARK 922        TOTAL FREE ENERGY PREDICTED BY IDOCK:   -4.57 KCAL/MOL
REMARK 923 INTER-LIGAND FREE ENERGY PREDICTED BY IDOCK:   -4.14 KCAL/MOL
REMARK 924 INTRA-LIGAND FREE ENERGY PREDICTED BY IDOCK:   -0.43 KCAL/MOL
REMARK 927      BINDING AFFINITY PREDICTED BY RF-SCORE:    0.00 PKD
ROOT
HETATM    1  C   UNL     1      -7.875  13.770  67.371  1.00  0.00    -0.167 C  
HETATM    2  C   UNL     1      -9.245  14.084  66.790  1.00  0.00    -0.265 C  
ENDROOT
BRANCH   2   3
HETATM    3  C   UNL     1      -9.921  15.152  67.646  1.00  0.00    -0.229 C  
HETATM    4  C   UNL     1     -10.626  17.101  68.421  1.00  0.00    -0.371 C  
HETATM    5  N   UNL     1      -9.770  16.434  67.395  1.00  0.00    -0.236 NA 
HETATM    6  N   UNL     1     -10.747  14.830  68.702  1.00  0.00    -0.245 NA 
HETATM    7  C   UNL     1     -11.520  16.006  69.014  1.00  0.00    -0.360 C  
ENDBRANCH   2   3
BRANCH   2   8
HETATM    8  O   UNL     1     -10.127  12.958  66.847  1.00  0.00    -0.234 OA 
BRANCH   8   9
HETATM    9  C   UNL     1      -9.787  11.751  66.299  1.00  0.00    -0.221 A  
HETATM   10  C   UNL     1      -9.358   9.387  66.824  1.00  0.00    -0.202 A  
HETATM   11 CL   UNL     1      -9.614  11.012  68.938  1.00  0.00    -0.197 Cl 
HETATM   12  C   UNL     1      -9.336   9.075  65.471  1.00  0.00    -0.255 A  
HETATM   13  C   UNL     1      -9.579  10.711  67.231  1.00  0.00    -0.163 A  
HETATM   14  C   UNL     1      -9.540  10.083  64.535  1.00  0.00    -0.346 A  
HETATM   15  C   UNL     1      -9.786  11.409  64.937  1.00  0.00    -0.258 A  
HETATM   16 CL   UNL     1     -10.204  12.483  63.650  1.00  0.00    -0.392 Cl 
ENDBRANCH   8   9
ENDBRANCH   2   8
TORSDOF 3
ENDMDL
MODEL      127
REMARK 921   NORMALIZED FREE ENERGY PREDICTED BY IDOCK:   -3.47 KCAL/MOL
REMARK 922        TOTAL FREE ENERGY PREDICTED BY IDOCK:   -4.56 KCAL/MOL
REMARK 923 INTER-LIGAND FREE ENERGY PREDICTED BY IDOCK:   -4.03 KCAL/MOL
REMARK 924 INTRA-LIGAND FREE ENERGY PREDICTED BY IDOCK:   -0.53 KCAL/MOL
REMARK 927      BINDING AFFINITY PREDICTED BY RF-SCORE:    0.00 PKD
ROOT
HETATM    1  C   UNL     1      -7.736   8.829  64.693  1.00  0.00    -0.119 C  
HETATM    2  C   UNL     1      -8.559   9.652  65.673  1.00  0.00    -0.136 C  
ENDROOT
BRANCH   2   3
HETATM    3  C   UNL     1      -8.694   8.883  66.984  1.00  0.00    -0.123 C  
HETATM    4  C   UNL     1      -8.587   8.321  69.122  1.00  0.00    -0.138 C  
HETATM    5  N   UNL     1      -8.184   9.340  68.107  1.00  0.00    -0.118 NA 
HETATM    6  N   UNL     1      -9.382   7.690  67.067  1.00  0.00    -0.149 NA 
HETATM    7  C   UNL     1      -9.668   7.457  68.460  1.00  0.00    -0.151 C  
ENDBRANCH   2   3
BRANCH   2   8
HETATM    8  O   UNL     1      -9.904   9.843  65.221  1.00  0.00    -0.302 OA 
BRANCH   8   9
HETATM    9  C   UNL     1     -10.459  11.090  65.128  1.00  0.00    -0.262 A  
HETATM   10  C   UNL     1     -11.177  12.825  63.538  1.00  0.00    -0.429 A  
HETATM   11 CL   UNL     1      -9.796  10.788  62.480  1.00  0.00    -0.167 Cl 
HETATM   12  C   UNL     1     -11.791  13.532  64.564  1.00  0.00    -0.442 A  
HETATM   13  C   UNL     1     -10.517  11.620  63.820  1.00  0.00    -0.402 A  
HETATM   14  C   UNL     1     -11.748  13.028  65.861  1.00  0.00    -0.442 A  
HETATM   15  C   UNL     1     -11.108  11.808  66.145  1.00  0.00    -0.307 A  
HETATM   16 CL   UNL     1     -11.318  11.249  67.767  1.00  0.00    -0.344 Cl 
ENDBRANCH   8   9
ENDBRANCH   2   8
TORSDOF 3
ENDMDL
MODEL      128
REMARK 921   NORMALIZED FREE ENERGY PREDICTED BY IDOCK:   -3.45 KCAL/MOL
REMARK 922        TOTAL FREE ENERGY PREDICTED BY IDOCK:   -4.54 KCAL/MOL
REMARK 923 INTER-LIGAND FREE ENERGY PREDICTED BY IDOCK:   -4.16 KCAL/MOL
REMARK 924 INTRA-LIGAND FREE ENERGY PREDICTED BY IDOCK:   -0.38 KCAL/MOL
REMARK 927      BINDING AFFINITY PREDICTED BY RF-SCORE:    0.00 PKD
ROOT
HETATM    1  C   UNL     1     -12.004  12.732  66.454  1.00  0.00    -0.443 C  
HETATM    2  C   UNL     1     -11.446  13.100  67.820  1.00  0.00    -0.313 C  
ENDROOT
BRANCH   2   3
HETATM    3  C   UNL     1     -10.569  14.342  67.686  1.00  0.00    -0.260 C  
HETATM    4  C   UNL     1      -9.181  16.005  68.139  1.00  0.00    -0.195 C  
HETATM    5  N   UNL     1      -9.945  14.862  68.721  1.00  0.00    -0.222 NA 
HETATM    6  N   UNL     1     -10.359  14.963  66.472  1.00  0.00    -0.285 NA 
HETATM    7  C   UNL     1      -9.200  15.807  66.618  1.00  0.00    -0.255 C  
ENDBRANCH   2   3
BRANCH   2   8
HETATM    8  O   UNL     1     -10.572  12.091  68.337  1.00  0.00    -0.203 OA 
BRANCH   8   9
HETATM    9  C   UNL     1     -11.030  11.100  69.163  1.00  0.00    -0.242 A  
HETATM   10  C   UNL     1     -10.891   8.690  69.632  1.00  0.00    -0.163 A  
HETATM   11 CL   UNL     1      -9.729   9.493  67.356  1.00  0.00    -0.188 Cl 
HETATM   12  C   UNL     1     -11.585   8.866  70.822  1.00  0.00    -0.301 A  
HETATM   13  C   UNL     1     -10.620   9.795  68.813  1.00  0.00    -0.219 A  
HETATM   14  C   UNL     1     -11.998  10.143  71.188  1.00  0.00    -0.480 A  
HETATM   15  C   UNL     1     -11.708  11.259  70.382  1.00  0.00    -0.304 A  
HETATM   16 CL   UNL     1     -12.129  12.780  71.086  1.00  0.00    -0.088 Cl 
ENDBRANCH   8   9
ENDBRANCH   2   8
TORSDOF 3
ENDMDL
MODEL      129
REMARK 921   NORMALIZED FREE ENERGY PREDICTED BY IDOCK:   -3.45 KCAL/MOL
REMARK 922        TOTAL FREE ENERGY PREDICTED BY IDOCK:   -4.54 KCAL/MOL
REMARK 923 INTER-LIGAND FREE ENERGY PREDICTED BY IDOCK:   -4.29 KCAL/MOL
REMARK 924 INTRA-LIGAND FREE ENERGY PREDICTED BY IDOCK:   -0.25 KCAL/MOL
REMARK 927      BINDING AFFINITY PREDICTED BY RF-SCORE:    0.00 PKD
ROOT
HETATM    1  C   UNL     1     -11.918  12.846  66.321  1.00  0.00    -0.472 C  
HETATM    2  C   UNL     1     -11.879  13.602  67.641  1.00  0.00    -0.369 C  
ENDROOT
BRANCH   2   3
HETATM    3  C   UNL     1     -11.350  15.012  67.396  1.00  0.00    -0.332 C  
HETATM    4  C   UNL     1     -10.616  17.075  67.712  1.00  0.00    -0.350 C  
HETATM    5  N   UNL     1     -11.189  15.869  68.380  1.00  0.00    -0.353 NA 
HETATM    6  N   UNL     1     -10.983  15.449  66.140  1.00  0.00    -0.310 NA 
HETATM    7  C   UNL     1     -10.166  16.623  66.318  1.00  0.00    -0.334 C  
ENDBRANCH   2   3
BRANCH   2   8
HETATM    8  O   UNL     1     -10.956  13.021  68.568  1.00  0.00    -0.243 OA 
BRANCH   8   9
HETATM    9  C   UNL     1     -10.287  11.862  68.284  1.00  0.00    -0.201 A  
HETATM   10  C   UNL     1     -10.444   9.409  68.380  1.00  0.00    -0.256 A  
HETATM   11 CL   UNL     1     -12.387  10.742  69.654  1.00  0.00    -0.335 Cl 
HETATM   12  C   UNL     1      -9.293   9.290  67.611  1.00  0.00    -0.146 A  
HETATM   13  C   UNL     1     -10.932  10.681  68.713  1.00  0.00    -0.246 A  
HETATM   14  C   UNL     1      -8.641  10.440  67.177  1.00  0.00    -0.130 A  
HETATM   15  C   UNL     1      -9.140  11.719  67.488  1.00  0.00    -0.175 A  
HETATM   16 CL   UNL     1      -8.312  13.020  66.708  1.00  0.00    -0.033 Cl 
ENDBRANCH   8   9
ENDBRANCH   2   8
TORSDOF 3
ENDMDL
MODEL      130
REMARK 921   NORMALIZED FREE ENERGY PREDICTED BY IDOCK:   -3.45 KCAL/MOL
REMARK 922        TOTAL FREE ENERGY PREDICTED BY IDOCK:   -4.54 KCAL/MOL
REMARK 923 INTER-LIGAND FREE ENERGY PREDICTED BY IDOCK:   -4.70 KCAL/MOL
REMARK 924 INTRA-LIGAND FREE ENERGY PREDICTED BY IDOCK:    0.16 KCAL/MOL
REMARK 927      BINDING AFFINITY PREDICTED BY RF-SCORE:    0.00 PKD
ROOT
HETATM    1  C   UNL     1      -5.907  21.052  67.426  1.00  0.00    -0.352 C  
HETATM    2  C   UNL     1      -6.848  20.093  68.140  1.00  0.00    -0.291 C  
ENDROOT
BRANCH   2   3
HETATM    3  C   UNL     1      -6.203  19.637  69.446  1.00  0.00    -0.315 C  
HETATM    4  C   UNL     1      -5.637  19.484  71.580  1.00  0.00    -0.286 C  
HETATM    5  N   UNL     1      -6.392  20.288  70.573  1.00  0.00    -0.465 NA 
HETATM    6  N   UNL     1      -5.419  18.504  69.519  1.00  0.00    -0.206 NA 
HETATM    7  C   UNL     1      -5.323  18.141  70.911  1.00  0.00    -0.236 C  
ENDBRANCH   2   3
BRANCH   2   8
HETATM    8  O   UNL     1      -7.058  18.888  67.396  1.00  0.00    -0.205 OA 
BRANCH   8   9
HETATM    9  C   UNL     1      -8.142  18.085  67.622  1.00  0.00    -0.232 A  
HETATM   10  C   UNL     1     -10.597  17.993  67.509  1.00  0.00    -0.402 A  
HETATM   11 CL   UNL     1      -9.512  20.410  67.116  1.00  0.00    -0.558 Cl 
HETATM   12  C   UNL     1     -10.572  16.625  67.752  1.00  0.00    -0.342 A  
HETATM   13  C   UNL     1      -9.395  18.712  67.447  1.00  0.00    -0.282 A  
HETATM   14  C   UNL     1      -9.349  15.986  67.927  1.00  0.00    -0.208 A  
HETATM   15  C   UNL     1      -8.138  16.698  67.842  1.00  0.00    -0.172 A  
HETATM   16 CL   UNL     1      -6.721  15.711  67.895  1.00  0.00    -0.149 Cl 
ENDBRANCH   8   9
ENDBRANCH   2   8
TORSDOF 3
ENDMDL
MODEL      131
REMARK 921   NORMALIZED FREE ENERGY PREDICTED BY IDOCK:   -3.44 KCAL/MOL
REMARK 922        TOTAL FREE ENERGY PREDICTED BY IDOCK:   -4.53 KCAL/MOL
REMARK 923 INTER-LIGAND FREE ENERGY PREDICTED BY IDOCK:   -4.09 KCAL/MOL
REMARK 924 INTRA-LIGAND FREE ENERGY PREDICTED BY IDOCK:   -0.43 KCAL/MOL
REMARK 927      BINDING AFFINITY PREDICTED BY RF-SCORE:    0.00 PKD
ROOT
HETATM    1  C   UNL     1     -10.072   5.530  69.417  1.00  0.00    -0.306 C  
HETATM    2  C   UNL     1     -10.081   7.051  69.440  1.00  0.00    -0.169 C  
ENDROOT
BRANCH   2   3
HETATM    3  C   UNL     1     -10.727   7.530  70.738  1.00  0.00    -0.229 C  
HETATM    4  C   UNL     1     -12.221   8.120  72.259  1.00  0.00    -0.346 C  
HETATM    5  N   UNL     1     -12.026   7.707  70.837  1.00  0.00    -0.268 NA 
HETATM    6  N   UNL     1      -9.988   7.769  71.878  1.00  0.00    -0.169 NA 
HETATM    7  C   UNL     1     -10.910   7.796  72.986  1.00  0.00    -0.389 C  
ENDBRANCH   2   3
BRANCH   2   8
HETATM    8  O   UNL     1     -10.897   7.601  68.401  1.00  0.00    -0.098 OA 
BRANCH   8   9
HETATM    9  C   UNL     1     -10.475   8.658  67.641  1.00  0.00    -0.244 A  
HETATM   10  C   UNL     1      -9.410   9.263  65.508  1.00  0.00    -0.303 A  
HETATM   11 CL   UNL     1      -9.395   6.653  66.107  1.00  0.00    -0.143 Cl 
HETATM   12  C   UNL     1      -9.710  10.603  65.721  1.00  0.00    -0.272 A  
HETATM   13  C   UNL     1      -9.787   8.305  66.460  1.00  0.00    -0.253 A  
HETATM   14  C   UNL     1     -10.389  10.974  66.877  1.00  0.00    -0.279 A  
HETATM   15  C   UNL     1     -10.791  10.014  67.824  1.00  0.00    -0.282 A  
HETATM   16 CL   UNL     1     -11.784  10.633  69.095  1.00  0.00    -0.340 Cl 
ENDBRANCH   8   9
ENDBRANCH   2   8
TORSDOF 3
ENDMDL
MODEL      132
REMARK 921   NORMALIZED FREE ENERGY PREDICTED BY IDOCK:   -3.44 KCAL/MOL
REMARK 922        TOTAL FREE ENERGY PREDICTED BY IDOCK:   -4.53 KCAL/MOL
REMARK 923 INTER-LIGAND FREE ENERGY PREDICTED BY IDOCK:   -4.01 KCAL/MOL
REMARK 924 INTRA-LIGAND FREE ENERGY PREDICTED BY IDOCK:   -0.51 KCAL/MOL
REMARK 927      BINDING AFFINITY PREDICTED BY RF-SCORE:    0.00 PKD
ROOT
HETATM    1  C   UNL     1     -10.980   6.571  68.539  1.00  0.00    -0.360 C  
HETATM    2  C   UNL     1     -11.191   6.101  69.971  1.00  0.00    -0.401 C  
ENDROOT
BRANCH   2   3
HETATM    3  C   UNL     1     -11.639   7.283  70.826  1.00  0.00    -0.302 C  
HETATM    4  C   UNL     1     -11.728   9.263  71.809  1.00  0.00    -0.386 C  
HETATM    5  N   UNL     1     -10.904   8.367  70.944  1.00  0.00    -0.225 NA 
HETATM    6  N   UNL     1     -12.848   7.289  71.491  1.00  0.00    -0.376 NA 
HETATM    7  C   UNL     1     -13.136   8.658  71.840  1.00  0.00    -0.373 C  
ENDBRANCH   2   3
BRANCH   2   8
HETATM    8  O   UNL     1      -9.975   5.652  70.577  1.00  0.00    -0.183 OA 
BRANCH   8   9
HETATM    9  C   UNL     1      -9.857   4.394  71.103  1.00  0.00    -0.188 A  
HETATM   10  C   UNL     1      -8.759   2.215  70.800  1.00  0.00    -0.109 A  
HETATM   11 CL   UNL     1      -8.475   3.943  68.774  1.00  0.00    -0.091 Cl 
HETATM   12  C   UNL     1      -9.201   1.801  72.050  1.00  0.00    -0.136 A  
HETATM   13  C   UNL     1      -9.086   3.496  70.334  1.00  0.00    -0.127 A  
HETATM   14  C   UNL     1      -9.961   2.670  72.827  1.00  0.00    -0.208 A  
HETATM   15  C   UNL     1     -10.272   3.965  72.374  1.00  0.00    -0.157 A  
HETATM   16 CL   UNL     1     -11.057   4.964  73.545  1.00  0.00    -0.392 Cl 
ENDBRANCH   8   9
ENDBRANCH   2   8
TORSDOF 3
ENDMDL
MODEL      133
REMARK 921   NORMALIZED FREE ENERGY PREDICTED BY IDOCK:   -3.40 KCAL/MOL
REMARK 922        TOTAL FREE ENERGY PREDICTED BY IDOCK:   -4.48 KCAL/MOL
REMARK 923 INTER-LIGAND FREE ENERGY PREDICTED BY IDOCK:   -4.43 KCAL/MOL
REMARK 924 INTRA-LIGAND FREE ENERGY PREDICTED BY IDOCK:   -0.05 KCAL/MOL
REMARK 927      BINDING AFFINITY PREDICTED BY RF-SCORE:    0.00 PKD
ROOT
HETATM    1  C   UNL     1     -11.919  13.775  70.153  1.00  0.00    -0.404 C  
HETATM    2  C   UNL     1     -11.696  12.432  69.473  1.00  0.00    -0.322 C  
ENDROOT
BRANCH   2   3
HETATM    3  C   UNL     1     -11.963  11.312  70.474  1.00  0.00    -0.371 C  
HETATM    4  C   UNL     1     -12.905  10.053  72.031  1.00  0.00    -0.389 C  
HETATM    5  N   UNL     1     -13.003  11.339  71.278  1.00  0.00    -0.370 NA 
HETATM    6  N   UNL     1     -11.150  10.201  70.564  1.00  0.00    -0.313 NA 
HETATM    7  C   UNL     1     -11.888   9.188  71.276  1.00  0.00    -0.327 C  
ENDBRANCH   2   3
BRANCH   2   8
HETATM    8  O   UNL     1     -10.333  12.249  69.073  1.00  0.00    -0.110 OA 
BRANCH   8   9
HETATM    9  C   UNL     1      -9.997  11.965  67.778  1.00  0.00    -0.186 A  
HETATM   10  C   UNL     1      -8.578  10.534  66.368  1.00  0.00    -0.147 A  
HETATM   11 CL   UNL     1      -8.077  10.426  68.997  1.00  0.00    -0.128 Cl 
HETATM   12  C   UNL     1      -9.249  10.964  65.230  1.00  0.00    -0.236 A  
HETATM   13  C   UNL     1      -8.948  11.032  67.625  1.00  0.00    -0.142 A  
HETATM   14  C   UNL     1     -10.286  11.882  65.356  1.00  0.00    -0.306 A  
HETATM   15  C   UNL     1     -10.678  12.367  66.618  1.00  0.00    -0.235 A  
HETATM   16 CL   UNL     1     -12.101  13.347  66.598  1.00  0.00    -0.441 Cl 
ENDBRANCH   8   9
ENDBRANCH   2   8
TORSDOF 3
ENDMDL
MODEL      134
REMARK 921   NORMALIZED FREE ENERGY PREDICTED BY IDOCK:   -3.40 KCAL/MOL
REMARK 922        TOTAL FREE ENERGY PREDICTED BY IDOCK:   -4.48 KCAL/MOL
REMARK 923 INTER-LIGAND FREE ENERGY PREDICTED BY IDOCK:   -4.06 KCAL/MOL
REMARK 924 INTRA-LIGAND FREE ENERGY PREDICTED BY IDOCK:   -0.42 KCAL/MOL
REMARK 927      BINDING AFFINITY PREDICTED BY RF-SCORE:    0.00 PKD
ROOT
HETATM    1  C   UNL     1     -12.640  13.717  65.953  1.00  0.00    -0.494 C  
HETATM    2  C   UNL     1     -11.123  13.773  65.862  1.00  0.00    -0.286 C  
ENDROOT
BRANCH   2   3
HETATM    3  C   UNL     1     -10.613  12.502  65.188  1.00  0.00    -0.293 C  
HETATM    4  C   UNL     1     -10.051  10.397  64.804  1.00  0.00    -0.317 C  
HETATM    5  N   UNL     1     -10.541  11.360  65.835  1.00  0.00    -0.261 NA 
HETATM    6  N   UNL     1     -10.235  12.478  63.862  1.00  0.00    -0.403 NA 
HETATM    7  C   UNL     1     -10.212  11.097  63.449  1.00  0.00    -0.380 C  
ENDBRANCH   2   3
BRANCH   2   8
HETATM    8  O   UNL     1     -10.504  13.775  67.153  1.00  0.00    -0.269 OA 
BRANCH   8   9
HETATM    9  C   UNL     1      -9.374  14.504  67.406  1.00  0.00    -0.197 A  
HETATM   10  C   UNL     1      -8.542  16.570  68.450  1.00  0.00    -0.213 A  
HETATM   11 CL   UNL     1     -11.205  16.367  68.251  1.00  0.00    -0.343 Cl 
HETATM   12  C   UNL     1      -7.231  16.135  68.300  1.00  0.00    -0.136 A  
HETATM   13  C   UNL     1      -9.599  15.763  68.005  1.00  0.00    -0.210 A  
HETATM   14  C   UNL     1      -6.985  14.898  67.713  1.00  0.00    -0.193 A  
HETATM   15  C   UNL     1      -8.043  14.073  67.287  1.00  0.00    -0.156 A  
HETATM   16 CL   UNL     1      -7.558  12.501  66.760  1.00  0.00     0.091 Cl 
ENDBRANCH   8   9
ENDBRANCH   2   8
TORSDOF 3
ENDMDL
MODEL      135
REMARK 921   NORMALIZED FREE ENERGY PREDICTED BY IDOCK:   -3.39 KCAL/MOL
REMARK 922        TOTAL FREE ENERGY PREDICTED BY IDOCK:   -4.47 KCAL/MOL
REMARK 923 INTER-LIGAND FREE ENERGY PREDICTED BY IDOCK:   -4.22 KCAL/MOL
REMARK 924 INTRA-LIGAND FREE ENERGY PREDICTED BY IDOCK:   -0.24 KCAL/MOL
REMARK 927      BINDING AFFINITY PREDICTED BY RF-SCORE:    0.00 PKD
ROOT
HETATM    1  C   UNL     1     -11.191  10.687  69.401  1.00  0.00    -0.329 C  
HETATM    2  C   UNL     1     -10.961   9.928  68.103  1.00  0.00    -0.207 C  
ENDROOT
BRANCH   2   3
HETATM    3  C   UNL     1     -10.432   8.533  68.424  1.00  0.00    -0.171 C  
HETATM    4  C   UNL     1      -9.448   6.831  69.440  1.00  0.00    -0.147 C  
HETATM    5  N   UNL     1      -9.694   8.303  69.488  1.00  0.00    -0.172 NA 
HETATM    6  N   UNL     1     -10.727   7.439  67.638  1.00  0.00    -0.229 NA 
HETATM    7  C   UNL     1     -10.440   6.261  68.419  1.00  0.00    -0.227 C  
ENDBRANCH   2   3
BRANCH   2   8
HETATM    8  O   UNL     1      -9.940  10.529  67.299  1.00  0.00    -0.174 OA 
BRANCH   8   9
HETATM    9  C   UNL     1     -10.109  10.728  65.956  1.00  0.00    -0.249 A  
HETATM   10  C   UNL     1     -11.009  12.290  64.282  1.00  0.00    -0.392 A  
HETATM   11 CL   UNL     1     -11.624  12.846  66.829  1.00  0.00    -0.390 Cl 
HETATM   12  C   UNL     1     -10.408  11.565  63.261  1.00  0.00    -0.435 A  
HETATM   13  C   UNL     1     -10.862  11.873  65.613  1.00  0.00    -0.286 A  
HETATM   14  C   UNL     1      -9.660  10.435  63.575  1.00  0.00    -0.361 A  
HETATM   15  C   UNL     1      -9.489  10.025  64.911  1.00  0.00    -0.293 A  
HETATM   16 CL   UNL     1      -8.379   8.718  65.123  1.00  0.00    -0.160 Cl 
ENDBRANCH   8   9
ENDBRANCH   2   8
TORSDOF 3
ENDMDL
MODEL      136
REMARK 921   NORMALIZED FREE ENERGY PREDICTED BY IDOCK:   -3.38 KCAL/MOL
REMARK 922        TOTAL FREE ENERGY PREDICTED BY IDOCK:   -4.46 KCAL/MOL
REMARK 923 INTER-LIGAND FREE ENERGY PREDICTED BY IDOCK:   -4.05 KCAL/MOL
REMARK 924 INTRA-LIGAND FREE ENERGY PREDICTED BY IDOCK:   -0.41 KCAL/MOL
REMARK 927      BINDING AFFINITY PREDICTED BY RF-SCORE:    0.00 PKD
ROOT
HETATM    1  C   UNL     1     -10.367   7.282  69.983  1.00  0.00    -0.222 C  
HETATM    2  C   UNL     1     -11.566   6.508  70.510  1.00  0.00    -0.393 C  
ENDROOT
BRANCH   2   3
HETATM    3  C   UNL     1     -12.567   7.486  71.120  1.00  0.00    -0.260 C  
HETATM    4  C   UNL     1     -14.384   8.342  72.047  1.00  0.00    -0.464 C  
HETATM    5  N   UNL     1     -13.781   7.110  71.458  1.00  0.00    -0.359 NA 
HETATM    6  N   UNL     1     -12.241   8.802  71.376  1.00  0.00    -0.301 NA 
HETATM    7  C   UNL     1     -13.224   9.313  72.299  1.00  0.00    -0.460 C  
ENDBRANCH   2   3
BRANCH   2   8
HETATM    8  O   UNL     1     -11.212   5.631  71.584  1.00  0.00    -0.231 OA 
BRANCH   8   9
HETATM    9  C   UNL     1      -9.910   5.300  71.842  1.00  0.00    -0.178 A  
HETATM   10  C   UNL     1      -8.128   5.438  73.531  1.00  0.00    -0.113 A  
HETATM   11 CL   UNL     1     -10.330   6.870  74.055  1.00  0.00    -0.399 Cl 
HETATM   12  C   UNL     1      -7.337   4.569  72.790  1.00  0.00    -0.083 A  
HETATM   13  C   UNL     1      -9.398   5.800  73.059  1.00  0.00    -0.143 A  
HETATM   14  C   UNL     1      -7.821   4.064  71.588  1.00  0.00    -0.070 A  
HETATM   15  C   UNL     1      -9.104   4.404  71.121  1.00  0.00    -0.126 A  
HETATM   16 CL   UNL     1      -9.608   3.536  69.715  1.00  0.00    -0.243 Cl 
ENDBRANCH   8   9
ENDBRANCH   2   8
TORSDOF 3
ENDMDL
MODEL      137
REMARK 921   NORMALIZED FREE ENERGY PREDICTED BY IDOCK:   -3.36 KCAL/MOL
REMARK 922        TOTAL FREE ENERGY PREDICTED BY IDOCK:   -4.44 KCAL/MOL
REMARK 923 INTER-LIGAND FREE ENERGY PREDICTED BY IDOCK:   -4.51 KCAL/MOL
REMARK 924 INTRA-LIGAND FREE ENERGY PREDICTED BY IDOCK:    0.07 KCAL/MOL
REMARK 927      BINDING AFFINITY PREDICTED BY RF-SCORE:    0.00 PKD
ROOT
HETATM    1  C   UNL     1     -10.771  11.443  65.956  1.00  0.00    -0.318 C  
HETATM    2  C   UNL     1     -10.604  11.721  67.443  1.00  0.00    -0.224 C  
ENDROOT
BRANCH   2   3
HETATM    3  C   UNL     1      -9.998  10.495  68.119  1.00  0.00    -0.153 C  
HETATM    4  C   UNL     1      -9.769   8.579  69.202  1.00  0.00    -0.170 C  
HETATM    5  N   UNL     1     -10.744   9.615  68.749  1.00  0.00    -0.221 NA 
HETATM    6  N   UNL     1      -8.645  10.229  68.075  1.00  0.00    -0.118 NA 
HETATM    7  C   UNL     1      -8.471   8.842  68.429  1.00  0.00    -0.130 C  
ENDBRANCH   2   3
BRANCH   2   8
HETATM    8  O   UNL     1     -11.861  11.916  68.099  1.00  0.00    -0.424 OA 
BRANCH   8   9
HETATM    9  C   UNL     1     -11.977  12.717  69.203  1.00  0.00    -0.246 A  
HETATM   10  C   UNL     1     -12.033  15.058  69.955  1.00  0.00    -0.374 A  
HETATM   11 CL   UNL     1     -11.348  14.683  67.393  1.00  0.00    -0.351 Cl 
HETATM   12  C   UNL     1     -12.424  14.657  71.226  1.00  0.00    -0.408 A  
HETATM   13  C   UNL     1     -11.810  14.098  68.958  1.00  0.00    -0.348 A  
HETATM   14  C   UNL     1     -12.596  13.302  71.490  1.00  0.00    -0.311 A  
HETATM   15  C   UNL     1     -12.398  12.335  70.487  1.00  0.00    -0.264 A  
HETATM   16 CL   UNL     1     -12.840  10.728  70.943  1.00  0.00    -0.448 Cl 
ENDBRANCH   8   9
ENDBRANCH   2   8
TORSDOF 3
ENDMDL
MODEL      138
REMARK 921   NORMALIZED FREE ENERGY PREDICTED BY IDOCK:   -3.35 KCAL/MOL
REMARK 922        TOTAL FREE ENERGY PREDICTED BY IDOCK:   -4.43 KCAL/MOL
REMARK 923 INTER-LIGAND FREE ENERGY PREDICTED BY IDOCK:   -3.97 KCAL/MOL
REMARK 924 INTRA-LIGAND FREE ENERGY PREDICTED BY IDOCK:   -0.46 KCAL/MOL
REMARK 927      BINDING AFFINITY PREDICTED BY RF-SCORE:    0.00 PKD
ROOT
HETATM    1  C   UNL     1      -7.573  10.070  63.751  1.00  0.00    -0.141 C  
HETATM    2  C   UNL     1      -8.889   9.704  64.421  1.00  0.00    -0.230 C  
ENDROOT
BRANCH   2   3
HETATM    3  C   UNL     1      -9.755  10.955  64.544  1.00  0.00    -0.282 C  
HETATM    4  C   UNL     1     -10.575  12.895  65.219  1.00  0.00    -0.297 C  
HETATM    5  N   UNL     1      -9.566  11.832  65.505  1.00  0.00    -0.224 NA 
HETATM    6  N   UNL     1     -10.754  11.245  63.638  1.00  0.00    -0.383 NA 
HETATM    7  C   UNL     1     -11.077  12.642  63.792  1.00  0.00    -0.453 C  
ENDBRANCH   2   3
BRANCH   2   8
HETATM    8  O   UNL     1      -8.703   9.254  65.767  1.00  0.00    -0.139 OA 
BRANCH   8   9
HETATM    9  C   UNL     1      -9.112   8.013  66.172  1.00  0.00    -0.176 A  
HETATM   10  C   UNL     1     -10.884   6.807  67.379  1.00  0.00    -0.417 A  
HETATM   11 CL   UNL     1     -10.984   9.478  67.547  1.00  0.00    -0.234 Cl 
HETATM   12  C   UNL     1     -10.366   5.590  66.954  1.00  0.00    -0.315 A  
HETATM   13  C   UNL     1     -10.261   8.002  66.994  1.00  0.00    -0.303 A  
HETATM   14  C   UNL     1      -9.235   5.576  66.143  1.00  0.00    -0.166 A  
HETATM   15  C   UNL     1      -8.620   6.773  65.733  1.00  0.00    -0.137 A  
HETATM   16 CL   UNL     1      -7.350   6.568  64.580  1.00  0.00    -0.075 Cl 
ENDBRANCH   8   9
ENDBRANCH   2   8
TORSDOF 3
ENDMDL
MODEL      139
REMARK 921   NORMALIZED FREE ENERGY PREDICTED BY IDOCK:   -3.34 KCAL/MOL
REMARK 922        TOTAL FREE ENERGY PREDICTED BY IDOCK:   -4.41 KCAL/MOL
REMARK 923 INTER-LIGAND FREE ENERGY PREDICTED BY IDOCK:   -3.89 KCAL/MOL
REMARK 924 INTRA-LIGAND FREE ENERGY PREDICTED BY IDOCK:   -0.52 KCAL/MOL
REMARK 927      BINDING AFFINITY PREDICTED BY RF-SCORE:    0.00 PKD
ROOT
HETATM    1  C   UNL     1     -12.346  13.408  65.638  1.00  0.00    -0.521 C  
HETATM    2  C   UNL     1     -11.085  13.314  66.484  1.00  0.00    -0.294 C  
ENDROOT
BRANCH   2   3
HETATM    3  C   UNL     1     -10.808  14.672  67.124  1.00  0.00    -0.303 C  
HETATM    4  C   UNL     1     -10.185  16.772  67.430  1.00  0.00    -0.288 C  
HETATM    5  N   UNL     1     -10.200  15.633  66.465  1.00  0.00    -0.273 NA 
HETATM    6  N   UNL     1     -11.208  14.971  68.410  1.00  0.00    -0.279 NA 
HETATM    7  C   UNL     1     -11.170  16.405  68.546  1.00  0.00    -0.334 C  
ENDBRANCH   2   3
BRANCH   2   8
HETATM    8  O   UNL     1      -9.924  13.038  65.695  1.00  0.00    -0.275 OA 
BRANCH   8   9
HETATM    9  C   UNL     1      -9.082  12.001  65.994  1.00  0.00    -0.092 A  
HETATM   10  C   UNL     1      -8.270   9.818  65.204  1.00  0.00    -0.140 A  
HETATM   11 CL   UNL     1     -10.345  10.837  63.851  1.00  0.00    -0.390 Cl 
HETATM   12  C   UNL     1      -7.284   9.814  66.183  1.00  0.00    -0.100 A  
HETATM   13  C   UNL     1      -9.159  10.899  65.115  1.00  0.00    -0.196 A  
HETATM   14  C   UNL     1      -7.189  10.890  67.059  1.00  0.00    -0.114 A  
HETATM   15  C   UNL     1      -8.063  11.988  66.959  1.00  0.00    -0.158 A  
HETATM   16 CL   UNL     1      -7.675  13.309  68.003  1.00  0.00    -0.131 Cl 
ENDBRANCH   8   9
ENDBRANCH   2   8
TORSDOF 3
ENDMDL
MODEL      140
REMARK 921   NORMALIZED FREE ENERGY PREDICTED BY IDOCK:   -3.34 KCAL/MOL
REMARK 922        TOTAL FREE ENERGY PREDICTED BY IDOCK:   -4.41 KCAL/MOL
REMARK 923 INTER-LIGAND FREE ENERGY PREDICTED BY IDOCK:   -3.93 KCAL/MOL
REMARK 924 INTRA-LIGAND FREE ENERGY PREDICTED BY IDOCK:   -0.48 KCAL/MOL
REMARK 927      BINDING AFFINITY PREDICTED BY RF-SCORE:    0.00 PKD
ROOT
HETATM    1  C   UNL     1     -11.210  11.229  69.546  1.00  0.00    -0.337 C  
HETATM    2  C   UNL     1     -10.613  11.751  68.248  1.00  0.00    -0.211 C  
ENDROOT
BRANCH   2   3
HETATM    3  C   UNL     1     -10.840  13.258  68.161  1.00  0.00    -0.251 C  
HETATM    4  C   UNL     1     -11.798  15.252  68.176  1.00  0.00    -0.195 C  
HETATM    5  N   UNL     1     -12.042  13.781  68.264  1.00  0.00    -0.343 NA 
HETATM    6  N   UNL     1      -9.798  14.147  68.004  1.00  0.00    -0.217 NA 
HETATM    7  C   UNL     1     -10.290  15.451  68.370  1.00  0.00    -0.229 C  
ENDBRANCH   2   3
BRANCH   2   8
HETATM    8  O   UNL     1     -11.273  11.215  67.096  1.00  0.00    -0.298 OA 
BRANCH   8   9
HETATM    9  C   UNL     1     -10.594  10.951  65.937  1.00  0.00    -0.178 A  
HETATM   10  C   UNL     1      -9.428   9.187  64.682  1.00  0.00     0.242 A  
HETATM   11 CL   UNL     1     -10.098   8.564  67.200  1.00  0.00    -0.300 Cl 
HETATM   12  C   UNL     1      -9.362  10.006  63.562  1.00  0.00    -0.301 A  
HETATM   13  C   UNL     1     -10.036   9.657  65.855  1.00  0.00    -0.281 A  
HETATM   14  C   UNL     1      -9.907  11.285  63.620  1.00  0.00    -0.377 A  
HETATM   15  C   UNL     1     -10.539  11.754  64.787  1.00  0.00    -0.301 A  
HETATM   16 CL   UNL     1     -11.320  13.285  64.612  1.00  0.00    -0.351 Cl 
ENDBRANCH   8   9
ENDBRANCH   2   8
TORSDOF 3
ENDMDL
MODEL      141
REMARK 921   NORMALIZED FREE ENERGY PREDICTED BY IDOCK:   -3.33 KCAL/MOL
REMARK 922        TOTAL FREE ENERGY PREDICTED BY IDOCK:   -4.41 KCAL/MOL
REMARK 923 INTER-LIGAND FREE ENERGY PREDICTED BY IDOCK:   -4.17 KCAL/MOL
REMARK 924 INTRA-LIGAND FREE ENERGY PREDICTED BY IDOCK:   -0.24 KCAL/MOL
REMARK 927      BINDING AFFINITY PREDICTED BY RF-SCORE:    0.00 PKD
ROOT
HETATM    1  C   UNL     1      -9.652  19.249  67.074  1.00  0.00    -0.394 C  
HETATM    2  C   UNL     1      -8.695  18.267  67.734  1.00  0.00    -0.256 C  
ENDROOT
BRANCH   2   3
HETATM    3  C   UNL     1      -7.485  19.027  68.269  1.00  0.00    -0.292 C  
HETATM    4  C   UNL     1      -5.988  20.611  68.653  1.00  0.00    -0.344 C  
HETATM    5  N   UNL     1      -7.187  20.236  67.845  1.00  0.00    -0.293 NA 
HETATM    6  N   UNL     1      -6.664  18.503  69.245  1.00  0.00    -0.262 NA 
HETATM    7  C   UNL     1      -5.906  19.597  69.800  1.00  0.00    -0.273 C  
ENDBRANCH   2   3
BRANCH   2   8
HETATM    8  O   UNL     1      -8.153  17.329  66.798  1.00  0.00    -0.211 OA 
BRANCH   8   9
HETATM    9  C   UNL     1      -8.305  15.980  66.964  1.00  0.00    -0.219 A  
HETATM   10  C   UNL     1      -9.653  14.039  66.279  1.00  0.00    -0.284 A  
HETATM   11 CL   UNL     1     -10.592  16.427  65.511  1.00  0.00    -0.384 Cl 
HETATM   12  C   UNL     1      -8.751  13.178  66.891  1.00  0.00    -0.156 A  
HETATM   13  C   UNL     1      -9.432  15.423  66.319  1.00  0.00    -0.309 A  
HETATM   14  C   UNL     1      -7.634  13.704  67.532  1.00  0.00    -0.180 A  
HETATM   15  C   UNL     1      -7.394  15.090  67.554  1.00  0.00    -0.202 A  
HETATM   16 CL   UNL     1      -5.868  15.543  68.226  1.00  0.00    -0.106 Cl 
ENDBRANCH   8   9
ENDBRANCH   2   8
TORSDOF 3
ENDMDL
MODEL      142
REMARK 921   NORMALIZED FREE ENERGY PREDICTED BY IDOCK:   -3.32 KCAL/MOL
REMARK 922        TOTAL FREE ENERGY PREDICTED BY IDOCK:   -4.39 KCAL/MOL
REMARK 923 INTER-LIGAND FREE ENERGY PREDICTED BY IDOCK:   -4.15 KCAL/MOL
REMARK 924 INTRA-LIGAND FREE ENERGY PREDICTED BY IDOCK:   -0.24 KCAL/MOL
REMARK 927      BINDING AFFINITY PREDICTED BY RF-SCORE:    0.00 PKD
ROOT
HETATM    1  C   UNL     1     -11.970  12.151  69.017  1.00  0.00    -0.302 C  
HETATM    2  C   UNL     1     -11.311  13.090  68.017  1.00  0.00    -0.290 C  
ENDROOT
BRANCH   2   3
HETATM    3  C   UNL     1     -11.221  12.396  66.661  1.00  0.00    -0.315 C  
HETATM    4  C   UNL     1     -11.474  11.915  64.516  1.00  0.00    -0.294 C  
HETATM    5  N   UNL     1     -11.885  12.838  65.615  1.00  0.00    -0.402 NA 
HETATM    6  N   UNL     1     -10.418  11.295  66.453  1.00  0.00    -0.249 NA 
HETATM    7  C   UNL     1     -10.246  11.154  65.029  1.00  0.00    -0.296 C  
ENDBRANCH   2   3
BRANCH   2   8
HETATM    8  O   UNL     1      -9.955  13.386  68.367  1.00  0.00    -0.235 OA 
BRANCH   8   9
HETATM    9  C   UNL     1      -9.374  14.581  68.041  1.00  0.00    -0.201 A  
HETATM   10  C   UNL     1      -7.404  15.603  66.982  1.00  0.00    -0.203 A  
HETATM   11 CL   UNL     1      -7.257  12.960  67.389  1.00  0.00    -0.150 Cl 
HETATM   12  C   UNL     1      -8.014  16.851  67.017  1.00  0.00    -0.228 A  
HETATM   13  C   UNL     1      -8.077  14.484  67.491  1.00  0.00    -0.189 A  
HETATM   14  C   UNL     1      -9.292  16.971  67.553  1.00  0.00    -0.233 A  
HETATM   15  C   UNL     1      -9.982  15.847  68.044  1.00  0.00    -0.220 A  
HETATM   16 CL   UNL     1     -11.622  16.153  68.493  1.00  0.00    -0.340 Cl 
ENDBRANCH   8   9
ENDBRANCH   2   8
TORSDOF 3
ENDMDL
MODEL      143
REMARK 921   NORMALIZED FREE ENERGY PREDICTED BY IDOCK:   -3.32 KCAL/MOL
REMARK 922        TOTAL FREE ENERGY PREDICTED BY IDOCK:   -4.39 KCAL/MOL
REMARK 923 INTER-LIGAND FREE ENERGY PREDICTED BY IDOCK:   -3.99 KCAL/MOL
REMARK 924 INTRA-LIGAND FREE ENERGY PREDICTED BY IDOCK:   -0.39 KCAL/MOL
REMARK 927      BINDING AFFINITY PREDICTED BY RF-SCORE:    0.00 PKD
ROOT
HETATM    1  C   UNL     1      -8.271   7.420  69.484  1.00  0.00    -0.131 C  
HETATM    2  C   UNL     1      -9.391   7.744  70.461  1.00  0.00    -0.163 C  
ENDROOT
BRANCH   2   3
HETATM    3  C   UNL     1      -9.641   6.535  71.358  1.00  0.00    -0.165 C  
HETATM    4  C   UNL     1      -9.349   4.873  72.790  1.00  0.00    -0.132 C  
HETATM    5  N   UNL     1      -8.664   5.953  72.019  1.00  0.00    -0.137 NA 
HETATM    6  N   UNL     1     -10.903   6.011  71.548  1.00  0.00    -0.257 NA 
HETATM    7  C   UNL     1     -10.849   5.184  72.727  1.00  0.00    -0.258 C  
ENDBRANCH   2   3
BRANCH   2   8
HETATM    8  O   UNL     1     -10.639   7.970  69.797  1.00  0.00    -0.234 OA 
BRANCH   8   9
HETATM    9  C   UNL     1     -11.021   9.221  69.394  1.00  0.00    -0.120 A  
HETATM   10  C   UNL     1     -11.989  11.343  70.173  1.00  0.00    -0.460 A  
HETATM   11 CL   UNL     1     -12.046   9.330  71.939  1.00  0.00    -0.443 Cl 
HETATM   12  C   UNL     1     -11.690  11.944  68.956  1.00  0.00    -0.391 A  
HETATM   13  C   UNL     1     -11.660   9.997  70.386  1.00  0.00    -0.302 A  
HETATM   14  C   UNL     1     -11.059  11.199  67.965  1.00  0.00    -0.334 A  
HETATM   15  C   UNL     1     -10.705   9.854  68.182  1.00  0.00    -0.233 A  
HETATM   16 CL   UNL     1      -9.764   9.149  66.916  1.00  0.00    -0.234 Cl 
ENDBRANCH   8   9
ENDBRANCH   2   8
TORSDOF 3
ENDMDL
MODEL      144
REMARK 921   NORMALIZED FREE ENERGY PREDICTED BY IDOCK:   -3.31 KCAL/MOL
REMARK 922        TOTAL FREE ENERGY PREDICTED BY IDOCK:   -4.37 KCAL/MOL
REMARK 923 INTER-LIGAND FREE ENERGY PREDICTED BY IDOCK:   -4.01 KCAL/MOL
REMARK 924 INTRA-LIGAND FREE ENERGY PREDICTED BY IDOCK:   -0.37 KCAL/MOL
REMARK 927      BINDING AFFINITY PREDICTED BY RF-SCORE:    0.00 PKD
ROOT
HETATM    1  C   UNL     1     -12.017  14.318  67.203  1.00  0.00    -0.449 C  
HETATM    2  C   UNL     1     -10.665  13.728  67.576  1.00  0.00    -0.256 C  
ENDROOT
BRANCH   2   3
HETATM    3  C   UNL     1     -10.877  12.378  68.255  1.00  0.00    -0.237 C  
HETATM    4  C   UNL     1     -10.512  10.412  69.203  1.00  0.00    -0.227 C  
HETATM    5  N   UNL     1      -9.873  11.564  68.499  1.00  0.00    -0.196 NA 
HETATM    6  N   UNL     1     -12.121  11.957  68.676  1.00  0.00    -0.377 NA 
HETATM    7  C   UNL     1     -11.913  10.880  69.612  1.00  0.00    -0.343 C  
ENDBRANCH   2   3
BRANCH   2   8
HETATM    8  O   UNL     1      -9.979  14.523  68.548  1.00  0.00    -0.226 OA 
BRANCH   8   9
HETATM    9  C   UNL     1      -9.769  15.862  68.362  1.00  0.00    -0.214 A  
HETATM   10  C   UNL     1     -10.329  18.095  69.228  1.00  0.00     0.094 A  
HETATM   11 CL   UNL     1     -11.732  16.066  70.271  1.00  0.00    -0.338 Cl 
HETATM   12  C   UNL     1      -9.366  18.671  68.409  1.00  0.00    -0.369 A  
HETATM   13  C   UNL     1     -10.528  16.707  69.201  1.00  0.00    -0.333 A  
HETATM   14  C   UNL     1      -8.606  17.858  67.575  1.00  0.00    -0.239 A  
HETATM   15  C   UNL     1      -8.784  16.462  67.561  1.00  0.00    -0.178 A  
HETATM   16 CL   UNL     1      -7.627  15.602  66.609  1.00  0.00    -0.120 Cl 
ENDBRANCH   8   9
ENDBRANCH   2   8
TORSDOF 3
ENDMDL
MODEL      145
REMARK 921   NORMALIZED FREE ENERGY PREDICTED BY IDOCK:   -3.29 KCAL/MOL
REMARK 922        TOTAL FREE ENERGY PREDICTED BY IDOCK:   -4.36 KCAL/MOL
REMARK 923 INTER-LIGAND FREE ENERGY PREDICTED BY IDOCK:   -3.91 KCAL/MOL
REMARK 924 INTRA-LIGAND FREE ENERGY PREDICTED BY IDOCK:   -0.45 KCAL/MOL
REMARK 927      BINDING AFFINITY PREDICTED BY RF-SCORE:    0.00 PKD
ROOT
HETATM    1  C   UNL     1     -11.869  11.677  68.794  1.00  0.00    -0.387 C  
HETATM    2  C   UNL     1     -10.708  10.694  68.803  1.00  0.00    -0.215 C  
ENDROOT
BRANCH   2   3
HETATM    3  C   UNL     1     -10.077  10.651  67.414  1.00  0.00    -0.194 C  
HETATM    4  C   UNL     1      -8.832  11.120  65.646  1.00  0.00    -0.157 C  
HETATM    5  N   UNL     1      -9.230  11.573  67.012  1.00  0.00    -0.173 NA 
HETATM    6  N   UNL     1     -10.335   9.629  66.524  1.00  0.00    -0.222 NA 
HETATM    7  C   UNL     1      -9.301   9.666  65.520  1.00  0.00    -0.248 C  
ENDBRANCH   2   3
BRANCH   2   8
HETATM    8  O   UNL     1     -11.139   9.352  69.051  1.00  0.00    -0.125 OA 
BRANCH   8   9
HETATM    9  C   UNL     1     -10.925   8.741  70.256  1.00  0.00    -0.235 A  
HETATM   10  C   UNL     1      -9.370   7.291  71.494  1.00  0.00    -0.155 A  
HETATM   11 CL   UNL     1      -8.877   7.543  68.873  1.00  0.00    -0.135 Cl 
HETATM   12  C   UNL     1     -10.057   7.539  72.676  1.00  0.00    -0.274 A  
HETATM   13  C   UNL     1      -9.803   7.884  70.299  1.00  0.00    -0.184 A  
HETATM   14  C   UNL     1     -11.165   8.380  72.658  1.00  0.00    -0.339 A  
HETATM   15  C   UNL     1     -11.589   8.997  71.466  1.00  0.00    -0.343 A  
HETATM   16 CL   UNL     1     -12.858  10.151  71.670  1.00  0.00    -0.519 Cl 
ENDBRANCH   8   9
ENDBRANCH   2   8
TORSDOF 3
ENDMDL
MODEL      146
REMARK 921   NORMALIZED FREE ENERGY PREDICTED BY IDOCK:   -3.29 KCAL/MOL
REMARK 922        TOTAL FREE ENERGY PREDICTED BY IDOCK:   -4.35 KCAL/MOL
REMARK 923 INTER-LIGAND FREE ENERGY PREDICTED BY IDOCK:   -4.99 KCAL/MOL
REMARK 924 INTRA-LIGAND FREE ENERGY PREDICTED BY IDOCK:    0.64 KCAL/MOL
REMARK 927      BINDING AFFINITY PREDICTED BY RF-SCORE:    0.00 PKD
ROOT
HETATM    1  C   UNL     1     -10.328  19.840  66.468  1.00  0.00    -0.621 C  
HETATM    2  C   UNL     1      -9.229  20.435  67.336  1.00  0.00    -0.383 C  
ENDROOT
BRANCH   2   3
HETATM    3  C   UNL     1      -7.894  20.321  66.604  1.00  0.00    -0.259 C  
HETATM    4  C   UNL     1      -6.307  19.697  65.194  1.00  0.00    -0.271 C  
HETATM    5  N   UNL     1      -7.699  19.425  65.661  1.00  0.00    -0.432 NA 
HETATM    6  N   UNL     1      -6.839  21.168  66.869  1.00  0.00    -0.393 NA 
HETATM    7  C   UNL     1      -5.922  21.069  65.760  1.00  0.00    -0.255 C  
ENDBRANCH   2   3
BRANCH   2   8
HETATM    8  O   UNL     1      -9.043  19.701  68.551  1.00  0.00    -0.349 OA 
BRANCH   8   9
HETATM    9  C   UNL     1      -8.392  18.498  68.570  1.00  0.00    -0.334 A  
HETATM   10  C   UNL     1      -6.408  17.333  69.439  1.00  0.00    -0.244 A  
HETATM   11 CL   UNL     1      -6.439  19.987  69.797  1.00  0.00    -0.387 Cl 
HETATM   12  C   UNL     1      -6.920  16.113  69.014  1.00  0.00    -0.178 A  
HETATM   13  C   UNL     1      -7.136  18.510  69.216  1.00  0.00    -0.148 A  
HETATM   14  C   UNL     1      -8.155  16.077  68.376  1.00  0.00    -0.159 A  
HETATM   15  C   UNL     1      -8.902  17.252  68.172  1.00  0.00    -0.239 A  
HETATM   16 CL   UNL     1     -10.489  16.991  67.539  1.00  0.00    -0.333 Cl 
ENDBRANCH   8   9
ENDBRANCH   2   8
TORSDOF 3
ENDMDL
MODEL      147
REMARK 921   NORMALIZED FREE ENERGY PREDICTED BY IDOCK:   -3.28 KCAL/MOL
REMARK 922        TOTAL FREE ENERGY PREDICTED BY IDOCK:   -4.34 KCAL/MOL
REMARK 923 INTER-LIGAND FREE ENERGY PREDICTED BY IDOCK:   -4.38 KCAL/MOL
REMARK 924 INTRA-LIGAND FREE ENERGY PREDICTED BY IDOCK:    0.04 KCAL/MOL
REMARK 927      BINDING AFFINITY PREDICTED BY RF-SCORE:    0.00 PKD
ROOT
HETATM    1  C   UNL     1      -9.472  19.753  66.025  1.00  0.00    -0.393 C  
HETATM    2  C   UNL     1      -8.088  19.933  66.632  1.00  0.00    -0.319 C  
ENDROOT
BRANCH   2   3
HETATM    3  C   UNL     1      -7.046  19.918  65.517  1.00  0.00    -0.302 C  
HETATM    4  C   UNL     1      -5.711  19.248  63.885  1.00  0.00    -0.286 C  
HETATM    5  N   UNL     1      -6.692  18.802  64.919  1.00  0.00    -0.443 NA 
HETATM    6  N   UNL     1      -6.447  21.073  65.059  1.00  0.00    -0.164 NA 
HETATM    7  C   UNL     1      -5.859  20.770  63.778  1.00  0.00    -0.291 C  
ENDBRANCH   2   3
BRANCH   2   8
HETATM    8  O   UNL     1      -7.726  18.843  67.485  1.00  0.00    -0.231 OA 
BRANCH   8   9
HETATM    9  C   UNL     1      -8.657  17.950  67.942  1.00  0.00    -0.252 A  
HETATM   10  C   UNL     1      -9.128  15.553  68.227  1.00  0.00    -0.186 A  
HETATM   11 CL   UNL     1      -6.958  16.138  66.771  1.00  0.00    -0.190 Cl 
HETATM   12  C   UNL     1     -10.244  15.849  69.000  1.00  0.00    -0.227 A  
HETATM   13  C   UNL     1      -8.347  16.592  67.704  1.00  0.00    -0.173 A  
HETATM   14  C   UNL     1     -10.568  17.179  69.248  1.00  0.00    -0.220 A  
HETATM   15  C   UNL     1      -9.774  18.226  68.746  1.00  0.00    -0.330 A  
HETATM   16 CL   UNL     1     -10.218  19.797  69.312  1.00  0.00    -0.369 Cl 
ENDBRANCH   8   9
ENDBRANCH   2   8
TORSDOF 3
ENDMDL
MODEL      148
REMARK 921   NORMALIZED FREE ENERGY PREDICTED BY IDOCK:   -3.26 KCAL/MOL
REMARK 922        TOTAL FREE ENERGY PREDICTED BY IDOCK:   -4.32 KCAL/MOL
REMARK 923 INTER-LIGAND FREE ENERGY PREDICTED BY IDOCK:   -3.83 KCAL/MOL
REMARK 924 INTRA-LIGAND FREE ENERGY PREDICTED BY IDOCK:   -0.49 KCAL/MOL
REMARK 927      BINDING AFFINITY PREDICTED BY RF-SCORE:    0.00 PKD
ROOT
HETATM    1  C   UNL     1      -8.642   5.835  69.253  1.00  0.00    -0.111 C  
HETATM    2  C   UNL     1     -10.014   5.246  68.958  1.00  0.00    -0.189 C  
ENDROOT
BRANCH   2   3
HETATM    3  C   UNL     1     -10.005   4.628  67.563  1.00  0.00    -0.121 C  
HETATM    4  C   UNL     1     -10.321   4.302  65.397  1.00  0.00    -0.197 C  
HETATM    5  N   UNL     1     -10.628   5.196  66.553  1.00  0.00    -0.294 NA 
HETATM    6  N   UNL     1      -9.319   3.465  67.281  1.00  0.00    -0.198 NA 
HETATM    7  C   UNL     1      -9.173   3.391  65.849  1.00  0.00    -0.156 C  
ENDBRANCH   2   3
BRANCH   2   8
HETATM    8  O   UNL     1     -11.032   6.251  68.907  1.00  0.00    -0.306 OA 
BRANCH   8   9
HETATM    9  C   UNL     1     -11.037   7.313  69.769  1.00  0.00    -0.182 A  
HETATM   10  C   UNL     1     -10.888   9.765  69.893  1.00  0.00    -0.306 A  
HETATM   11 CL   UNL     1     -10.357   8.695  67.496  1.00  0.00    -0.316 Cl 
HETATM   12  C   UNL     1     -11.245   9.734  71.236  1.00  0.00    -0.417 A  
HETATM   13  C   UNL     1     -10.784   8.567  69.172  1.00  0.00    -0.110 A  
HETATM   14  C   UNL     1     -11.499   8.509  71.845  1.00  0.00    -0.405 A  
HETATM   15  C   UNL     1     -11.420   7.306  71.120  1.00  0.00    -0.283 A  
HETATM   16 CL   UNL     1     -11.953   5.910  71.987  1.00  0.00    -0.239 Cl 
ENDBRANCH   8   9
ENDBRANCH   2   8
TORSDOF 3
ENDMDL
MODEL      149
REMARK 921   NORMALIZED FREE ENERGY PREDICTED BY IDOCK:   -3.24 KCAL/MOL
REMARK 922        TOTAL FREE ENERGY PREDICTED BY IDOCK:   -4.30 KCAL/MOL
REMARK 923 INTER-LIGAND FREE ENERGY PREDICTED BY IDOCK:   -3.89 KCAL/MOL
REMARK 924 INTRA-LIGAND FREE ENERGY PREDICTED BY IDOCK:   -0.41 KCAL/MOL
REMARK 927      BINDING AFFINITY PREDICTED BY RF-SCORE:    0.00 PKD
ROOT
HETATM    1  C   UNL     1      -9.038  10.684  64.980  1.00  0.00    -0.229 C  
HETATM    2  C   UNL     1     -10.529  10.712  65.283  1.00  0.00    -0.194 C  
ENDROOT
BRANCH   2   3
HETATM    3  C   UNL     1     -11.087  12.088  64.932  1.00  0.00    -0.316 C  
HETATM    4  C   UNL     1     -11.272  14.268  64.597  1.00  0.00    -0.366 C  
HETATM    5  N   UNL     1     -10.382  13.184  65.110  1.00  0.00    -0.309 NA 
HETATM    6  N   UNL     1     -12.341  12.252  64.381  1.00  0.00    -0.421 NA 
HETATM    7  C   UNL     1     -12.385  13.572  63.805  1.00  0.00    -0.327 C  
ENDBRANCH   2   3
BRANCH   2   8
HETATM    8  O   UNL     1     -10.799  10.554  66.680  1.00  0.00    -0.194 OA 
BRANCH   8   9
HETATM    9  C   UNL     1      -9.951   9.861  67.501  1.00  0.00    -0.185 A  
HETATM   10  C   UNL     1      -8.361  10.101  69.362  1.00  0.00    -0.174 A  
HETATM   11 CL   UNL     1      -9.214  12.393  68.270  1.00  0.00    -0.202 Cl 
HETATM   12  C   UNL     1      -8.299   8.721  69.507  1.00  0.00    -0.119 A  
HETATM   13  C   UNL     1      -9.176  10.662  68.369  1.00  0.00    -0.159 A  
HETATM   14  C   UNL     1      -9.055   7.912  68.664  1.00  0.00    -0.136 A  
HETATM   15  C   UNL     1      -9.893   8.470  67.681  1.00  0.00    -0.174 A  
HETATM   16 CL   UNL     1     -10.895   7.327  66.860  1.00  0.00    -0.384 Cl 
ENDBRANCH   8   9
ENDBRANCH   2   8
TORSDOF 3
ENDMDL
MODEL      150
REMARK 921   NORMALIZED FREE ENERGY PREDICTED BY IDOCK:   -3.21 KCAL/MOL
REMARK 922        TOTAL FREE ENERGY PREDICTED BY IDOCK:   -4.26 KCAL/MOL
REMARK 923 INTER-LIGAND FREE ENERGY PREDICTED BY IDOCK:   -3.92 KCAL/MOL
REMARK 924 INTRA-LIGAND FREE ENERGY PREDICTED BY IDOCK:   -0.34 KCAL/MOL
REMARK 927      BINDING AFFINITY PREDICTED BY RF-SCORE:    0.00 PKD
ROOT
HETATM    1  C   UNL     1      -9.524  19.156  67.179  1.00  0.00    -0.367 C  
HETATM    2  C   UNL     1      -8.610  18.137  67.842  1.00  0.00    -0.254 C  
ENDROOT
BRANCH   2   3
HETATM    3  C   UNL     1      -7.419  18.861  68.465  1.00  0.00    -0.307 C  
HETATM    4  C   UNL     1      -5.931  20.413  68.986  1.00  0.00    -0.342 C  
HETATM    5  N   UNL     1      -7.095  20.086  68.111  1.00  0.00    -0.287 NA 
HETATM    6  N   UNL     1      -6.645  18.285  69.449  1.00  0.00    -0.240 NA 
HETATM    7  C   UNL     1      -5.905  19.346  70.087  1.00  0.00    -0.259 C  
ENDBRANCH   2   3
BRANCH   2   8
HETATM    8  O   UNL     1      -8.033  17.231  66.896  1.00  0.00    -0.197 OA 
BRANCH   8   9
HETATM    9  C   UNL     1      -8.140  15.875  67.043  1.00  0.00    -0.230 A  
HETATM   10  C   UNL     1      -6.912  13.853  67.715  1.00  0.00    -0.181 A  
HETATM   11 CL   UNL     1      -5.437  16.076  67.481  1.00  0.00    -0.156 Cl 
HETATM   12  C   UNL     1      -8.086  13.111  67.684  1.00  0.00    -0.176 A  
HETATM   13  C   UNL     1      -6.941  15.218  67.395  1.00  0.00    -0.179 A  
HETATM   14  C   UNL     1      -9.280  13.738  67.340  1.00  0.00    -0.221 A  
HETATM   15  C   UNL     1      -9.319  15.113  67.042  1.00  0.00    -0.230 A  
HETATM   16 CL   UNL     1     -10.909  15.754  66.826  1.00  0.00    -0.295 Cl 
ENDBRANCH   8   9
ENDBRANCH   2   8
TORSDOF 3
ENDMDL
MODEL      151
REMARK 921   NORMALIZED FREE ENERGY PREDICTED BY IDOCK:   -3.19 KCAL/MOL
REMARK 922        TOTAL FREE ENERGY PREDICTED BY IDOCK:   -4.24 KCAL/MOL
REMARK 923 INTER-LIGAND FREE ENERGY PREDICTED BY IDOCK:   -3.72 KCAL/MOL
REMARK 924 INTRA-LIGAND FREE ENERGY PREDICTED BY IDOCK:   -0.52 KCAL/MOL
REMARK 927      BINDING AFFINITY PREDICTED BY RF-SCORE:    0.00 PKD
ROOT
HETATM    1  C   UNL     1     -11.992  14.830  68.571  1.00  0.00    -0.284 C  
HETATM    2  C   UNL     1     -10.690  14.873  67.785  1.00  0.00    -0.271 C  
ENDROOT
BRANCH   2   3
HETATM    3  C   UNL     1     -10.304  13.454  67.376  1.00  0.00    -0.240 C  
HETATM    4  C   UNL     1      -9.744  11.683  66.174  1.00  0.00    -0.229 C  
HETATM    5  N   UNL     1     -10.171  13.112  66.113  1.00  0.00    -0.284 NA 
HETATM    6  N   UNL     1     -10.042  12.469  68.306  1.00  0.00    -0.225 NA 
HETATM    7  C   UNL     1      -9.327  11.418  67.625  1.00  0.00    -0.159 C  
ENDBRANCH   2   3
BRANCH   2   8
HETATM    8  O   UNL     1      -9.594  15.335  68.581  1.00  0.00    -0.192 OA 
BRANCH   8   9
HETATM    9  C   UNL     1      -8.585  16.088  68.045  1.00  0.00    -0.165 A  
HETATM   10  C   UNL     1      -7.772  18.391  67.756  1.00  0.00    -0.240 A  
HETATM   11 CL   UNL     1     -10.247  18.157  68.752  1.00  0.00    -0.383 Cl 
HETATM   12  C   UNL     1      -6.559  17.918  67.272  1.00  0.00    -0.188 A  
HETATM   13  C   UNL     1      -8.772  17.485  68.135  1.00  0.00    -0.262 A  
HETATM   14  C   UNL     1      -6.352  16.546  67.174  1.00  0.00    -0.220 A  
HETATM   15  C   UNL     1      -7.343  15.631  67.576  1.00  0.00    -0.185 A  
HETATM   16 CL   UNL     1      -6.841  13.978  67.563  1.00  0.00    -0.194 Cl 
ENDBRANCH   8   9
ENDBRANCH   2   8
TORSDOF 3
ENDMDL
MODEL      152
REMARK 921   NORMALIZED FREE ENERGY PREDICTED BY IDOCK:   -3.19 KCAL/MOL
REMARK 922        TOTAL FREE ENERGY PREDICTED BY IDOCK:   -4.24 KCAL/MOL
REMARK 923 INTER-LIGAND FREE ENERGY PREDICTED BY IDOCK:   -3.91 KCAL/MOL
REMARK 924 INTRA-LIGAND FREE ENERGY PREDICTED BY IDOCK:   -0.33 KCAL/MOL
REMARK 927      BINDING AFFINITY PREDICTED BY RF-SCORE:    0.00 PKD
ROOT
HETATM    1  C   UNL     1      -8.652  10.683  65.913  1.00  0.00    -0.177 C  
HETATM    2  C   UNL     1      -9.946  11.183  66.538  1.00  0.00    -0.214 C  
ENDROOT
BRANCH   2   3
HETATM    3  C   UNL     1     -10.830  11.783  65.449  1.00  0.00    -0.295 C  
HETATM    4  C   UNL     1     -11.667  12.338  63.477  1.00  0.00    -0.499 C  
HETATM    5  N   UNL     1     -10.531  11.665  64.174  1.00  0.00    -0.318 NA 
HETATM    6  N   UNL     1     -12.002  12.449  65.742  1.00  0.00    -0.557 NA 
HETATM    7  C   UNL     1     -12.773  12.513  64.525  1.00  0.00    -0.354 C  
ENDBRANCH   2   3
BRANCH   2   8
HETATM    8  O   UNL     1      -9.721  12.256  67.459  1.00  0.00    -0.185 OA 
BRANCH   8   9
HETATM    9  C   UNL     1      -8.459  12.692  67.758  1.00  0.00    -0.172 A  
HETATM   10  C   UNL     1      -6.950  14.630  67.626  1.00  0.00    -0.205 A  
HETATM   11 CL   UNL     1      -9.255  14.867  66.283  1.00  0.00    -0.319 Cl 
HETATM   12  C   UNL     1      -6.029  13.988  68.443  1.00  0.00    -0.102 A  
HETATM   13  C   UNL     1      -8.149  13.987  67.287  1.00  0.00    -0.156 A  
HETATM   14  C   UNL     1      -6.313  12.712  68.920  1.00  0.00    -0.086 A  
HETATM   15  C   UNL     1      -7.525  12.071  68.603  1.00  0.00    -0.113 A  
HETATM   16 CL   UNL     1      -7.786  10.579  69.434  1.00  0.00    -0.155 Cl 
ENDBRANCH   8   9
ENDBRANCH   2   8
TORSDOF 3
ENDMDL
MODEL      153
REMARK 921   NORMALIZED FREE ENERGY PREDICTED BY IDOCK:   -3.16 KCAL/MOL
REMARK 922        TOTAL FREE ENERGY PREDICTED BY IDOCK:   -4.21 KCAL/MOL
REMARK 923 INTER-LIGAND FREE ENERGY PREDICTED BY IDOCK:   -3.78 KCAL/MOL
REMARK 924 INTRA-LIGAND FREE ENERGY PREDICTED BY IDOCK:   -0.42 KCAL/MOL
REMARK 927      BINDING AFFINITY PREDICTED BY RF-SCORE:    0.00 PKD
ROOT
HETATM    1  C   UNL     1      -9.220  15.164  66.153  1.00  0.00    -0.318 C  
HETATM    2  C   UNL     1      -8.085  15.706  67.007  1.00  0.00    -0.241 C  
ENDROOT
BRANCH   2   3
HETATM    3  C   UNL     1      -7.565  14.595  67.916  1.00  0.00    -0.142 C  
HETATM    4  C   UNL     1      -6.793  12.654  68.646  1.00  0.00    -0.091 C  
HETATM    5  N   UNL     1      -7.322  13.386  67.457  1.00  0.00    -0.165 NA 
HETATM    6  N   UNL     1      -7.293  14.808  69.251  1.00  0.00    -0.161 NA 
HETATM    7  C   UNL     1      -6.456  13.721  69.695  1.00  0.00    -0.094 C  
ENDBRANCH   2   3
BRANCH   2   8
HETATM    8  O   UNL     1      -8.525  16.733  67.902  1.00  0.00    -0.194 OA 
BRANCH   8   9
HETATM    9  C   UNL     1      -8.128  18.034  67.751  1.00  0.00    -0.237 A  
HETATM   10  C   UNL     1      -8.897  20.277  67.097  1.00  0.00    -0.446 A  
HETATM   11 CL   UNL     1     -10.615  18.279  66.613  1.00  0.00    -0.361 Cl 
HETATM   12  C   UNL     1      -7.712  20.835  67.559  1.00  0.00    -0.281 A  
HETATM   13  C   UNL     1      -9.099  18.893  67.191  1.00  0.00    -0.287 A  
HETATM   14  C   UNL     1      -6.741  20.009  68.116  1.00  0.00    -0.326 A  
HETATM   15  C   UNL     1      -6.948  18.622  68.235  1.00  0.00    -0.246 A  
HETATM   16 CL   UNL     1      -5.721  17.788  69.120  1.00  0.00    -0.193 Cl 
ENDBRANCH   8   9
ENDBRANCH   2   8
TORSDOF 3
ENDMDL
MODEL      154
REMARK 921   NORMALIZED FREE ENERGY PREDICTED BY IDOCK:   -3.16 KCAL/MOL
REMARK 922        TOTAL FREE ENERGY PREDICTED BY IDOCK:   -4.20 KCAL/MOL
REMARK 923 INTER-LIGAND FREE ENERGY PREDICTED BY IDOCK:   -3.74 KCAL/MOL
REMARK 924 INTRA-LIGAND FREE ENERGY PREDICTED BY IDOCK:   -0.46 KCAL/MOL
REMARK 927      BINDING AFFINITY PREDICTED BY RF-SCORE:    0.00 PKD
ROOT
HETATM    1  C   UNL     1     -10.164   8.529  67.873  1.00  0.00    -0.273 C  
HETATM    2  C   UNL     1      -9.794   8.836  69.317  1.00  0.00    -0.180 C  
ENDROOT
BRANCH   2   3
HETATM    3  C   UNL     1     -10.845   8.232  70.244  1.00  0.00    -0.240 C  
HETATM    4  C   UNL     1     -12.184   6.797  71.264  1.00  0.00    -0.364 C  
HETATM    5  N   UNL     1     -11.190   6.966  70.163  1.00  0.00    -0.299 NA 
HETATM    6  N   UNL     1     -11.462   8.971  71.231  1.00  0.00    -0.294 NA 
HETATM    7  C   UNL     1     -12.057   8.038  72.155  1.00  0.00    -0.343 C  
ENDBRANCH   2   3
BRANCH   2   8
HETATM    8  O   UNL     1      -9.824  10.240  69.595  1.00  0.00    -0.230 OA 
BRANCH   8   9
HETATM    9  C   UNL     1      -9.565  11.170  68.625  1.00  0.00    -0.196 A  
HETATM   10  C   UNL     1     -10.508  13.103  67.432  1.00  0.00    -0.243 A  
HETATM   11 CL   UNL     1     -12.218  11.768  69.002  1.00  0.00    -0.242 Cl 
HETATM   12  C   UNL     1      -9.272  13.368  66.854  1.00  0.00    -0.251 A  
HETATM   13  C   UNL     1     -10.650  12.015  68.305  1.00  0.00    -0.212 A  
HETATM   14  C   UNL     1      -8.189  12.549  67.156  1.00  0.00    -0.168 A  
HETATM   15  C   UNL     1      -8.320  11.470  68.050  1.00  0.00    -0.146 A  
HETATM   16 CL   UNL     1      -6.833  10.686  68.449  1.00  0.00    -0.063 Cl 
ENDBRANCH   8   9
ENDBRANCH   2   8
TORSDOF 3
ENDMDL
MODEL      155
REMARK 921   NORMALIZED FREE ENERGY PREDICTED BY IDOCK:   -3.16 KCAL/MOL
REMARK 922        TOTAL FREE ENERGY PREDICTED BY IDOCK:   -4.20 KCAL/MOL
REMARK 923 INTER-LIGAND FREE ENERGY PREDICTED BY IDOCK:   -4.29 KCAL/MOL
REMARK 924 INTRA-LIGAND FREE ENERGY PREDICTED BY IDOCK:    0.10 KCAL/MOL
REMARK 927      BINDING AFFINITY PREDICTED BY RF-SCORE:    0.00 PKD
ROOT
HETATM    1  C   UNL     1      -9.450  19.828  66.093  1.00  0.00    -0.464 C  
HETATM    2  C   UNL     1      -8.204  20.204  66.881  1.00  0.00    -0.316 C  
ENDROOT
BRANCH   2   3
HETATM    3  C   UNL     1      -7.005  20.244  65.936  1.00  0.00    -0.267 C  
HETATM    4  C   UNL     1      -5.670  19.900  64.206  1.00  0.00    -0.242 C  
HETATM    5  N   UNL     1      -6.969  19.522  64.838  1.00  0.00    -0.318 NA 
HETATM    6  N   UNL     1      -5.918  21.061  66.167  1.00  0.00    -0.245 NA 
HETATM    7  C   UNL     1      -5.193  21.168  64.925  1.00  0.00    -0.186 C  
ENDBRANCH   2   3
BRANCH   2   8
HETATM    8  O   UNL     1      -7.865  19.216  67.860  1.00  0.00    -0.271 OA 
BRANCH   8   9
HETATM    9  C   UNL     1      -8.581  18.057  67.987  1.00  0.00    -0.264 A  
HETATM   10  C   UNL     1     -10.723  17.127  68.759  1.00  0.00    -0.289 A  
HETATM   11 CL   UNL     1     -10.281  19.691  69.395  1.00  0.00    -0.295 Cl 
HETATM   12  C   UNL     1     -10.417  15.903  68.179  1.00  0.00    -0.270 A  
HETATM   13  C   UNL     1      -9.813  18.190  68.665  1.00  0.00    -0.377 A  
HETATM   14  C   UNL     1      -9.210  15.749  67.506  1.00  0.00    -0.207 A  
HETATM   15  C   UNL     1      -8.303  16.819  67.387  1.00  0.00    -0.181 A  
HETATM   16 CL   UNL     1      -6.951  16.502  66.360  1.00  0.00    -0.101 Cl 
ENDBRANCH   8   9
ENDBRANCH   2   8
TORSDOF 3
ENDMDL
MODEL      156
REMARK 921   NORMALIZED FREE ENERGY PREDICTED BY IDOCK:   -3.15 KCAL/MOL
REMARK 922        TOTAL FREE ENERGY PREDICTED BY IDOCK:   -4.19 KCAL/MOL
REMARK 923 INTER-LIGAND FREE ENERGY PREDICTED BY IDOCK:   -3.80 KCAL/MOL
REMARK 924 INTRA-LIGAND FREE ENERGY PREDICTED BY IDOCK:   -0.39 KCAL/MOL
REMARK 927      BINDING AFFINITY PREDICTED BY RF-SCORE:    0.00 PKD
ROOT
HETATM    1  C   UNL     1      -8.967   9.323  67.421  1.00  0.00    -0.135 C  
HETATM    2  C   UNL     1     -10.418   9.609  67.063  1.00  0.00    -0.232 C  
ENDROOT
BRANCH   2   3
HETATM    3  C   UNL     1     -10.617  11.118  66.942  1.00  0.00    -0.258 C  
HETATM    4  C   UNL     1     -11.502  13.144  67.032  1.00  0.00    -0.336 C  
HETATM    5  N   UNL     1     -11.764  11.688  67.238  1.00  0.00    -0.611 NA 
HETATM    6  N   UNL     1      -9.598  11.962  66.551  1.00  0.00    -0.208 NA 
HETATM    7  C   UNL     1      -9.980  13.298  66.934  1.00  0.00    -0.250 C  
ENDBRANCH   2   3
BRANCH   2   8
HETATM    8  O   UNL     1     -11.319   9.204  68.098  1.00  0.00     0.207 OA 
BRANCH   8   9
HETATM    9  C   UNL     1     -10.935   8.338  69.086  1.00  0.00     0.088 A  
HETATM   10  C   UNL     1     -10.731   8.078  71.523  1.00  0.00    -0.274 A  
HETATM   11 CL   UNL     1     -11.321  10.547  70.670  1.00  0.00    -0.404 Cl 
HETATM   12  C   UNL     1     -10.457   6.724  71.371  1.00  0.00    -0.238 A  
HETATM   13  C   UNL     1     -10.964   8.873  70.392  1.00  0.00    -0.244 A  
HETATM   14  C   UNL     1     -10.425   6.174  70.093  1.00  0.00    -0.291 A  
HETATM   15  C   UNL     1     -10.682   6.963  68.956  1.00  0.00    -0.230 A  
HETATM   16 CL   UNL     1     -10.787   6.075  67.477  1.00  0.00    -0.385 Cl 
ENDBRANCH   8   9
ENDBRANCH   2   8
TORSDOF 3
ENDMDL
MODEL      157
REMARK 921   NORMALIZED FREE ENERGY PREDICTED BY IDOCK:   -3.15 KCAL/MOL
REMARK 922        TOTAL FREE ENERGY PREDICTED BY IDOCK:   -4.19 KCAL/MOL
REMARK 923 INTER-LIGAND FREE ENERGY PREDICTED BY IDOCK:   -3.88 KCAL/MOL
REMARK 924 INTRA-LIGAND FREE ENERGY PREDICTED BY IDOCK:   -0.31 KCAL/MOL
REMARK 927      BINDING AFFINITY PREDICTED BY RF-SCORE:    0.00 PKD
ROOT
HETATM    1  C   UNL     1      -9.741  10.031  64.993  1.00  0.00    -0.386 C  
HETATM    2  C   UNL     1      -9.657  10.289  66.490  1.00  0.00    -0.181 C  
ENDROOT
BRANCH   2   3
HETATM    3  C   UNL     1      -8.474   9.515  67.067  1.00  0.00    -0.128 C  
HETATM    4  C   UNL     1      -7.056   7.892  67.566  1.00  0.00    -0.083 C  
HETATM    5  N   UNL     1      -8.351   8.217  66.897  1.00  0.00    -0.114 NA 
HETATM    6  N   UNL     1      -7.461  10.139  67.764  1.00  0.00    -0.089 NA 
HETATM    7  C   UNL     1      -6.343   9.229  67.799  1.00  0.00    -0.059 C  
ENDBRANCH   2   3
BRANCH   2   8
HETATM    8  O   UNL     1     -10.800   9.785  67.189  1.00  0.00    -0.235 OA 
BRANCH   8   9
HETATM    9  C   UNL     1     -11.091  10.180  68.467  1.00  0.00    -0.214 A  
HETATM   10  C   UNL     1     -12.146  11.959  69.798  1.00  0.00    -0.321 A  
HETATM   11 CL   UNL     1     -11.842  12.493  67.191  1.00  0.00    -0.432 Cl 
HETATM   12  C   UNL     1     -12.054  11.177  70.943  1.00  0.00    -0.427 A  
HETATM   13  C   UNL     1     -11.667  11.465  68.576  1.00  0.00    -0.318 A  
HETATM   14  C   UNL     1     -11.490   9.908  70.859  1.00  0.00    -0.456 A  
HETATM   15  C   UNL     1     -11.030   9.398  69.631  1.00  0.00    -0.197 A  
HETATM   16 CL   UNL     1     -10.539   7.742  69.682  1.00  0.00    -0.243 Cl 
ENDBRANCH   8   9
ENDBRANCH   2   8
TORSDOF 3
ENDMDL
MODEL      158
REMARK 921   NORMALIZED FREE ENERGY PREDICTED BY IDOCK:   -3.14 KCAL/MOL
REMARK 922        TOTAL FREE ENERGY PREDICTED BY IDOCK:   -4.17 KCAL/MOL
REMARK 923 INTER-LIGAND FREE ENERGY PREDICTED BY IDOCK:   -3.98 KCAL/MOL
REMARK 924 INTRA-LIGAND FREE ENERGY PREDICTED BY IDOCK:   -0.19 KCAL/MOL
REMARK 927      BINDING AFFINITY PREDICTED BY RF-SCORE:    0.00 PKD
ROOT
HETATM    1  C   UNL     1     -10.477  14.725  68.734  1.00  0.00    -0.250 C  
HETATM    2  C   UNL     1     -10.005  14.108  67.426  1.00  0.00    -0.240 C  
ENDROOT
BRANCH   2   3
HETATM    3  C   UNL     1      -9.163  12.872  67.729  1.00  0.00    -0.200 C  
HETATM    4  C   UNL     1      -7.494  11.553  68.339  1.00  0.00    -0.109 C  
HETATM    5  N   UNL     1      -7.906  12.969  68.104  1.00  0.00    -0.134 NA 
HETATM    6  N   UNL     1      -9.682  11.596  67.658  1.00  0.00    -0.177 NA 
HETATM    7  C   UNL     1      -8.786  10.730  68.383  1.00  0.00    -0.146 C  
ENDBRANCH   2   3
BRANCH   2   8
HETATM    8  O   UNL     1      -9.130  14.979  66.702  1.00  0.00    -0.246 OA 
BRANCH   8   9
HETATM    9  C   UNL     1      -9.159  16.335  66.880  1.00  0.00    -0.220 A  
HETATM   10  C   UNL     1     -10.359  18.389  66.254  1.00  0.00    -0.440 A  
HETATM   11 CL   UNL     1     -11.050  16.187  64.894  1.00  0.00    -0.397 Cl 
HETATM   12  C   UNL     1      -9.654  19.110  67.210  1.00  0.00    -0.375 A  
HETATM   13  C   UNL     1     -10.111  17.019  66.091  1.00  0.00    -0.319 A  
HETATM   14  C   UNL     1      -8.713  18.458  67.998  1.00  0.00    -0.302 A  
HETATM   15  C   UNL     1      -8.477  17.078  67.856  1.00  0.00    -0.209 A  
HETATM   16 CL   UNL     1      -7.417  16.406  69.044  1.00  0.00    -0.219 Cl 
ENDBRANCH   8   9
ENDBRANCH   2   8
TORSDOF 3
ENDMDL
MODEL      159
REMARK 921   NORMALIZED FREE ENERGY PREDICTED BY IDOCK:   -3.12 KCAL/MOL
REMARK 922        TOTAL FREE ENERGY PREDICTED BY IDOCK:   -4.16 KCAL/MOL
REMARK 923 INTER-LIGAND FREE ENERGY PREDICTED BY IDOCK:   -3.75 KCAL/MOL
REMARK 924 INTRA-LIGAND FREE ENERGY PREDICTED BY IDOCK:   -0.40 KCAL/MOL
REMARK 927      BINDING AFFINITY PREDICTED BY RF-SCORE:    0.00 PKD
ROOT
HETATM    1  C   UNL     1      -9.413  11.321  68.883  1.00  0.00    -0.102 C  
HETATM    2  C   UNL     1      -9.463   9.846  68.513  1.00  0.00    -0.146 C  
ENDROOT
BRANCH   2   3
HETATM    3  C   UNL     1      -9.264   9.700  67.007  1.00  0.00    -0.142 C  
HETATM    4  C   UNL     1      -8.712   8.899  65.019  1.00  0.00    -0.166 C  
HETATM    5  N   UNL     1      -8.632   8.667  66.493  1.00  0.00    -0.112 NA 
HETATM    6  N   UNL     1      -9.761  10.621  66.109  1.00  0.00    -0.197 NA 
HETATM    7  C   UNL     1      -9.766   9.993  64.811  1.00  0.00    -0.293 C  
ENDBRANCH   2   3
BRANCH   2   8
HETATM    8  O   UNL     1     -10.747   9.268  68.770  1.00  0.00    -0.217 OA 
BRANCH   8   9
HETATM    9  C   UNL     1     -10.953   8.414  69.819  1.00  0.00    -0.127 A  
HETATM   10  C   UNL     1     -12.020   8.207  72.025  1.00  0.00    -0.390 A  
HETATM   11 CL   UNL     1     -11.991  10.674  70.982  1.00  0.00    -0.450 Cl 
HETATM   12  C   UNL     1     -11.766   6.842  72.037  1.00  0.00    -0.343 A  
HETATM   13  C   UNL     1     -11.615   8.982  70.929  1.00  0.00    -0.290 A  
HETATM   14  C   UNL     1     -11.115   6.260  70.953  1.00  0.00    -0.366 A  
HETATM   15  C   UNL     1     -10.728   7.028  69.840  1.00  0.00    -0.240 A  
HETATM   16 CL   UNL     1     -10.109   6.109  68.515  1.00  0.00    -0.174 Cl 
ENDBRANCH   8   9
ENDBRANCH   2   8
TORSDOF 3
ENDMDL
MODEL      160
REMARK 921   NORMALIZED FREE ENERGY PREDICTED BY IDOCK:   -3.11 KCAL/MOL
REMARK 922        TOTAL FREE ENERGY PREDICTED BY IDOCK:   -4.14 KCAL/MOL
REMARK 923 INTER-LIGAND FREE ENERGY PREDICTED BY IDOCK:   -3.85 KCAL/MOL
REMARK 924 INTRA-LIGAND FREE ENERGY PREDICTED BY IDOCK:   -0.29 KCAL/MOL
REMARK 927      BINDING AFFINITY PREDICTED BY RF-SCORE:    0.00 PKD
ROOT
HETATM    1  C   UNL     1      -9.723  10.110  64.953  1.00  0.00    -0.392 C  
HETATM    2  C   UNL     1      -9.662  10.729  66.342  1.00  0.00    -0.199 C  
ENDROOT
BRANCH   2   3
HETATM    3  C   UNL     1      -8.545  10.062  67.140  1.00  0.00    -0.128 C  
HETATM    4  C   UNL     1      -7.022   8.615  67.835  1.00  0.00    -0.078 C  
HETATM    5  N   UNL     1      -8.136   8.842  66.866  1.00  0.00    -0.108 NA 
HETATM    6  N   UNL     1      -7.888  10.711  68.164  1.00  0.00    -0.107 NA 
HETATM    7  C   UNL     1      -6.665   9.990  68.412  1.00  0.00    -0.055 C  
ENDBRANCH   2   3
BRANCH   2   8
HETATM    8  O   UNL     1     -10.852  10.479  67.097  1.00  0.00    -0.279 OA 
BRANCH   8   9
HETATM    9  C   UNL     1     -11.376  11.419  67.942  1.00  0.00    -0.303 A  
HETATM   10  C   UNL     1     -12.002  11.852  70.281  1.00  0.00    -0.416 A  
HETATM   11 CL   UNL     1     -11.351   9.317  69.709  1.00  0.00    -0.098 Cl 
HETATM   12  C   UNL     1     -12.199  13.197  69.995  1.00  0.00    -0.323 A  
HETATM   13  C   UNL     1     -11.598  10.975  69.264  1.00  0.00    -0.314 A  
HETATM   14  C   UNL     1     -11.986  13.657  68.699  1.00  0.00    -0.395 A  
HETATM   15  C   UNL     1     -11.557  12.786  67.681  1.00  0.00    -0.358 A  
HETATM   16 CL   UNL     1     -11.162  13.567  66.190  1.00  0.00    -0.298 Cl 
ENDBRANCH   8   9
ENDBRANCH   2   8
TORSDOF 3
ENDMDL
MODEL      161
REMARK 921   NORMALIZED FREE ENERGY PREDICTED BY IDOCK:   -3.11 KCAL/MOL
REMARK 922        TOTAL FREE ENERGY PREDICTED BY IDOCK:   -4.14 KCAL/MOL
REMARK 923 INTER-LIGAND FREE ENERGY PREDICTED BY IDOCK:   -3.77 KCAL/MOL
REMARK 924 INTRA-LIGAND FREE ENERGY PREDICTED BY IDOCK:   -0.37 KCAL/MOL
REMARK 927      BINDING AFFINITY PREDICTED BY RF-SCORE:    0.00 PKD
ROOT
HETATM    1  C   UNL     1     -11.648  15.496  65.822  1.00  0.00     0.181 C  
HETATM    2  C   UNL     1     -10.665  14.343  65.958  1.00  0.00    -0.302 C  
ENDROOT
BRANCH   2   3
HETATM    3  C   UNL     1     -11.084  13.214  65.020  1.00  0.00    -0.301 C  
HETATM    4  C   UNL     1     -12.297  11.853  63.766  1.00  0.00    -0.434 C  
HETATM    5  N   UNL     1     -12.348  12.987  64.736  1.00  0.00    -0.465 NA 
HETATM    6  N   UNL     1     -10.163  12.396  64.400  1.00  0.00    -0.322 NA 
HETATM    7  C   UNL     1     -10.838  11.743  63.306  1.00  0.00    -0.326 C  
ENDBRANCH   2   3
BRANCH   2   8
HETATM    8  O   UNL     1     -10.691  13.761  67.265  1.00  0.00    -0.279 OA 
BRANCH   8   9
HETATM    9  C   UNL     1      -9.591  13.148  67.800  1.00  0.00    -0.208 A  
HETATM   10  C   UNL     1      -8.699  10.982  68.549  1.00  0.00    -0.159 A  
HETATM   11 CL   UNL     1     -11.314  11.017  67.972  1.00  0.00    -0.360 Cl 
HETATM   12  C   UNL     1      -7.428  11.530  68.670  1.00  0.00    -0.116 A  
HETATM   13  C   UNL     1      -9.766  11.784  68.121  1.00  0.00    -0.192 A  
HETATM   14  C   UNL     1      -7.232  12.872  68.359  1.00  0.00    -0.113 A  
HETATM   15  C   UNL     1      -8.294  13.675  67.906  1.00  0.00    -0.174 A  
HETATM   16 CL   UNL     1      -7.827  15.256  67.388  1.00  0.00    -0.200 Cl 
ENDBRANCH   8   9
ENDBRANCH   2   8
TORSDOF 3
ENDMDL
MODEL      162
REMARK 921   NORMALIZED FREE ENERGY PREDICTED BY IDOCK:   -3.08 KCAL/MOL
REMARK 922        TOTAL FREE ENERGY PREDICTED BY IDOCK:   -4.11 KCAL/MOL
REMARK 923 INTER-LIGAND FREE ENERGY PREDICTED BY IDOCK:   -3.72 KCAL/MOL
REMARK 924 INTRA-LIGAND FREE ENERGY PREDICTED BY IDOCK:   -0.38 KCAL/MOL
REMARK 927      BINDING AFFINITY PREDICTED BY RF-SCORE:    0.00 PKD
ROOT
HETATM    1  C   UNL     1     -11.570  10.421  70.217  1.00  0.00    -0.410 C  
HETATM    2  C   UNL     1     -10.695   9.328  69.622  1.00  0.00    -0.230 C  
ENDROOT
BRANCH   2   3
HETATM    3  C   UNL     1     -10.250   9.747  68.224  1.00  0.00    -0.183 C  
HETATM    4  C   UNL     1      -9.165   9.855  66.298  1.00  0.00    -0.168 C  
HETATM    5  N   UNL     1      -9.205   9.201  67.641  1.00  0.00    -0.128 NA 
HETATM    6  N   UNL     1     -10.935  10.692  67.490  1.00  0.00    -0.300 NA 
HETATM    7  C   UNL     1     -10.520  10.549  66.116  1.00  0.00    -0.168 C  
ENDBRANCH   2   3
BRANCH   2   8
HETATM    8  O   UNL     1     -11.416   8.107  69.426  1.00  0.00     0.257 OA 
BRANCH   8   9
HETATM    9  C   UNL     1     -11.037   6.944  70.039  1.00  0.00    -0.299 A  
HETATM   10  C   UNL     1     -10.119   4.698  69.633  1.00  0.00    -0.232 A  
HETATM   11 CL   UNL     1     -10.819   6.073  67.444  1.00  0.00    -0.384 Cl 
HETATM   12  C   UNL     1      -9.948   4.505  70.998  1.00  0.00    -0.257 A  
HETATM   13  C   UNL     1     -10.660   5.903  69.162  1.00  0.00    -0.299 A  
HETATM   14  C   UNL     1     -10.311   5.517  71.881  1.00  0.00    -0.270 A  
HETATM   15  C   UNL     1     -10.832   6.737  71.413  1.00  0.00    -0.236 A  
HETATM   16 CL   UNL     1     -11.046   7.941  72.634  1.00  0.00    -0.417 Cl 
ENDBRANCH   8   9
ENDBRANCH   2   8
TORSDOF 3
ENDMDL
MODEL      163
REMARK 921   NORMALIZED FREE ENERGY PREDICTED BY IDOCK:   -3.08 KCAL/MOL
REMARK 922        TOTAL FREE ENERGY PREDICTED BY IDOCK:   -4.11 KCAL/MOL
REMARK 923 INTER-LIGAND FREE ENERGY PREDICTED BY IDOCK:   -3.95 KCAL/MOL
REMARK 924 INTRA-LIGAND FREE ENERGY PREDICTED BY IDOCK:   -0.15 KCAL/MOL
REMARK 927      BINDING AFFINITY PREDICTED BY RF-SCORE:    0.00 PKD
ROOT
HETATM    1  C   UNL     1     -11.757  11.683  68.631  1.00  0.00    -0.386 C  
HETATM    2  C   UNL     1     -11.323  11.163  67.269  1.00  0.00    -0.226 C  
ENDROOT
BRANCH   2   3
HETATM    3  C   UNL     1     -10.452   9.923  67.458  1.00  0.00    -0.255 C  
HETATM    4  C   UNL     1      -9.193   8.348  68.369  1.00  0.00    -0.135 C  
HETATM    5  N   UNL     1      -9.895   9.643  68.616  1.00  0.00    -0.157 NA 
HETATM    6  N   UNL     1     -10.232   9.020  66.440  1.00  0.00    -0.271 NA 
HETATM    7  C   UNL     1      -9.742   7.806  67.044  1.00  0.00    -0.197 C  
ENDBRANCH   2   3
BRANCH   2   8
HETATM    8  O   UNL     1     -10.485  12.095  66.576  1.00  0.00    -0.219 OA 
BRANCH   8   9
HETATM    9  C   UNL     1     -10.200  13.327  67.097  1.00  0.00    -0.246 A  
HETATM   10  C   UNL     1     -11.104  15.588  67.448  1.00  0.00    -0.285 A  
HETATM   11 CL   UNL     1     -12.563  13.992  65.867  1.00  0.00    -0.516 Cl 
HETATM   12  C   UNL     1     -10.033  15.904  68.275  1.00  0.00    -0.222 A  
HETATM   13  C   UNL     1     -11.183  14.315  66.866  1.00  0.00    -0.326 A  
HETATM   14  C   UNL     1      -9.053  14.947  68.517  1.00  0.00    -0.191 A  
HETATM   15  C   UNL     1      -9.139  13.660  67.955  1.00  0.00    -0.192 A  
HETATM   16 CL   UNL     1      -7.940  12.550  68.518  1.00  0.00    -0.128 Cl 
ENDBRANCH   8   9
ENDBRANCH   2   8
TORSDOF 3
ENDMDL
MODEL      164
REMARK 921   NORMALIZED FREE ENERGY PREDICTED BY IDOCK:   -3.04 KCAL/MOL
REMARK 922        TOTAL FREE ENERGY PREDICTED BY IDOCK:   -4.06 KCAL/MOL
REMARK 923 INTER-LIGAND FREE ENERGY PREDICTED BY IDOCK:   -3.62 KCAL/MOL
REMARK 924 INTRA-LIGAND FREE ENERGY PREDICTED BY IDOCK:   -0.45 KCAL/MOL
REMARK 927      BINDING AFFINITY PREDICTED BY RF-SCORE:    0.00 PKD
ROOT
HETATM    1  C   UNL     1     -12.315  10.790  70.080  1.00  0.00    -0.401 C  
HETATM    2  C   UNL     1     -10.963  10.457  69.469  1.00  0.00    -0.262 C  
ENDROOT
BRANCH   2   3
HETATM    3  C   UNL     1     -10.764  11.289  68.205  1.00  0.00    -0.204 C  
HETATM    4  C   UNL     1     -11.111  12.299  66.267  1.00  0.00    -0.302 C  
HETATM    5  N   UNL     1     -11.688  11.356  67.271  1.00  0.00    -0.583 NA 
HETATM    6  N   UNL     1      -9.625  12.038  67.992  1.00  0.00    -0.193 NA 
HETATM    7  C   UNL     1      -9.928  12.991  66.954  1.00  0.00    -0.243 C  
ENDBRANCH   2   3
BRANCH   2   8
HETATM    8  O   UNL     1     -10.891   9.098  69.026  1.00  0.00    -0.191 OA 
BRANCH   8   9
HETATM    9  C   UNL     1      -9.747   8.358  69.163  1.00  0.00    -0.171 A  
HETATM   10  C   UNL     1      -8.571   6.785  70.644  1.00  0.00    -0.142 A  
HETATM   11 CL   UNL     1     -10.762   7.928  71.678  1.00  0.00    -0.256 Cl 
HETATM   12  C   UNL     1      -7.630   6.534  69.654  1.00  0.00    -0.098 A  
HETATM   13  C   UNL     1      -9.615   7.689  70.399  1.00  0.00    -0.168 A  
HETATM   14  C   UNL     1      -7.740   7.181  68.427  1.00  0.00    -0.120 A  
HETATM   15  C   UNL     1      -8.800   8.070  68.168  1.00  0.00    -0.132 A  
HETATM   16 CL   UNL     1      -8.882   8.630  66.535  1.00  0.00    -0.149 Cl 
ENDBRANCH   8   9
ENDBRANCH   2   8
TORSDOF 3
ENDMDL
MODEL      165
REMARK 921   NORMALIZED FREE ENERGY PREDICTED BY IDOCK:   -3.00 KCAL/MOL
REMARK 922        TOTAL FREE ENERGY PREDICTED BY IDOCK:   -4.01 KCAL/MOL
REMARK 923 INTER-LIGAND FREE ENERGY PREDICTED BY IDOCK:   -3.52 KCAL/MOL
REMARK 924 INTRA-LIGAND FREE ENERGY PREDICTED BY IDOCK:   -0.49 KCAL/MOL
REMARK 927      BINDING AFFINITY PREDICTED BY RF-SCORE:    0.00 PKD
ROOT
HETATM    1  C   UNL     1     -11.870   6.568  70.013  1.00  0.00    -0.284 C  
HETATM    2  C   UNL     1     -10.498   7.170  70.278  1.00  0.00    -0.217 C  
ENDROOT
BRANCH   2   3
HETATM    3  C   UNL     1      -9.873   7.597  68.952  1.00  0.00    -0.164 C  
HETATM    4  C   UNL     1      -8.690   7.606  67.082  1.00  0.00    -0.125 C  
HETATM    5  N   UNL     1      -8.987   6.847  68.334  1.00  0.00    -0.122 NA 
HETATM    6  N   UNL     1     -10.228   8.771  68.320  1.00  0.00    -0.196 NA 
HETATM    7  C   UNL     1      -9.788   8.668  66.951  1.00  0.00    -0.238 C  
ENDBRANCH   2   3
BRANCH   2   8
HETATM    8  O   UNL     1      -9.583   6.212  70.821  1.00  0.00    -0.167 OA 
BRANCH   8   9
HETATM    9  C   UNL     1      -9.974   5.302  71.765  1.00  0.00    -0.190 A  
HETATM   10  C   UNL     1     -10.071   2.898  72.278  1.00  0.00    -0.222 A  
HETATM   11 CL   UNL     1      -9.359   3.517  69.771  1.00  0.00    -0.231 Cl 
HETATM   12  C   UNL     1     -10.442   3.178  73.587  1.00  0.00    -0.247 A  
HETATM   13  C   UNL     1      -9.842   3.950  71.379  1.00  0.00    -0.172 A  
HETATM   14  C   UNL     1     -10.577   4.502  73.990  1.00  0.00    -0.338 A  
HETATM   15  C   UNL     1     -10.326   5.562  73.099  1.00  0.00    -0.204 A  
HETATM   16 CL   UNL     1     -10.357   7.130  73.823  1.00  0.00    -0.401 Cl 
ENDBRANCH   8   9
ENDBRANCH   2   8
TORSDOF 3
ENDMDL
MODEL      166
REMARK 921   NORMALIZED FREE ENERGY PREDICTED BY IDOCK:   -2.97 KCAL/MOL
REMARK 922        TOTAL FREE ENERGY PREDICTED BY IDOCK:   -3.98 KCAL/MOL
REMARK 923 INTER-LIGAND FREE ENERGY PREDICTED BY IDOCK:   -3.53 KCAL/MOL
REMARK 924 INTRA-LIGAND FREE ENERGY PREDICTED BY IDOCK:   -0.45 KCAL/MOL
REMARK 927      BINDING AFFINITY PREDICTED BY RF-SCORE:    0.00 PKD
ROOT
HETATM    1  C   UNL     1      -7.165  13.325  68.674  1.00  0.00    -0.106 C  
HETATM    2  C   UNL     1      -7.394  14.125  67.401  1.00  0.00    -0.120 C  
ENDROOT
BRANCH   2   3
HETATM    3  C   UNL     1      -6.905  15.555  67.612  1.00  0.00    -0.181 C  
HETATM    4  C   UNL     1      -6.094  17.582  67.254  1.00  0.00    -0.138 C  
HETATM    5  N   UNL     1      -6.377  16.255  66.631  1.00  0.00    -0.231 NA 
HETATM    6  N   UNL     1      -7.020  16.197  68.827  1.00  0.00    -0.139 NA 
HETATM    7  C   UNL     1      -6.860  17.608  68.582  1.00  0.00    -0.229 C  
ENDBRANCH   2   3
BRANCH   2   8
HETATM    8  O   UNL     1      -8.785  14.257  67.089  1.00  0.00    -0.208 OA 
BRANCH   8   9
HETATM    9  C   UNL     1      -9.703  13.328  67.497  1.00  0.00    -0.224 A  
HETATM   10  C   UNL     1     -11.657  12.980  68.950  1.00  0.00    -0.355 A  
HETATM   11 CL   UNL     1     -10.376  15.309  69.275  1.00  0.00    -0.246 Cl 
HETATM   12  C   UNL     1     -11.885  11.738  68.371  1.00  0.00    -0.347 A  
HETATM   13  C   UNL     1     -10.577  13.762  68.518  1.00  0.00    -0.253 A  
HETATM   14  C   UNL     1     -11.038  11.289  67.363  1.00  0.00    -0.358 A  
HETATM   15  C   UNL     1      -9.967  12.081  66.909  1.00  0.00    -0.202 A  
HETATM   16 CL   UNL     1      -9.143  11.447  65.528  1.00  0.00    -0.189 Cl 
ENDBRANCH   8   9
ENDBRANCH   2   8
TORSDOF 3
ENDMDL
MODEL      167
REMARK 921   NORMALIZED FREE ENERGY PREDICTED BY IDOCK:   -2.96 KCAL/MOL
REMARK 922        TOTAL FREE ENERGY PREDICTED BY IDOCK:   -3.96 KCAL/MOL
REMARK 923 INTER-LIGAND FREE ENERGY PREDICTED BY IDOCK:   -3.52 KCAL/MOL
REMARK 924 INTRA-LIGAND FREE ENERGY PREDICTED BY IDOCK:   -0.44 KCAL/MOL
REMARK 927      BINDING AFFINITY PREDICTED BY RF-SCORE:    0.00 PKD
ROOT
HETATM    1  C   UNL     1      -9.947   7.762  69.857  1.00  0.00    -0.191 C  
HETATM    2  C   UNL     1     -10.057   9.049  70.662  1.00  0.00    -0.229 C  
ENDROOT
BRANCH   2   3
HETATM    3  C   UNL     1     -11.520   9.293  71.020  1.00  0.00    -0.319 C  
HETATM    4  C   UNL     1     -13.612   8.989  71.675  1.00  0.00    -0.390 C  
HETATM    5  N   UNL     1     -12.319   8.308  71.367  1.00  0.00    -0.305 NA 
HETATM    6  N   UNL     1     -12.070  10.558  71.030  1.00  0.00    -0.369 NA 
HETATM    7  C   UNL     1     -13.295  10.485  71.788  1.00  0.00    -0.344 C  
ENDBRANCH   2   3
BRANCH   2   8
HETATM    8  O   UNL     1      -9.671  10.197  69.899  1.00  0.00    -0.222 OA 
BRANCH   8   9
HETATM    9  C   UNL     1      -8.807  10.100  68.842  1.00  0.00    -0.154 A  
HETATM   10  C   UNL     1      -8.631  10.336  66.400  1.00  0.00    -0.138 A  
HETATM   11 CL   UNL     1     -11.116  10.444  67.395  1.00  0.00    -0.342 Cl 
HETATM   12  C   UNL     1      -7.249  10.224  66.474  1.00  0.00    -0.109 A  
HETATM   13  C   UNL     1      -9.399  10.272  67.572  1.00  0.00    -0.148 A  
HETATM   14  C   UNL     1      -6.643  10.054  67.715  1.00  0.00    -0.067 A  
HETATM   15  C   UNL     1      -7.407  10.014  68.896  1.00  0.00    -0.080 A  
HETATM   16 CL   UNL     1      -6.476   9.990  70.351  1.00  0.00    -0.111 Cl 
ENDBRANCH   8   9
ENDBRANCH   2   8
TORSDOF 3
ENDMDL
MODEL      168
REMARK 921   NORMALIZED FREE ENERGY PREDICTED BY IDOCK:   -2.95 KCAL/MOL
REMARK 922        TOTAL FREE ENERGY PREDICTED BY IDOCK:   -3.96 KCAL/MOL
REMARK 923 INTER-LIGAND FREE ENERGY PREDICTED BY IDOCK:   -3.87 KCAL/MOL
REMARK 924 INTRA-LIGAND FREE ENERGY PREDICTED BY IDOCK:   -0.08 KCAL/MOL
REMARK 927      BINDING AFFINITY PREDICTED BY RF-SCORE:    0.00 PKD
ROOT
HETATM    1  C   UNL     1      -8.890   5.783  70.204  1.00  0.00    -0.144 C  
HETATM    2  C   UNL     1     -10.111   5.018  69.714  1.00  0.00    -0.267 C  
ENDROOT
BRANCH   2   3
HETATM    3  C   UNL     1      -9.862   4.536  68.287  1.00  0.00    -0.086 C  
HETATM    4  C   UNL     1      -9.415   3.254  66.541  1.00  0.00    -0.088 C  
HETATM    5  N   UNL     1      -9.492   3.301  68.031  1.00  0.00    -0.189 NA 
HETATM    6  N   UNL     1     -10.044   5.358  67.195  1.00  0.00    -0.176 NA 
HETATM    7  C   UNL     1     -10.132   4.510  66.032  1.00  0.00    -0.259 C  
ENDBRANCH   2   3
BRANCH   2   8
HETATM    8  O   UNL     1     -11.270   5.853  69.621  1.00  0.00    -0.395 OA 
BRANCH   8   9
HETATM    9  C   UNL     1     -11.323   7.078  70.230  1.00  0.00    -0.295 A  
HETATM   10  C   UNL     1     -11.521   8.200  72.409  1.00  0.00    -0.462 A  
HETATM   11 CL   UNL     1     -11.924   5.552  72.432  1.00  0.00    -0.164 Cl 
HETATM   12  C   UNL     1     -11.224   9.424  71.823  1.00  0.00    -0.359 A  
HETATM   13  C   UNL     1     -11.571   7.043  71.619  1.00  0.00    -0.285 A  
HETATM   14  C   UNL     1     -10.975   9.482  70.455  1.00  0.00    -0.348 A  
HETATM   15  C   UNL     1     -11.000   8.321  69.662  1.00  0.00    -0.086 A  
HETATM   16 CL   UNL     1     -10.482   8.555  68.031  1.00  0.00    -0.268 Cl 
ENDBRANCH   8   9
ENDBRANCH   2   8
TORSDOF 3
ENDMDL
MODEL      169
REMARK 921   NORMALIZED FREE ENERGY PREDICTED BY IDOCK:   -2.94 KCAL/MOL
REMARK 922        TOTAL FREE ENERGY PREDICTED BY IDOCK:   -3.95 KCAL/MOL
REMARK 923 INTER-LIGAND FREE ENERGY PREDICTED BY IDOCK:   -3.54 KCAL/MOL
REMARK 924 INTRA-LIGAND FREE ENERGY PREDICTED BY IDOCK:   -0.41 KCAL/MOL
REMARK 927      BINDING AFFINITY PREDICTED BY RF-SCORE:    0.00 PKD
ROOT
HETATM    1  C   UNL     1     -11.066  10.323  69.218  1.00  0.00    -0.293 C  
HETATM    2  C   UNL     1     -10.261   9.057  69.472  1.00  0.00    -0.203 C  
ENDROOT
BRANCH   2   3
HETATM    3  C   UNL     1      -9.397   8.757  68.250  1.00  0.00    -0.137 C  
HETATM    4  C   UNL     1      -8.736   8.407  66.168  1.00  0.00    -0.151 C  
HETATM    5  N   UNL     1      -9.918   8.643  67.048  1.00  0.00    -0.223 NA 
HETATM    6  N   UNL     1      -8.027   8.624  68.337  1.00  0.00    -0.112 NA 
HETATM    7  C   UNL     1      -7.499   8.762  67.002  1.00  0.00    -0.091 C  
ENDBRANCH   2   3
BRANCH   2   8
HETATM    8  O   UNL     1     -11.097   7.905  69.620  1.00  0.00    -0.165 OA 
BRANCH   8   9
HETATM    9  C   UNL     1     -10.749   6.865  70.438  1.00  0.00    -0.246 A  
HETATM   10  C   UNL     1     -10.899   6.024  72.744  1.00  0.00    -0.284 A  
HETATM   11 CL   UNL     1     -11.713   8.549  72.381  1.00  0.00    -0.447 Cl 
HETATM   12  C   UNL     1     -10.403   4.790  72.342  1.00  0.00    -0.261 A  
HETATM   13  C   UNL     1     -11.067   7.048  71.802  1.00  0.00    -0.239 A  
HETATM   14  C   UNL     1     -10.084   4.587  71.003  1.00  0.00    -0.222 A  
HETATM   15  C   UNL     1     -10.273   5.603  70.049  1.00  0.00    -0.252 A  
HETATM   16 CL   UNL     1     -10.004   5.111  68.415  1.00  0.00    -0.217 Cl 
ENDBRANCH   8   9
ENDBRANCH   2   8
TORSDOF 3
ENDMDL
MODEL      170
REMARK 921   NORMALIZED FREE ENERGY PREDICTED BY IDOCK:   -2.93 KCAL/MOL
REMARK 922        TOTAL FREE ENERGY PREDICTED BY IDOCK:   -3.93 KCAL/MOL
REMARK 923 INTER-LIGAND FREE ENERGY PREDICTED BY IDOCK:   -3.50 KCAL/MOL
REMARK 924 INTRA-LIGAND FREE ENERGY PREDICTED BY IDOCK:   -0.43 KCAL/MOL
REMARK 927      BINDING AFFINITY PREDICTED BY RF-SCORE:    0.00 PKD
ROOT
HETATM    1  C   UNL     1      -9.880   9.652  70.274  1.00  0.00    -0.321 C  
HETATM    2  C   UNL     1     -10.606   9.489  68.947  1.00  0.00    -0.216 C  
ENDROOT
BRANCH   2   3
HETATM    3  C   UNL     1     -10.520   8.031  68.503  1.00  0.00    -0.164 C  
HETATM    4  C   UNL     1     -10.399   5.822  68.526  1.00  0.00    -0.215 C  
HETATM    5  N   UNL     1     -10.390   7.053  69.372  1.00  0.00    -0.200 NA 
HETATM    6  N   UNL     1     -10.607   7.663  67.177  1.00  0.00    -0.340 NA 
HETATM    7  C   UNL     1     -10.903   6.253  67.144  1.00  0.00    -0.381 C  
ENDBRANCH   2   3
BRANCH   2   8
HETATM    8  O   UNL     1      -9.980  10.229  67.894  1.00  0.00    -0.158 OA 
BRANCH   8   9
HETATM    9  C   UNL     1      -9.444  11.470  68.109  1.00  0.00    -0.184 A  
HETATM   10  C   UNL     1      -7.346  12.753  68.087  1.00  0.00    -0.118 A  
HETATM   11 CL   UNL     1      -7.082  10.102  67.812  1.00  0.00    -0.085 Cl 
HETATM   12  C   UNL     1      -8.053  13.940  68.238  1.00  0.00    -0.150 A  
HETATM   13  C   UNL     1      -8.036  11.534  68.026  1.00  0.00    -0.136 A  
HETATM   14  C   UNL     1      -9.441  13.901  68.322  1.00  0.00    -0.217 A  
HETATM   15  C   UNL     1     -10.140  12.683  68.237  1.00  0.00    -0.233 A  
HETATM   16 CL   UNL     1     -11.859  12.846  68.169  1.00  0.00    -0.389 Cl 
ENDBRANCH   8   9
ENDBRANCH   2   8
TORSDOF 3
ENDMDL
MODEL      171
REMARK 921   NORMALIZED FREE ENERGY PREDICTED BY IDOCK:   -2.92 KCAL/MOL
REMARK 922        TOTAL FREE ENERGY PREDICTED BY IDOCK:   -3.92 KCAL/MOL
REMARK 923 INTER-LIGAND FREE ENERGY PREDICTED BY IDOCK:   -3.49 KCAL/MOL
REMARK 924 INTRA-LIGAND FREE ENERGY PREDICTED BY IDOCK:   -0.42 KCAL/MOL
REMARK 927      BINDING AFFINITY PREDICTED BY RF-SCORE:    0.00 PKD
ROOT
HETATM    1  C   UNL     1     -11.253   6.599  68.627  1.00  0.00    -0.239 C  
HETATM    2  C   UNL     1     -10.084   6.896  69.555  1.00  0.00    -0.173 C  
ENDROOT
BRANCH   2   3
HETATM    3  C   UNL     1     -10.619   7.388  70.896  1.00  0.00    -0.223 C  
HETATM    4  C   UNL     1     -10.743   8.063  73.000  1.00  0.00    -0.254 C  
HETATM    5  N   UNL     1      -9.837   7.517  71.946  1.00  0.00    -0.162 NA 
HETATM    6  N   UNL     1     -11.938   7.753  71.069  1.00  0.00    -0.290 NA 
HETATM    7  C   UNL     1     -12.010   8.536  72.278  1.00  0.00    -0.385 C  
ENDBRANCH   2   3
BRANCH   2   8
HETATM    8  O   UNL     1      -9.269   7.968  69.070  1.00  0.00    -0.148 OA 
BRANCH   8   9
HETATM    9  C   UNL     1      -9.262   8.324  67.749  1.00  0.00    -0.134 A  
HETATM   10  C   UNL     1      -9.968  10.066  66.163  1.00  0.00    -0.322 A  
HETATM   11 CL   UNL     1     -10.928  10.311  68.651  1.00  0.00    -0.276 Cl 
HETATM   12  C   UNL     1      -9.219   9.473  65.154  1.00  0.00    -0.305 A  
HETATM   13  C   UNL     1      -9.989   9.495  67.443  1.00  0.00    -0.189 A  
HETATM   14  C   UNL     1      -8.494   8.318  65.433  1.00  0.00    -0.189 A  
HETATM   15  C   UNL     1      -8.492   7.754  66.722  1.00  0.00    -0.126 A  
HETATM   16 CL   UNL     1      -7.390   6.440  66.928  1.00  0.00    -0.078 Cl 
ENDBRANCH   8   9
ENDBRANCH   2   8
TORSDOF 3
ENDMDL
MODEL      172
REMARK 921   NORMALIZED FREE ENERGY PREDICTED BY IDOCK:   -2.91 KCAL/MOL
REMARK 922        TOTAL FREE ENERGY PREDICTED BY IDOCK:   -3.91 KCAL/MOL
REMARK 923 INTER-LIGAND FREE ENERGY PREDICTED BY IDOCK:   -3.77 KCAL/MOL
REMARK 924 INTRA-LIGAND FREE ENERGY PREDICTED BY IDOCK:   -0.14 KCAL/MOL
REMARK 927      BINDING AFFINITY PREDICTED BY RF-SCORE:    0.00 PKD
ROOT
HETATM    1  C   UNL     1     -10.479   6.688  71.858  1.00  0.00    -0.224 C  
HETATM    2  C   UNL     1     -10.444   7.965  71.031  1.00  0.00    -0.203 C  
ENDROOT
BRANCH   2   3
HETATM    3  C   UNL     1     -11.555   8.899  71.502  1.00  0.00    -0.318 C  
HETATM    4  C   UNL     1     -12.932  10.622  71.673  1.00  0.00    -0.477 C  
HETATM    5  N   UNL     1     -11.735  10.084  70.961  1.00  0.00    -0.364 NA 
HETATM    6  N   UNL     1     -12.443   8.539  72.494  1.00  0.00    -0.356 NA 
HETATM    7  C   UNL     1     -13.570   9.435  72.404  1.00  0.00    -0.429 C  
ENDBRANCH   2   3
BRANCH   2   8
HETATM    8  O   UNL     1     -10.733   7.722  69.650  1.00  0.00    -0.243 OA 
BRANCH   8   9
HETATM    9  C   UNL     1      -9.766   7.820  68.687  1.00  0.00    -0.157 A  
HETATM   10  C   UNL     1      -8.912   9.248  66.875  1.00  0.00    -0.149 A  
HETATM   11 CL   UNL     1     -11.267   9.986  67.916  1.00  0.00    -0.262 Cl 
HETATM   12  C   UNL     1      -7.778   8.454  66.763  1.00  0.00    -0.091 A  
HETATM   13  C   UNL     1      -9.894   8.931  67.825  1.00  0.00    -0.166 A  
HETATM   14  C   UNL     1      -7.630   7.354  67.602  1.00  0.00    -0.106 A  
HETATM   15  C   UNL     1      -8.600   7.046  68.574  1.00  0.00    -0.123 A  
HETATM   16 CL   UNL     1      -8.158   5.765  69.647  1.00  0.00    -0.103 Cl 
ENDBRANCH   8   9
ENDBRANCH   2   8
TORSDOF 3
ENDMDL
MODEL      173
REMARK 921   NORMALIZED FREE ENERGY PREDICTED BY IDOCK:   -2.89 KCAL/MOL
REMARK 922        TOTAL FREE ENERGY PREDICTED BY IDOCK:   -3.89 KCAL/MOL
REMARK 923 INTER-LIGAND FREE ENERGY PREDICTED BY IDOCK:   -3.72 KCAL/MOL
REMARK 924 INTRA-LIGAND FREE ENERGY PREDICTED BY IDOCK:   -0.16 KCAL/MOL
REMARK 927      BINDING AFFINITY PREDICTED BY RF-SCORE:    0.00 PKD
ROOT
HETATM    1  C   UNL     1     -11.763   6.510  69.969  1.00  0.00    -0.388 C  
HETATM    2  C   UNL     1     -10.717   7.199  70.832  1.00  0.00    -0.231 C  
ENDROOT
BRANCH   2   3
HETATM    3  C   UNL     1     -10.045   8.303  70.020  1.00  0.00    -0.196 C  
HETATM    4  C   UNL     1      -8.832   9.371  68.509  1.00  0.00    -0.128 C  
HETATM    5  N   UNL     1      -9.196   8.030  69.054  1.00  0.00    -0.148 NA 
HETATM    6  N   UNL     1     -10.317   9.639  70.234  1.00  0.00    -0.261 NA 
HETATM    7  C   UNL     1      -9.861  10.359  69.072  1.00  0.00    -0.212 C  
ENDBRANCH   2   3
BRANCH   2   8
HETATM    8  O   UNL     1      -9.652   6.316  71.200  1.00  0.00    -0.173 OA 
BRANCH   8   9
HETATM    9  C   UNL     1      -9.882   5.176  71.921  1.00  0.00    -0.177 A  
HETATM   10  C   UNL     1     -10.742   4.327  74.063  1.00  0.00    -0.320 A  
HETATM   11 CL   UNL     1     -10.435   6.984  73.912  1.00  0.00    -0.399 Cl 
HETATM   12  C   UNL     1     -10.703   3.025  73.580  1.00  0.00    -0.297 A  
HETATM   13  C   UNL     1     -10.333   5.388  73.242  1.00  0.00    -0.206 A  
HETATM   14  C   UNL     1     -10.262   2.793  72.281  1.00  0.00    -0.187 A  
HETATM   15  C   UNL     1      -9.874   3.856  71.444  1.00  0.00    -0.172 A  
HETATM   16 CL   UNL     1      -9.540   3.398  69.812  1.00  0.00    -0.226 Cl 
ENDBRANCH   8   9
ENDBRANCH   2   8
TORSDOF 3
ENDMDL
MODEL      174
REMARK 921   NORMALIZED FREE ENERGY PREDICTED BY IDOCK:   -2.88 KCAL/MOL
REMARK 922        TOTAL FREE ENERGY PREDICTED BY IDOCK:   -3.88 KCAL/MOL
REMARK 923 INTER-LIGAND FREE ENERGY PREDICTED BY IDOCK:   -3.42 KCAL/MOL
REMARK 924 INTRA-LIGAND FREE ENERGY PREDICTED BY IDOCK:   -0.46 KCAL/MOL
REMARK 927      BINDING AFFINITY PREDICTED BY RF-SCORE:    0.00 PKD
ROOT
HETATM    1  C   UNL     1     -10.194   4.907  67.150  1.00  0.00    -0.211 C  
HETATM    2  C   UNL     1      -9.807   5.487  68.503  1.00  0.00    -0.146 C  
ENDROOT
BRANCH   2   3
HETATM    3  C   UNL     1      -9.147   4.399  69.345  1.00  0.00    -0.113 C  
HETATM    4  C   UNL     1      -8.600   2.433  70.202  1.00  0.00    -0.055 C  
HETATM    5  N   UNL     1      -9.527   3.142  69.270  1.00  0.00    -0.151 NA 
HETATM    6  N   UNL     1      -8.099   4.670  70.200  1.00  0.00    -0.067 NA 
HETATM    7  C   UNL     1      -7.461   3.414  70.506  1.00  0.00    -0.040 C  
ENDBRANCH   2   3
BRANCH   2   8
HETATM    8  O   UNL     1     -10.950   5.894  69.262  1.00  0.00    -0.334 OA 
BRANCH   8   9
HETATM    9  C   UNL     1     -10.968   7.073  69.956  1.00  0.00    -0.270 A  
HETATM   10  C   UNL     1     -10.929   8.042  72.216  1.00  0.00    -0.377 A  
HETATM   11 CL   UNL     1     -11.237   5.384  72.104  1.00  0.00    -0.244 Cl 
HETATM   12  C   UNL     1     -10.750   9.313  71.684  1.00  0.00    -0.393 A  
HETATM   13  C   UNL     1     -11.039   6.938  71.360  1.00  0.00    -0.250 A  
HETATM   14  C   UNL     1     -10.676   9.471  70.304  1.00  0.00    -0.315 A  
HETATM   15  C   UNL     1     -10.762   8.363  69.441  1.00  0.00    -0.152 A  
HETATM   16 CL   UNL     1     -10.460   8.725  67.779  1.00  0.00    -0.300 Cl 
ENDBRANCH   8   9
ENDBRANCH   2   8
TORSDOF 3
ENDMDL
MODEL      175
REMARK 921   NORMALIZED FREE ENERGY PREDICTED BY IDOCK:   -2.87 KCAL/MOL
REMARK 922        TOTAL FREE ENERGY PREDICTED BY IDOCK:   -3.86 KCAL/MOL
REMARK 923 INTER-LIGAND FREE ENERGY PREDICTED BY IDOCK:   -3.48 KCAL/MOL
REMARK 924 INTRA-LIGAND FREE ENERGY PREDICTED BY IDOCK:   -0.38 KCAL/MOL
REMARK 927      BINDING AFFINITY PREDICTED BY RF-SCORE:    0.00 PKD
ROOT
HETATM    1  C   UNL     1      -8.119   5.323  67.707  1.00  0.00    -0.099 C  
HETATM    2  C   UNL     1      -9.141   6.256  68.340  1.00  0.00    -0.114 C  
ENDROOT
BRANCH   2   3
HETATM    3  C   UNL     1      -9.183   7.563  67.553  1.00  0.00    -0.128 C  
HETATM    4  C   UNL     1      -8.597   9.300  66.314  1.00  0.00    -0.128 C  
HETATM    5  N   UNL     1      -8.099   8.080  67.017  1.00  0.00    -0.114 NA 
HETATM    6  N   UNL     1     -10.359   8.250  67.336  1.00  0.00    -0.257 NA 
HETATM    7  C   UNL     1     -10.123   9.169  66.250  1.00  0.00    -0.249 C  
ENDBRANCH   2   3
BRANCH   2   8
HETATM    8  O   UNL     1      -8.772   6.641  69.668  1.00  0.00    -0.137 OA 
BRANCH   8   9
HETATM    9  C   UNL     1      -9.702   7.072  70.575  1.00  0.00    -0.176 A  
HETATM   10  C   UNL     1     -11.202   6.332  72.378  1.00  0.00    -0.320 A  
HETATM   11 CL   UNL     1     -10.026   4.375  70.978  1.00  0.00    -0.262 Cl 
HETATM   12  C   UNL     1     -11.473   7.653  72.715  1.00  0.00    -0.384 A  
HETATM   13  C   UNL     1     -10.329   6.048  71.319  1.00  0.00    -0.215 A  
HETATM   14  C   UNL     1     -10.866   8.678  71.997  1.00  0.00    -0.430 A  
HETATM   15  C   UNL     1      -9.970   8.399  70.949  1.00  0.00    -0.191 A  
HETATM   16 CL   UNL     1      -9.171   9.787  70.300  1.00  0.00    -0.273 Cl 
ENDBRANCH   8   9
ENDBRANCH   2   8
TORSDOF 3
ENDMDL
MODEL      176
REMARK 921   NORMALIZED FREE ENERGY PREDICTED BY IDOCK:   -2.84 KCAL/MOL
REMARK 922        TOTAL FREE ENERGY PREDICTED BY IDOCK:   -3.83 KCAL/MOL
REMARK 923 INTER-LIGAND FREE ENERGY PREDICTED BY IDOCK:   -3.32 KCAL/MOL
REMARK 924 INTRA-LIGAND FREE ENERGY PREDICTED BY IDOCK:   -0.51 KCAL/MOL
REMARK 927      BINDING AFFINITY PREDICTED BY RF-SCORE:    0.00 PKD
ROOT
HETATM    1  C   UNL     1      -9.169   5.684  66.546  1.00  0.00    -0.149 C  
HETATM    2  C   UNL     1      -9.218   6.492  67.834  1.00  0.00    -0.110 C  
ENDROOT
BRANCH   2   3
HETATM    3  C   UNL     1      -9.018   5.554  69.022  1.00  0.00    -0.108 C  
HETATM    4  C   UNL     1      -8.359   4.714  70.960  1.00  0.00    -0.095 C  
HETATM    5  N   UNL     1      -8.214   5.862  70.016  1.00  0.00    -0.118 NA 
HETATM    6  N   UNL     1      -9.692   4.356  69.130  1.00  0.00    -0.184 NA 
HETATM    7  C   UNL     1      -9.602   3.937  70.507  1.00  0.00    -0.193 C  
ENDBRANCH   2   3
BRANCH   2   8
HETATM    8  O   UNL     1     -10.501   7.088  68.050  1.00  0.00    -0.185 OA 
BRANCH   8   9
HETATM    9  C   UNL     1     -10.638   8.273  68.719  1.00  0.00    -0.123 A  
HETATM   10  C   UNL     1     -10.800  10.709  68.420  1.00  0.00    -0.282 A  
HETATM   11 CL   UNL     1     -10.144   9.317  66.228  1.00  0.00    -0.346 Cl 
HETATM   12  C   UNL     1     -11.147  10.866  69.756  1.00  0.00    -0.328 A  
HETATM   13  C   UNL     1     -10.547   9.428  67.911  1.00  0.00    -0.237 A  
HETATM   14  C   UNL     1     -11.244   9.743  70.571  1.00  0.00    -0.381 A  
HETATM   15  C   UNL     1     -11.015   8.452  70.060  1.00  0.00    -0.194 A  
HETATM   16 CL   UNL     1     -11.365   7.171  71.165  1.00  0.00    -0.292 Cl 
ENDBRANCH   8   9
ENDBRANCH   2   8
TORSDOF 3
ENDMDL
MODEL      177
REMARK 921   NORMALIZED FREE ENERGY PREDICTED BY IDOCK:   -2.84 KCAL/MOL
REMARK 922        TOTAL FREE ENERGY PREDICTED BY IDOCK:   -3.83 KCAL/MOL
REMARK 923 INTER-LIGAND FREE ENERGY PREDICTED BY IDOCK:   -4.04 KCAL/MOL
REMARK 924 INTRA-LIGAND FREE ENERGY PREDICTED BY IDOCK:    0.21 KCAL/MOL
REMARK 927      BINDING AFFINITY PREDICTED BY RF-SCORE:    0.00 PKD
ROOT
HETATM    1  C   UNL     1      -7.634   8.757  70.740  1.00  0.00    -0.097 C  
HETATM    2  C   UNL     1      -9.032   8.930  70.165  1.00  0.00    -0.172 C  
ENDROOT
BRANCH   2   3
HETATM    3  C   UNL     1      -9.022  10.076  69.156  1.00  0.00    -0.169 C  
HETATM    4  C   UNL     1      -9.671  11.637  67.729  1.00  0.00    -0.173 C  
HETATM    5  N   UNL     1     -10.126  10.498  68.581  1.00  0.00    -0.171 NA 
HETATM    6  N   UNL     1      -7.864  10.747  68.822  1.00  0.00    -0.120 NA 
HETATM    7  C   UNL     1      -8.254  11.987  68.198  1.00  0.00    -0.163 C  
ENDBRANCH   2   3
BRANCH   2   8
HETATM    8  O   UNL     1      -9.980   9.328  71.160  1.00  0.00    -0.285 OA 
BRANCH   8   9
HETATM    9  C   UNL     1     -11.240   8.796  71.205  1.00  0.00    -0.277 A  
HETATM   10  C   UNL     1     -12.513   6.759  71.732  1.00  0.00    -0.394 A  
HETATM   11 CL   UNL     1      -9.850   6.476  71.678  1.00  0.00    -0.178 Cl 
HETATM   12  C   UNL     1     -13.707   7.462  71.637  1.00  0.00    -0.468 A  
HETATM   13  C   UNL     1     -11.296   7.420  71.516  1.00  0.00    -0.256 A  
HETATM   14  C   UNL     1     -13.677   8.819  71.332  1.00  0.00    -0.311 A  
HETATM   15  C   UNL     1     -12.457   9.493  71.138  1.00  0.00    -0.315 A  
HETATM   16 CL   UNL     1     -12.605  11.205  70.958  1.00  0.00    -0.490 Cl 
ENDBRANCH   8   9
ENDBRANCH   2   8
TORSDOF 3
ENDMDL
MODEL      178
REMARK 921   NORMALIZED FREE ENERGY PREDICTED BY IDOCK:   -2.82 KCAL/MOL
REMARK 922        TOTAL FREE ENERGY PREDICTED BY IDOCK:   -3.81 KCAL/MOL
REMARK 923 INTER-LIGAND FREE ENERGY PREDICTED BY IDOCK:   -3.38 KCAL/MOL
REMARK 924 INTRA-LIGAND FREE ENERGY PREDICTED BY IDOCK:   -0.43 KCAL/MOL
REMARK 927      BINDING AFFINITY PREDICTED BY RF-SCORE:    0.00 PKD
ROOT
HETATM    1  C   UNL     1     -11.967  11.788  68.847  1.00  0.00    -0.332 C  
HETATM    2  C   UNL     1     -10.973  10.651  68.667  1.00  0.00    -0.246 C  
ENDROOT
BRANCH   2   3
HETATM    3  C   UNL     1     -11.046   9.724  69.877  1.00  0.00    -0.254 C  
HETATM    4  C   UNL     1     -11.468   8.913  71.892  1.00  0.00    -0.372 C  
HETATM    5  N   UNL     1     -11.541  10.128  71.026  1.00  0.00    -0.372 NA 
HETATM    6  N   UNL     1     -10.630   8.410  69.819  1.00  0.00    -0.222 NA 
HETATM    7  C   UNL     1     -11.203   7.730  70.954  1.00  0.00    -0.271 C  
ENDBRANCH   2   3
BRANCH   2   8
HETATM    8  O   UNL     1      -9.619  11.116  68.644  1.00  0.00    -0.190 OA 
BRANCH   8   9
HETATM    9  C   UNL     1      -8.741  10.717  67.673  1.00  0.00    -0.126 A  
HETATM   10  C   UNL     1      -6.714   9.385  67.262  1.00  0.00    -0.075 A  
HETATM   11 CL   UNL     1      -7.359   9.743  69.837  1.00  0.00    -0.115 Cl 
HETATM   12  C   UNL     1      -6.886   9.521  65.890  1.00  0.00    -0.087 A  
HETATM   13  C   UNL     1      -7.631   9.979  68.141  1.00  0.00    -0.084 A  
HETATM   14  C   UNL     1      -7.972  10.243  65.406  1.00  0.00    -0.148 A  
HETATM   15  C   UNL     1      -8.909  10.821  66.283  1.00  0.00    -0.173 A  
HETATM   16 CL   UNL     1     -10.287  11.512  65.505  1.00  0.00    -0.308 Cl 
ENDBRANCH   8   9
ENDBRANCH   2   8
TORSDOF 3
ENDMDL
MODEL      179
REMARK 921   NORMALIZED FREE ENERGY PREDICTED BY IDOCK:   -2.78 KCAL/MOL
REMARK 922        TOTAL FREE ENERGY PREDICTED BY IDOCK:   -3.75 KCAL/MOL
REMARK 923 INTER-LIGAND FREE ENERGY PREDICTED BY IDOCK:   -4.53 KCAL/MOL
REMARK 924 INTRA-LIGAND FREE ENERGY PREDICTED BY IDOCK:    0.78 KCAL/MOL
REMARK 927      BINDING AFFINITY PREDICTED BY RF-SCORE:    0.00 PKD
ROOT
HETATM    1  C   UNL     1     -10.992  11.596  65.170  1.00  0.00    -0.326 C  
HETATM    2  C   UNL     1      -9.973  11.779  66.284  1.00  0.00    -0.218 C  
ENDROOT
BRANCH   2   3
HETATM    3  C   UNL     1     -10.614  11.402  67.617  1.00  0.00    -0.202 C  
HETATM    4  C   UNL     1     -12.101  11.016  69.210  1.00  0.00    -0.292 C  
HETATM    5  N   UNL     1     -11.905  11.542  67.826  1.00  0.00    -0.626 NA 
HETATM    6  N   UNL     1      -9.882  10.866  68.656  1.00  0.00    -0.184 NA 
HETATM    7  C   UNL     1     -10.818  10.257  69.569  1.00  0.00    -0.256 C  
ENDBRANCH   2   3
BRANCH   2   8
HETATM    8  O   UNL     1      -9.583  13.147  66.441  1.00  0.00    -0.264 OA 
BRANCH   8   9
HETATM    9  C   UNL     1     -10.163  13.956  67.380  1.00  0.00    -0.252 A  
HETATM   10  C   UNL     1      -9.710  15.296  69.392  1.00  0.00    -0.248 A  
HETATM   11 CL   UNL     1      -7.694  13.740  68.562  1.00  0.00    -0.136 Cl 
HETATM   12  C   UNL     1     -10.985  15.846  69.331  1.00  0.00    -0.309 A  
HETATM   13  C   UNL     1      -9.308  14.361  68.428  1.00  0.00    -0.206 A  
HETATM   14  C   UNL     1     -11.844  15.463  68.306  1.00  0.00    -0.225 A  
HETATM   15  C   UNL     1     -11.437  14.543  67.322  1.00  0.00    -0.365 A  
HETATM   16 CL   UNL     1     -12.563  14.333  66.028  1.00  0.00    -0.425 Cl 
ENDBRANCH   8   9
ENDBRANCH   2   8
TORSDOF 3
ENDMDL
MODEL      180
REMARK 921   NORMALIZED FREE ENERGY PREDICTED BY IDOCK:   -2.77 KCAL/MOL
REMARK 922        TOTAL FREE ENERGY PREDICTED BY IDOCK:   -3.74 KCAL/MOL
REMARK 923 INTER-LIGAND FREE ENERGY PREDICTED BY IDOCK:   -3.55 KCAL/MOL
REMARK 924 INTRA-LIGAND FREE ENERGY PREDICTED BY IDOCK:   -0.19 KCAL/MOL
REMARK 927      BINDING AFFINITY PREDICTED BY RF-SCORE:    0.00 PKD
ROOT
HETATM    1  C   UNL     1      -8.517   6.912  70.202  1.00  0.00    -0.140 C  
HETATM    2  C   UNL     1      -9.762   6.124  70.581  1.00  0.00    -0.174 C  
ENDROOT
BRANCH   2   3
HETATM    3  C   UNL     1      -9.703   4.746  69.927  1.00  0.00    -0.204 C  
HETATM    4  C   UNL     1      -9.515   3.126  68.431  1.00  0.00    -0.147 C  
HETATM    5  N   UNL     1      -9.585   4.606  68.625  1.00  0.00    -0.155 NA 
HETATM    6  N   UNL     1      -9.735   3.582  70.666  1.00  0.00    -0.172 NA 
HETATM    7  C   UNL     1      -9.254   2.522  69.816  1.00  0.00    -0.125 C  
ENDBRANCH   2   3
BRANCH   2   8
HETATM    8  O   UNL     1     -10.957   6.721  70.067  1.00  0.00    -0.256 OA 
BRANCH   8   9
HETATM    9  C   UNL     1     -11.043   8.066  69.832  1.00  0.00    -0.108 A  
HETATM   10  C   UNL     1     -11.297  10.255  70.925  1.00  0.00    -0.376 A  
HETATM   11 CL   UNL     1     -11.649   8.125  72.510  1.00  0.00    -0.460 Cl 
HETATM   12  C   UNL     1     -11.016  10.902  69.728  1.00  0.00    -0.290 A  
HETATM   13  C   UNL     1     -11.313   8.854  70.973  1.00  0.00    -0.291 A  
HETATM   14  C   UNL     1     -10.747  10.147  68.591  1.00  0.00    -0.253 A  
HETATM   15  C   UNL     1     -10.737   8.740  68.639  1.00  0.00    -0.068 A  
HETATM   16 CL   UNL     1     -10.197   7.978  67.186  1.00  0.00    -0.333 Cl 
ENDBRANCH   8   9
ENDBRANCH   2   8
TORSDOF 3
ENDMDL
MODEL      181
REMARK 921   NORMALIZED FREE ENERGY PREDICTED BY IDOCK:   -2.74 KCAL/MOL
REMARK 922        TOTAL FREE ENERGY PREDICTED BY IDOCK:   -3.71 KCAL/MOL
REMARK 923 INTER-LIGAND FREE ENERGY PREDICTED BY IDOCK:   -3.30 KCAL/MOL
REMARK 924 INTRA-LIGAND FREE ENERGY PREDICTED BY IDOCK:   -0.41 KCAL/MOL
REMARK 927      BINDING AFFINITY PREDICTED BY RF-SCORE:    0.00 PKD
ROOT
HETATM    1  C   UNL     1     -11.366   6.419  69.520  1.00  0.00    -0.460 C  
HETATM    2  C   UNL     1     -10.205   6.595  70.487  1.00  0.00    -0.189 C  
ENDROOT
BRANCH   2   3
HETATM    3  C   UNL     1     -10.394   5.655  71.674  1.00  0.00    -0.215 C  
HETATM    4  C   UNL     1     -11.219   4.672  73.477  1.00  0.00    -0.316 C  
HETATM    5  N   UNL     1     -11.379   5.816  72.531  1.00  0.00    -0.297 NA 
HETATM    6  N   UNL     1      -9.567   4.573  71.892  1.00  0.00    -0.146 NA 
HETATM    7  C   UNL     1     -10.246   3.693  72.809  1.00  0.00    -0.167 C  
ENDBRANCH   2   3
BRANCH   2   8
HETATM    8  O   UNL     1     -10.172   7.906  71.060  1.00  0.00    -0.196 OA 
BRANCH   8   9
HETATM    9  C   UNL     1      -9.292   8.858  70.623  1.00  0.00    -0.212 A  
HETATM   10  C   UNL     1      -6.965   9.635  70.799  1.00  0.00    -0.087 A  
HETATM   11 CL   UNL     1      -7.680   7.724  72.535  1.00  0.00    -0.115 Cl 
HETATM   12  C   UNL     1      -7.165  10.520  69.747  1.00  0.00    -0.152 A  
HETATM   13  C   UNL     1      -8.019   8.817  71.232  1.00  0.00    -0.139 A  
HETATM   14  C   UNL     1      -8.411  10.577  69.131  1.00  0.00    -0.152 A  
HETATM   15  C   UNL     1      -9.465   9.741  69.545  1.00  0.00    -0.212 A  
HETATM   16 CL   UNL     1     -10.873   9.816  68.546  1.00  0.00    -0.246 Cl 
ENDBRANCH   8   9
ENDBRANCH   2   8
TORSDOF 3
ENDMDL
MODEL      182
REMARK 921   NORMALIZED FREE ENERGY PREDICTED BY IDOCK:   -2.72 KCAL/MOL
REMARK 922        TOTAL FREE ENERGY PREDICTED BY IDOCK:   -3.68 KCAL/MOL
REMARK 923 INTER-LIGAND FREE ENERGY PREDICTED BY IDOCK:   -3.57 KCAL/MOL
REMARK 924 INTRA-LIGAND FREE ENERGY PREDICTED BY IDOCK:   -0.11 KCAL/MOL
REMARK 927      BINDING AFFINITY PREDICTED BY RF-SCORE:    0.00 PKD
ROOT
HETATM    1  C   UNL     1      -9.711   6.512  72.491  1.00  0.00    -0.165 C  
HETATM    2  C   UNL     1     -10.319   7.871  72.806  1.00  0.00    -0.333 C  
ENDROOT
BRANCH   2   3
HETATM    3  C   UNL     1     -11.734   7.931  72.236  1.00  0.00    -0.355 C  
HETATM    4  C   UNL     1     -13.744   7.356  71.512  1.00  0.00    -0.371 C  
HETATM    5  N   UNL     1     -12.431   6.841  72.005  1.00  0.00    -0.290 NA 
HETATM    6  N   UNL     1     -12.364   9.128  71.966  1.00  0.00    -0.375 NA 
HETATM    7  C   UNL     1     -13.774   8.852  71.847  1.00  0.00    -0.439 C  
ENDBRANCH   2   3
BRANCH   2   8
HETATM    8  O   UNL     1      -9.619   8.939  72.161  1.00  0.00    -0.301 OA 
BRANCH   8   9
HETATM    9  C   UNL     1      -8.665   8.701  71.209  1.00  0.00    -0.194 A  
HETATM   10  C   UNL     1      -6.319   8.041  70.878  1.00  0.00    -0.037 A  
HETATM   11 CL   UNL     1      -7.027   8.560  73.408  1.00  0.00    -0.110 Cl 
HETATM   12  C   UNL     1      -6.535   7.904  69.512  1.00  0.00    -0.035 A  
HETATM   13  C   UNL     1      -7.373   8.437  71.714  1.00  0.00    -0.100 A  
HETATM   14  C   UNL     1      -7.800   8.158  68.993  1.00  0.00    -0.108 A  
HETATM   15  C   UNL     1      -8.867   8.532  69.830  1.00  0.00    -0.137 A  
HETATM   16 CL   UNL     1     -10.401   8.620  69.040  1.00  0.00    -0.222 Cl 
ENDBRANCH   8   9
ENDBRANCH   2   8
TORSDOF 3
ENDMDL
MODEL      183
REMARK 921   NORMALIZED FREE ENERGY PREDICTED BY IDOCK:   -2.72 KCAL/MOL
REMARK 922        TOTAL FREE ENERGY PREDICTED BY IDOCK:   -3.68 KCAL/MOL
REMARK 923 INTER-LIGAND FREE ENERGY PREDICTED BY IDOCK:   -3.21 KCAL/MOL
REMARK 924 INTRA-LIGAND FREE ENERGY PREDICTED BY IDOCK:   -0.47 KCAL/MOL
REMARK 927      BINDING AFFINITY PREDICTED BY RF-SCORE:    0.00 PKD
ROOT
HETATM    1  C   UNL     1     -11.056   5.984  68.299  1.00  0.00    -0.259 C  
HETATM    2  C   UNL     1     -10.796   7.065  69.338  1.00  0.00    -0.227 C  
ENDROOT
BRANCH   2   3
HETATM    3  C   UNL     1     -10.318   8.333  68.635  1.00  0.00    -0.200 C  
HETATM    4  C   UNL     1      -9.168   9.740  67.372  1.00  0.00    -0.134 C  
HETATM    5  N   UNL     1      -9.229   8.343  67.898  1.00  0.00    -0.136 NA 
HETATM    6  N   UNL     1     -11.017   9.519  68.708  1.00  0.00    -0.137 NA 
HETATM    7  C   UNL     1     -10.545  10.361  67.637  1.00  0.00    -0.257 C  
ENDBRANCH   2   3
BRANCH   2   8
HETATM    8  O   UNL     1      -9.730   6.716  70.227  1.00  0.00    -0.171 OA 
BRANCH   8   9
HETATM    9  C   UNL     1      -9.967   6.356  71.525  1.00  0.00    -0.180 A  
HETATM   10  C   UNL     1      -9.657   4.552  73.169  1.00  0.00    -0.151 A  
HETATM   11 CL   UNL     1      -9.042   3.927  70.638  1.00  0.00    -0.164 Cl 
HETATM   12  C   UNL     1     -10.080   5.391  74.192  1.00  0.00    -0.254 A  
HETATM   13  C   UNL     1      -9.604   5.031  71.852  1.00  0.00    -0.152 A  
HETATM   14  C   UNL     1     -10.442   6.701  73.894  1.00  0.00    -0.351 A  
HETATM   15  C   UNL     1     -10.368   7.194  72.578  1.00  0.00    -0.208 A  
HETATM   16 CL   UNL     1     -10.672   8.888  72.429  1.00  0.00    -0.228 Cl 
ENDBRANCH   8   9
ENDBRANCH   2   8
TORSDOF 3
ENDMDL
MODEL      184
REMARK 921   NORMALIZED FREE ENERGY PREDICTED BY IDOCK:   -2.71 KCAL/MOL
REMARK 922        TOTAL FREE ENERGY PREDICTED BY IDOCK:   -3.68 KCAL/MOL
REMARK 923 INTER-LIGAND FREE ENERGY PREDICTED BY IDOCK:   -3.20 KCAL/MOL
REMARK 924 INTRA-LIGAND FREE ENERGY PREDICTED BY IDOCK:   -0.48 KCAL/MOL
REMARK 927      BINDING AFFINITY PREDICTED BY RF-SCORE:    0.00 PKD
ROOT
HETATM    1  C   UNL     1     -11.407   9.892  69.756  1.00  0.00    -0.241 C  
HETATM    2  C   UNL     1      -9.999   9.319  69.823  1.00  0.00    -0.199 C  
ENDROOT
BRANCH   2   3
HETATM    3  C   UNL     1      -9.412   9.263  68.416  1.00  0.00    -0.138 C  
HETATM    4  C   UNL     1      -7.987   9.164  66.726  1.00  0.00    -0.104 C  
HETATM    5  N   UNL     1      -8.114   9.289  68.209  1.00  0.00    -0.106 NA 
HETATM    6  N   UNL     1     -10.207   9.149  67.294  1.00  0.00    -0.234 NA 
HETATM    7  C   UNL     1      -9.360   8.714  66.212  1.00  0.00    -0.220 C  
ENDBRANCH   2   3
BRANCH   2   8
HETATM    8  O   UNL     1      -9.990   7.961  70.278  1.00  0.00    -0.188 OA 
BRANCH   8   9
HETATM    9  C   UNL     1      -9.789   7.647  71.594  1.00  0.00    -0.162 A  
HETATM   10  C   UNL     1     -10.777   6.491  73.527  1.00  0.00    -0.286 A  
HETATM   11 CL   UNL     1     -12.384   6.770  71.403  1.00  0.00    -0.410 Cl 
HETATM   12  C   UNL     1      -9.588   6.624  74.234  1.00  0.00    -0.296 A  
HETATM   13  C   UNL     1     -10.874   6.999  72.224  1.00  0.00    -0.230 A  
HETATM   14  C   UNL     1      -8.505   7.258  73.632  1.00  0.00    -0.182 A  
HETATM   15  C   UNL     1      -8.590   7.748  72.316  1.00  0.00    -0.132 A  
HETATM   16 CL   UNL     1      -7.096   8.331  71.671  1.00  0.00    -0.075 Cl 
ENDBRANCH   8   9
ENDBRANCH   2   8
TORSDOF 3
ENDMDL
MODEL      185
REMARK 921   NORMALIZED FREE ENERGY PREDICTED BY IDOCK:   -2.71 KCAL/MOL
REMARK 922        TOTAL FREE ENERGY PREDICTED BY IDOCK:   -3.67 KCAL/MOL
REMARK 923 INTER-LIGAND FREE ENERGY PREDICTED BY IDOCK:   -3.34 KCAL/MOL
REMARK 924 INTRA-LIGAND FREE ENERGY PREDICTED BY IDOCK:   -0.34 KCAL/MOL
REMARK 927      BINDING AFFINITY PREDICTED BY RF-SCORE:    0.00 PKD
ROOT
HETATM    1  C   UNL     1      -8.354   9.175  66.544  1.00  0.00    -0.119 C  
HETATM    2  C   UNL     1      -9.515   9.587  67.436  1.00  0.00    -0.135 C  
ENDROOT
BRANCH   2   3
HETATM    3  C   UNL     1      -9.632  11.109  67.437  1.00  0.00    -0.168 C  
HETATM    4  C   UNL     1      -9.782  13.214  68.103  1.00  0.00    -0.228 C  
HETATM    5  N   UNL     1      -9.752  11.791  68.555  1.00  0.00    -0.198 NA 
HETATM    6  N   UNL     1      -9.586  11.848  66.273  1.00  0.00    -0.224 NA 
HETATM    7  C   UNL     1      -9.309  13.213  66.645  1.00  0.00    -0.239 C  
ENDBRANCH   2   3
BRANCH   2   8
HETATM    8  O   UNL     1      -9.294   9.237  68.806  1.00  0.00    -0.138 OA 
BRANCH   8   9
HETATM    9  C   UNL     1     -10.081   8.319  69.448  1.00  0.00    -0.198 A  
HETATM   10  C   UNL     1     -10.156   5.999  70.261  1.00  0.00    -0.249 A  
HETATM   11 CL   UNL     1      -8.054   6.615  68.719  1.00  0.00    -0.118 Cl 
HETATM   12  C   UNL     1     -11.337   6.260  70.943  1.00  0.00    -0.389 A  
HETATM   13  C   UNL     1      -9.538   7.017  69.521  1.00  0.00    -0.153 A  
HETATM   14  C   UNL     1     -11.890   7.535  70.886  1.00  0.00    -0.293 A  
HETATM   15  C   UNL     1     -11.262   8.568  70.165  1.00  0.00    -0.136 A  
HETATM   16 CL   UNL     1     -11.986  10.124  70.363  1.00  0.00    -0.351 Cl 
ENDBRANCH   8   9
ENDBRANCH   2   8
TORSDOF 3
ENDMDL
MODEL      186
REMARK 921   NORMALIZED FREE ENERGY PREDICTED BY IDOCK:   -2.69 KCAL/MOL
REMARK 922        TOTAL FREE ENERGY PREDICTED BY IDOCK:   -3.64 KCAL/MOL
REMARK 923 INTER-LIGAND FREE ENERGY PREDICTED BY IDOCK:   -3.47 KCAL/MOL
REMARK 924 INTRA-LIGAND FREE ENERGY PREDICTED BY IDOCK:   -0.18 KCAL/MOL
REMARK 927      BINDING AFFINITY PREDICTED BY RF-SCORE:    0.00 PKD
ROOT
HETATM    1  C   UNL     1     -10.427   6.682  71.986  1.00  0.00    -0.227 C  
HETATM    2  C   UNL     1     -10.262   8.127  71.538  1.00  0.00    -0.206 C  
ENDROOT
BRANCH   2   3
HETATM    3  C   UNL     1     -11.580   8.869  71.741  1.00  0.00    -0.352 C  
HETATM    4  C   UNL     1     -13.151  10.427  71.709  1.00  0.00    -0.462 C  
HETATM    5  N   UNL     1     -11.725  10.127  71.384  1.00  0.00    -0.338 NA 
HETATM    6  N   UNL     1     -12.692   8.254  72.276  1.00  0.00    -0.322 NA 
HETATM    7  C   UNL     1     -13.832   9.074  71.951  1.00  0.00    -0.423 C  
ENDBRANCH   2   3
BRANCH   2   8
HETATM    8  O   UNL     1      -9.997   8.230  70.135  1.00  0.00    -0.184 OA 
BRANCH   8   9
HETATM    9  C   UNL     1      -8.942   7.581  69.554  1.00  0.00    -0.143 A  
HETATM   10  C   UNL     1      -6.495   7.606  69.303  1.00  0.00    -0.039 A  
HETATM   11 CL   UNL     1      -7.558   9.765  70.478  1.00  0.00    -0.156 Cl 
HETATM   12  C   UNL     1      -6.528   6.353  68.705  1.00  0.00    -0.046 A  
HETATM   13  C   UNL     1      -7.689   8.212  69.720  1.00  0.00    -0.100 A  
HETATM   14  C   UNL     1      -7.751   5.712  68.533  1.00  0.00    -0.089 A  
HETATM   15  C   UNL     1      -8.950   6.304  68.971  1.00  0.00    -0.123 A  
HETATM   16 CL   UNL     1     -10.339   5.284  68.847  1.00  0.00    -0.257 Cl 
ENDBRANCH   8   9
ENDBRANCH   2   8
TORSDOF 3
ENDMDL
MODEL      187
REMARK 921   NORMALIZED FREE ENERGY PREDICTED BY IDOCK:   -2.67 KCAL/MOL
REMARK 922        TOTAL FREE ENERGY PREDICTED BY IDOCK:   -3.62 KCAL/MOL
REMARK 923 INTER-LIGAND FREE ENERGY PREDICTED BY IDOCK:   -3.14 KCAL/MOL
REMARK 924 INTRA-LIGAND FREE ENERGY PREDICTED BY IDOCK:   -0.49 KCAL/MOL
REMARK 927      BINDING AFFINITY PREDICTED BY RF-SCORE:    0.00 PKD
ROOT
HETATM    1  C   UNL     1      -8.326   6.420  68.758  1.00  0.00    -0.121 C  
HETATM    2  C   UNL     1      -9.366   7.485  68.443  1.00  0.00    -0.141 C  
ENDROOT
BRANCH   2   3
HETATM    3  C   UNL     1      -8.851   8.370  67.310  1.00  0.00    -0.130 C  
HETATM    4  C   UNL     1      -8.570   9.307  65.326  1.00  0.00    -0.166 C  
HETATM    5  N   UNL     1      -9.282   8.230  66.076  1.00  0.00    -0.188 NA 
HETATM    6  N   UNL     1      -7.935   9.378  67.527  1.00  0.00    -0.102 NA 
HETATM    7  C   UNL     1      -7.983  10.252  66.381  1.00  0.00    -0.121 C  
ENDBRANCH   2   3
BRANCH   2   8
HETATM    8  O   UNL     1      -9.572   8.381  69.540  1.00  0.00    -0.168 OA 
BRANCH   8   9
HETATM    9  C   UNL     1      -9.721   7.923  70.821  1.00  0.00    -0.172 A  
HETATM   10  C   UNL     1      -8.801   8.070  73.097  1.00  0.00    -0.318 A  
HETATM   11 CL   UNL     1      -7.340   9.241  71.182  1.00  0.00    -0.092 Cl 
HETATM   12  C   UNL     1      -9.890   7.369  73.599  1.00  0.00    -0.365 A  
HETATM   13  C   UNL     1      -8.719   8.341  71.724  1.00  0.00    -0.164 A  
HETATM   14  C   UNL     1     -10.890   6.948  72.729  1.00  0.00    -0.305 A  
HETATM   15  C   UNL     1     -10.825   7.238  71.353  1.00  0.00    -0.230 A  
HETATM   16 CL   UNL     1     -12.241   6.805  70.462  1.00  0.00    -0.355 Cl 
ENDBRANCH   8   9
ENDBRANCH   2   8
TORSDOF 3
ENDMDL
MODEL      188
REMARK 921   NORMALIZED FREE ENERGY PREDICTED BY IDOCK:   -2.66 KCAL/MOL
REMARK 922        TOTAL FREE ENERGY PREDICTED BY IDOCK:   -3.62 KCAL/MOL
REMARK 923 INTER-LIGAND FREE ENERGY PREDICTED BY IDOCK:   -3.16 KCAL/MOL
REMARK 924 INTRA-LIGAND FREE ENERGY PREDICTED BY IDOCK:   -0.46 KCAL/MOL
REMARK 927      BINDING AFFINITY PREDICTED BY RF-SCORE:    0.00 PKD
ROOT
HETATM    1  C   UNL     1      -8.215   7.605  66.839  1.00  0.00    -0.120 C  
HETATM    2  C   UNL     1      -9.721   7.736  66.670  1.00  0.00    -0.222 C  
ENDROOT
BRANCH   2   3
HETATM    3  C   UNL     1     -10.150   9.146  67.069  1.00  0.00    -0.249 C  
HETATM    4  C   UNL     1     -10.623  10.949  68.260  1.00  0.00    -0.190 C  
HETATM    5  N   UNL     1     -10.224   9.512  68.330  1.00  0.00    -0.186 NA 
HETATM    6  N   UNL     1     -10.450  10.113  66.133  1.00  0.00    -0.154 NA 
HETATM    7  C   UNL     1     -10.406  11.387  66.807  1.00  0.00    -0.234 C  
ENDBRANCH   2   3
BRANCH   2   8
HETATM    8  O   UNL     1     -10.441   6.870  67.553  1.00  0.00    -0.191 OA 
BRANCH   8   9
HETATM    9  C   UNL     1      -9.969   5.630  67.884  1.00  0.00    -0.143 A  
HETATM   10  C   UNL     1      -9.337   4.191  69.776  1.00  0.00    -0.237 A  
HETATM   11 CL   UNL     1      -9.821   6.754  70.385  1.00  0.00    -0.183 Cl 
HETATM   12  C   UNL     1      -9.238   3.094  68.929  1.00  0.00    -0.226 A  
HETATM   13  C   UNL     1      -9.696   5.443  69.257  1.00  0.00    -0.164 A  
HETATM   14  C   UNL     1      -9.503   3.255  67.573  1.00  0.00    -0.209 A  
HETATM   15  C   UNL     1      -9.888   4.503  67.050  1.00  0.00    -0.202 A  
HETATM   16 CL   UNL     1     -10.359   4.470  65.388  1.00  0.00    -0.254 Cl 
ENDBRANCH   8   9
ENDBRANCH   2   8
TORSDOF 3
ENDMDL
MODEL      189
REMARK 921   NORMALIZED FREE ENERGY PREDICTED BY IDOCK:   -2.66 KCAL/MOL
REMARK 922        TOTAL FREE ENERGY PREDICTED BY IDOCK:   -3.62 KCAL/MOL
REMARK 923 INTER-LIGAND FREE ENERGY PREDICTED BY IDOCK:   -3.28 KCAL/MOL
REMARK 924 INTRA-LIGAND FREE ENERGY PREDICTED BY IDOCK:   -0.34 KCAL/MOL
REMARK 927      BINDING AFFINITY PREDICTED BY RF-SCORE:    0.00 PKD
ROOT
HETATM    1  C   UNL     1      -9.215   8.488  68.899  1.00  0.00    -0.146 C  
HETATM    2  C   UNL     1      -9.907   7.177  69.242  1.00  0.00    -0.161 C  
ENDROOT
BRANCH   2   3
HETATM    3  C   UNL     1     -10.940   7.427  70.338  1.00  0.00    -0.251 C  
HETATM    4  C   UNL     1     -12.708   7.235  71.654  1.00  0.00    -0.375 C  
HETATM    5  N   UNL     1     -12.023   6.688  70.445  1.00  0.00    -0.362 NA 
HETATM    6  N   UNL     1     -10.777   8.413  71.288  1.00  0.00    -0.221 NA 
HETATM    7  C   UNL     1     -11.678   8.115  72.372  1.00  0.00    -0.399 C  
ENDBRANCH   2   3
BRANCH   2   8
HETATM    8  O   UNL     1      -9.003   6.220  69.804  1.00  0.00    -0.138 OA 
BRANCH   8   9
HETATM    9  C   UNL     1      -9.207   4.874  69.666  1.00  0.00    -0.118 A  
HETATM   10  C   UNL     1      -8.805   2.950  68.187  1.00  0.00    -0.166 A  
HETATM   11 CL   UNL     1      -8.204   5.347  67.154  1.00  0.00    -0.105 Cl 
HETATM   12  C   UNL     1      -9.245   2.079  69.176  1.00  0.00    -0.193 A  
HETATM   13  C   UNL     1      -8.790   4.331  68.431  1.00  0.00    -0.107 A  
HETATM   14  C   UNL     1      -9.660   2.591  70.401  1.00  0.00    -0.119 A  
HETATM   15  C   UNL     1      -9.624   3.973  70.660  1.00  0.00    -0.190 A  
HETATM   16 CL   UNL     1      -9.994   4.407  72.291  1.00  0.00    -0.229 Cl 
ENDBRANCH   8   9
ENDBRANCH   2   8
TORSDOF 3
ENDMDL
MODEL      190
REMARK 921   NORMALIZED FREE ENERGY PREDICTED BY IDOCK:   -2.65 KCAL/MOL
REMARK 922        TOTAL FREE ENERGY PREDICTED BY IDOCK:   -3.61 KCAL/MOL
REMARK 923 INTER-LIGAND FREE ENERGY PREDICTED BY IDOCK:   -3.48 KCAL/MOL
REMARK 924 INTRA-LIGAND FREE ENERGY PREDICTED BY IDOCK:   -0.13 KCAL/MOL
REMARK 927      BINDING AFFINITY PREDICTED BY RF-SCORE:    0.00 PKD
ROOT
HETATM    1  C   UNL     1     -11.156   9.823  70.128  1.00  0.00    -0.335 C  
HETATM    2  C   UNL     1     -10.334   8.712  70.764  1.00  0.00    -0.204 C  
ENDROOT
BRANCH   2   3
HETATM    3  C   UNL     1      -8.876   8.861  70.339  1.00  0.00    -0.181 C  
HETATM    4  C   UNL     1      -6.701   9.266  70.367  1.00  0.00    -0.073 C  
HETATM    5  N   UNL     1      -7.966   9.346  71.156  1.00  0.00    -0.319 NA 
HETATM    6  N   UNL     1      -8.431   8.465  69.095  1.00  0.00    -0.122 NA 
HETATM    7  C   UNL     1      -6.996   8.354  69.170  1.00  0.00    -0.059 C  
ENDBRANCH   2   3
BRANCH   2   8
HETATM    8  O   UNL     1     -10.722   7.417  70.294  1.00  0.00    -0.227 OA 
BRANCH   8   9
HETATM    9  C   UNL     1     -10.561   6.297  71.063  1.00  0.00    -0.238 A  
HETATM   10  C   UNL     1      -9.862   3.939  71.007  1.00  0.00    -0.219 A  
HETATM   11 CL   UNL     1     -10.112   5.127  68.619  1.00  0.00    -0.236 Cl 
HETATM   12  C   UNL     1      -9.891   3.882  72.395  1.00  0.00    -0.220 A  
HETATM   13  C   UNL     1     -10.196   5.133  70.351  1.00  0.00    -0.264 A  
HETATM   14  C   UNL     1     -10.247   5.017  73.117  1.00  0.00    -0.214 A  
HETATM   15  C   UNL     1     -10.559   6.224  72.465  1.00  0.00    -0.212 A  
HETATM   16 CL   UNL     1     -10.790   7.571  73.523  1.00  0.00    -0.353 Cl 
ENDBRANCH   8   9
ENDBRANCH   2   8
TORSDOF 3
ENDMDL
MODEL      191
REMARK 921   NORMALIZED FREE ENERGY PREDICTED BY IDOCK:   -2.65 KCAL/MOL
REMARK 922        TOTAL FREE ENERGY PREDICTED BY IDOCK:   -3.61 KCAL/MOL
REMARK 923 INTER-LIGAND FREE ENERGY PREDICTED BY IDOCK:   -3.15 KCAL/MOL
REMARK 924 INTRA-LIGAND FREE ENERGY PREDICTED BY IDOCK:   -0.46 KCAL/MOL
REMARK 927      BINDING AFFINITY PREDICTED BY RF-SCORE:    0.00 PKD
ROOT
HETATM    1  C   UNL     1     -10.113  12.314  65.936  1.00  0.00    -0.272 C  
HETATM    2  C   UNL     1      -9.448  11.074  66.515  1.00  0.00    -0.187 C  
ENDROOT
BRANCH   2   3
HETATM    3  C   UNL     1      -8.821  10.266  65.382  1.00  0.00    -0.172 C  
HETATM    4  C   UNL     1      -7.437   9.000  64.208  1.00  0.00    -0.106 C  
HETATM    5  N   UNL     1      -7.629   9.724  65.500  1.00  0.00    -0.113 NA 
HETATM    6  N   UNL     1      -9.483  10.034  64.195  1.00  0.00    -0.282 NA 
HETATM    7  C   UNL     1      -8.817   8.934  63.542  1.00  0.00     0.095 C  
ENDBRANCH   2   3
BRANCH   2   8
HETATM    8  O   UNL     1     -10.394  10.185  67.118  1.00  0.00    -0.212 OA 
BRANCH   8   9
HETATM    9  C   UNL     1     -10.197   9.669  68.370  1.00  0.00    -0.188 A  
HETATM   10  C   UNL     1     -10.904   9.845  70.719  1.00  0.00    -0.387 A  
HETATM   11 CL   UNL     1     -11.801  11.777  69.095  1.00  0.00    -0.376 Cl 
HETATM   12  C   UNL     1     -10.212   8.681  71.030  1.00  0.00    -0.278 A  
HETATM   13  C   UNL     1     -10.893  10.332  69.405  1.00  0.00    -0.245 A  
HETATM   14  C   UNL     1      -9.520   8.010  70.027  1.00  0.00    -0.160 A  
HETATM   15  C   UNL     1      -9.526   8.481  68.701  1.00  0.00    -0.143 A  
HETATM   16 CL   UNL     1      -8.775   7.421  67.561  1.00  0.00    -0.124 Cl 
ENDBRANCH   8   9
ENDBRANCH   2   8
TORSDOF 3
ENDMDL
MODEL      192
REMARK 921   NORMALIZED FREE ENERGY PREDICTED BY IDOCK:   -2.62 KCAL/MOL
REMARK 922        TOTAL FREE ENERGY PREDICTED BY IDOCK:   -3.57 KCAL/MOL
REMARK 923 INTER-LIGAND FREE ENERGY PREDICTED BY IDOCK:   -3.22 KCAL/MOL
REMARK 924 INTRA-LIGAND FREE ENERGY PREDICTED BY IDOCK:   -0.35 KCAL/MOL
REMARK 927      BINDING AFFINITY PREDICTED BY RF-SCORE:    0.00 PKD
ROOT
HETATM    1  C   UNL     1     -11.190   6.335  68.369  1.00  0.00    -0.272 C  
HETATM    2  C   UNL     1     -11.312   6.155  69.875  1.00  0.00    -0.384 C  
ENDROOT
BRANCH   2   3
HETATM    3  C   UNL     1     -11.777   7.466  70.501  1.00  0.00    -0.191 C  
HETATM    4  C   UNL     1     -11.918   9.600  71.071  1.00  0.00    -0.343 C  
HETATM    5  N   UNL     1     -11.093   8.580  70.356  1.00  0.00    -0.244 NA 
HETATM    6  N   UNL     1     -12.950   7.559  71.220  1.00  0.00    -0.312 NA 
HETATM    7  C   UNL     1     -13.290   8.957  71.304  1.00  0.00    -0.181 C  
ENDBRANCH   2   3
BRANCH   2   8
HETATM    8  O   UNL     1     -10.048   5.884  70.490  1.00  0.00    -0.180 OA 
BRANCH   8   9
HETATM    9  C   UNL     1      -9.581   4.606  70.637  1.00  0.00    -0.191 A  
HETATM   10  C   UNL     1      -9.888   2.517  71.898  1.00  0.00    -0.228 A  
HETATM   11 CL   UNL     1     -11.265   4.628  72.805  1.00  0.00    -0.216 Cl 
HETATM   12  C   UNL     1      -9.025   1.852  71.037  1.00  0.00    -0.134 A  
HETATM   13  C   UNL     1     -10.159   3.878  71.700  1.00  0.00    -0.097 A  
HETATM   14  C   UNL     1      -8.444   2.548  69.982  1.00  0.00    -0.088 A  
HETATM   15  C   UNL     1      -8.731   3.908  69.763  1.00  0.00    -0.076 A  
HETATM   16 CL   UNL     1      -8.072   4.554  68.303  1.00  0.00    -0.083 Cl 
ENDBRANCH   8   9
ENDBRANCH   2   8
TORSDOF 3
ENDMDL
MODEL      193
REMARK 921   NORMALIZED FREE ENERGY PREDICTED BY IDOCK:   -2.56 KCAL/MOL
REMARK 922        TOTAL FREE ENERGY PREDICTED BY IDOCK:   -3.50 KCAL/MOL
REMARK 923 INTER-LIGAND FREE ENERGY PREDICTED BY IDOCK:   -3.66 KCAL/MOL
REMARK 924 INTRA-LIGAND FREE ENERGY PREDICTED BY IDOCK:    0.16 KCAL/MOL
REMARK 927      BINDING AFFINITY PREDICTED BY RF-SCORE:    0.00 PKD
ROOT
HETATM    1  C   UNL     1     -12.136   9.137  72.055  1.00  0.00    -0.431 C  
HETATM    2  C   UNL     1     -10.880   8.295  72.222  1.00  0.00    -0.338 C  
ENDROOT
BRANCH   2   3
HETATM    3  C   UNL     1     -10.764   7.328  71.047  1.00  0.00    -0.231 C  
HETATM    4  C   UNL     1     -11.265   5.998  69.351  1.00  0.00    -0.327 C  
HETATM    5  N   UNL     1     -11.828   6.835  70.452  1.00  0.00    -0.372 NA 
HETATM    6  N   UNL     1      -9.544   6.948  70.529  1.00  0.00    -0.169 NA 
HETATM    7  C   UNL     1      -9.789   6.392  69.222  1.00  0.00    -0.147 C  
ENDBRANCH   2   3
BRANCH   2   8
HETATM    8  O   UNL     1     -10.942   7.457  73.381  1.00  0.00    -0.378 OA 
BRANCH   8   9
HETATM    9  C   UNL     1     -10.093   6.397  73.545  1.00  0.00    -0.226 A  
HETATM   10  C   UNL     1      -7.835   5.764  74.287  1.00  0.00    -0.101 A  
HETATM   11 CL   UNL     1      -8.283   8.395  74.066  1.00  0.00    -0.259 Cl 
HETATM   12  C   UNL     1      -8.177   4.418  74.230  1.00  0.00    -0.091 A  
HETATM   13  C   UNL     1      -8.783   6.739  73.946  1.00  0.00    -0.147 A  
HETATM   14  C   UNL     1      -9.463   4.058  73.839  1.00  0.00    -0.116 A  
HETATM   15  C   UNL     1     -10.425   5.033  73.519  1.00  0.00    -0.232 A  
HETATM   16 CL   UNL     1     -12.013   4.409  73.242  1.00  0.00    -0.093 Cl 
ENDBRANCH   8   9
ENDBRANCH   2   8
TORSDOF 3
ENDMDL
MODEL      194
REMARK 921   NORMALIZED FREE ENERGY PREDICTED BY IDOCK:   -2.56 KCAL/MOL
REMARK 922        TOTAL FREE ENERGY PREDICTED BY IDOCK:   -3.49 KCAL/MOL
REMARK 923 INTER-LIGAND FREE ENERGY PREDICTED BY IDOCK:   -3.05 KCAL/MOL
REMARK 924 INTRA-LIGAND FREE ENERGY PREDICTED BY IDOCK:   -0.44 KCAL/MOL
REMARK 927      BINDING AFFINITY PREDICTED BY RF-SCORE:    0.00 PKD
ROOT
HETATM    1  C   UNL     1     -10.546   7.330  67.354  1.00  0.00    -0.370 C  
HETATM    2  C   UNL     1     -10.535   8.760  67.871  1.00  0.00    -0.216 C  
ENDROOT
BRANCH   2   3
HETATM    3  C   UNL     1     -10.258   9.712  66.711  1.00  0.00    -0.239 C  
HETATM    4  C   UNL     1     -10.085  11.539  65.475  1.00  0.00    -0.243 C  
HETATM    5  N   UNL     1     -10.568  10.988  66.776  1.00  0.00    -0.255 NA 
HETATM    6  N   UNL     1      -9.640   9.292  65.551  1.00  0.00    -0.260 NA 
HETATM    7  C   UNL     1      -9.168  10.471  64.868  1.00  0.00    -0.215 C  
ENDBRANCH   2   3
BRANCH   2   8
HETATM    8  O   UNL     1      -9.469   8.992  68.797  1.00  0.00    -0.146 OA 
BRANCH   8   9
HETATM    9  C   UNL     1      -9.037   8.016  69.654  1.00  0.00    -0.152 A  
HETATM   10  C   UNL     1      -7.126   6.572  70.211  1.00  0.00    -0.072 A  
HETATM   11 CL   UNL     1      -6.910   7.942  67.919  1.00  0.00    -0.070 Cl 
HETATM   12  C   UNL     1      -7.749   6.175  71.387  1.00  0.00    -0.100 A  
HETATM   13  C   UNL     1      -7.766   7.480  69.355  1.00  0.00    -0.111 A  
HETATM   14  C   UNL     1      -9.002   6.691  71.703  1.00  0.00    -0.141 A  
HETATM   15  C   UNL     1      -9.638   7.621  70.860  1.00  0.00    -0.164 A  
HETATM   16 CL   UNL     1     -11.094   8.293  71.504  1.00  0.00    -0.297 Cl 
ENDBRANCH   8   9
ENDBRANCH   2   8
TORSDOF 3
ENDMDL
MODEL      195
REMARK 921   NORMALIZED FREE ENERGY PREDICTED BY IDOCK:   -2.55 KCAL/MOL
REMARK 922        TOTAL FREE ENERGY PREDICTED BY IDOCK:   -3.48 KCAL/MOL
REMARK 923 INTER-LIGAND FREE ENERGY PREDICTED BY IDOCK:   -3.30 KCAL/MOL
REMARK 924 INTRA-LIGAND FREE ENERGY PREDICTED BY IDOCK:   -0.18 KCAL/MOL
REMARK 927      BINDING AFFINITY PREDICTED BY RF-SCORE:    0.00 PKD
ROOT
HETATM    1  C   UNL     1      -7.318  11.447  69.048  1.00  0.00    -0.108 C  
HETATM    2  C   UNL     1      -7.050  12.294  67.813  1.00  0.00    -0.114 C  
ENDROOT
BRANCH   2   3
HETATM    3  C   UNL     1      -6.666  13.706  68.245  1.00  0.00    -0.108 C  
HETATM    4  C   UNL     1      -6.202  15.869  68.216  1.00  0.00    -0.112 C  
HETATM    5  N   UNL     1      -6.520  14.679  67.373  1.00  0.00    -0.309 NA 
HETATM    6  N   UNL     1      -6.484  14.042  69.571  1.00  0.00    -0.119 NA 
HETATM    7  C   UNL     1      -6.545  15.480  69.659  1.00  0.00    -0.179 C  
ENDBRANCH   2   3
BRANCH   2   8
HETATM    8  O   UNL     1      -8.222  12.463  67.009  1.00  0.00    -0.178 OA 
BRANCH   8   9
HETATM    9  C   UNL     1      -9.470  12.178  67.492  1.00  0.00    -0.180 A  
HETATM   10  C   UNL     1     -11.080  10.356  67.868  1.00  0.00    -0.363 A  
HETATM   11 CL   UNL     1      -8.927   9.713  66.411  1.00  0.00    -0.168 Cl 
HETATM   12  C   UNL     1     -11.887  11.204  68.618  1.00  0.00    -0.357 A  
HETATM   13  C   UNL     1      -9.888  10.841  67.312  1.00  0.00    -0.179 A  
HETATM   14  C   UNL     1     -11.495  12.525  68.810  1.00  0.00    -0.353 A  
HETATM   15  C   UNL     1     -10.287  13.010  68.274  1.00  0.00    -0.252 A  
HETATM   16 CL   UNL     1      -9.874  14.612  68.773  1.00  0.00    -0.225 Cl 
ENDBRANCH   8   9
ENDBRANCH   2   8
TORSDOF 3
ENDMDL
MODEL      196
REMARK 921   NORMALIZED FREE ENERGY PREDICTED BY IDOCK:   -2.53 KCAL/MOL
REMARK 922        TOTAL FREE ENERGY PREDICTED BY IDOCK:   -3.46 KCAL/MOL
REMARK 923 INTER-LIGAND FREE ENERGY PREDICTED BY IDOCK:   -3.09 KCAL/MOL
REMARK 924 INTRA-LIGAND FREE ENERGY PREDICTED BY IDOCK:   -0.37 KCAL/MOL
REMARK 927      BINDING AFFINITY PREDICTED BY RF-SCORE:    0.00 PKD
ROOT
HETATM    1  C   UNL     1      -7.073   4.784  68.809  1.00  0.00    -0.053 C  
HETATM    2  C   UNL     1      -8.529   4.894  69.239  1.00  0.00    -0.087 C  
ENDROOT
BRANCH   2   3
HETATM    3  C   UNL     1      -9.382   5.273  68.031  1.00  0.00    -0.117 C  
HETATM    4  C   UNL     1     -10.637   5.154  66.213  1.00  0.00    -0.266 C  
HETATM    5  N   UNL     1      -9.823   4.367  67.187  1.00  0.00    -0.198 NA 
HETATM    6  N   UNL     1      -9.759   6.576  67.781  1.00  0.00    -0.121 NA 
HETATM    7  C   UNL     1     -10.859   6.531  66.850  1.00  0.00    -0.357 C  
ENDBRANCH   2   3
BRANCH   2   8
HETATM    8  O   UNL     1      -8.735   5.953  70.179  1.00  0.00    -0.137 OA 
BRANCH   8   9
HETATM    9  C   UNL     1      -9.156   5.706  71.457  1.00  0.00    -0.140 A  
HETATM   10  C   UNL     1     -11.149   5.541  72.890  1.00  0.00    -0.349 A  
HETATM   11 CL   UNL     1     -11.572   6.511  70.429  1.00  0.00    -0.460 Cl 
HETATM   12  C   UNL     1     -10.382   5.016  73.922  1.00  0.00    -0.289 A  
HETATM   13  C   UNL     1     -10.540   5.884  71.674  1.00  0.00    -0.241 A  
HETATM   14  C   UNL     1      -9.016   4.831  73.731  1.00  0.00    -0.106 A  
HETATM   15  C   UNL     1      -8.404   5.151  72.505  1.00  0.00    -0.117 A  
HETATM   16 CL   UNL     1      -6.746   4.679  72.387  1.00  0.00    -0.049 Cl 
ENDBRANCH   8   9
ENDBRANCH   2   8
TORSDOF 3
ENDMDL
MODEL      197
REMARK 921   NORMALIZED FREE ENERGY PREDICTED BY IDOCK:   -2.51 KCAL/MOL
REMARK 922        TOTAL FREE ENERGY PREDICTED BY IDOCK:   -3.43 KCAL/MOL
REMARK 923 INTER-LIGAND FREE ENERGY PREDICTED BY IDOCK:   -3.25 KCAL/MOL
REMARK 924 INTRA-LIGAND FREE ENERGY PREDICTED BY IDOCK:   -0.18 KCAL/MOL
REMARK 927      BINDING AFFINITY PREDICTED BY RF-SCORE:    0.00 PKD
ROOT
HETATM    1  C   UNL     1     -11.363  10.676  70.290  1.00  0.00    -0.401 C  
HETATM    2  C   UNL     1     -11.361   9.214  69.870  1.00  0.00    -0.030 C  
ENDROOT
BRANCH   2   3
HETATM    3  C   UNL     1     -11.114   8.340  71.097  1.00  0.00    -0.250 C  
HETATM    4  C   UNL     1     -11.107   7.566  73.170  1.00  0.00    -0.326 C  
HETATM    5  N   UNL     1     -11.489   8.718  72.299  1.00  0.00    -0.351 NA 
HETATM    6  N   UNL     1     -10.517   7.100  71.005  1.00  0.00    -0.215 NA 
HETATM    7  C   UNL     1     -10.808   6.394  72.228  1.00  0.00    -0.239 C  
ENDBRANCH   2   3
BRANCH   2   8
HETATM    8  O   UNL     1     -10.282   8.908  68.981  1.00  0.00    -0.196 OA 
BRANCH   8   9
HETATM    9  C   UNL     1      -9.257   9.789  68.768  1.00  0.00    -0.143 A  
HETATM   10  C   UNL     1      -8.554  11.723  67.420  1.00  0.00    -0.160 A  
HETATM   11 CL   UNL     1     -10.820  10.530  66.635  1.00  0.00    -0.218 Cl 
HETATM   12  C   UNL     1      -7.443  11.905  68.234  1.00  0.00    -0.104 A  
HETATM   13  C   UNL     1      -9.447  10.674  67.684  1.00  0.00    -0.153 A  
HETATM   14  C   UNL     1      -7.236  11.046  69.307  1.00  0.00    -0.124 A  
HETATM   15  C   UNL     1      -8.142  10.007  69.592  1.00  0.00    -0.172 A  
HETATM   16 CL   UNL     1      -7.826   9.165  71.068  1.00  0.00    -0.170 Cl 
ENDBRANCH   8   9
ENDBRANCH   2   8
TORSDOF 3
ENDMDL
MODEL      198
REMARK 921   NORMALIZED FREE ENERGY PREDICTED BY IDOCK:   -2.49 KCAL/MOL
REMARK 922        TOTAL FREE ENERGY PREDICTED BY IDOCK:   -3.41 KCAL/MOL
REMARK 923 INTER-LIGAND FREE ENERGY PREDICTED BY IDOCK:   -2.94 KCAL/MOL
REMARK 924 INTRA-LIGAND FREE ENERGY PREDICTED BY IDOCK:   -0.47 KCAL/MOL
REMARK 927      BINDING AFFINITY PREDICTED BY RF-SCORE:    0.00 PKD
ROOT
HETATM    1  C   UNL     1     -11.550   6.814  70.309  1.00  0.00    -0.417 C  
HETATM    2  C   UNL     1     -10.626   8.021  70.372  1.00  0.00    -0.224 C  
ENDROOT
BRANCH   2   3
HETATM    3  C   UNL     1     -10.748   8.816  69.074  1.00  0.00    -0.112 C  
HETATM    4  C   UNL     1     -10.957  10.479  67.630  1.00  0.00    -0.314 C  
HETATM    5  N   UNL     1     -10.957  10.114  69.078  1.00  0.00    -0.226 NA 
HETATM    6  N   UNL     1     -10.615   8.222  67.837  1.00  0.00    -0.189 NA 
HETATM    7  C   UNL     1     -10.373   9.274  66.882  1.00  0.00    -0.246 C  
ENDBRANCH   2   3
BRANCH   2   8
HETATM    8  O   UNL     1      -9.247   7.643  70.440  1.00  0.00    -0.156 OA 
BRANCH   8   9
HETATM    9  C   UNL     1      -8.833   6.570  71.182  1.00  0.00    -0.138 A  
HETATM   10  C   UNL     1      -7.733   4.374  71.048  1.00  0.00    -0.067 A  
HETATM   11 CL   UNL     1      -8.367   5.494  68.699  1.00  0.00    -0.101 Cl 
HETATM   12  C   UNL     1      -7.648   4.316  72.433  1.00  0.00    -0.074 A  
HETATM   13  C   UNL     1      -8.321   5.488  70.432  1.00  0.00    -0.111 A  
HETATM   14  C   UNL     1      -8.144   5.371  73.192  1.00  0.00    -0.112 A  
HETATM   15  C   UNL     1      -8.714   6.502  72.579  1.00  0.00    -0.125 A  
HETATM   16 CL   UNL     1      -9.100   7.788  73.667  1.00  0.00    -0.327 Cl 
ENDBRANCH   8   9
ENDBRANCH   2   8
TORSDOF 3
ENDMDL
MODEL      199
REMARK 921   NORMALIZED FREE ENERGY PREDICTED BY IDOCK:   -2.48 KCAL/MOL
REMARK 922        TOTAL FREE ENERGY PREDICTED BY IDOCK:   -3.40 KCAL/MOL
REMARK 923 INTER-LIGAND FREE ENERGY PREDICTED BY IDOCK:   -3.33 KCAL/MOL
REMARK 924 INTRA-LIGAND FREE ENERGY PREDICTED BY IDOCK:   -0.07 KCAL/MOL
REMARK 927      BINDING AFFINITY PREDICTED BY RF-SCORE:    0.00 PKD
ROOT
HETATM    1  C   UNL     1     -10.403  10.468  65.180  1.00  0.00    -0.310 C  
HETATM    2  C   UNL     1      -9.568  10.802  66.407  1.00  0.00    -0.189 C  
ENDROOT
BRANCH   2   3
HETATM    3  C   UNL     1     -10.453  10.737  67.649  1.00  0.00    -0.214 C  
HETATM    4  C   UNL     1     -11.170  10.391  69.714  1.00  0.00    -0.293 C  
HETATM    5  N   UNL     1     -10.028  10.197  68.771  1.00  0.00    -0.171 NA 
HETATM    6  N   UNL     1     -11.725  11.269  67.671  1.00  0.00    -0.605 NA 
HETATM    7  C   UNL     1     -12.106  11.411  69.054  1.00  0.00    -0.249 C  
ENDBRANCH   2   3
BRANCH   2   8
HETATM    8  O   UNL     1      -9.078  12.147  66.377  1.00  0.00    -0.212 OA 
BRANCH   8   9
HETATM    9  C   UNL     1      -8.146  12.591  67.275  1.00  0.00    -0.179 A  
HETATM   10  C   UNL     1      -5.770  12.452  67.896  1.00  0.00    -0.086 A  
HETATM   11 CL   UNL     1      -6.576  10.723  66.016  1.00  0.00    -0.127 Cl 
HETATM   12  C   UNL     1      -5.931  13.492  68.804  1.00  0.00    -0.084 A  
HETATM   13  C   UNL     1      -6.867  12.008  67.144  1.00  0.00    -0.136 A  
HETATM   14  C   UNL     1      -7.182  14.082  68.949  1.00  0.00    -0.108 A  
HETATM   15  C   UNL     1      -8.281  13.657  68.179  1.00  0.00    -0.158 A  
HETATM   16 CL   UNL     1      -9.699  14.627  68.357  1.00  0.00    -0.211 Cl 
ENDBRANCH   8   9
ENDBRANCH   2   8
TORSDOF 3
ENDMDL
MODEL      200
REMARK 921   NORMALIZED FREE ENERGY PREDICTED BY IDOCK:   -2.45 KCAL/MOL
REMARK 922        TOTAL FREE ENERGY PREDICTED BY IDOCK:   -3.36 KCAL/MOL
REMARK 923 INTER-LIGAND FREE ENERGY PREDICTED BY IDOCK:   -2.89 KCAL/MOL
REMARK 924 INTRA-LIGAND FREE ENERGY PREDICTED BY IDOCK:   -0.48 KCAL/MOL
REMARK 927      BINDING AFFINITY PREDICTED BY RF-SCORE:    0.00 PKD
ROOT
HETATM    1  C   UNL     1     -11.280  10.507  68.911  1.00  0.00    -0.323 C  
HETATM    2  C   UNL     1     -10.229   9.456  69.234  1.00  0.00    -0.202 C  
ENDROOT
BRANCH   2   3
HETATM    3  C   UNL     1     -10.662   8.676  70.473  1.00  0.00    -0.221 C  
HETATM    4  C   UNL     1     -11.040   8.093  72.574  1.00  0.00    -0.377 C  
HETATM    5  N   UNL     1     -10.408   9.114  71.687  1.00  0.00    -0.348 NA 
HETATM    6  N   UNL     1     -11.369   7.495  70.385  1.00  0.00    -0.263 NA 
HETATM    7  C   UNL     1     -11.960   7.254  71.678  1.00  0.00    -0.308 C  
ENDBRANCH   2   3
BRANCH   2   8
HETATM    8  O   UNL     1      -8.972  10.040  69.591  1.00  0.00    -0.198 OA 
BRANCH   8   9
HETATM    9  C   UNL     1      -7.876   9.935  68.779  1.00  0.00    -0.091 A  
HETATM   10  C   UNL     1      -6.275  11.232  67.435  1.00  0.00    -0.071 A  
HETATM   11 CL   UNL     1      -8.376  12.604  68.371  1.00  0.00    -0.153 Cl 
HETATM   12  C   UNL     1      -5.483  10.104  67.262  1.00  0.00    -0.041 A  
HETATM   13  C   UNL     1      -7.458  11.145  68.183  1.00  0.00    -0.093 A  
HETATM   14  C   UNL     1      -5.874   8.901  67.840  1.00  0.00    -0.043 A  
HETATM   15  C   UNL     1      -7.048   8.813  68.612  1.00  0.00    -0.072 A  
HETATM   16 CL   UNL     1      -7.272   7.295  69.406  1.00  0.00    -0.082 Cl 
ENDBRANCH   8   9
ENDBRANCH   2   8
TORSDOF 3
ENDMDL
MODEL      201
REMARK 921   NORMALIZED FREE ENERGY PREDICTED BY IDOCK:   -2.44 KCAL/MOL
REMARK 922        TOTAL FREE ENERGY PREDICTED BY IDOCK:   -3.36 KCAL/MOL
REMARK 923 INTER-LIGAND FREE ENERGY PREDICTED BY IDOCK:   -3.17 KCAL/MOL
REMARK 924 INTRA-LIGAND FREE ENERGY PREDICTED BY IDOCK:   -0.19 KCAL/MOL
REMARK 927      BINDING AFFINITY PREDICTED BY RF-SCORE:    0.00 PKD
ROOT
HETATM    1  C   UNL     1     -11.855   8.500  71.196  1.00  0.00    -0.322 C  
HETATM    2  C   UNL     1     -10.527   9.240  71.156  1.00  0.00    -0.331 C  
ENDROOT
BRANCH   2   3
HETATM    3  C   UNL     1     -10.525  10.204  69.973  1.00  0.00    -0.274 C  
HETATM    4  C   UNL     1     -10.909  11.958  68.680  1.00  0.00    -0.235 C  
HETATM    5  N   UNL     1     -11.244  11.306  69.981  1.00  0.00    -0.197 NA 
HETATM    6  N   UNL     1      -9.750   9.989  68.853  1.00  0.00    -0.172 NA 
HETATM    7  C   UNL     1      -9.663  11.242  68.146  1.00  0.00    -0.185 C  
ENDBRANCH   2   3
BRANCH   2   8
HETATM    8  O   UNL     1      -9.425   8.359  70.910  1.00  0.00    -0.156 OA 
BRANCH   8   9
HETATM    9  C   UNL     1      -9.324   7.145  71.534  1.00  0.00    -0.153 A  
HETATM   10  C   UNL     1      -8.869   6.060  73.694  1.00  0.00    -0.124 A  
HETATM   11 CL   UNL     1      -8.398   8.695  73.603  1.00  0.00    -0.026 Cl 
HETATM   12  C   UNL     1      -9.272   4.834  73.179  1.00  0.00    -0.123 A  
HETATM   13  C   UNL     1      -8.894   7.200  72.878  1.00  0.00    -0.129 A  
HETATM   14  C   UNL     1      -9.701   4.756  71.858  1.00  0.00    -0.219 A  
HETATM   15  C   UNL     1      -9.750   5.901  71.042  1.00  0.00    -0.172 A  
HETATM   16 CL   UNL     1     -10.486   5.650  69.499  1.00  0.00    -0.346 Cl 
ENDBRANCH   8   9
ENDBRANCH   2   8
TORSDOF 3
ENDMDL
MODEL      202
REMARK 921   NORMALIZED FREE ENERGY PREDICTED BY IDOCK:   -2.43 KCAL/MOL
REMARK 922        TOTAL FREE ENERGY PREDICTED BY IDOCK:   -3.34 KCAL/MOL
REMARK 923 INTER-LIGAND FREE ENERGY PREDICTED BY IDOCK:   -2.89 KCAL/MOL
REMARK 924 INTRA-LIGAND FREE ENERGY PREDICTED BY IDOCK:   -0.46 KCAL/MOL
REMARK 927      BINDING AFFINITY PREDICTED BY RF-SCORE:    0.00 PKD
ROOT
HETATM    1  C   UNL     1     -10.972  11.391  67.602  1.00  0.00    -0.303 C  
HETATM    2  C   UNL     1     -10.197  10.104  67.366  1.00  0.00    -0.218 C  
ENDROOT
BRANCH   2   3
HETATM    3  C   UNL     1     -10.009   9.380  68.696  1.00  0.00    -0.173 C  
HETATM    4  C   UNL     1      -9.603   8.957  70.830  1.00  0.00    -0.238 C  
HETATM    5  N   UNL     1      -9.595  10.011  69.773  1.00  0.00    -0.229 NA 
HETATM    6  N   UNL     1     -10.293   8.038  68.847  1.00  0.00    -0.211 NA 
HETATM    7  C   UNL     1     -10.407   7.782  70.261  1.00  0.00    -0.215 C  
ENDBRANCH   2   3
BRANCH   2   8
HETATM    8  O   UNL     1      -8.868  10.352  66.894  1.00  0.00    -0.133 OA 
BRANCH   8   9
HETATM    9  C   UNL     1      -8.486  10.027  65.621  1.00  0.00    -0.148 A  
HETATM   10  C   UNL     1      -7.403   8.287  64.262  1.00  0.00    -0.093 A  
HETATM   11 CL   UNL     1      -7.259   7.938  66.914  1.00  0.00    -0.087 Cl 
HETATM   12  C   UNL     1      -7.782   8.940  63.096  1.00  0.00    -0.119 A  
HETATM   13  C   UNL     1      -7.750   8.827  65.509  1.00  0.00    -0.092 A  
HETATM   14  C   UNL     1      -8.509  10.123  63.183  1.00  0.00    -0.182 A  
HETATM   15  C   UNL     1      -8.881  10.657  64.431  1.00  0.00    -0.173 A  
HETATM   16 CL   UNL     1      -9.939  12.020  64.339  1.00  0.00    -0.274 Cl 
ENDBRANCH   8   9
ENDBRANCH   2   8
TORSDOF 3
ENDMDL
MODEL      203
REMARK 921   NORMALIZED FREE ENERGY PREDICTED BY IDOCK:   -2.43 KCAL/MOL
REMARK 922        TOTAL FREE ENERGY PREDICTED BY IDOCK:   -3.34 KCAL/MOL
REMARK 923 INTER-LIGAND FREE ENERGY PREDICTED BY IDOCK:   -3.16 KCAL/MOL
REMARK 924 INTRA-LIGAND FREE ENERGY PREDICTED BY IDOCK:   -0.18 KCAL/MOL
REMARK 927      BINDING AFFINITY PREDICTED BY RF-SCORE:    0.00 PKD
ROOT
HETATM    1  C   UNL     1      -9.799  10.148  69.658  1.00  0.00    -0.254 C  
HETATM    2  C   UNL     1      -8.402   9.549  69.726  1.00  0.00    -0.164 C  
ENDROOT
BRANCH   2   3
HETATM    3  C   UNL     1      -7.727   9.695  68.365  1.00  0.00    -0.081 C  
HETATM    4  C   UNL     1      -6.217  10.038  66.784  1.00  0.00    -0.068 C  
HETATM    5  N   UNL     1      -6.475  10.083  68.254  1.00  0.00    -0.054 NA 
HETATM    6  N   UNL     1      -8.381   9.399  67.187  1.00  0.00    -0.123 NA 
HETATM    7  C   UNL     1      -7.374   9.243  66.167  1.00  0.00    -0.095 C  
ENDBRANCH   2   3
BRANCH   2   8
HETATM    8  O   UNL     1      -8.431   8.139  69.970  1.00  0.00    -0.124 OA 
BRANCH   8   9
HETATM    9  C   UNL     1      -9.555   7.513  70.436  1.00  0.00    -0.168 A  
HETATM   10  C   UNL     1     -10.887   7.083  72.459  1.00  0.00    -0.285 A  
HETATM   11 CL   UNL     1      -8.502   8.230  72.869  1.00  0.00    -0.263 Cl 
HETATM   12  C   UNL     1     -11.912   6.548  71.688  1.00  0.00    -0.387 A  
HETATM   13  C   UNL     1      -9.723   7.557  71.838  1.00  0.00    -0.159 A  
HETATM   14  C   UNL     1     -11.769   6.496  70.305  1.00  0.00    -0.430 A  
HETATM   15  C   UNL     1     -10.613   6.992  69.675  1.00  0.00    -0.234 A  
HETATM   16 CL   UNL     1     -10.693   7.019  67.949  1.00  0.00    -0.275 Cl 
ENDBRANCH   8   9
ENDBRANCH   2   8
TORSDOF 3
ENDMDL
MODEL      204
REMARK 921   NORMALIZED FREE ENERGY PREDICTED BY IDOCK:   -2.43 KCAL/MOL
REMARK 922        TOTAL FREE ENERGY PREDICTED BY IDOCK:   -3.34 KCAL/MOL
REMARK 923 INTER-LIGAND FREE ENERGY PREDICTED BY IDOCK:   -3.02 KCAL/MOL
REMARK 924 INTRA-LIGAND FREE ENERGY PREDICTED BY IDOCK:   -0.32 KCAL/MOL
REMARK 927      BINDING AFFINITY PREDICTED BY RF-SCORE:    0.00 PKD
ROOT
HETATM    1  C   UNL     1     -10.402  10.457  65.166  1.00  0.00    -0.260 C  
HETATM    2  C   UNL     1      -9.510  10.832  66.340  1.00  0.00    -0.171 C  
ENDROOT
BRANCH   2   3
HETATM    3  C   UNL     1     -10.354  10.894  67.611  1.00  0.00    -0.197 C  
HETATM    4  C   UNL     1     -11.008  10.742  69.719  1.00  0.00    -0.252 C  
HETATM    5  N   UNL     1      -9.903  10.441  68.761  1.00  0.00    -0.176 NA 
HETATM    6  N   UNL     1     -11.614  11.454  67.627  1.00  0.00    -0.541 NA 
HETATM    7  C   UNL     1     -11.945  11.723  69.004  1.00  0.00    -0.280 C  
ENDBRANCH   2   3
BRANCH   2   8
HETATM    8  O   UNL     1      -8.959  12.145  66.203  1.00  0.00    -0.160 OA 
BRANCH   8   9
HETATM    9  C   UNL     1      -7.942  12.584  67.007  1.00  0.00    -0.085 A  
HETATM   10  C   UNL     1      -7.399  14.105  68.863  1.00  0.00    -0.122 A  
HETATM   11 CL   UNL     1      -9.848  14.388  67.816  1.00  0.00    -0.219 Cl 
HETATM   12  C   UNL     1      -6.139  13.532  68.983  1.00  0.00    -0.086 A  
HETATM   13  C   UNL     1      -8.287  13.636  67.884  1.00  0.00    -0.174 A  
HETATM   14  C   UNL     1      -5.778  12.494  68.130  1.00  0.00    -0.067 A  
HETATM   15  C   UNL     1      -6.673  12.004  67.162  1.00  0.00    -0.136 A  
HETATM   16 CL   UNL     1      -6.124  10.594  66.327  1.00  0.00    -0.098 Cl 
ENDBRANCH   8   9
ENDBRANCH   2   8
TORSDOF 3
ENDMDL
MODEL      205
REMARK 921   NORMALIZED FREE ENERGY PREDICTED BY IDOCK:   -2.41 KCAL/MOL
REMARK 922        TOTAL FREE ENERGY PREDICTED BY IDOCK:   -3.32 KCAL/MOL
REMARK 923 INTER-LIGAND FREE ENERGY PREDICTED BY IDOCK:   -3.04 KCAL/MOL
REMARK 924 INTRA-LIGAND FREE ENERGY PREDICTED BY IDOCK:   -0.28 KCAL/MOL
REMARK 927      BINDING AFFINITY PREDICTED BY RF-SCORE:    0.00 PKD
ROOT
HETATM    1  C   UNL     1      -9.821   4.162  69.622  1.00  0.00    -0.208 C  
HETATM    2  C   UNL     1      -9.779   5.178  68.490  1.00  0.00    -0.149 C  
ENDROOT
BRANCH   2   3
HETATM    3  C   UNL     1      -9.162   4.528  67.254  1.00  0.00    -0.136 C  
HETATM    4  C   UNL     1      -8.313   3.039  65.855  1.00  0.00    -0.098 C  
HETATM    5  N   UNL     1      -8.809   3.261  67.246  1.00  0.00    -0.122 NA 
HETATM    6  N   UNL     1      -8.974   5.222  66.078  1.00  0.00    -0.139 NA 
HETATM    7  C   UNL     1      -8.776   4.248  65.034  1.00  0.00    -0.128 C  
ENDBRANCH   2   3
BRANCH   2   8
HETATM    8  O   UNL     1      -8.921   6.284  68.788  1.00  0.00    -0.125 OA 
BRANCH   8   9
HETATM    9  C   UNL     1      -9.315   7.293  69.623  1.00  0.00    -0.153 A  
HETATM   10  C   UNL     1     -10.718   9.308  69.771  1.00  0.00    -0.245 A  
HETATM   11 CL   UNL     1     -10.445   8.268  67.318  1.00  0.00    -0.369 Cl 
HETATM   12  C   UNL     1     -10.514   9.368  71.144  1.00  0.00    -0.392 A  
HETATM   13  C   UNL     1     -10.122   8.284  69.022  1.00  0.00    -0.202 A  
HETATM   14  C   UNL     1      -9.723   8.402  71.759  1.00  0.00    -0.306 A  
HETATM   15  C   UNL     1      -9.143   7.358  71.015  1.00  0.00    -0.152 A  
HETATM   16 CL   UNL     1      -8.356   6.151  71.969  1.00  0.00    -0.114 Cl 
ENDBRANCH   8   9
ENDBRANCH   2   8
TORSDOF 3
ENDMDL
MODEL      206
REMARK 921   NORMALIZED FREE ENERGY PREDICTED BY IDOCK:   -2.40 KCAL/MOL
REMARK 922        TOTAL FREE ENERGY PREDICTED BY IDOCK:   -3.31 KCAL/MOL
REMARK 923 INTER-LIGAND FREE ENERGY PREDICTED BY IDOCK:   -2.93 KCAL/MOL
REMARK 924 INTRA-LIGAND FREE ENERGY PREDICTED BY IDOCK:   -0.38 KCAL/MOL
REMARK 927      BINDING AFFINITY PREDICTED BY RF-SCORE:    0.00 PKD
ROOT
HETATM    1  C   UNL     1     -10.592   5.145  66.573  1.00  0.00    -0.320 C  
HETATM    2  C   UNL     1      -9.294   5.862  66.231  1.00  0.00    -0.152 C  
ENDROOT
BRANCH   2   3
HETATM    3  C   UNL     1      -8.120   4.914  66.464  1.00  0.00    -0.107 C  
HETATM    4  C   UNL     1      -6.760   3.173  66.351  1.00  0.00    -0.048 C  
HETATM    5  N   UNL     1      -8.074   3.725  65.905  1.00  0.00    -0.096 NA 
HETATM    6  N   UNL     1      -7.038   5.266  67.242  1.00  0.00    -0.068 NA 
HETATM    7  C   UNL     1      -5.967   4.355  66.922  1.00  0.00    -0.024 C  
ENDBRANCH   2   3
BRANCH   2   8
HETATM    8  O   UNL     1      -9.045   6.972  67.101  1.00  0.00    -0.123 OA 
BRANCH   8   9
HETATM    9  C   UNL     1      -9.611   8.198  66.879  1.00  0.00    -0.208 A  
HETATM   10  C   UNL     1     -10.809  10.052  67.964  1.00  0.00    -0.311 A  
HETATM   11 CL   UNL     1     -10.504   7.845  69.452  1.00  0.00    -0.221 Cl 
HETATM   12  C   UNL     1     -10.658  10.835  66.827  1.00  0.00    -0.307 A  
HETATM   13  C   UNL     1     -10.293   8.748  67.987  1.00  0.00    -0.220 A  
HETATM   14  C   UNL     1      -9.989  10.314  65.724  1.00  0.00    -0.337 A  
HETATM   15  C   UNL     1      -9.447   9.016  65.750  1.00  0.00    -0.236 A  
HETATM   16 CL   UNL     1      -8.490   8.611  64.369  1.00  0.00    -0.147 Cl 
ENDBRANCH   8   9
ENDBRANCH   2   8
TORSDOF 3
ENDMDL
MODEL      207
REMARK 921   NORMALIZED FREE ENERGY PREDICTED BY IDOCK:   -2.39 KCAL/MOL
REMARK 922        TOTAL FREE ENERGY PREDICTED BY IDOCK:   -3.29 KCAL/MOL
REMARK 923 INTER-LIGAND FREE ENERGY PREDICTED BY IDOCK:   -2.81 KCAL/MOL
REMARK 924 INTRA-LIGAND FREE ENERGY PREDICTED BY IDOCK:   -0.48 KCAL/MOL
REMARK 927      BINDING AFFINITY PREDICTED BY RF-SCORE:    0.00 PKD
ROOT
HETATM    1  C   UNL     1     -10.251   6.000  67.436  1.00  0.00    -0.230 C  
HETATM    2  C   UNL     1      -8.880   6.278  68.033  1.00  0.00    -0.112 C  
ENDROOT
BRANCH   2   3
HETATM    3  C   UNL     1      -8.963   6.172  69.553  1.00  0.00    -0.133 C  
HETATM    4  C   UNL     1      -8.902   6.664  71.710  1.00  0.00    -0.130 C  
HETATM    5  N   UNL     1      -8.619   7.173  70.334  1.00  0.00    -0.141 NA 
HETATM    6  N   UNL     1      -9.433   5.039  70.184  1.00  0.00    -0.155 NA 
HETATM    7  C   UNL     1      -9.766   5.409  71.537  1.00  0.00    -0.159 C  
ENDBRANCH   2   3
BRANCH   2   8
HETATM    8  O   UNL     1      -8.443   7.618  67.783  1.00  0.00    -0.121 OA 
BRANCH   8   9
HETATM    9  C   UNL     1      -8.782   8.281  66.635  1.00  0.00    -0.136 A  
HETATM   10  C   UNL     1     -10.051  10.195  65.755  1.00  0.00    -0.324 A  
HETATM   11 CL   UNL     1     -10.446   9.640  68.345  1.00  0.00    -0.243 Cl 
HETATM   12  C   UNL     1      -9.480  10.017  64.502  1.00  0.00    -0.359 A  
HETATM   13  C   UNL     1      -9.707   9.335  66.807  1.00  0.00    -0.200 A  
HETATM   14  C   UNL     1      -8.566   8.986  64.309  1.00  0.00    -0.171 A  
HETATM   15  C   UNL     1      -8.198   8.134  65.367  1.00  0.00    -0.146 A  
HETATM   16 CL   UNL     1      -6.915   7.039  64.993  1.00  0.00    -0.050 Cl 
ENDBRANCH   8   9
ENDBRANCH   2   8
TORSDOF 3
ENDMDL
MODEL      208
REMARK 921   NORMALIZED FREE ENERGY PREDICTED BY IDOCK:   -2.38 KCAL/MOL
REMARK 922        TOTAL FREE ENERGY PREDICTED BY IDOCK:   -3.29 KCAL/MOL
REMARK 923 INTER-LIGAND FREE ENERGY PREDICTED BY IDOCK:   -2.80 KCAL/MOL
REMARK 924 INTRA-LIGAND FREE ENERGY PREDICTED BY IDOCK:   -0.49 KCAL/MOL
REMARK 927      BINDING AFFINITY PREDICTED BY RF-SCORE:    0.00 PKD
ROOT
HETATM    1  C   UNL     1      -8.852   8.461  68.216  1.00  0.00    -0.139 C  
HETATM    2  C   UNL     1      -9.444   7.060  68.215  1.00  0.00    -0.128 C  
ENDROOT
BRANCH   2   3
HETATM    3  C   UNL     1     -10.070   6.778  69.578  1.00  0.00    -0.178 C  
HETATM    4  C   UNL     1     -10.417   6.677  71.761  1.00  0.00    -0.209 C  
HETATM    5  N   UNL     1      -9.440   7.057  70.698  1.00  0.00    -0.166 NA 
HETATM    6  N   UNL     1     -11.338   6.250  69.706  1.00  0.00    -0.434 NA 
HETATM    7  C   UNL     1     -11.768   6.496  71.060  1.00  0.00    -0.343 C  
ENDBRANCH   2   3
BRANCH   2   8
HETATM    8  O   UNL     1      -8.441   6.050  68.058  1.00  0.00    -0.115 OA 
BRANCH   8   9
HETATM    9  C   UNL     1      -8.495   5.138  67.039  1.00  0.00    -0.106 A  
HETATM   10  C   UNL     1      -9.097   2.817  66.489  1.00  0.00    -0.144 A  
HETATM   11 CL   UNL     1      -9.082   3.419  69.099  1.00  0.00    -0.188 Cl 
HETATM   12  C   UNL     1      -8.959   3.087  65.133  1.00  0.00    -0.143 A  
HETATM   13  C   UNL     1      -8.865   3.832  67.429  1.00  0.00    -0.122 A  
HETATM   14  C   UNL     1      -8.596   4.368  64.726  1.00  0.00    -0.132 A  
HETATM   15  C   UNL     1      -8.386   5.396  65.664  1.00  0.00    -0.130 A  
HETATM   16 CL   UNL     1      -8.131   6.957  64.970  1.00  0.00    -0.125 Cl 
ENDBRANCH   8   9
ENDBRANCH   2   8
TORSDOF 3
ENDMDL
MODEL      209
REMARK 921   NORMALIZED FREE ENERGY PREDICTED BY IDOCK:   -2.37 KCAL/MOL
REMARK 922        TOTAL FREE ENERGY PREDICTED BY IDOCK:   -3.28 KCAL/MOL
REMARK 923 INTER-LIGAND FREE ENERGY PREDICTED BY IDOCK:   -2.83 KCAL/MOL
REMARK 924 INTRA-LIGAND FREE ENERGY PREDICTED BY IDOCK:   -0.44 KCAL/MOL
REMARK 927      BINDING AFFINITY PREDICTED BY RF-SCORE:    0.00 PKD
ROOT
HETATM    1  C   UNL     1      -9.663   9.438  70.227  1.00  0.00    -0.292 C  
HETATM    2  C   UNL     1      -9.931   8.066  69.628  1.00  0.00    -0.188 C  
ENDROOT
BRANCH   2   3
HETATM    3  C   UNL     1     -10.630   7.192  70.666  1.00  0.00    -0.225 C  
HETATM    4  C   UNL     1     -11.012   5.875  72.402  1.00  0.00    -0.264 C  
HETATM    5  N   UNL     1      -9.953   6.544  71.589  1.00  0.00    -0.178 NA 
HETATM    6  N   UNL     1     -12.002   7.064  70.711  1.00  0.00    -0.356 NA 
HETATM    7  C   UNL     1     -12.339   6.535  72.010  1.00  0.00    -0.260 C  
ENDBRANCH   2   3
BRANCH   2   8
HETATM    8  O   UNL     1      -8.722   7.366  69.315  1.00  0.00    -0.136 OA 
BRANCH   8   9
HETATM    9  C   UNL     1      -8.288   7.226  68.025  1.00  0.00    -0.123 A  
HETATM   10  C   UNL     1      -8.524   5.860  65.993  1.00  0.00    -0.137 A  
HETATM   11 CL   UNL     1      -9.711   4.883  68.186  1.00  0.00    -0.194 Cl 
HETATM   12  C   UNL     1      -7.790   6.788  65.266  1.00  0.00    -0.121 A  
HETATM   13  C   UNL     1      -8.767   6.077  67.357  1.00  0.00    -0.104 A  
HETATM   14  C   UNL     1      -7.308   7.927  65.903  1.00  0.00    -0.076 A  
HETATM   15  C   UNL     1      -7.569   8.163  67.266  1.00  0.00    -0.097 A  
HETATM   16 CL   UNL     1      -7.059   9.712  67.836  1.00  0.00    -0.079 Cl 
ENDBRANCH   8   9
ENDBRANCH   2   8
TORSDOF 3
ENDMDL
MODEL      210
REMARK 921   NORMALIZED FREE ENERGY PREDICTED BY IDOCK:   -2.36 KCAL/MOL
REMARK 922        TOTAL FREE ENERGY PREDICTED BY IDOCK:   -3.27 KCAL/MOL
REMARK 923 INTER-LIGAND FREE ENERGY PREDICTED BY IDOCK:   -2.83 KCAL/MOL
REMARK 924 INTRA-LIGAND FREE ENERGY PREDICTED BY IDOCK:   -0.44 KCAL/MOL
REMARK 927      BINDING AFFINITY PREDICTED BY RF-SCORE:    0.00 PKD
ROOT
HETATM    1  C   UNL     1     -10.566   9.714  69.764  1.00  0.00    -0.267 C  
HETATM    2  C   UNL     1     -10.424   8.270  69.307  1.00  0.00    -0.210 C  
ENDROOT
BRANCH   2   3
HETATM    3  C   UNL     1     -10.687   7.341  70.489  1.00  0.00    -0.232 C  
HETATM    4  C   UNL     1     -10.427   6.150  72.335  1.00  0.00    -0.199 C  
HETATM    5  N   UNL     1      -9.732   7.009  71.331  1.00  0.00    -0.170 NA 
HETATM    6  N   UNL     1     -11.940   6.830  70.754  1.00  0.00    -0.389 NA 
HETATM    7  C   UNL     1     -11.930   6.359  72.117  1.00  0.00    -0.298 C  
ENDBRANCH   2   3
BRANCH   2   8
HETATM    8  O   UNL     1      -9.088   7.964  68.892  1.00  0.00    -0.141 OA 
BRANCH   8   9
HETATM    9  C   UNL     1      -8.674   8.163  67.603  1.00  0.00    -0.130 A  
HETATM   10  C   UNL     1      -7.005   9.319  66.214  1.00  0.00    -0.087 A  
HETATM   11 CL   UNL     1      -7.048  10.025  68.798  1.00  0.00    -0.069 Cl 
HETATM   12  C   UNL     1      -7.413   8.599  65.098  1.00  0.00    -0.090 A  
HETATM   13  C   UNL     1      -7.632   9.103  67.450  1.00  0.00    -0.085 A  
HETATM   14  C   UNL     1      -8.438   7.667  65.225  1.00  0.00    -0.090 A  
HETATM   15  C   UNL     1      -9.054   7.429  66.468  1.00  0.00    -0.162 A  
HETATM   16 CL   UNL     1     -10.168   6.108  66.474  1.00  0.00    -0.210 Cl 
ENDBRANCH   8   9
ENDBRANCH   2   8
TORSDOF 3
ENDMDL
MODEL      211
REMARK 921   NORMALIZED FREE ENERGY PREDICTED BY IDOCK:   -2.30 KCAL/MOL
REMARK 922        TOTAL FREE ENERGY PREDICTED BY IDOCK:   -3.19 KCAL/MOL
REMARK 923 INTER-LIGAND FREE ENERGY PREDICTED BY IDOCK:   -2.77 KCAL/MOL
REMARK 924 INTRA-LIGAND FREE ENERGY PREDICTED BY IDOCK:   -0.41 KCAL/MOL
REMARK 927      BINDING AFFINITY PREDICTED BY RF-SCORE:    0.00 PKD
ROOT
HETATM    1  C   UNL     1      -9.521   3.335  68.686  1.00  0.00    -0.200 C  
HETATM    2  C   UNL     1      -9.174   4.816  68.691  1.00  0.00    -0.124 C  
ENDROOT
BRANCH   2   3
HETATM    3  C   UNL     1     -10.069   5.538  69.696  1.00  0.00    -0.239 C  
HETATM    4  C   UNL     1     -11.773   6.608  70.616  1.00  0.00    -0.394 C  
HETATM    5  N   UNL     1     -11.221   6.062  69.340  1.00  0.00    -0.388 NA 
HETATM    6  N   UNL     1      -9.732   5.649  71.029  1.00  0.00    -0.168 NA 
HETATM    7  C   UNL     1     -10.934   5.996  71.745  1.00  0.00    -0.269 C  
ENDBRANCH   2   3
BRANCH   2   8
HETATM    8  O   UNL     1      -9.456   5.441  67.435  1.00  0.00    -0.115 OA 
BRANCH   8   9
HETATM    9  C   UNL     1      -8.527   5.487  66.431  1.00  0.00    -0.119 A  
HETATM   10  C   UNL     1      -8.166   5.015  64.045  1.00  0.00    -0.125 A  
HETATM   11 CL   UNL     1     -10.475   4.117  65.063  1.00  0.00    -0.236 Cl 
HETATM   12  C   UNL     1      -6.939   5.666  64.086  1.00  0.00    -0.051 A  
HETATM   13  C   UNL     1      -8.947   4.925  65.205  1.00  0.00    -0.152 A  
HETATM   14  C   UNL     1      -6.506   6.227  65.283  1.00  0.00    -0.039 A  
HETATM   15  C   UNL     1      -7.297   6.162  66.445  1.00  0.00    -0.085 A  
HETATM   16 CL   UNL     1      -6.687   7.074  67.779  1.00  0.00    -0.068 Cl 
ENDBRANCH   8   9
ENDBRANCH   2   8
TORSDOF 3
ENDMDL
MODEL      212
REMARK 921   NORMALIZED FREE ENERGY PREDICTED BY IDOCK:   -2.27 KCAL/MOL
REMARK 922        TOTAL FREE ENERGY PREDICTED BY IDOCK:   -3.15 KCAL/MOL
REMARK 923 INTER-LIGAND FREE ENERGY PREDICTED BY IDOCK:   -2.68 KCAL/MOL
REMARK 924 INTRA-LIGAND FREE ENERGY PREDICTED BY IDOCK:   -0.47 KCAL/MOL
REMARK 927      BINDING AFFINITY PREDICTED BY RF-SCORE:    0.00 PKD
ROOT
HETATM    1  C   UNL     1     -11.048   6.095  68.555  1.00  0.00    -0.352 C  
HETATM    2  C   UNL     1     -10.142   5.944  69.768  1.00  0.00    -0.197 C  
ENDROOT
BRANCH   2   3
HETATM    3  C   UNL     1     -10.073   7.276  70.511  1.00  0.00    -0.191 C  
HETATM    4  C   UNL     1      -9.313   9.091  71.523  1.00  0.00    -0.224 C  
HETATM    5  N   UNL     1      -8.926   7.791  70.897  1.00  0.00    -0.146 NA 
HETATM    6  N   UNL     1     -11.201   8.020  70.787  1.00  0.00    -0.264 NA 
HETATM    7  C   UNL     1     -10.764   9.357  71.104  1.00  0.00    -0.347 C  
ENDBRANCH   2   3
BRANCH   2   8
HETATM    8  O   UNL     1      -8.789   5.661  69.399  1.00  0.00    -0.111 OA 
BRANCH   8   9
HETATM    9  C   UNL     1      -8.486   4.957  68.265  1.00  0.00    -0.098 A  
HETATM   10  C   UNL     1      -7.259   5.063  66.136  1.00  0.00    -0.077 A  
HETATM   11 CL   UNL     1      -7.427   7.369  67.489  1.00  0.00    -0.098 Cl 
HETATM   12  C   UNL     1      -7.476   3.707  65.927  1.00  0.00    -0.077 A  
HETATM   13  C   UNL     1      -7.761   5.679  67.292  1.00  0.00    -0.101 A  
HETATM   14  C   UNL     1      -8.186   2.976  66.873  1.00  0.00    -0.089 A  
HETATM   15  C   UNL     1      -8.672   3.583  68.046  1.00  0.00    -0.107 A  
HETATM   16 CL   UNL     1      -9.360   2.485  69.189  1.00  0.00    -0.207 Cl 
ENDBRANCH   8   9
ENDBRANCH   2   8
TORSDOF 3
ENDMDL
MODEL      213
REMARK 921   NORMALIZED FREE ENERGY PREDICTED BY IDOCK:   -2.26 KCAL/MOL
REMARK 922        TOTAL FREE ENERGY PREDICTED BY IDOCK:   -3.15 KCAL/MOL
REMARK 923 INTER-LIGAND FREE ENERGY PREDICTED BY IDOCK:   -2.65 KCAL/MOL
REMARK 924 INTRA-LIGAND FREE ENERGY PREDICTED BY IDOCK:   -0.50 KCAL/MOL
REMARK 927      BINDING AFFINITY PREDICTED BY RF-SCORE:    0.00 PKD
ROOT
HETATM    1  C   UNL     1      -6.950   4.513  66.532  1.00  0.00    -0.062 C  
HETATM    2  C   UNL     1      -7.599   5.816  66.972  1.00  0.00    -0.099 C  
ENDROOT
BRANCH   2   3
HETATM    3  C   UNL     1      -8.313   5.598  68.304  1.00  0.00    -0.102 C  
HETATM    4  C   UNL     1      -8.832   5.653  70.454  1.00  0.00    -0.136 C  
HETATM    5  N   UNL     1      -7.804   6.027  69.437  1.00  0.00    -0.098 NA 
HETATM    6  N   UNL     1      -9.539   4.971  68.383  1.00  0.00    -0.137 NA 
HETATM    7  C   UNL     1     -10.100   5.292  69.671  1.00  0.00    -0.257 C  
ENDBRANCH   2   3
BRANCH   2   8
HETATM    8  O   UNL     1      -8.628   6.238  66.071  1.00  0.00    -0.136 OA 
BRANCH   8   9
HETATM    9  C   UNL     1      -8.772   7.551  65.710  1.00  0.00    -0.118 A  
HETATM   10  C   UNL     1      -8.210   9.201  63.976  1.00  0.00    -0.168 A  
HETATM   11 CL   UNL     1      -6.979   6.832  63.758  1.00  0.00    -0.053 Cl 
HETATM   12  C   UNL     1      -9.075  10.123  64.552  1.00  0.00    -0.280 A  
HETATM   13  C   UNL     1      -8.060   7.932  64.552  1.00  0.00    -0.114 A  
HETATM   14  C   UNL     1      -9.788   9.769  65.693  1.00  0.00    -0.371 A  
HETATM   15  C   UNL     1      -9.660   8.488  66.261  1.00  0.00    -0.236 A  
HETATM   16 CL   UNL     1     -10.758   8.166  67.555  1.00  0.00    -0.283 Cl 
ENDBRANCH   8   9
ENDBRANCH   2   8
TORSDOF 3
ENDMDL
MODEL      214
REMARK 921   NORMALIZED FREE ENERGY PREDICTED BY IDOCK:   -2.23 KCAL/MOL
REMARK 922        TOTAL FREE ENERGY PREDICTED BY IDOCK:   -3.11 KCAL/MOL
REMARK 923 INTER-LIGAND FREE ENERGY PREDICTED BY IDOCK:   -2.61 KCAL/MOL
REMARK 924 INTRA-LIGAND FREE ENERGY PREDICTED BY IDOCK:   -0.50 KCAL/MOL
REMARK 927      BINDING AFFINITY PREDICTED BY RF-SCORE:    0.00 PKD
ROOT
HETATM    1  C   UNL     1      -9.530   3.964  67.922  1.00  0.00    -0.227 C  
HETATM    2  C   UNL     1      -9.143   5.315  68.504  1.00  0.00    -0.110 C  
ENDROOT
BRANCH   2   3
HETATM    3  C   UNL     1     -10.107   5.671  69.632  1.00  0.00    -0.222 C  
HETATM    4  C   UNL     1     -10.964   6.041  71.638  1.00  0.00    -0.272 C  
HETATM    5  N   UNL     1      -9.767   5.544  70.896  1.00  0.00    -0.170 NA 
HETATM    6  N   UNL     1     -11.369   6.172  69.386  1.00  0.00    -0.412 NA 
HETATM    7  C   UNL     1     -11.836   6.773  70.611  1.00  0.00    -0.387 C  
ENDBRANCH   2   3
BRANCH   2   8
HETATM    8  O   UNL     1      -9.286   6.374  67.553  1.00  0.00    -0.119 OA 
BRANCH   8   9
HETATM    9  C   UNL     1      -8.225   7.157  67.184  1.00  0.00    -0.118 A  
HETATM   10  C   UNL     1      -7.152   9.339  67.551  1.00  0.00    -0.079 A  
HETATM   11 CL   UNL     1      -9.575   9.043  68.654  1.00  0.00    -0.153 Cl 
HETATM   12  C   UNL     1      -6.037   8.929  66.830  1.00  0.00    -0.058 A  
HETATM   13  C   UNL     1      -8.233   8.462  67.722  1.00  0.00    -0.126 A  
HETATM   14  C   UNL     1      -6.008   7.646  66.292  1.00  0.00    -0.037 A  
HETATM   15  C   UNL     1      -7.079   6.754  66.481  1.00  0.00    -0.071 A  
HETATM   16 CL   UNL     1      -6.786   5.150  65.908  1.00  0.00    -0.052 Cl 
ENDBRANCH   8   9
ENDBRANCH   2   8
TORSDOF 3
ENDMDL
MODEL      215
REMARK 921   NORMALIZED FREE ENERGY PREDICTED BY IDOCK:   -2.22 KCAL/MOL
REMARK 922        TOTAL FREE ENERGY PREDICTED BY IDOCK:   -3.10 KCAL/MOL
REMARK 923 INTER-LIGAND FREE ENERGY PREDICTED BY IDOCK:   -2.89 KCAL/MOL
REMARK 924 INTRA-LIGAND FREE ENERGY PREDICTED BY IDOCK:   -0.21 KCAL/MOL
REMARK 927      BINDING AFFINITY PREDICTED BY RF-SCORE:    0.00 PKD
ROOT
HETATM    1  C   UNL     1      -8.223   5.868  69.619  1.00  0.00    -0.110 C  
HETATM    2  C   UNL     1      -9.314   6.921  69.743  1.00  0.00    -0.146 C  
ENDROOT
BRANCH   2   3
HETATM    3  C   UNL     1      -8.911   8.158  68.945  1.00  0.00    -0.141 C  
HETATM    4  C   UNL     1      -8.825   9.731  67.391  1.00  0.00    -0.132 C  
HETATM    5  N   UNL     1      -9.461   8.438  67.783  1.00  0.00    -0.147 NA 
HETATM    6  N   UNL     1      -7.978   9.060  69.412  1.00  0.00    -0.097 NA 
HETATM    7  C   UNL     1      -8.137  10.273  68.649  1.00  0.00    -0.114 C  
ENDBRANCH   2   3
BRANCH   2   8
HETATM    8  O   UNL     1      -9.464   7.388  71.088  1.00  0.00    -0.156 OA 
BRANCH   8   9
HETATM    9  C   UNL     1      -9.757   6.533  72.116  1.00  0.00    -0.151 A  
HETATM   10  C   UNL     1     -11.528   5.122  73.076  1.00  0.00    -0.349 A  
HETATM   11 CL   UNL     1     -12.293   6.743  71.086  1.00  0.00    -0.414 Cl 
HETATM   12  C   UNL     1     -10.618   4.553  73.958  1.00  0.00    -0.338 A  
HETATM   13  C   UNL     1     -11.100   6.101  72.168  1.00  0.00    -0.275 A  
HETATM   14  C   UNL     1      -9.289   4.962  73.924  1.00  0.00    -0.124 A  
HETATM   15  C   UNL     1      -8.849   5.927  72.999  1.00  0.00    -0.122 A  
HETATM   16 CL   UNL     1      -7.138   6.168  72.975  1.00  0.00    -0.080 Cl 
ENDBRANCH   8   9
ENDBRANCH   2   8
TORSDOF 3
ENDMDL
MODEL      216
REMARK 921   NORMALIZED FREE ENERGY PREDICTED BY IDOCK:   -2.20 KCAL/MOL
REMARK 922        TOTAL FREE ENERGY PREDICTED BY IDOCK:   -3.07 KCAL/MOL
REMARK 923 INTER-LIGAND FREE ENERGY PREDICTED BY IDOCK:   -2.80 KCAL/MOL
REMARK 924 INTRA-LIGAND FREE ENERGY PREDICTED BY IDOCK:   -0.28 KCAL/MOL
REMARK 927      BINDING AFFINITY PREDICTED BY RF-SCORE:    0.00 PKD
ROOT
HETATM    1  C   UNL     1     -11.095   9.778  70.021  1.00  0.00    -0.311 C  
HETATM    2  C   UNL     1     -10.080   8.709  69.647  1.00  0.00    -0.201 C  
ENDROOT
BRANCH   2   3
HETATM    3  C   UNL     1      -8.960   9.344  68.828  1.00  0.00    -0.132 C  
HETATM    4  C   UNL     1      -6.977  10.079  68.177  1.00  0.00    -0.075 C  
HETATM    5  N   UNL     1      -7.741   9.467  69.305  1.00  0.00    -0.079 NA 
HETATM    6  N   UNL     1      -9.159   9.791  67.538  1.00  0.00    -0.131 NA 
HETATM    7  C   UNL     1      -7.860   9.937  66.931  1.00  0.00    -0.102 C  
ENDBRANCH   2   3
BRANCH   2   8
HETATM    8  O   UNL     1     -10.639   7.709  68.789  1.00  0.00    -0.204 OA 
BRANCH   8   9
HETATM    9  C   UNL     1     -10.085   6.462  68.683  1.00  0.00    -0.158 A  
HETATM   10  C   UNL     1      -9.965   4.251  69.753  1.00  0.00    -0.167 A  
HETATM   11 CL   UNL     1     -11.184   6.161  71.181  1.00  0.00    -0.359 Cl 
HETATM   12  C   UNL     1      -9.307   3.733  68.644  1.00  0.00    -0.226 A  
HETATM   13  C   UNL     1     -10.346   5.600  69.771  1.00  0.00    -0.282 A  
HETATM   14  C   UNL     1      -9.040   4.564  67.561  1.00  0.00    -0.137 A  
HETATM   15  C   UNL     1      -9.441   5.913  67.563  1.00  0.00    -0.110 A  
HETATM   16 CL   UNL     1      -9.196   6.736  66.064  1.00  0.00    -0.120 Cl 
ENDBRANCH   8   9
ENDBRANCH   2   8
TORSDOF 3
ENDMDL
MODEL      217
REMARK 921   NORMALIZED FREE ENERGY PREDICTED BY IDOCK:   -2.20 KCAL/MOL
REMARK 922        TOTAL FREE ENERGY PREDICTED BY IDOCK:   -3.07 KCAL/MOL
REMARK 923 INTER-LIGAND FREE ENERGY PREDICTED BY IDOCK:   -2.63 KCAL/MOL
REMARK 924 INTRA-LIGAND FREE ENERGY PREDICTED BY IDOCK:   -0.45 KCAL/MOL
REMARK 927      BINDING AFFINITY PREDICTED BY RF-SCORE:    0.00 PKD
ROOT
HETATM    1  C   UNL     1      -8.875   8.959  65.430  1.00  0.00    -0.234 C  
HETATM    2  C   UNL     1      -9.917   8.780  66.525  1.00  0.00    -0.290 C  
ENDROOT
BRANCH   2   3
HETATM    3  C   UNL     1     -10.665  10.096  66.725  1.00  0.00    -0.121 C  
HETATM    4  C   UNL     1     -11.724  11.800  67.657  1.00  0.00    -0.250 C  
HETATM    5  N   UNL     1     -11.120  10.457  67.905  1.00  0.00    -0.301 NA 
HETATM    6  N   UNL     1     -10.873  10.984  65.691  1.00  0.00    -0.150 NA 
HETATM    7  C   UNL     1     -11.219  12.253  66.282  1.00  0.00    -0.323 C  
ENDBRANCH   2   3
BRANCH   2   8
HETATM    8  O   UNL     1      -9.321   8.502  67.797  1.00  0.00    -0.136 OA 
BRANCH   8   9
HETATM    9  C   UNL     1      -8.530   7.403  67.993  1.00  0.00    -0.123 A  
HETATM   10  C   UNL     1      -6.343   6.663  68.843  1.00  0.00    -0.035 A  
HETATM   11 CL   UNL     1      -6.662   9.313  68.627  1.00  0.00    -0.053 Cl 
HETATM   12  C   UNL     1      -6.742   5.335  68.754  1.00  0.00    -0.050 A  
HETATM   13  C   UNL     1      -7.228   7.683  68.464  1.00  0.00    -0.086 A  
HETATM   14  C   UNL     1      -8.020   5.036  68.294  1.00  0.00    -0.086 A  
HETATM   15  C   UNL     1      -8.920   6.056  67.935  1.00  0.00    -0.118 A  
HETATM   16 CL   UNL     1     -10.518   5.506  67.571  1.00  0.00    -0.268 Cl 
ENDBRANCH   8   9
ENDBRANCH   2   8
TORSDOF 3
ENDMDL
MODEL      218
REMARK 921   NORMALIZED FREE ENERGY PREDICTED BY IDOCK:   -2.17 KCAL/MOL
REMARK 922        TOTAL FREE ENERGY PREDICTED BY IDOCK:   -3.04 KCAL/MOL
REMARK 923 INTER-LIGAND FREE ENERGY PREDICTED BY IDOCK:   -2.60 KCAL/MOL
REMARK 924 INTRA-LIGAND FREE ENERGY PREDICTED BY IDOCK:   -0.44 KCAL/MOL
REMARK 927      BINDING AFFINITY PREDICTED BY RF-SCORE:    0.00 PKD
ROOT
HETATM    1  C   UNL     1     -10.038   4.201  65.410  1.00  0.00    -0.207 C  
HETATM    2  C   UNL     1      -8.718   4.956  65.367  1.00  0.00    -0.143 C  
ENDROOT
BRANCH   2   3
HETATM    3  C   UNL     1      -7.603   3.995  64.966  1.00  0.00    -0.077 C  
HETATM    4  C   UNL     1      -5.632   3.004  64.791  1.00  0.00    -0.010 C  
HETATM    5  N   UNL     1      -6.360   4.180  65.354  1.00  0.00    -0.031 NA 
HETATM    6  N   UNL     1      -7.844   2.869  64.206  1.00  0.00    -0.077 NA 
HETATM    7  C   UNL     1      -6.706   1.998  64.361  1.00  0.00    -0.027 C  
ENDBRANCH   2   3
BRANCH   2   8
HETATM    8  O   UNL     1      -8.333   5.446  66.655  1.00  0.00    -0.108 OA 
BRANCH   8   9
HETATM    9  C   UNL     1      -9.201   5.442  67.713  1.00  0.00    -0.109 A  
HETATM   10  C   UNL     1      -9.640   4.430  69.912  1.00  0.00    -0.275 A  
HETATM   11 CL   UNL     1      -7.668   3.301  68.493  1.00  0.00    -0.055 Cl 
HETATM   12  C   UNL     1     -10.649   5.354  70.153  1.00  0.00    -0.344 A  
HETATM   13  C   UNL     1      -8.928   4.474  68.705  1.00  0.00    -0.112 A  
HETATM   14  C   UNL     1     -10.935   6.317  69.190  1.00  0.00    -0.442 A  
HETATM   15  C   UNL     1     -10.208   6.381  67.987  1.00  0.00    -0.164 A  
HETATM   16 CL   UNL     1     -10.573   7.752  67.001  1.00  0.00    -0.422 Cl 
ENDBRANCH   8   9
ENDBRANCH   2   8
TORSDOF 3
ENDMDL
MODEL      219
REMARK 921   NORMALIZED FREE ENERGY PREDICTED BY IDOCK:   -2.13 KCAL/MOL
REMARK 922        TOTAL FREE ENERGY PREDICTED BY IDOCK:   -2.99 KCAL/MOL
REMARK 923 INTER-LIGAND FREE ENERGY PREDICTED BY IDOCK:   -2.68 KCAL/MOL
REMARK 924 INTRA-LIGAND FREE ENERGY PREDICTED BY IDOCK:   -0.31 KCAL/MOL
REMARK 927      BINDING AFFINITY PREDICTED BY RF-SCORE:    0.00 PKD
ROOT
HETATM    1  C   UNL     1      -6.913   4.903  67.329  1.00  0.00    -0.061 C  
HETATM    2  C   UNL     1      -7.866   6.077  67.162  1.00  0.00    -0.102 C  
ENDROOT
BRANCH   2   3
HETATM    3  C   UNL     1      -7.232   7.112  66.237  1.00  0.00    -0.075 C  
HETATM    4  C   UNL     1      -5.788   8.192  64.954  1.00  0.00    -0.045 C  
HETATM    5  N   UNL     1      -5.967   7.037  65.884  1.00  0.00    -0.035 NA 
HETATM    6  N   UNL     1      -7.956   8.155  65.699  1.00  0.00    -0.102 NA 
HETATM    7  C   UNL     1      -7.197   8.673  64.587  1.00  0.00    -0.089 C  
ENDBRANCH   2   3
BRANCH   2   8
HETATM    8  O   UNL     1      -8.086   6.774  68.393  1.00  0.00    -0.117 OA 
BRANCH   8   9
HETATM    9  C   UNL     1      -9.165   6.501  69.190  1.00  0.00    -0.135 A  
HETATM   10  C   UNL     1      -9.897   6.287  71.528  1.00  0.00    -0.193 A  
HETATM   11 CL   UNL     1      -7.254   6.528  71.162  1.00  0.00    -0.077 Cl 
HETATM   12  C   UNL     1     -11.223   6.218  71.122  1.00  0.00    -0.365 A  
HETATM   13  C   UNL     1      -8.881   6.425  70.571  1.00  0.00    -0.144 A  
HETATM   14  C   UNL     1     -11.526   6.292  69.766  1.00  0.00    -0.449 A  
HETATM   15  C   UNL     1     -10.514   6.454  68.803  1.00  0.00    -0.221 A  
HETATM   16 CL   UNL     1     -11.089   6.716  67.195  1.00  0.00    -0.470 Cl 
ENDBRANCH   8   9
ENDBRANCH   2   8
TORSDOF 3
ENDMDL
MODEL      220
REMARK 921   NORMALIZED FREE ENERGY PREDICTED BY IDOCK:   -2.12 KCAL/MOL
REMARK 922        TOTAL FREE ENERGY PREDICTED BY IDOCK:   -2.98 KCAL/MOL
REMARK 923 INTER-LIGAND FREE ENERGY PREDICTED BY IDOCK:   -2.47 KCAL/MOL
REMARK 924 INTRA-LIGAND FREE ENERGY PREDICTED BY IDOCK:   -0.51 KCAL/MOL
REMARK 927      BINDING AFFINITY PREDICTED BY RF-SCORE:    0.00 PKD
ROOT
HETATM    1  C   UNL     1      -6.132   7.921  67.608  1.00  0.00    -0.050 C  
HETATM    2  C   UNL     1      -7.639   7.716  67.567  1.00  0.00    -0.109 C  
ENDROOT
BRANCH   2   3
HETATM    3  C   UNL     1      -8.290   8.554  68.665  1.00  0.00    -0.123 C  
HETATM    4  C   UNL     1      -9.624   9.953  69.741  1.00  0.00    -0.231 C  
HETATM    5  N   UNL     1      -9.259   9.402  68.401  1.00  0.00    -0.128 NA 
HETATM    6  N   UNL     1      -7.919   8.442  69.989  1.00  0.00    -0.106 NA 
HETATM    7  C   UNL     1      -8.971   9.033  70.778  1.00  0.00    -0.236 C  
ENDBRANCH   2   3
BRANCH   2   8
HETATM    8  O   UNL     1      -8.009   6.367  67.870  1.00  0.00    -0.109 OA 
BRANCH   8   9
HETATM    9  C   UNL     1      -8.563   5.546  66.926  1.00  0.00    -0.110 A  
HETATM   10  C   UNL     1      -8.221   3.461  65.667  1.00  0.00    -0.097 A  
HETATM   11 CL   UNL     1      -6.118   4.309  67.091  1.00  0.00    -0.027 Cl 
HETATM   12  C   UNL     1      -9.525   3.518  65.190  1.00  0.00    -0.158 A  
HETATM   13  C   UNL     1      -7.748   4.466  66.522  1.00  0.00    -0.094 A  
HETATM   14  C   UNL     1     -10.347   4.572  65.575  1.00  0.00    -0.254 A  
HETATM   15  C   UNL     1      -9.885   5.570  66.453  1.00  0.00    -0.167 A  
HETATM   16 CL   UNL     1     -11.097   6.688  66.968  1.00  0.00    -0.473 Cl 
ENDBRANCH   8   9
ENDBRANCH   2   8
TORSDOF 3
ENDMDL
MODEL      221
REMARK 921   NORMALIZED FREE ENERGY PREDICTED BY IDOCK:   -2.06 KCAL/MOL
REMARK 922        TOTAL FREE ENERGY PREDICTED BY IDOCK:   -2.91 KCAL/MOL
REMARK 923 INTER-LIGAND FREE ENERGY PREDICTED BY IDOCK:   -2.49 KCAL/MOL
REMARK 924 INTRA-LIGAND FREE ENERGY PREDICTED BY IDOCK:   -0.43 KCAL/MOL
REMARK 927      BINDING AFFINITY PREDICTED BY RF-SCORE:    0.00 PKD
ROOT
HETATM    1  C   UNL     1      -9.611   9.870  69.825  1.00  0.00    -0.261 C  
HETATM    2  C   UNL     1      -8.303   9.610  70.557  1.00  0.00    -0.090 C  
ENDROOT
BRANCH   2   3
HETATM    3  C   UNL     1      -7.224  10.536  70.003  1.00  0.00    -0.096 C  
HETATM    4  C   UNL     1      -5.981  11.740  68.624  1.00  0.00    -0.050 C  
HETATM    5  N   UNL     1      -7.101  10.756  68.712  1.00  0.00    -0.073 NA 
HETATM    6  N   UNL     1      -6.348  11.214  70.825  1.00  0.00    -0.285 NA 
HETATM    7  C   UNL     1      -5.766  12.277  70.044  1.00  0.00    -0.141 C  
ENDBRANCH   2   3
BRANCH   2   8
HETATM    8  O   UNL     1      -7.806   8.288  70.322  1.00  0.00    -0.087 OA 
BRANCH   8   9
HETATM    9  C   UNL     1      -8.644   7.208  70.257  1.00  0.00    -0.143 A  
HETATM   10  C   UNL     1      -9.537   5.482  68.749  1.00  0.00    -0.175 A  
HETATM   11 CL   UNL     1      -8.131   7.432  67.568  1.00  0.00    -0.113 Cl 
HETATM   12  C   UNL     1     -10.099   4.809  69.827  1.00  0.00    -0.289 A  
HETATM   13  C   UNL     1      -8.821   6.668  68.964  1.00  0.00    -0.128 A  
HETATM   14  C   UNL     1      -9.937   5.322  71.110  1.00  0.00    -0.265 A  
HETATM   15  C   UNL     1      -9.198   6.499  71.334  1.00  0.00    -0.148 A  
HETATM   16 CL   UNL     1      -8.943   6.878  73.001  1.00  0.00    -0.142 Cl 
ENDBRANCH   8   9
ENDBRANCH   2   8
TORSDOF 3
ENDMDL
MODEL      222
REMARK 921   NORMALIZED FREE ENERGY PREDICTED BY IDOCK:   -2.03 KCAL/MOL
REMARK 922        TOTAL FREE ENERGY PREDICTED BY IDOCK:   -2.87 KCAL/MOL
REMARK 923 INTER-LIGAND FREE ENERGY PREDICTED BY IDOCK:   -2.58 KCAL/MOL
REMARK 924 INTRA-LIGAND FREE ENERGY PREDICTED BY IDOCK:   -0.29 KCAL/MOL
REMARK 927      BINDING AFFINITY PREDICTED BY RF-SCORE:    0.00 PKD
ROOT
HETATM    1  C   UNL     1     -10.581   7.613  67.166  1.00  0.00    -0.410 C  
HETATM    2  C   UNL     1      -9.743   8.882  67.186  1.00  0.00    -0.184 C  
ENDROOT
BRANCH   2   3
HETATM    3  C   UNL     1      -9.833   9.564  65.823  1.00  0.00    -0.293 C  
HETATM    4  C   UNL     1     -10.302  11.007  64.212  1.00  0.00    -0.364 C  
HETATM    5  N   UNL     1     -10.526  10.668  65.649  1.00  0.00    -0.207 NA 
HETATM    6  N   UNL     1      -9.168   9.079  64.716  1.00  0.00    -0.041 NA 
HETATM    7  C   UNL     1      -9.124  10.144  63.745  1.00  0.00    -0.261 C  
ENDBRANCH   2   3
BRANCH   2   8
HETATM    8  O   UNL     1      -8.350   8.607  67.365  1.00  0.00    -0.114 OA 
BRANCH   8   9
HETATM    9  C   UNL     1      -7.521   9.486  68.007  1.00  0.00    -0.083 A  
HETATM   10  C   UNL     1      -6.801  10.271  70.224  1.00  0.00    -0.145 A  
HETATM   11 CL   UNL     1      -8.911   8.621  70.212  1.00  0.00    -0.147 Cl 
HETATM   12  C   UNL     1      -5.770  11.002  69.647  1.00  0.00    -0.052 A  
HETATM   13  C   UNL     1      -7.666   9.524  69.412  1.00  0.00    -0.094 A  
HETATM   14  C   UNL     1      -5.608  10.979  68.266  1.00  0.00    -0.042 A  
HETATM   15  C   UNL     1      -6.458  10.212  67.447  1.00  0.00    -0.067 A  
HETATM   16 CL   UNL     1      -5.990  10.153  65.785  1.00  0.00    -0.079 Cl 
ENDBRANCH   8   9
ENDBRANCH   2   8
TORSDOF 3
ENDMDL
MODEL      223
REMARK 921   NORMALIZED FREE ENERGY PREDICTED BY IDOCK:   -1.96 KCAL/MOL
REMARK 922        TOTAL FREE ENERGY PREDICTED BY IDOCK:   -2.79 KCAL/MOL
REMARK 923 INTER-LIGAND FREE ENERGY PREDICTED BY IDOCK:   -2.56 KCAL/MOL
REMARK 924 INTRA-LIGAND FREE ENERGY PREDICTED BY IDOCK:   -0.22 KCAL/MOL
REMARK 927      BINDING AFFINITY PREDICTED BY RF-SCORE:    0.00 PKD
ROOT
HETATM    1  C   UNL     1      -8.988  10.705  66.447  1.00  0.00    -0.176 C  
HETATM    2  C   UNL     1      -8.526   9.302  66.082  1.00  0.00    -0.128 C  
ENDROOT
BRANCH   2   3
HETATM    3  C   UNL     1      -8.006   9.303  64.647  1.00  0.00    -0.125 C  
HETATM    4  C   UNL     1      -6.787   8.905  62.843  1.00  0.00    -0.089 C  
HETATM    5  N   UNL     1      -6.882   8.702  64.320  1.00  0.00    -0.074 NA 
HETATM    6  N   UNL     1      -8.699   9.903  63.617  1.00  0.00    -0.194 NA 
HETATM    7  C   UNL     1      -8.170   9.378  62.382  1.00  0.00    -0.145 C  
ENDBRANCH   2   3
BRANCH   2   8
HETATM    8  O   UNL     1      -9.605   8.362  66.078  1.00  0.00    -0.207 OA 
BRANCH   8   9
HETATM    9  C   UNL     1      -9.661   7.331  66.977  1.00  0.00    -0.181 A  
HETATM   10  C   UNL     1     -10.641   6.624  69.120  1.00  0.00    -0.280 A  
HETATM   11 CL   UNL     1     -10.995   9.201  68.483  1.00  0.00    -0.074 Cl 
HETATM   12  C   UNL     1     -10.189   5.326  68.914  1.00  0.00    -0.248 A  
HETATM   13  C   UNL     1     -10.377   7.613  68.162  1.00  0.00    -0.204 A  
HETATM   14  C   UNL     1      -9.483   5.025  67.754  1.00  0.00    -0.159 A  
HETATM   15  C   UNL     1      -9.236   6.008  66.778  1.00  0.00    -0.136 A  
HETATM   16 CL   UNL     1      -8.516   5.411  65.326  1.00  0.00    -0.145 Cl 
ENDBRANCH   8   9
ENDBRANCH   2   8
TORSDOF 3
ENDMDL
MODEL      224
REMARK 921   NORMALIZED FREE ENERGY PREDICTED BY IDOCK:   -1.95 KCAL/MOL
REMARK 922        TOTAL FREE ENERGY PREDICTED BY IDOCK:   -2.78 KCAL/MOL
REMARK 923 INTER-LIGAND FREE ENERGY PREDICTED BY IDOCK:   -2.63 KCAL/MOL
REMARK 924 INTRA-LIGAND FREE ENERGY PREDICTED BY IDOCK:   -0.15 KCAL/MOL
REMARK 927      BINDING AFFINITY PREDICTED BY RF-SCORE:    0.00 PKD
ROOT
HETATM    1  C   UNL     1      -7.532   5.166  69.764  1.00  0.00    -0.061 C  
HETATM    2  C   UNL     1      -8.641   4.200  69.375  1.00  0.00    -0.077 C  
ENDROOT
BRANCH   2   3
HETATM    3  C   UNL     1      -8.649   4.030  67.858  1.00  0.00    -0.097 C  
HETATM    4  C   UNL     1      -9.034   4.342  65.702  1.00  0.00    -0.130 C  
HETATM    5  N   UNL     1      -9.353   4.822  67.079  1.00  0.00    -0.127 NA 
HETATM    6  N   UNL     1      -7.897   3.063  67.226  1.00  0.00    -0.074 NA 
HETATM    7  C   UNL     1      -7.807   3.432  65.835  1.00  0.00    -0.085 C  
ENDBRANCH   2   3
BRANCH   2   8
HETATM    8  O   UNL     1      -9.939   4.712  69.692  1.00  0.00    -0.214 OA 
BRANCH   8   9
HETATM    9  C   UNL     1     -10.142   5.543  70.761  1.00  0.00    -0.212 A  
HETATM   10  C   UNL     1     -10.154   5.641  73.219  1.00  0.00    -0.202 A  
HETATM   11 CL   UNL     1      -9.950   3.188  72.161  1.00  0.00    -0.237 Cl 
HETATM   12  C   UNL     1     -10.255   7.026  73.178  1.00  0.00    -0.288 A  
HETATM   13  C   UNL     1     -10.101   4.910  72.023  1.00  0.00    -0.196 A  
HETATM   14  C   UNL     1     -10.297   7.670  71.946  1.00  0.00    -0.240 A  
HETATM   15  C   UNL     1     -10.219   6.944  70.743  1.00  0.00    -0.195 A  
HETATM   16 CL   UNL     1     -10.093   7.921  69.323  1.00  0.00    -0.192 Cl 
ENDBRANCH   8   9
ENDBRANCH   2   8
TORSDOF 3
ENDMDL
MODEL      225
REMARK 921   NORMALIZED FREE ENERGY PREDICTED BY IDOCK:   -1.94 KCAL/MOL
REMARK 922        TOTAL FREE ENERGY PREDICTED BY IDOCK:   -2.77 KCAL/MOL
REMARK 923 INTER-LIGAND FREE ENERGY PREDICTED BY IDOCK:   -3.14 KCAL/MOL
REMARK 924 INTRA-LIGAND FREE ENERGY PREDICTED BY IDOCK:    0.36 KCAL/MOL
REMARK 927      BINDING AFFINITY PREDICTED BY RF-SCORE:    0.00 PKD
ROOT
HETATM    1  C   UNL     1     -11.910  11.445  68.531  1.00  0.00    -0.364 C  
HETATM    2  C   UNL     1     -10.676  12.085  67.912  1.00  0.00    -0.210 C  
ENDROOT
BRANCH   2   3
HETATM    3  C   UNL     1     -10.610  11.718  66.432  1.00  0.00    -0.255 C  
HETATM    4  C   UNL     1     -10.608  11.850  64.223  1.00  0.00    -0.334 C  
HETATM    5  N   UNL     1     -10.816  12.612  65.490  1.00  0.00    -0.273 NA 
HETATM    6  N   UNL     1     -10.300  10.443  66.007  1.00  0.00    -0.223 NA 
HETATM    7  C   UNL     1      -9.922  10.536  64.618  1.00  0.00    -0.347 C  
ENDBRANCH   2   3
BRANCH   2   8
HETATM    8  O   UNL     1      -9.463  11.571  68.471  1.00  0.00    -0.185 OA 
BRANCH   8   9
HETATM    9  C   UNL     1      -8.237  11.991  68.033  1.00  0.00    -0.156 A  
HETATM   10  C   UNL     1      -6.803  13.971  67.761  1.00  0.00    -0.187 A  
HETATM   11 CL   UNL     1      -9.340  14.470  68.458  1.00  0.00    -0.200 Cl 
HETATM   12  C   UNL     1      -5.719  13.161  67.443  1.00  0.00     0.029 A  
HETATM   13  C   UNL     1      -8.046  13.391  68.049  1.00  0.00    -0.160 A  
HETATM   14  C   UNL     1      -5.884  11.780  67.422  1.00  0.00    -0.104 A  
HETATM   15  C   UNL     1      -7.123  11.191  67.734  1.00  0.00    -0.086 A  
HETATM   16 CL   UNL     1      -7.089   9.467  67.843  1.00  0.00    -0.080 Cl 
ENDBRANCH   8   9
ENDBRANCH   2   8
TORSDOF 3
ENDMDL
MODEL      226
REMARK 921   NORMALIZED FREE ENERGY PREDICTED BY IDOCK:   -1.94 KCAL/MOL
REMARK 922        TOTAL FREE ENERGY PREDICTED BY IDOCK:   -2.76 KCAL/MOL
REMARK 923 INTER-LIGAND FREE ENERGY PREDICTED BY IDOCK:   -2.57 KCAL/MOL
REMARK 924 INTRA-LIGAND FREE ENERGY PREDICTED BY IDOCK:   -0.19 KCAL/MOL
REMARK 927      BINDING AFFINITY PREDICTED BY RF-SCORE:    0.00 PKD
ROOT
HETATM    1  C   UNL     1      -8.024   6.538  68.966  1.00  0.00    -0.111 C  
HETATM    2  C   UNL     1      -9.019   7.618  68.568  1.00  0.00    -0.129 C  
ENDROOT
BRANCH   2   3
HETATM    3  C   UNL     1      -8.625   8.186  67.207  1.00  0.00    -0.124 C  
HETATM    4  C   UNL     1      -7.794   9.491  65.625  1.00  0.00    -0.101 C  
HETATM    5  N   UNL     1      -8.040   9.358  67.092  1.00  0.00    -0.102 NA 
HETATM    6  N   UNL     1      -8.832   7.489  66.035  1.00  0.00    -0.164 NA 
HETATM    7  C   UNL     1      -8.001   8.095  65.025  1.00  0.00    -0.139 C  
ENDBRANCH   2   3
BRANCH   2   8
HETATM    8  O   UNL     1      -8.983   8.740  69.456  1.00  0.00    -0.141 OA 
BRANCH   8   9
HETATM    9  C   UNL     1      -8.783   8.584  70.801  1.00  0.00    -0.160 A  
HETATM   10  C   UNL     1      -9.856   7.858  72.892  1.00  0.00    -0.348 A  
HETATM   11 CL   UNL     1     -11.480   8.066  70.772  1.00  0.00    -0.280 Cl 
HETATM   12  C   UNL     1      -8.636   7.917  73.555  1.00  0.00    -0.302 A  
HETATM   13  C   UNL     1      -9.926   8.190  71.531  1.00  0.00    -0.182 A  
HETATM   14  C   UNL     1      -7.497   8.302  72.856  1.00  0.00    -0.151 A  
HETATM   15  C   UNL     1      -7.557   8.613  71.485  1.00  0.00    -0.106 A  
HETATM   16 CL   UNL     1      -6.020   8.883  70.743  1.00  0.00    -0.035 Cl 
ENDBRANCH   8   9
ENDBRANCH   2   8
TORSDOF 3
ENDMDL
MODEL      227
REMARK 921   NORMALIZED FREE ENERGY PREDICTED BY IDOCK:   -1.87 KCAL/MOL
REMARK 922        TOTAL FREE ENERGY PREDICTED BY IDOCK:   -2.69 KCAL/MOL
REMARK 923 INTER-LIGAND FREE ENERGY PREDICTED BY IDOCK:   -2.33 KCAL/MOL
REMARK 924 INTRA-LIGAND FREE ENERGY PREDICTED BY IDOCK:   -0.36 KCAL/MOL
REMARK 927      BINDING AFFINITY PREDICTED BY RF-SCORE:    0.00 PKD
ROOT
HETATM    1  C   UNL     1      -6.198   7.036  67.696  1.00  0.00    -0.041 C  
HETATM    2  C   UNL     1      -7.701   7.261  67.635  1.00  0.00    -0.112 C  
ENDROOT
BRANCH   2   3
HETATM    3  C   UNL     1      -8.089   8.340  68.643  1.00  0.00    -0.120 C  
HETATM    4  C   UNL     1      -8.603  10.290  69.554  1.00  0.00    -0.138 C  
HETATM    5  N   UNL     1      -8.143   9.610  68.306  1.00  0.00    -0.104 NA 
HETATM    6  N   UNL     1      -8.432   8.038  69.944  1.00  0.00    -0.125 NA 
HETATM    7  C   UNL     1      -9.121   9.184  70.481  1.00  0.00    -0.241 C  
ENDBRANCH   2   3
BRANCH   2   8
HETATM    8  O   UNL     1      -8.438   6.102  68.039  1.00  0.00    -0.116 OA 
BRANCH   8   9
HETATM    9  C   UNL     1      -8.876   5.177  67.131  1.00  0.00    -0.109 A  
HETATM   10  C   UNL     1     -10.673   4.671  65.530  1.00  0.00    -0.176 A  
HETATM   11 CL   UNL     1     -11.108   6.777  67.127  1.00  0.00    -0.455 Cl 
HETATM   12  C   UNL     1      -9.943   3.601  65.026  1.00  0.00    -0.110 A  
HETATM   13  C   UNL     1     -10.144   5.446  66.571  1.00  0.00    -0.216 A  
HETATM   14  C   UNL     1      -8.691   3.318  65.561  1.00  0.00    -0.123 A  
HETATM   15  C   UNL     1      -8.145   4.108  66.590  1.00  0.00    -0.101 A  
HETATM   16 CL   UNL     1      -6.509   3.725  66.996  1.00  0.00    -0.040 Cl 
ENDBRANCH   8   9
ENDBRANCH   2   8
TORSDOF 3
ENDMDL
MODEL      228
REMARK 921   NORMALIZED FREE ENERGY PREDICTED BY IDOCK:   -1.86 KCAL/MOL
REMARK 922        TOTAL FREE ENERGY PREDICTED BY IDOCK:   -2.68 KCAL/MOL
REMARK 923 INTER-LIGAND FREE ENERGY PREDICTED BY IDOCK:   -2.31 KCAL/MOL
REMARK 924 INTRA-LIGAND FREE ENERGY PREDICTED BY IDOCK:   -0.36 KCAL/MOL
REMARK 927      BINDING AFFINITY PREDICTED BY RF-SCORE:    0.00 PKD
ROOT
HETATM    1  C   UNL     1      -5.689   7.235  68.268  1.00  0.00    -0.023 C  
HETATM    2  C   UNL     1      -7.088   7.781  68.020  1.00  0.00    -0.085 C  
ENDROOT
BRANCH   2   3
HETATM    3  C   UNL     1      -6.988   9.060  67.194  1.00  0.00    -0.078 C  
HETATM    4  C   UNL     1      -6.694  11.171  66.601  1.00  0.00    -0.137 C  
HETATM    5  N   UNL     1      -6.766  10.228  67.756  1.00  0.00    -0.073 NA 
HETATM    6  N   UNL     1      -7.092   9.054  65.819  1.00  0.00    -0.084 NA 
HETATM    7  C   UNL     1      -6.553  10.304  65.344  1.00  0.00    -0.122 C  
ENDBRANCH   2   3
BRANCH   2   8
HETATM    8  O   UNL     1      -7.735   8.178  69.233  1.00  0.00    -0.099 OA 
BRANCH   8   9
HETATM    9  C   UNL     1      -8.573   7.334  69.909  1.00  0.00    -0.141 A  
HETATM   10  C   UNL     1     -10.806   6.303  69.864  1.00  0.00    -0.399 A  
HETATM   11 CL   UNL     1     -10.379   8.217  68.039  1.00  0.00    -0.265 Cl 
HETATM   12  C   UNL     1     -10.458   5.466  70.917  1.00  0.00    -0.307 A  
HETATM   13  C   UNL     1      -9.874   7.226  69.370  1.00  0.00    -0.163 A  
HETATM   14  C   UNL     1      -9.181   5.554  71.464  1.00  0.00    -0.164 A  
HETATM   15  C   UNL     1      -8.234   6.462  70.956  1.00  0.00    -0.122 A  
HETATM   16 CL   UNL     1      -6.651   6.297  71.630  1.00  0.00    -0.053 Cl 
ENDBRANCH   8   9
ENDBRANCH   2   8
TORSDOF 3
ENDMDL
MODEL      229
REMARK 921   NORMALIZED FREE ENERGY PREDICTED BY IDOCK:   -1.49 KCAL/MOL
REMARK 922        TOTAL FREE ENERGY PREDICTED BY IDOCK:   -2.24 KCAL/MOL
REMARK 923 INTER-LIGAND FREE ENERGY PREDICTED BY IDOCK:   -2.46 KCAL/MOL
REMARK 924 INTRA-LIGAND FREE ENERGY PREDICTED BY IDOCK:    0.22 KCAL/MOL
REMARK 927      BINDING AFFINITY PREDICTED BY RF-SCORE:    0.00 PKD
ROOT
HETATM    1  C   UNL     1      -5.979   7.582  68.114  1.00  0.00    -0.035 C  
HETATM    2  C   UNL     1      -7.500   7.613  68.061  1.00  0.00    -0.104 C  
ENDROOT
BRANCH   2   3
HETATM    3  C   UNL     1      -7.949   8.831  67.260  1.00  0.00    -0.097 C  
HETATM    4  C   UNL     1      -8.976  10.130  65.791  1.00  0.00    -0.160 C  
HETATM    5  N   UNL     1      -8.767   8.720  66.235  1.00  0.00    -0.139 NA 
HETATM    6  N   UNL     1      -7.550  10.111  67.586  1.00  0.00    -0.090 NA 
HETATM    7  C   UNL     1      -8.451  11.021  66.923  1.00  0.00    -0.139 C  
ENDBRANCH   2   3
BRANCH   2   8
HETATM    8  O   UNL     1      -8.081   7.793  69.357  1.00  0.00    -0.122 OA 
BRANCH   8   9
HETATM    9  C   UNL     1      -8.672   6.757  70.028  1.00  0.00    -0.141 A  
HETATM   10  C   UNL     1     -10.231   6.210  71.850  1.00  0.00    -0.231 A  
HETATM   11 CL   UNL     1      -9.517   8.785  71.675  1.00  0.00    -0.340 Cl 
HETATM   12  C   UNL     1     -10.239   4.876  71.462  1.00  0.00    -0.264 A  
HETATM   13  C   UNL     1      -9.454   7.137  71.141  1.00  0.00    -0.157 A  
HETATM   14  C   UNL     1      -9.478   4.479  70.368  1.00  0.00    -0.252 A  
HETATM   15  C   UNL     1      -8.715   5.409  69.638  1.00  0.00    -0.103 A  
HETATM   16 CL   UNL     1      -7.989   4.773  68.205  1.00  0.00    -0.085 Cl 
ENDBRANCH   8   9
ENDBRANCH   2   8
TORSDOF 3
ENDMDL
MODEL      230
REMARK 921   NORMALIZED FREE ENERGY PREDICTED BY IDOCK:   13.00 KCAL/MOL
REMARK 922        TOTAL FREE ENERGY PREDICTED BY IDOCK:   14.80 KCAL/MOL
REMARK 923 INTER-LIGAND FREE ENERGY PREDICTED BY IDOCK:   14.83 KCAL/MOL
REMARK 924 INTRA-LIGAND FREE ENERGY PREDICTED BY IDOCK:   -0.04 KCAL/MOL
REMARK 927      BINDING AFFINITY PREDICTED BY RF-SCORE:    0.00 PKD
ROOT
HETATM    1  C   UNL     1      -8.772   6.639  70.219  1.00  0.00    -0.147 C  
HETATM    2  C   UNL     1      -9.954   7.153  69.412  1.00  0.00    -0.164 C  
ENDROOT
BRANCH   2   3
HETATM    3  C   UNL     1      -9.573   8.474  68.749  1.00  0.00    -0.149 C  
HETATM    4  C   UNL     1      -9.089  10.608  68.421  1.00  0.00    -0.156 C  
HETATM    5  N   UNL     1      -9.559   9.604  69.422  1.00  0.00    -0.179 NA 
HETATM    6  N   UNL     1      -9.193   8.547  67.425  1.00  0.00    -0.139 NA 
HETATM    7  C   UNL     1      -8.522   9.809  67.242  1.00  0.00    -0.125 C  
ENDBRANCH   2   3
BRANCH   2   8
HETATM    8  O   UNL     1     -11.078   7.470  70.240  1.00  0.00    -0.257 OA 
BRANCH   8   9
HETATM    9  C   UNL     1     -11.374   6.739  71.358  1.00  0.00    -0.279 A  
HETATM   10  C   UNL     1     -11.206   6.714  73.811  1.00  0.00     0.498 A  
HETATM   11 CL   UNL     1      -9.844   8.663  72.579  1.00  0.00    -0.326 Cl 
HETATM   12  C   UNL     1     -12.044   5.608  73.873  1.00  0.00     2.922 A  
HETATM   13  C   UNL     1     -10.875   7.270  72.567  1.00  0.00    -0.272 A  
HETATM   14  C   UNL     1     -12.549   5.068  72.694  1.00  0.00     0.773 A  
HETATM   15  C   UNL     1     -12.239   5.636  71.444  1.00  0.00     1.096 A  
HETATM   16 CL   UNL     1     -13.104   4.954  70.113  1.00  0.00    11.739 Cl 
ENDBRANCH   8   9
ENDBRANCH   2   8
TORSDOF 3
ENDMDL
