MODEL        1
REMARK 921   NORMALIZED FREE ENERGY PREDICTED BY IDOCK:   -7.75 KCAL/MOL
REMARK 922        TOTAL FREE ENERGY PREDICTED BY IDOCK:   -9.19 KCAL/MOL
REMARK 923 INTER-LIGAND FREE ENERGY PREDICTED BY IDOCK:   -8.66 KCAL/MOL
REMARK 924 INTRA-LIGAND FREE ENERGY PREDICTED BY IDOCK:   -0.54 KCAL/MOL
REMARK 927      BINDING AFFINITY PREDICTED BY RF-SCORE:    0.00 PKD
ROOT
HETATM    1  C   UNL     1     -12.404  15.932  73.019  1.00  0.00    -0.605 C  
HETATM    2  C   UNL     1     -11.746  16.331  71.707  1.00  0.00    -0.429 C  
ENDROOT
BRANCH   2   3
HETATM    3  N   UNL     1     -11.709  15.184  70.779  1.00  0.00    -0.299 NA 
HETATM    4  C   UNL     1     -12.223  13.958  71.186  1.00  0.00    -0.308 C  
HETATM    5  C   UNL     1     -12.180  12.803  70.508  1.00  0.00    -0.389 C  
HETATM    6  C   UNL     1     -12.786  11.591  71.093  1.00  0.00    -0.356 C  
HETATM    7  C   UNL     1     -11.508  12.835  69.200  1.00  0.00    -0.306 C  
HETATM    8  C   UNL     1     -10.955  14.124  68.722  1.00  0.00    -0.275 A  
HETATM    9  O   UNL     1     -11.425  11.809  68.528  1.00  0.00    -0.245 OA 
HETATM   10  O   UNL     1     -13.340  11.576  72.183  1.00  0.00    -0.477 OA 
HETATM   11  O   UNL     1     -12.682  10.484  70.327  1.00  0.00    -0.310 OA 
HETATM   12  C   UNL     1     -10.351  14.145  67.462  1.00  0.00    -0.248 A  
HETATM   13  C   UNL     1      -9.882  15.345  66.950  1.00  0.00    -0.244 A  
HETATM   14  C   UNL     1      -9.980  16.552  67.657  1.00  0.00    -0.254 A  
HETATM   15  F   UNL     1      -9.319  15.315  65.732  1.00  0.00    -0.332 F  
HETATM   16  F   UNL     1     -10.637  17.626  69.646  1.00  0.00    -0.284 F  
HETATM   17  C   UNL     1     -10.539  16.475  68.958  1.00  0.00    -0.324 A  
HETATM   18  C   UNL     1     -11.061  15.285  69.520  1.00  0.00    -0.281 A  
BRANCH  14  19
HETATM   19  N   UNL     1      -9.653  17.774  67.087  1.00  0.00    -0.269 NA 
HETATM   20  C   UNL     1     -10.426  18.314  65.959  1.00  0.00    -0.361 C  
HETATM   21  C   UNL     1     -10.609  19.834  66.165  1.00  0.00    -0.464 C  
HETATM   22  N   UNL     1      -9.336  20.560  66.322  1.00  0.00    -0.632 NA 
HETATM   23  C   UNL     1      -8.544  19.963  67.426  1.00  0.00    -0.335 C  
HETATM   24  H   UNL     1      -9.480  21.560  66.452  1.00  0.00     0.000 HD 
HETATM   25  C   UNL     1      -8.348  18.423  67.288  1.00  0.00    -0.249 C  
HETATM   26  C   UNL     1      -7.197  20.682  67.476  1.00  0.00    -0.382 C  
ENDBRANCH  14  19
ENDBRANCH   2   3
TORSDOF 2
ENDMDL
MODEL        2
REMARK 921   NORMALIZED FREE ENERGY PREDICTED BY IDOCK:   -7.65 KCAL/MOL
REMARK 922        TOTAL FREE ENERGY PREDICTED BY IDOCK:   -9.08 KCAL/MOL
REMARK 923 INTER-LIGAND FREE ENERGY PREDICTED BY IDOCK:   -8.86 KCAL/MOL
REMARK 924 INTRA-LIGAND FREE ENERGY PREDICTED BY IDOCK:   -0.22 KCAL/MOL
REMARK 927      BINDING AFFINITY PREDICTED BY RF-SCORE:    0.00 PKD
ROOT
HETATM    1  C   UNL     1     -11.771  16.154  72.070  1.00  0.00    -0.574 C  
HETATM    2  C   UNL     1     -12.711  15.479  71.082  1.00  0.00    -0.463 C  
ENDROOT
BRANCH   2   3
HETATM    3  N   UNL     1     -11.980  15.082  69.864  1.00  0.00    -0.314 NA 
HETATM    4  C   UNL     1     -11.530  16.062  68.986  1.00  0.00    -0.360 C  
HETATM    5  C   UNL     1     -10.940  15.869  67.798  1.00  0.00    -0.315 C  
HETATM    6  C   UNL     1     -10.518  17.033  66.995  1.00  0.00    -0.279 C  
HETATM    7  C   UNL     1     -10.760  14.472  67.375  1.00  0.00    -0.282 C  
HETATM    8  C   UNL     1     -11.216  13.395  68.285  1.00  0.00    -0.310 A  
HETATM    9  O   UNL     1     -10.234  14.222  66.292  1.00  0.00    -0.283 OA 
HETATM   10  O   UNL     1     -10.675  18.191  67.357  1.00  0.00    -0.403 OA 
HETATM   11  O   UNL     1      -9.938  16.724  65.816  1.00  0.00    -0.492 OA 
HETATM   12  C   UNL     1     -11.006  12.073  67.884  1.00  0.00    -0.266 A  
HETATM   13  C   UNL     1     -11.355  11.037  68.736  1.00  0.00    -0.283 A  
HETATM   14  C   UNL     1     -11.928  11.263  69.996  1.00  0.00    -0.368 A  
HETATM   15  F   UNL     1     -11.125   9.785  68.309  1.00  0.00    -0.274 F  
HETATM   16  F   UNL     1     -12.735  12.844  71.542  1.00  0.00    -0.426 F  
HETATM   17  C   UNL     1     -12.185  12.615  70.336  1.00  0.00    -0.288 A  
HETATM   18  C   UNL     1     -11.823  13.714  69.520  1.00  0.00    -0.337 A  
BRANCH  14  19
HETATM   19  N   UNL     1     -12.136  10.240  70.910  1.00  0.00    -0.336 NA 
HETATM   20  C   UNL     1     -13.407  10.124  71.640  1.00  0.00    -0.366 C  
HETATM   21  C   UNL     1     -13.801   8.633  71.718  1.00  0.00    -0.425 C  
HETATM   22  N   UNL     1     -12.764   7.786  72.336  1.00  0.00    -0.533 NA 
HETATM   23  C   UNL     1     -11.474   7.961  71.623  1.00  0.00    -0.263 C  
HETATM   24  H   UNL     1     -13.046   6.808  72.381  1.00  0.00     0.000 HD 
HETATM   25  C   UNL     1     -11.037   9.451  71.487  1.00  0.00    -0.376 C  
HETATM   26  C   UNL     1     -10.416   7.147  72.365  1.00  0.00    -0.247 C  
ENDBRANCH  14  19
ENDBRANCH   2   3
TORSDOF 2
ENDMDL
MODEL        3
REMARK 921   NORMALIZED FREE ENERGY PREDICTED BY IDOCK:   -7.53 KCAL/MOL
REMARK 922        TOTAL FREE ENERGY PREDICTED BY IDOCK:   -8.95 KCAL/MOL
REMARK 923 INTER-LIGAND FREE ENERGY PREDICTED BY IDOCK:   -8.48 KCAL/MOL
REMARK 924 INTRA-LIGAND FREE ENERGY PREDICTED BY IDOCK:   -0.47 KCAL/MOL
REMARK 927      BINDING AFFINITY PREDICTED BY RF-SCORE:    0.00 PKD
ROOT
HETATM    1  C   UNL     1     -11.772  10.284  71.188  1.00  0.00    -0.430 C  
HETATM    2  C   UNL     1     -12.907  11.182  70.718  1.00  0.00    -0.234 C  
ENDROOT
BRANCH   2   3
HETATM    3  N   UNL     1     -12.455  12.584  70.641  1.00  0.00    -0.288 NA 
HETATM    4  C   UNL     1     -12.421  13.358  71.796  1.00  0.00    -0.023 C  
HETATM    5  C   UNL     1     -12.131  14.663  71.882  1.00  0.00    -0.375 C  
HETATM    6  C   UNL     1     -12.136  15.326  73.200  1.00  0.00    -0.426 C  
HETATM    7  C   UNL     1     -11.827  15.351  70.618  1.00  0.00    -0.351 C  
HETATM    8  C   UNL     1     -11.842  14.564  69.363  1.00  0.00    -0.367 A  
HETATM    9  O   UNL     1     -11.561  16.552  70.622  1.00  0.00    -0.219 OA 
HETATM   10  O   UNL     1     -12.392  14.743  74.244  1.00  0.00    -0.535 OA 
HETATM   11  O   UNL     1     -11.833  16.642  73.170  1.00  0.00    -0.473 OA 
HETATM   12  C   UNL     1     -11.517  15.225  68.176  1.00  0.00    -0.357 A  
HETATM   13  C   UNL     1     -11.453  14.509  66.991  1.00  0.00    -0.370 A  
HETATM   14  C   UNL     1     -11.714  13.131  66.932  1.00  0.00    -0.387 A  
HETATM   15  F   UNL     1     -11.127  15.187  65.879  1.00  0.00    -0.329 F  
HETATM   16  F   UNL     1     -12.358  11.193  68.101  1.00  0.00    -0.213 F  
HETATM   17  C   UNL     1     -12.104  12.513  68.146  1.00  0.00    -0.067 A  
HETATM   18  C   UNL     1     -12.158  13.187  69.390  1.00  0.00    -0.231 A  
BRANCH  14  19
HETATM   19  N   UNL     1     -11.502  12.386  65.781  1.00  0.00    -0.352 NA 
HETATM   20  C   UNL     1     -12.500  12.356  64.703  1.00  0.00    -0.420 C  
HETATM   21  C   UNL     1     -11.768  12.409  63.345  1.00  0.00    -0.472 C  
HETATM   22  N   UNL     1     -10.780  11.329  63.171  1.00  0.00    -0.786 NA 
HETATM   23  C   UNL     1      -9.815  11.338  64.299  1.00  0.00    -0.273 C  
HETATM   24  H   UNL     1     -10.311  11.381  62.267  1.00  0.00     0.000 HD 
HETATM   25  C   UNL     1     -10.497  11.313  65.700  1.00  0.00    -0.261 C  
HETATM   26  C   UNL     1      -8.883  10.140  64.125  1.00  0.00    -0.243 C  
ENDBRANCH  14  19
ENDBRANCH   2   3
TORSDOF 2
ENDMDL
MODEL        4
REMARK 921   NORMALIZED FREE ENERGY PREDICTED BY IDOCK:   -7.50 KCAL/MOL
REMARK 922        TOTAL FREE ENERGY PREDICTED BY IDOCK:   -8.92 KCAL/MOL
REMARK 923 INTER-LIGAND FREE ENERGY PREDICTED BY IDOCK:   -8.34 KCAL/MOL
REMARK 924 INTRA-LIGAND FREE ENERGY PREDICTED BY IDOCK:   -0.58 KCAL/MOL
REMARK 927      BINDING AFFINITY PREDICTED BY RF-SCORE:    0.00 PKD
ROOT
HETATM    1  C   UNL     1      -9.209  17.255  68.829  1.00  0.00    -0.238 C  
HETATM    2  C   UNL     1     -10.656  16.959  68.464  1.00  0.00    -0.367 C  
ENDROOT
BRANCH   2   3
HETATM    3  N   UNL     1     -11.212  15.927  69.361  1.00  0.00    -0.310 NA 
HETATM    4  C   UNL     1     -11.464  16.239  70.692  1.00  0.00    -0.272 C  
HETATM    5  C   UNL     1     -11.872  15.399  71.652  1.00  0.00    -0.468 C  
HETATM    6  C   UNL     1     -12.098  15.907  73.019  1.00  0.00    -0.509 C  
HETATM    7  C   UNL     1     -12.063  13.995  71.257  1.00  0.00    -0.224 C  
HETATM    8  C   UNL     1     -11.816  13.619  69.846  1.00  0.00    -0.389 A  
HETATM    9  O   UNL     1     -12.429  13.168  72.090  1.00  0.00     0.046 OA 
HETATM   10  O   UNL     1     -11.934  17.078  73.336  1.00  0.00    -0.258 OA 
HETATM   11  O   UNL     1     -12.505  14.975  73.907  1.00  0.00    -0.557 OA 
HETATM   12  C   UNL     1     -12.036  12.289  69.479  1.00  0.00    -0.333 A  
HETATM   13  C   UNL     1     -11.881  11.911  68.154  1.00  0.00    -0.270 A  
HETATM   14  C   UNL     1     -11.499  12.819  67.155  1.00  0.00    -0.337 A  
HETATM   15  F   UNL     1     -12.113  10.625  67.850  1.00  0.00    -0.167 F  
HETATM   16  F   UNL     1     -10.853  15.021  66.632  1.00  0.00    -0.293 F  
HETATM   17  C   UNL     1     -11.222  14.143  67.581  1.00  0.00    -0.297 A  
HETATM   18  C   UNL     1     -11.390  14.591  68.913  1.00  0.00    -0.274 A  
BRANCH  14  19
HETATM   19  N   UNL     1     -11.493  12.481  65.810  1.00  0.00    -0.346 NA 
HETATM   20  C   UNL     1     -12.645  12.784  64.948  1.00  0.00    -0.470 C  
HETATM   21  C   UNL     1     -12.126  13.275  63.578  1.00  0.00    -0.482 C  
HETATM   22  N   UNL     1     -11.218  12.318  62.921  1.00  0.00    -0.533 NA 
HETATM   23  C   UNL     1     -10.093  11.979  63.828  1.00  0.00    -0.394 C  
HETATM   24  H   UNL     1     -10.891  12.660  62.018  1.00  0.00     0.000 HD 
HETATM   25  C   UNL     1     -10.555  11.502  65.238  1.00  0.00    -0.283 C  
HETATM   26  C   UNL     1      -9.245  10.910  63.141  1.00  0.00    -0.314 C  
ENDBRANCH  14  19
ENDBRANCH   2   3
TORSDOF 2
ENDMDL
MODEL        5
REMARK 921   NORMALIZED FREE ENERGY PREDICTED BY IDOCK:   -7.39 KCAL/MOL
REMARK 922        TOTAL FREE ENERGY PREDICTED BY IDOCK:   -8.80 KCAL/MOL
REMARK 923 INTER-LIGAND FREE ENERGY PREDICTED BY IDOCK:   -8.55 KCAL/MOL
REMARK 924 INTRA-LIGAND FREE ENERGY PREDICTED BY IDOCK:   -0.24 KCAL/MOL
REMARK 927      BINDING AFFINITY PREDICTED BY RF-SCORE:    0.00 PKD
ROOT
HETATM    1  C   UNL     1     -13.534  13.688  72.354  1.00  0.00    -0.685 C  
HETATM    2  C   UNL     1     -12.923  13.864  70.972  1.00  0.00    -0.287 C  
ENDROOT
BRANCH   2   3
HETATM    3  N   UNL     1     -12.406  12.577  70.470  1.00  0.00    -0.308 NA 
HETATM    4  C   UNL     1     -12.619  11.418  71.209  1.00  0.00    -0.374 C  
HETATM    5  C   UNL     1     -12.137  10.196  70.947  1.00  0.00    -0.453 C  
HETATM    6  C   UNL     1     -12.473   9.071  71.841  1.00  0.00    -0.384 C  
HETATM    7  C   UNL     1     -11.283  10.071  69.756  1.00  0.00    -0.258 C  
HETATM    8  C   UNL     1     -11.036  11.278  68.933  1.00  0.00    -0.295 A  
HETATM    9  O   UNL     1     -10.799   8.979  69.460  1.00  0.00    -0.229 OA 
HETATM   10  O   UNL     1     -13.184   9.189  72.830  1.00  0.00    -0.394 OA 
HETATM   11  O   UNL     1     -11.932   7.887  71.484  1.00  0.00    -0.284 OA 
HETATM   12  C   UNL     1     -10.251  11.134  67.787  1.00  0.00    -0.205 A  
HETATM   13  C   UNL     1     -10.053  12.224  66.953  1.00  0.00    -0.211 A  
HETATM   14  C   UNL     1     -10.608  13.484  67.222  1.00  0.00    -0.263 A  
HETATM   15  F   UNL     1      -9.300  12.033  65.859  1.00  0.00    -0.227 F  
HETATM   16  F   UNL     1     -11.876  14.807  68.698  1.00  0.00    -0.312 F  
HETATM   17  C   UNL     1     -11.342  13.603  68.429  1.00  0.00    -0.295 A  
HETATM   18  C   UNL     1     -11.600  12.519  69.302  1.00  0.00    -0.319 A  
BRANCH  14  19
HETATM   19  N   UNL     1     -10.540  14.532  66.316  1.00  0.00    -0.297 NA 
HETATM   20  C   UNL     1     -10.825  14.320  64.890  1.00  0.00    -0.416 C  
HETATM   21  C   UNL     1     -11.644  15.519  64.363  1.00  0.00    -0.258 C  
HETATM   22  N   UNL     1     -10.979  16.818  64.575  1.00  0.00    -1.079 NA 
HETATM   23  C   UNL     1     -10.646  16.989  66.011  1.00  0.00    -0.206 C  
HETATM   24  H   UNL     1     -11.534  17.594  64.216  1.00  0.00     0.000 HD 
HETATM   25  C   UNL     1      -9.843  15.795  66.608  1.00  0.00    -0.252 C  
HETATM   26  C   UNL     1      -9.870  18.297  66.157  1.00  0.00    -0.264 C  
ENDBRANCH  14  19
ENDBRANCH   2   3
TORSDOF 2
ENDMDL
MODEL        6
REMARK 921   NORMALIZED FREE ENERGY PREDICTED BY IDOCK:   -7.09 KCAL/MOL
REMARK 922        TOTAL FREE ENERGY PREDICTED BY IDOCK:   -8.46 KCAL/MOL
REMARK 923 INTER-LIGAND FREE ENERGY PREDICTED BY IDOCK:   -8.01 KCAL/MOL
REMARK 924 INTRA-LIGAND FREE ENERGY PREDICTED BY IDOCK:   -0.45 KCAL/MOL
REMARK 927      BINDING AFFINITY PREDICTED BY RF-SCORE:    0.00 PKD
ROOT
HETATM    1  C   UNL     1     -13.855  15.420  71.520  1.00  0.00    -0.599 C  
HETATM    2  C   UNL     1     -13.176  14.066  71.668  1.00  0.00    -0.368 C  
ENDROOT
BRANCH   2   3
HETATM    3  N   UNL     1     -12.292  13.806  70.515  1.00  0.00    -0.349 NA 
HETATM    4  C   UNL     1     -11.861  14.868  69.728  1.00  0.00    -0.315 C  
HETATM    5  C   UNL     1     -11.142  14.794  68.601  1.00  0.00    -0.274 C  
HETATM    6  C   UNL     1     -10.765  16.033  67.893  1.00  0.00    -0.316 C  
HETATM    7  C   UNL     1     -10.779  13.444  68.142  1.00  0.00    -0.253 C  
HETATM    8  C   UNL     1     -11.208  12.283  68.956  1.00  0.00    -0.319 A  
HETATM    9  O   UNL     1     -10.126  13.302  67.110  1.00  0.00    -0.235 OA 
HETATM   10  O   UNL     1     -11.075  17.150  68.283  1.00  0.00    -0.310 OA 
HETATM   11  O   UNL     1     -10.044  15.842  66.767  1.00  0.00    -0.257 OA 
HETATM   12  C   UNL     1     -10.825  11.010  68.526  1.00  0.00    -0.254 A  
HETATM   13  C   UNL     1     -11.148   9.903  69.295  1.00  0.00    -0.181 A  
HETATM   14  C   UNL     1     -11.861  10.008  70.498  1.00  0.00    -0.303 A  
HETATM   15  F   UNL     1     -10.750   8.703  68.844  1.00  0.00    -0.234 F  
HETATM   16  F   UNL     1     -12.974  11.422  72.015  1.00  0.00    -0.547 F  
HETATM   17  C   UNL     1     -12.288  11.310  70.865  1.00  0.00    -0.388 A  
HETATM   18  C   UNL     1     -11.962  12.478  70.134  1.00  0.00    -0.301 A  
BRANCH  14  19
HETATM   19  N   UNL     1     -12.052   8.925  71.344  1.00  0.00    -0.309 NA 
HETATM   20  C   UNL     1     -13.396   8.387  71.593  1.00  0.00    -0.338 C  
HETATM   21  C   UNL     1     -13.318   6.844  71.621  1.00  0.00    -0.219 C  
HETATM   22  N   UNL     1     -12.355   6.327  72.611  1.00  0.00    -0.491 NA 
HETATM   23  C   UNL     1     -11.017   6.926  72.380  1.00  0.00    -0.246 C  
HETATM   24  H   UNL     1     -12.322   5.308  72.615  1.00  0.00     0.000 HD 
HETATM   25  C   UNL     1     -11.037   8.483  72.314  1.00  0.00    -0.360 C  
HETATM   26  C   UNL     1     -10.089   6.439  73.492  1.00  0.00    -0.240 C  
ENDBRANCH  14  19
ENDBRANCH   2   3
TORSDOF 2
ENDMDL
MODEL        7
REMARK 921   NORMALIZED FREE ENERGY PREDICTED BY IDOCK:   -7.09 KCAL/MOL
REMARK 922        TOTAL FREE ENERGY PREDICTED BY IDOCK:   -8.45 KCAL/MOL
REMARK 923 INTER-LIGAND FREE ENERGY PREDICTED BY IDOCK:   -8.00 KCAL/MOL
REMARK 924 INTRA-LIGAND FREE ENERGY PREDICTED BY IDOCK:   -0.45 KCAL/MOL
REMARK 927      BINDING AFFINITY PREDICTED BY RF-SCORE:    0.00 PKD
ROOT
HETATM    1  C   UNL     1      -9.989  10.400  65.165  1.00  0.00    -0.390 C  
HETATM    2  C   UNL     1     -10.226  10.270  66.663  1.00  0.00    -0.233 C  
ENDROOT
BRANCH   2   3
HETATM    3  N   UNL     1     -10.739  11.538  67.214  1.00  0.00    -0.231 NA 
HETATM    4  C   UNL     1     -10.577  12.715  66.492  1.00  0.00    -0.253 C  
HETATM    5  C   UNL     1     -10.895  13.954  66.890  1.00  0.00    -0.286 C  
HETATM    6  C   UNL     1     -10.659  15.095  65.984  1.00  0.00    -0.322 C  
HETATM    7  C   UNL     1     -11.467  14.082  68.239  1.00  0.00    -0.304 C  
HETATM    8  C   UNL     1     -11.668  12.853  69.041  1.00  0.00    -0.375 A  
HETATM    9  O   UNL     1     -11.775  15.192  68.671  1.00  0.00    -0.335 OA 
HETATM   10  O   UNL     1     -10.180  14.975  64.864  1.00  0.00    -0.357 OA 
HETATM   11  O   UNL     1     -11.013  16.297  66.487  1.00  0.00    -0.177 OA 
HETATM   12  C   UNL     1     -12.244  12.989  70.306  1.00  0.00    -0.368 A  
HETATM   13  C   UNL     1     -12.511  11.856  71.060  1.00  0.00    -0.290 A  
HETATM   14  C   UNL     1     -12.213  10.564  70.603  1.00  0.00    -0.352 A  
HETATM   15  F   UNL     1     -13.075  12.038  72.265  1.00  0.00    -0.555 F  
HETATM   16  F   UNL     1     -11.277   9.241  68.897  1.00  0.00    -0.156 F  
HETATM   17  C   UNL     1     -11.569  10.475  69.344  1.00  0.00    -0.246 A  
HETATM   18  C   UNL     1     -11.299  11.594  68.518  1.00  0.00    -0.274 A  
BRANCH  14  19
HETATM   19  N   UNL     1     -12.617   9.425  71.285  1.00  0.00    -0.325 NA 
HETATM   20  C   UNL     1     -14.036   9.187  71.587  1.00  0.00    -0.286 C  
HETATM   21  C   UNL     1     -14.347   7.690  71.367  1.00  0.00    -0.400 C  
HETATM   22  N   UNL     1     -13.486   6.793  72.159  1.00  0.00    -0.518 NA 
HETATM   23  C   UNL     1     -12.058   7.087  71.885  1.00  0.00    -0.323 C  
HETATM   24  H   UNL     1     -13.710   5.811  72.001  1.00  0.00     0.000 HD 
HETATM   25  C   UNL     1     -11.688   8.591  72.064  1.00  0.00    -0.362 C  
HETATM   26  C   UNL     1     -11.214   6.206  72.805  1.00  0.00    -0.278 C  
ENDBRANCH  14  19
ENDBRANCH   2   3
TORSDOF 2
ENDMDL
MODEL        8
REMARK 921   NORMALIZED FREE ENERGY PREDICTED BY IDOCK:   -7.06 KCAL/MOL
REMARK 922        TOTAL FREE ENERGY PREDICTED BY IDOCK:   -8.42 KCAL/MOL
REMARK 923 INTER-LIGAND FREE ENERGY PREDICTED BY IDOCK:   -8.25 KCAL/MOL
REMARK 924 INTRA-LIGAND FREE ENERGY PREDICTED BY IDOCK:   -0.17 KCAL/MOL
REMARK 927      BINDING AFFINITY PREDICTED BY RF-SCORE:    0.00 PKD
ROOT
HETATM    1  C   UNL     1     -13.125  11.840  71.762  1.00  0.00    -0.480 C  
HETATM    2  C   UNL     1     -12.384  12.015  70.444  1.00  0.00    -0.233 C  
ENDROOT
BRANCH   2   3
HETATM    3  N   UNL     1     -11.716  10.757  70.059  1.00  0.00    -0.305 NA 
HETATM    4  C   UNL     1     -11.550   9.751  71.005  1.00  0.00    -0.376 C  
HETATM    5  C   UNL     1     -10.886   8.599  70.847  1.00  0.00    -0.288 C  
HETATM    6  C   UNL     1     -10.816   7.637  71.964  1.00  0.00    -0.238 C  
HETATM    7  C   UNL     1     -10.257   8.380  69.535  1.00  0.00    -0.207 C  
HETATM    8  C   UNL     1     -10.417   9.421  68.493  1.00  0.00    -0.239 A  
HETATM    9  O   UNL     1      -9.625   7.347  69.323  1.00  0.00    -0.154 OA 
HETATM   10  O   UNL     1     -11.342   7.832  73.052  1.00  0.00    -0.399 OA 
HETATM   11  O   UNL     1     -10.120   6.512  71.696  1.00  0.00    -0.182 OA 
HETATM   12  C   UNL     1      -9.844   9.181  67.241  1.00  0.00    -0.244 A  
HETATM   13  C   UNL     1     -10.028  10.099  66.219  1.00  0.00    -0.242 A  
HETATM   14  C   UNL     1     -10.769  11.277  66.393  1.00  0.00    -0.267 A  
HETATM   15  F   UNL     1      -9.466   9.819  65.032  1.00  0.00    -0.260 F  
HETATM   16  F   UNL     1     -11.987  12.641  67.874  1.00  0.00    -0.375 F  
HETATM   17  C   UNL     1     -11.278  11.514  67.695  1.00  0.00    -0.281 A  
HETATM   18  C   UNL     1     -11.145  10.599  68.768  1.00  0.00    -0.265 A  
BRANCH  14  19
HETATM   19  N   UNL     1     -11.084  12.118  65.335  1.00  0.00    -0.308 NA 
HETATM   20  C   UNL     1     -11.507  11.575  64.037  1.00  0.00    -0.244 C  
HETATM   21  C   UNL     1     -12.656  12.447  63.484  1.00  0.00    -0.425 C  
HETATM   22  N   UNL     1     -12.301  13.873  63.364  1.00  0.00    -1.139 NA 
HETATM   23  C   UNL     1     -11.821  14.388  64.670  1.00  0.00    -0.451 C  
HETATM   24  H   UNL     1     -13.072  14.428  62.994  1.00  0.00     0.000 HD 
HETATM   25  C   UNL     1     -10.677  13.532  65.293  1.00  0.00    -0.323 C  
HETATM   26  C   UNL     1     -11.370  15.833  64.464  1.00  0.00    -0.324 C  
ENDBRANCH  14  19
ENDBRANCH   2   3
TORSDOF 2
ENDMDL
MODEL        9
REMARK 921   NORMALIZED FREE ENERGY PREDICTED BY IDOCK:   -7.06 KCAL/MOL
REMARK 922        TOTAL FREE ENERGY PREDICTED BY IDOCK:   -8.42 KCAL/MOL
REMARK 923 INTER-LIGAND FREE ENERGY PREDICTED BY IDOCK:   -8.18 KCAL/MOL
REMARK 924 INTRA-LIGAND FREE ENERGY PREDICTED BY IDOCK:   -0.23 KCAL/MOL
REMARK 927      BINDING AFFINITY PREDICTED BY RF-SCORE:    0.00 PKD
ROOT
HETATM    1  C   UNL     1     -11.580  16.088  71.846  1.00  0.00    -0.524 C  
HETATM    2  C   UNL     1     -12.515  15.652  70.726  1.00  0.00    -0.435 C  
ENDROOT
BRANCH   2   3
HETATM    3  N   UNL     1     -11.756  15.427  69.481  1.00  0.00    -0.325 NA 
HETATM    4  C   UNL     1     -11.363  16.516  68.712  1.00  0.00    -0.221 C  
HETATM    5  C   UNL     1     -10.759  16.481  67.517  1.00  0.00    -0.283 C  
HETATM    6  C   UNL     1     -10.405  17.744  66.840  1.00  0.00    -0.344 C  
HETATM    7  C   UNL     1     -10.493  15.147  66.956  1.00  0.00    -0.282 C  
HETATM    8  C   UNL     1     -10.886  13.958  67.746  1.00  0.00    -0.261 A  
HETATM    9  O   UNL     1      -9.949  15.041  65.858  1.00  0.00    -0.285 OA 
HETATM   10  O   UNL     1     -10.633  18.848  67.316  1.00  0.00    -0.417 OA 
HETATM   11  O   UNL     1      -9.803  17.591  65.641  1.00  0.00    -0.543 OA 
HETATM   12  C   UNL     1     -10.595  12.699  67.215  1.00  0.00    -0.244 A  
HETATM   13  C   UNL     1     -10.884  11.562  67.954  1.00  0.00    -0.210 A  
HETATM   14  C   UNL     1     -11.474  11.624  69.226  1.00  0.00    -0.300 A  
HETATM   15  F   UNL     1     -10.577  10.376  67.405  1.00  0.00    -0.239 F  
HETATM   16  F   UNL     1     -12.381  12.988  70.915  1.00  0.00    -0.411 F  
HETATM   17  C   UNL     1     -11.814  12.916  69.699  1.00  0.00    -0.320 A  
HETATM   18  C   UNL     1     -11.516  14.112  69.001  1.00  0.00    -0.285 A  
BRANCH  14  19
HETATM   19  N   UNL     1     -11.623  10.502  70.028  1.00  0.00    -0.288 NA 
HETATM   20  C   UNL     1     -10.552   9.502  70.138  1.00  0.00    -0.254 C  
HETATM   21  C   UNL     1     -10.448   9.044  71.610  1.00  0.00    -0.355 C  
HETATM   22  N   UNL     1     -11.715   8.515  72.148  1.00  0.00    -0.357 NA 
HETATM   23  C   UNL     1     -12.797   9.516  71.975  1.00  0.00    -0.414 C  
HETATM   24  H   UNL     1     -11.623   8.216  73.118  1.00  0.00     0.000 HD 
HETATM   25  C   UNL     1     -12.933  10.037  70.512  1.00  0.00    -0.096 C  
HETATM   26  C   UNL     1     -14.102   8.879  72.450  1.00  0.00    -0.493 C  
ENDBRANCH  14  19
ENDBRANCH   2   3
TORSDOF 2
ENDMDL
MODEL       10
REMARK 921   NORMALIZED FREE ENERGY PREDICTED BY IDOCK:   -7.01 KCAL/MOL
REMARK 922        TOTAL FREE ENERGY PREDICTED BY IDOCK:   -8.37 KCAL/MOL
REMARK 923 INTER-LIGAND FREE ENERGY PREDICTED BY IDOCK:   -7.87 KCAL/MOL
REMARK 924 INTRA-LIGAND FREE ENERGY PREDICTED BY IDOCK:   -0.50 KCAL/MOL
REMARK 927      BINDING AFFINITY PREDICTED BY RF-SCORE:    0.00 PKD
ROOT
HETATM    1  C   UNL     1      -7.736  15.753  69.096  1.00  0.00    -0.220 C  
HETATM    2  C   UNL     1      -8.504  14.636  68.403  1.00  0.00    -0.160 C  
ENDROOT
BRANCH   2   3
HETATM    3  N   UNL     1      -9.244  15.165  67.240  1.00  0.00    -0.193 NA 
HETATM    4  C   UNL     1      -9.403  16.539  67.097  1.00  0.00    -0.233 C  
HETATM    5  C   UNL     1     -10.122  17.171  66.161  1.00  0.00    -0.317 C  
HETATM    6  C   UNL     1     -10.175  18.646  66.154  1.00  0.00    -0.416 C  
HETATM    7  C   UNL     1     -10.827  16.321  65.189  1.00  0.00    -0.318 C  
HETATM    8  C   UNL     1     -10.677  14.851  65.298  1.00  0.00    -0.409 A  
HETATM    9  O   UNL     1     -11.513  16.835  64.307  1.00  0.00    -1.125 OA 
HETATM   10  O   UNL     1      -9.586  19.343  66.969  1.00  0.00    -0.307 OA 
HETATM   11  O   UNL     1     -10.931  19.178  65.170  1.00  0.00    -0.464 OA 
HETATM   12  C   UNL     1     -11.324  14.059  64.346  1.00  0.00    -0.330 A  
HETATM   13  C   UNL     1     -11.154  12.683  64.373  1.00  0.00    -0.345 A  
HETATM   14  C   UNL     1     -10.356  12.045  65.334  1.00  0.00    -0.266 A  
HETATM   15  F   UNL     1     -11.788  11.967  63.431  1.00  0.00    -0.507 F  
HETATM   16  F   UNL     1      -9.006  12.277  67.248  1.00  0.00    -0.162 F  
HETATM   17  C   UNL     1      -9.771  12.878  66.321  1.00  0.00    -0.268 A  
HETATM   18  C   UNL     1      -9.887  14.290  66.326  1.00  0.00    -0.307 A  
BRANCH  14  19
HETATM   19  N   UNL     1     -10.061  10.690  65.271  1.00  0.00    -0.285 NA 
HETATM   20  C   UNL     1      -9.340  10.125  64.122  1.00  0.00    -0.287 C  
HETATM   21  C   UNL     1      -8.323   9.083  64.636  1.00  0.00    -0.172 C  
HETATM   22  N   UNL     1      -8.940   8.014  65.443  1.00  0.00    -0.392 NA 
HETATM   23  C   UNL     1      -9.712   8.606  66.564  1.00  0.00    -0.255 C  
HETATM   24  H   UNL     1      -8.252   7.336  65.769  1.00  0.00     0.000 HD 
HETATM   25  C   UNL     1     -10.737   9.688  66.109  1.00  0.00     0.253 C  
HETATM   26  C   UNL     1     -10.412   7.466  67.302  1.00  0.00    -0.385 C  
ENDBRANCH  14  19
ENDBRANCH   2   3
TORSDOF 2
ENDMDL
MODEL       11
REMARK 921   NORMALIZED FREE ENERGY PREDICTED BY IDOCK:   -6.99 KCAL/MOL
REMARK 922        TOTAL FREE ENERGY PREDICTED BY IDOCK:   -8.35 KCAL/MOL
REMARK 923 INTER-LIGAND FREE ENERGY PREDICTED BY IDOCK:   -7.85 KCAL/MOL
REMARK 924 INTRA-LIGAND FREE ENERGY PREDICTED BY IDOCK:   -0.50 KCAL/MOL
REMARK 927      BINDING AFFINITY PREDICTED BY RF-SCORE:    0.00 PKD
ROOT
HETATM    1  C   UNL     1     -12.160  12.531  65.504  1.00  0.00    -0.481 C  
HETATM    2  C   UNL     1     -10.864  12.614  66.298  1.00  0.00    -0.273 C  
ENDROOT
BRANCH   2   3
HETATM    3  N   UNL     1     -11.134  13.058  67.678  1.00  0.00    -0.257 NA 
HETATM    4  C   UNL     1     -11.618  12.146  68.610  1.00  0.00    -0.321 C  
HETATM    5  C   UNL     1     -12.002  12.406  69.866  1.00  0.00    -0.369 C  
HETATM    6  C   UNL     1     -12.487  11.308  70.724  1.00  0.00    -0.376 C  
HETATM    7  C   UNL     1     -11.912  13.809  70.302  1.00  0.00    -0.326 C  
HETATM    8  C   UNL     1     -11.392  14.813  69.345  1.00  0.00    -0.312 A  
HETATM    9  O   UNL     1     -12.257  14.120  71.441  1.00  0.00    -0.343 OA 
HETATM   10  O   UNL     1     -12.560  10.145  70.349  1.00  0.00    -0.243 OA 
HETATM   11  O   UNL     1     -12.852  11.683  71.968  1.00  0.00    -0.335 OA 
HETATM   12  C   UNL     1     -11.280  16.134  69.787  1.00  0.00    -0.343 A  
HETATM   13  C   UNL     1     -10.735  17.091  68.945  1.00  0.00    -0.300 A  
HETATM   14  C   UNL     1     -10.293  16.786  67.649  1.00  0.00    -0.309 A  
HETATM   15  F   UNL     1     -10.639  18.344  69.419  1.00  0.00    -0.149 F  
HETATM   16  F   UNL     1     -10.068  15.147  65.976  1.00  0.00    -0.250 F  
HETATM   17  C   UNL     1     -10.486  15.450  67.217  1.00  0.00    -0.282 A  
HETATM   18  C   UNL     1     -11.010  14.425  68.042  1.00  0.00    -0.258 A  
BRANCH  14  19
HETATM   19  N   UNL     1      -9.609  17.704  66.864  1.00  0.00    -0.276 NA 
HETATM   20  C   UNL     1     -10.330  18.720  66.085  1.00  0.00    -0.448 C  
HETATM   21  C   UNL     1      -9.561  20.056  66.177  1.00  0.00    -0.373 C  
HETATM   22  N   UNL     1      -8.159  19.954  65.733  1.00  0.00    -0.480 NA 
HETATM   23  C   UNL     1      -7.463  18.884  66.490  1.00  0.00    -0.240 C  
HETATM   24  H   UNL     1      -7.671  20.847  65.799  1.00  0.00     0.000 HD 
HETATM   25  C   UNL     1      -8.208  17.515  66.457  1.00  0.00    -0.276 C  
HETATM   26  C   UNL     1      -6.052  18.751  65.920  1.00  0.00    -0.230 C  
ENDBRANCH  14  19
ENDBRANCH   2   3
TORSDOF 2
ENDMDL
MODEL       12
REMARK 921   NORMALIZED FREE ENERGY PREDICTED BY IDOCK:   -6.99 KCAL/MOL
REMARK 922        TOTAL FREE ENERGY PREDICTED BY IDOCK:   -8.34 KCAL/MOL
REMARK 923 INTER-LIGAND FREE ENERGY PREDICTED BY IDOCK:   -7.77 KCAL/MOL
REMARK 924 INTRA-LIGAND FREE ENERGY PREDICTED BY IDOCK:   -0.57 KCAL/MOL
REMARK 927      BINDING AFFINITY PREDICTED BY RF-SCORE:    0.00 PKD
ROOT
HETATM    1  C   UNL     1      -8.768   9.135  65.122  1.00  0.00    -0.228 C  
HETATM    2  C   UNL     1      -9.687   8.942  66.320  1.00  0.00    -0.275 C  
ENDROOT
BRANCH   2   3
HETATM    3  N   UNL     1     -10.448  10.178  66.588  1.00  0.00    -0.212 NA 
HETATM    4  C   UNL     1     -10.630  11.106  65.568  1.00  0.00    -0.225 C  
HETATM    5  C   UNL     1     -11.206  12.310  65.671  1.00  0.00    -0.375 C  
HETATM    6  C   UNL     1     -11.321  13.168  64.475  1.00  0.00    -0.349 C  
HETATM    7  C   UNL     1     -11.689  12.695  67.006  1.00  0.00    -0.369 C  
HETATM    8  C   UNL     1     -11.526  11.732  68.120  1.00  0.00    -0.382 A  
HETATM    9  O   UNL     1     -12.222  13.791  67.173  1.00  0.00    -0.391 OA 
HETATM   10  O   UNL     1     -10.914  12.838  63.370  1.00  0.00    -0.380 OA 
HETATM   11  O   UNL     1     -11.916  14.361  64.693  1.00  0.00    -0.417 OA 
HETATM   12  C   UNL     1     -12.021  12.099  69.374  1.00  0.00    -0.329 A  
HETATM   13  C   UNL     1     -11.949  11.199  70.426  1.00  0.00    -0.378 A  
HETATM   14  C   UNL     1     -11.384   9.923  70.285  1.00  0.00    -0.291 A  
HETATM   15  F   UNL     1     -12.448  11.594  71.608  1.00  0.00    -0.379 F  
HETATM   16  F   UNL     1     -10.287   8.397  68.868  1.00  0.00    -0.204 F  
HETATM   17  C   UNL     1     -10.834   9.616  69.015  1.00  0.00    -0.183 A  
HETATM   18  C   UNL     1     -10.905  10.483  67.897  1.00  0.00    -0.282 A  
BRANCH  14  19
HETATM   19  N   UNL     1     -11.448   8.968  71.289  1.00  0.00    -0.294 NA 
HETATM   20  C   UNL     1     -12.712   8.290  71.608  1.00  0.00    -0.327 C  
HETATM   21  C   UNL     1     -12.421   6.797  71.881  1.00  0.00    -0.312 C  
HETATM   22  N   UNL     1     -11.428   6.582  72.949  1.00  0.00    -0.474 NA 
HETATM   23  C   UNL     1     -10.180   7.322  72.639  1.00  0.00    -0.212 C  
HETATM   24  H   UNL     1     -11.253   5.592  73.115  1.00  0.00     0.000 HD 
HETATM   25  C   UNL     1     -10.414   8.832  72.327  1.00  0.00    -0.247 C  
HETATM   26  C   UNL     1      -9.229   7.151  73.822  1.00  0.00    -0.253 C  
ENDBRANCH  14  19
ENDBRANCH   2   3
TORSDOF 2
ENDMDL
MODEL       13
REMARK 921   NORMALIZED FREE ENERGY PREDICTED BY IDOCK:   -6.94 KCAL/MOL
REMARK 922        TOTAL FREE ENERGY PREDICTED BY IDOCK:   -8.29 KCAL/MOL
REMARK 923 INTER-LIGAND FREE ENERGY PREDICTED BY IDOCK:   -7.86 KCAL/MOL
REMARK 924 INTRA-LIGAND FREE ENERGY PREDICTED BY IDOCK:   -0.43 KCAL/MOL
REMARK 927      BINDING AFFINITY PREDICTED BY RF-SCORE:    0.00 PKD
ROOT
HETATM    1  C   UNL     1     -10.713   6.660  66.858  1.00  0.00    -0.401 C  
HETATM    2  C   UNL     1     -10.043   8.003  67.110  1.00  0.00    -0.263 C  
ENDROOT
BRANCH   2   3
HETATM    3  N   UNL     1     -10.505   8.576  68.389  1.00  0.00    -0.200 NA 
HETATM    4  C   UNL     1     -10.559   7.771  69.521  1.00  0.00    -0.221 C  
HETATM    5  C   UNL     1     -11.041   8.107  70.724  1.00  0.00    -0.275 C  
HETATM    6  C   UNL     1     -11.013   7.121  71.823  1.00  0.00    -0.229 C  
HETATM    7  C   UNL     1     -11.580   9.469  70.858  1.00  0.00    -0.326 C  
HETATM    8  C   UNL     1     -11.533  10.365  69.680  1.00  0.00    -0.326 A  
HETATM    9  O   UNL     1     -12.046   9.841  71.934  1.00  0.00    -0.375 OA 
HETATM   10  O   UNL     1     -10.564   5.990  71.698  1.00  0.00    -0.220 OA 
HETATM   11  O   UNL     1     -11.527   7.564  72.990  1.00  0.00    -0.312 OA 
HETATM   12  C   UNL     1     -12.016  11.667  69.833  1.00  0.00    -0.414 A  
HETATM   13  C   UNL     1     -11.928  12.558  68.775  1.00  0.00    -0.238 A  
HETATM   14  C   UNL     1     -11.375  12.199  67.537  1.00  0.00    -0.326 A  
HETATM   15  F   UNL     1     -12.397  13.800  68.975  1.00  0.00    -0.379 F  
HETATM   16  F   UNL     1     -10.427  10.495  66.219  1.00  0.00    -0.287 F  
HETATM   17  C   UNL     1     -10.957  10.851  67.402  1.00  0.00    -0.293 A  
HETATM   18  C   UNL     1     -10.996   9.907  68.456  1.00  0.00    -0.180 A  
BRANCH  14  19
HETATM   19  N   UNL     1     -11.145  13.126  66.531  1.00  0.00    -0.289 NA 
HETATM   20  C   UNL     1     -11.794  12.996  65.219  1.00  0.00    -0.376 C  
HETATM   21  C   UNL     1     -12.235  14.397  64.740  1.00  0.00    -0.446 C  
HETATM   22  N   UNL     1     -11.128  15.369  64.682  1.00  0.00    -0.646 NA 
HETATM   23  C   UNL     1     -10.448  15.444  65.998  1.00  0.00    -0.321 C  
HETATM   24  H   UNL     1     -11.440  16.285  64.360  1.00  0.00     0.000 HD 
HETATM   25  C   UNL     1     -10.003  14.055  66.548  1.00  0.00    -0.284 C  
HETATM   26  C   UNL     1      -9.251  16.381  65.853  1.00  0.00    -0.234 C  
ENDBRANCH  14  19
ENDBRANCH   2   3
TORSDOF 2
ENDMDL
MODEL       14
REMARK 921   NORMALIZED FREE ENERGY PREDICTED BY IDOCK:   -6.88 KCAL/MOL
REMARK 922        TOTAL FREE ENERGY PREDICTED BY IDOCK:   -8.22 KCAL/MOL
REMARK 923 INTER-LIGAND FREE ENERGY PREDICTED BY IDOCK:   -7.62 KCAL/MOL
REMARK 924 INTRA-LIGAND FREE ENERGY PREDICTED BY IDOCK:   -0.60 KCAL/MOL
REMARK 927      BINDING AFFINITY PREDICTED BY RF-SCORE:    0.00 PKD
ROOT
HETATM    1  C   UNL     1      -9.576   9.902  69.415  1.00  0.00    -0.229 C  
HETATM    2  C   UNL     1     -10.981  10.390  69.094  1.00  0.00    -0.241 C  
ENDROOT
BRANCH   2   3
HETATM    3  N   UNL     1     -10.951  11.342  67.968  1.00  0.00    -0.219 NA 
HETATM    4  C   UNL     1     -10.557  10.902  66.708  1.00  0.00    -0.259 C  
HETATM    5  C   UNL     1     -10.383  11.653  65.613  1.00  0.00    -0.306 C  
HETATM    6  C   UNL     1      -9.966  11.014  64.349  1.00  0.00    -0.312 C  
HETATM    7  C   UNL     1     -10.624  13.096  65.761  1.00  0.00    -0.282 C  
HETATM    8  C   UNL     1     -11.055  13.608  67.083  1.00  0.00    -0.311 A  
HETATM    9  O   UNL     1     -10.475  13.845  64.797  1.00  0.00    -0.408 OA 
HETATM   10  O   UNL     1      -9.767   9.811  64.239  1.00  0.00    -0.179 OA 
HETATM   11  O   UNL     1      -9.817  11.863  63.310  1.00  0.00    -0.407 OA 
HETATM   12  C   UNL     1     -11.314  14.976  67.198  1.00  0.00    -0.323 A  
HETATM   13  C   UNL     1     -11.784  15.483  68.399  1.00  0.00    -0.309 A  
HETATM   14  C   UNL     1     -12.005  14.671  69.521  1.00  0.00    -0.319 A  
HETATM   15  F   UNL     1     -12.027  16.802  68.456  1.00  0.00    -0.043 F  
HETATM   16  F   UNL     1     -11.874  12.514  70.452  1.00  0.00    -0.398 F  
HETATM   17  C   UNL     1     -11.668  13.301  69.382  1.00  0.00    -0.325 A  
HETATM   18  C   UNL     1     -11.212  12.723  68.173  1.00  0.00    -0.272 A  
BRANCH  14  19
HETATM   19  N   UNL     1     -12.618  15.147  70.671  1.00  0.00    -0.370 NA 
HETATM   20  C   UNL     1     -14.075  15.057  70.845  1.00  0.00    -0.085 C  
HETATM   21  C   UNL     1     -14.378  14.662  72.307  1.00  0.00    -0.415 C  
HETATM   22  N   UNL     1     -13.790  15.585  73.295  1.00  0.00    -0.595 NA 
HETATM   23  C   UNL     1     -12.329  15.709  73.067  1.00  0.00    -0.463 C  
HETATM   24  H   UNL     1     -14.005  15.308  74.252  1.00  0.00     0.000 HD 
HETATM   25  C   UNL     1     -11.959  16.079  71.599  1.00  0.00    -0.499 C  
HETATM   26  C   UNL     1     -11.790  16.752  74.045  1.00  0.00    -0.056 C  
ENDBRANCH  14  19
ENDBRANCH   2   3
TORSDOF 2
ENDMDL
MODEL       15
REMARK 921   NORMALIZED FREE ENERGY PREDICTED BY IDOCK:   -6.85 KCAL/MOL
REMARK 922        TOTAL FREE ENERGY PREDICTED BY IDOCK:   -8.18 KCAL/MOL
REMARK 923 INTER-LIGAND FREE ENERGY PREDICTED BY IDOCK:   -7.62 KCAL/MOL
REMARK 924 INTRA-LIGAND FREE ENERGY PREDICTED BY IDOCK:   -0.56 KCAL/MOL
REMARK 927      BINDING AFFINITY PREDICTED BY RF-SCORE:    0.00 PKD
ROOT
HETATM    1  C   UNL     1     -10.633  19.833  66.892  1.00  0.00    -0.588 C  
HETATM    2  C   UNL     1      -9.421  19.136  66.292  1.00  0.00    -0.326 C  
ENDROOT
BRANCH   2   3
HETATM    3  N   UNL     1      -8.634  18.471  67.349  1.00  0.00    -0.256 NA 
HETATM    4  C   UNL     1      -7.781  19.226  68.146  1.00  0.00    -0.297 C  
HETATM    5  C   UNL     1      -6.933  18.767  69.075  1.00  0.00    -0.323 C  
HETATM    6  C   UNL     1      -6.101  19.718  69.838  1.00  0.00    -0.321 C  
HETATM    7  C   UNL     1      -6.894  17.308  69.265  1.00  0.00    -0.208 C  
HETATM    8  C   UNL     1      -7.795  16.466  68.444  1.00  0.00    -0.176 A  
HETATM    9  O   UNL     1      -6.132  16.818  70.096  1.00  0.00    -0.203 OA 
HETATM   10  O   UNL     1      -6.141  20.929  69.669  1.00  0.00    -0.310 OA 
HETATM   11  O   UNL     1      -5.281  19.147  70.746  1.00  0.00    -0.203 OA 
HETATM   12  C   UNL     1      -7.771  15.086  68.661  1.00  0.00    -0.128 A  
HETATM   13  C   UNL     1      -8.646  14.269  67.962  1.00  0.00    -0.169 A  
HETATM   14  C   UNL     1      -9.561  14.777  67.026  1.00  0.00    -0.241 A  
HETATM   15  F   UNL     1      -8.592  12.952  68.212  1.00  0.00    -0.166 F  
HETATM   16  F   UNL     1     -10.377  16.671  65.892  1.00  0.00    -0.310 F  
HETATM   17  C   UNL     1      -9.506  16.173  66.788  1.00  0.00    -0.238 A  
HETATM   18  C   UNL     1      -8.654  17.058  67.493  1.00  0.00    -0.205 A  
BRANCH  14  19
HETATM   19  N   UNL     1     -10.538  13.986  66.441  1.00  0.00    -0.278 NA 
HETATM   20  C   UNL     1     -11.898  13.928  66.995  1.00  0.00    -0.415 C  
HETATM   21  C   UNL     1     -12.911  13.920  65.829  1.00  0.00    -0.391 C  
HETATM   22  N   UNL     1     -12.690  12.821  64.872  1.00  0.00    -0.748 NA 
HETATM   23  C   UNL     1     -11.295  12.860  64.367  1.00  0.00    -0.358 C  
HETATM   24  H   UNL     1     -13.371  12.832  64.113  1.00  0.00     0.000 HD 
HETATM   25  C   UNL     1     -10.225  12.898  65.501  1.00  0.00    -0.287 C  
HETATM   26  C   UNL     1     -11.091  11.644  63.465  1.00  0.00    -0.476 C  
ENDBRANCH  14  19
ENDBRANCH   2   3
TORSDOF 2
ENDMDL
MODEL       16
REMARK 921   NORMALIZED FREE ENERGY PREDICTED BY IDOCK:   -6.84 KCAL/MOL
REMARK 922        TOTAL FREE ENERGY PREDICTED BY IDOCK:   -8.18 KCAL/MOL
REMARK 923 INTER-LIGAND FREE ENERGY PREDICTED BY IDOCK:   -7.63 KCAL/MOL
REMARK 924 INTRA-LIGAND FREE ENERGY PREDICTED BY IDOCK:   -0.55 KCAL/MOL
REMARK 927      BINDING AFFINITY PREDICTED BY RF-SCORE:    0.00 PKD
ROOT
HETATM    1  C   UNL     1     -10.661   9.518  67.659  1.00  0.00    -0.329 C  
HETATM    2  C   UNL     1     -11.155  10.957  67.656  1.00  0.00    -0.313 C  
ENDROOT
BRANCH   2   3
HETATM    3  N   UNL     1     -11.678  11.324  68.986  1.00  0.00    -0.314 NA 
HETATM    4  C   UNL     1     -12.287  10.354  69.775  1.00  0.00    -0.053 C  
HETATM    5  C   UNL     1     -12.895  10.541  70.954  1.00  0.00    -0.485 C  
HETATM    6  C   UNL     1     -13.485   9.388  71.661  1.00  0.00    -0.394 C  
HETATM    7  C   UNL     1     -12.931  11.921  71.461  1.00  0.00    -0.323 C  
HETATM    8  C   UNL     1     -12.286  12.986  70.658  1.00  0.00    -0.390 A  
HETATM    9  O   UNL     1     -13.481  12.166  72.534  1.00  0.00    -0.313 OA 
HETATM   10  O   UNL     1     -13.450   8.244  71.227  1.00  0.00    -0.239 OA 
HETATM   11  O   UNL     1     -14.074   9.690  72.838  1.00  0.00    -0.192 OA 
HETATM   12  C   UNL     1     -12.298  14.285  71.171  1.00  0.00    -0.440 A  
HETATM   13  C   UNL     1     -11.646  15.297  70.484  1.00  0.00    -0.306 A  
HETATM   14  C   UNL     1     -10.974  15.070  69.274  1.00  0.00    -0.264 A  
HETATM   15  F   UNL     1     -11.679  16.526  71.022  1.00  0.00    -0.400 F  
HETATM   16  F   UNL     1     -10.403  13.523  67.594  1.00  0.00    -0.228 F  
HETATM   17  C   UNL     1     -11.042  13.752  68.755  1.00  0.00    -0.266 A  
HETATM   18  C   UNL     1     -11.668  12.674  69.427  1.00  0.00    -0.325 A  
BRANCH  14  19
HETATM   19  N   UNL     1     -10.195  16.042  68.665  1.00  0.00    -0.223 NA 
HETATM   20  C   UNL     1      -8.759  16.155  68.957  1.00  0.00    -0.254 C  
HETATM   21  C   UNL     1      -8.005  16.454  67.643  1.00  0.00    -0.149 C  
HETATM   22  N   UNL     1      -8.494  17.661  66.951  1.00  0.00    -0.232 NA 
HETATM   23  C   UNL     1      -9.955  17.555  66.717  1.00  0.00    -0.313 C  
HETATM   24  H   UNL     1      -7.981  17.842  66.089  1.00  0.00     0.000 HD 
HETATM   25  C   UNL     1     -10.769  17.226  68.005  1.00  0.00    -0.367 C  
HETATM   26  C   UNL     1     -10.425  18.870  66.096  1.00  0.00    -0.521 C  
ENDBRANCH  14  19
ENDBRANCH   2   3
TORSDOF 2
ENDMDL
MODEL       17
REMARK 921   NORMALIZED FREE ENERGY PREDICTED BY IDOCK:   -6.79 KCAL/MOL
REMARK 922        TOTAL FREE ENERGY PREDICTED BY IDOCK:   -8.12 KCAL/MOL
REMARK 923 INTER-LIGAND FREE ENERGY PREDICTED BY IDOCK:   -7.54 KCAL/MOL
REMARK 924 INTRA-LIGAND FREE ENERGY PREDICTED BY IDOCK:   -0.57 KCAL/MOL
REMARK 927      BINDING AFFINITY PREDICTED BY RF-SCORE:    0.00 PKD
ROOT
HETATM    1  C   UNL     1     -12.655  11.980  63.410  1.00  0.00    -0.592 C  
HETATM    2  C   UNL     1     -11.154  11.871  63.638  1.00  0.00    -0.440 C  
ENDROOT
BRANCH   2   3
HETATM    3  N   UNL     1     -10.734  12.764  64.735  1.00  0.00    -0.300 NA 
HETATM    4  C   UNL     1     -10.897  14.138  64.600  1.00  0.00    -0.386 C  
HETATM    5  C   UNL     1     -10.483  15.084  65.453  1.00  0.00    -0.406 C  
HETATM    6  C   UNL     1     -10.749  16.505  65.152  1.00  0.00    -0.244 C  
HETATM    7  C   UNL     1      -9.772  14.619  66.653  1.00  0.00    -0.270 C  
HETATM    8  C   UNL     1      -9.584  13.162  66.843  1.00  0.00    -0.248 A  
HETATM    9  O   UNL     1      -9.357  15.435  67.475  1.00  0.00    -0.201 OA 
HETATM   10  O   UNL     1     -11.340  16.879  64.148  1.00  0.00    -1.208 OA 
HETATM   11  O   UNL     1     -10.286  17.373  66.077  1.00  0.00    -0.420 OA 
HETATM   12  C   UNL     1      -8.938  12.735  68.006  1.00  0.00    -0.196 A  
HETATM   13  C   UNL     1      -8.804  11.378  68.254  1.00  0.00    -0.167 A  
HETATM   14  C   UNL     1      -9.288  10.402  67.369  1.00  0.00    -0.145 A  
HETATM   15  F   UNL     1      -8.184  11.018  69.389  1.00  0.00    -0.129 F  
HETATM   16  F   UNL     1     -10.343   9.952  65.315  1.00  0.00    -0.378 F  
HETATM   17  C   UNL     1      -9.877  10.878  66.171  1.00  0.00    -0.222 A  
HETATM   18  C   UNL     1     -10.067  12.250  65.879  1.00  0.00    -0.251 A  
BRANCH  14  19
HETATM   19  N   UNL     1      -9.292   9.052  67.686  1.00  0.00    -0.135 NA 
HETATM   20  C   UNL     1      -8.224   8.160  67.211  1.00  0.00    -0.121 C  
HETATM   21  C   UNL     1      -7.852   7.182  68.347  1.00  0.00    -0.122 C  
HETATM   22  N   UNL     1      -9.000   6.403  68.847  1.00  0.00    -0.124 NA 
HETATM   23  C   UNL     1     -10.090   7.319  69.267  1.00  0.00    -0.183 C  
HETATM   24  H   UNL     1      -8.731   5.762  69.593  1.00  0.00     0.000 HD 
HETATM   25  C   UNL     1     -10.491   8.350  68.169  1.00  0.00    -0.174 C  
HETATM   26  C   UNL     1     -11.287   6.463  69.675  1.00  0.00    -0.479 C  
ENDBRANCH  14  19
ENDBRANCH   2   3
TORSDOF 2
ENDMDL
MODEL       18
REMARK 921   NORMALIZED FREE ENERGY PREDICTED BY IDOCK:   -6.78 KCAL/MOL
REMARK 922        TOTAL FREE ENERGY PREDICTED BY IDOCK:   -8.11 KCAL/MOL
REMARK 923 INTER-LIGAND FREE ENERGY PREDICTED BY IDOCK:   -7.69 KCAL/MOL
REMARK 924 INTRA-LIGAND FREE ENERGY PREDICTED BY IDOCK:   -0.42 KCAL/MOL
REMARK 927      BINDING AFFINITY PREDICTED BY RF-SCORE:    0.00 PKD
ROOT
HETATM    1  C   UNL     1      -7.446  16.162  69.290  1.00  0.00    -0.222 C  
HETATM    2  C   UNL     1      -8.799  15.495  69.088  1.00  0.00    -0.253 C  
ENDROOT
BRANCH   2   3
HETATM    3  N   UNL     1      -9.381  15.894  67.792  1.00  0.00    -0.206 NA 
HETATM    4  C   UNL     1      -9.599  17.241  67.525  1.00  0.00    -0.259 C  
HETATM    5  C   UNL     1     -10.203  17.760  66.448  1.00  0.00    -0.365 C  
HETATM    6  C   UNL     1     -10.343  19.224  66.324  1.00  0.00    -0.480 C  
HETATM    7  C   UNL     1     -10.696  16.801  65.447  1.00  0.00    -0.189 C  
HETATM    8  C   UNL     1     -10.477  15.356  65.686  1.00  0.00    -0.391 A  
HETATM    9  O   UNL     1     -11.268  17.209  64.437  1.00  0.00    -1.143 OA 
HETATM   10  O   UNL     1      -9.930  20.012  67.164  1.00  0.00    -0.386 OA 
HETATM   11  O   UNL     1     -10.969  19.637  65.201  1.00  0.00    -0.373 OA 
HETATM   12  C   UNL     1     -10.920  14.461  64.709  1.00  0.00    -0.409 A  
HETATM   13  C   UNL     1     -10.673  13.105  64.863  1.00  0.00    -0.346 A  
HETATM   14  C   UNL     1      -9.996  12.588  65.977  1.00  0.00    -0.257 A  
HETATM   15  F   UNL     1     -11.110  12.287  63.892  1.00  0.00    -0.329 F  
HETATM   16  F   UNL     1      -8.974  13.037  68.049  1.00  0.00    -0.168 F  
HETATM   17  C   UNL     1      -9.622  13.522  66.975  1.00  0.00    -0.248 A  
HETATM   18  C   UNL     1      -9.822  14.919  66.859  1.00  0.00    -0.240 A  
BRANCH  14  19
HETATM   19  N   UNL     1      -9.613  11.257  66.059  1.00  0.00    -0.210 NA 
HETATM   20  C   UNL     1     -10.086  10.399  67.155  1.00  0.00    -0.208 C  
HETATM   21  C   UNL     1     -10.426   9.005  66.585  1.00  0.00    -0.165 C  
HETATM   22  N   UNL     1      -9.299   8.373  65.876  1.00  0.00    -0.387 NA 
HETATM   23  C   UNL     1      -8.797   9.277  64.812  1.00  0.00    -0.185 C  
HETATM   24  H   UNL     1      -9.544   7.453  65.512  1.00  0.00     0.000 HD 
HETATM   25  C   UNL     1      -8.462  10.711  65.323  1.00  0.00    -0.150 C  
HETATM   26  C   UNL     1      -7.569   8.621  64.183  1.00  0.00    -0.121 C  
ENDBRANCH  14  19
ENDBRANCH   2   3
TORSDOF 2
ENDMDL
MODEL       19
REMARK 921   NORMALIZED FREE ENERGY PREDICTED BY IDOCK:   -6.77 KCAL/MOL
REMARK 922        TOTAL FREE ENERGY PREDICTED BY IDOCK:   -8.10 KCAL/MOL
REMARK 923 INTER-LIGAND FREE ENERGY PREDICTED BY IDOCK:   -7.57 KCAL/MOL
REMARK 924 INTRA-LIGAND FREE ENERGY PREDICTED BY IDOCK:   -0.53 KCAL/MOL
REMARK 927      BINDING AFFINITY PREDICTED BY RF-SCORE:    0.00 PKD
ROOT
HETATM    1  C   UNL     1     -10.302   9.180  67.032  1.00  0.00    -0.333 C  
HETATM    2  C   UNL     1      -9.543  10.084  67.993  1.00  0.00    -0.138 C  
ENDROOT
BRANCH   2   3
HETATM    3  N   UNL     1     -10.443  10.579  69.053  1.00  0.00    -0.203 NA 
HETATM    4  C   UNL     1     -10.974   9.684  69.975  1.00  0.00    -0.260 C  
HETATM    5  C   UNL     1     -11.873   9.952  70.930  1.00  0.00    -0.443 C  
HETATM    6  C   UNL     1     -12.324   8.874  71.831  1.00  0.00    -0.376 C  
HETATM    7  C   UNL     1     -12.358  11.339  71.003  1.00  0.00    -0.366 C  
HETATM    8  C   UNL     1     -11.812  12.329  70.047  1.00  0.00    -0.372 A  
HETATM    9  O   UNL     1     -13.192  11.653  71.851  1.00  0.00    -0.485 OA 
HETATM   10  O   UNL     1     -11.915   7.723  71.759  1.00  0.00    -0.275 OA 
HETATM   11  O   UNL     1     -13.234   9.254  72.754  1.00  0.00    -0.354 OA 
HETATM   12  C   UNL     1     -12.256  13.649  70.152  1.00  0.00    -0.413 A  
HETATM   13  C   UNL     1     -11.719  14.620  69.321  1.00  0.00    -0.312 A  
HETATM   14  C   UNL     1     -10.741  14.325  68.359  1.00  0.00    -0.251 A  
HETATM   15  F   UNL     1     -12.171  15.875  69.468  1.00  0.00    -0.358 F  
HETATM   16  F   UNL     1      -9.431  12.669  67.319  1.00  0.00    -0.182 F  
HETATM   17  C   UNL     1     -10.366  12.963  68.239  1.00  0.00    -0.244 A  
HETATM   18  C   UNL     1     -10.860  11.936  69.080  1.00  0.00    -0.190 A  
BRANCH  14  19
HETATM   19  N   UNL     1     -10.093  15.315  67.634  1.00  0.00    -0.234 NA 
HETATM   20  C   UNL     1     -10.308  15.458  66.187  1.00  0.00    -0.313 C  
HETATM   21  C   UNL     1     -10.397  16.961  65.843  1.00  0.00    -0.315 C  
HETATM   22  N   UNL     1      -9.215  17.729  66.275  1.00  0.00    -0.440 NA 
HETATM   23  C   UNL     1      -8.978  17.526  67.725  1.00  0.00    -0.245 C  
HETATM   24  H   UNL     1      -9.293  18.717  66.035  1.00  0.00     0.000 HD 
HETATM   25  C   UNL     1      -8.907  16.025  68.139  1.00  0.00    -0.178 C  
HETATM   26  C   UNL     1      -7.688  18.256  68.095  1.00  0.00    -0.288 C  
ENDBRANCH  14  19
ENDBRANCH   2   3
TORSDOF 2
ENDMDL
MODEL       20
REMARK 921   NORMALIZED FREE ENERGY PREDICTED BY IDOCK:   -6.77 KCAL/MOL
REMARK 922        TOTAL FREE ENERGY PREDICTED BY IDOCK:   -8.09 KCAL/MOL
REMARK 923 INTER-LIGAND FREE ENERGY PREDICTED BY IDOCK:   -7.66 KCAL/MOL
REMARK 924 INTRA-LIGAND FREE ENERGY PREDICTED BY IDOCK:   -0.43 KCAL/MOL
REMARK 927      BINDING AFFINITY PREDICTED BY RF-SCORE:    0.00 PKD
ROOT
HETATM    1  C   UNL     1     -11.662   9.847  71.213  1.00  0.00    -0.472 C  
HETATM    2  C   UNL     1     -12.594  10.565  70.248  1.00  0.00    -0.235 C  
ENDROOT
BRANCH   2   3
HETATM    3  N   UNL     1     -12.217  11.987  70.131  1.00  0.00    -0.267 NA 
HETATM    4  C   UNL     1     -12.432  12.844  71.204  1.00  0.00    -0.249 C  
HETATM    5  C   UNL     1     -12.238  14.169  71.227  1.00  0.00    -0.419 C  
HETATM    6  C   UNL     1     -12.513  14.927  72.463  1.00  0.00    -0.346 C  
HETATM    7  C   UNL     1     -11.755  14.782  69.980  1.00  0.00    -0.295 C  
HETATM    8  C   UNL     1     -11.502  13.905  68.814  1.00  0.00    -0.327 A  
HETATM    9  O   UNL     1     -11.563  15.996  69.928  1.00  0.00    -0.324 OA 
HETATM   10  O   UNL     1     -12.917  14.405  73.494  1.00  0.00    -0.514 OA 
HETATM   11  O   UNL     1     -12.286  16.254  72.374  1.00  0.00    -0.464 OA 
HETATM   12  C   UNL     1     -11.010  14.498  67.648  1.00  0.00    -0.293 A  
HETATM   13  C   UNL     1     -10.696  13.703  66.557  1.00  0.00    -0.284 A  
HETATM   14  C   UNL     1     -10.863  12.310  66.571  1.00  0.00    -0.259 A  
HETATM   15  F   UNL     1     -10.218  14.319  65.464  1.00  0.00    -0.297 F  
HETATM   16  F   UNL     1     -11.592  10.423  67.773  1.00  0.00    -0.383 F  
HETATM   17  C   UNL     1     -11.426  11.756  67.749  1.00  0.00    -0.311 A  
HETATM   18  C   UNL     1     -11.738  12.515  68.903  1.00  0.00    -0.322 A  
BRANCH  14  19
HETATM   19  N   UNL     1     -10.408  11.499  65.542  1.00  0.00    -0.263 NA 
HETATM   20  C   UNL     1     -11.155  11.383  64.282  1.00  0.00    -0.285 C  
HETATM   21  C   UNL     1     -10.152  11.365  63.108  1.00  0.00    -0.352 C  
HETATM   22  N   UNL     1      -9.144  10.296  63.218  1.00  0.00    -0.238 NA 
HETATM   23  C   UNL     1      -8.440  10.393  64.520  1.00  0.00    -0.169 C  
HETATM   24  H   UNL     1      -8.495  10.300  62.431  1.00  0.00     0.000 HD 
HETATM   25  C   UNL     1      -9.403  10.443  65.745  1.00  0.00    -0.186 C  
HETATM   26  C   UNL     1      -7.485   9.205  64.625  1.00  0.00    -0.104 C  
ENDBRANCH  14  19
ENDBRANCH   2   3
TORSDOF 2
ENDMDL
MODEL       21
REMARK 921   NORMALIZED FREE ENERGY PREDICTED BY IDOCK:   -6.57 KCAL/MOL
REMARK 922        TOTAL FREE ENERGY PREDICTED BY IDOCK:   -7.88 KCAL/MOL
REMARK 923 INTER-LIGAND FREE ENERGY PREDICTED BY IDOCK:   -7.22 KCAL/MOL
REMARK 924 INTRA-LIGAND FREE ENERGY PREDICTED BY IDOCK:   -0.66 KCAL/MOL
REMARK 927      BINDING AFFINITY PREDICTED BY RF-SCORE:    0.00 PKD
ROOT
HETATM    1  C   UNL     1     -14.154   9.044  71.915  1.00  0.00    -0.404 C  
HETATM    2  C   UNL     1     -12.729   9.525  72.148  1.00  0.00    -0.362 C  
ENDROOT
BRANCH   2   3
HETATM    3  N   UNL     1     -12.464  10.746  71.362  1.00  0.00    -0.378 NA 
HETATM    4  C   UNL     1     -12.924  11.973  71.826  1.00  0.00    -0.340 C  
HETATM    5  C   UNL     1     -12.853  13.151  71.193  1.00  0.00    -0.349 C  
HETATM    6  C   UNL     1     -13.390  14.363  71.841  1.00  0.00    -0.374 C  
HETATM    7  C   UNL     1     -12.231  13.141  69.860  1.00  0.00    -0.225 C  
HETATM    8  C   UNL     1     -11.717  11.857  69.329  1.00  0.00    -0.389 A  
HETATM    9  O   UNL     1     -12.140  14.187  69.218  1.00  0.00    -0.326 OA 
HETATM   10  O   UNL     1     -13.908  14.357  72.950  1.00  0.00    -0.589 OA 
HETATM   11  O   UNL     1     -13.269  15.493  71.113  1.00  0.00    -0.491 OA 
HETATM   12  C   UNL     1     -11.097  11.872  68.077  1.00  0.00    -0.293 A  
HETATM   13  C   UNL     1     -10.542  10.705  67.576  1.00  0.00    -0.252 A  
HETATM   14  C   UNL     1     -10.586   9.491  68.279  1.00  0.00    -0.216 A  
HETATM   15  F   UNL     1      -9.950  10.772  66.373  1.00  0.00    -0.219 F  
HETATM   16  F   UNL     1     -11.331   8.347  70.196  1.00  0.00    -0.256 F  
HETATM   17  C   UNL     1     -11.281   9.505  69.514  1.00  0.00    -0.074 A  
HETATM   18  C   UNL     1     -11.841  10.672  70.088  1.00  0.00    -0.337 A  
BRANCH  14  19
HETATM   19  N   UNL     1      -9.901   8.363  67.852  1.00  0.00    -0.162 NA 
HETATM   20  C   UNL     1      -8.450   8.238  68.050  1.00  0.00    -0.132 C  
HETATM   21  C   UNL     1      -8.128   6.787  68.469  1.00  0.00    -0.120 C  
HETATM   22  N   UNL     1      -8.614   5.780  67.508  1.00  0.00    -0.106 NA 
HETATM   23  C   UNL     1     -10.068   5.958  67.276  1.00  0.00    -0.174 C  
HETATM   24  H   UNL     1      -8.387   4.830  67.802  1.00  0.00     0.000 HD 
HETATM   25  C   UNL     1     -10.459   7.413  66.876  1.00  0.00    -0.309 C  
HETATM   26  C   UNL     1     -10.495   4.963  66.199  1.00  0.00    -0.346 C  
ENDBRANCH  14  19
ENDBRANCH   2   3
TORSDOF 2
ENDMDL
MODEL       22
REMARK 921   NORMALIZED FREE ENERGY PREDICTED BY IDOCK:   -6.55 KCAL/MOL
REMARK 922        TOTAL FREE ENERGY PREDICTED BY IDOCK:   -7.85 KCAL/MOL
REMARK 923 INTER-LIGAND FREE ENERGY PREDICTED BY IDOCK:   -7.35 KCAL/MOL
REMARK 924 INTRA-LIGAND FREE ENERGY PREDICTED BY IDOCK:   -0.50 KCAL/MOL
REMARK 927      BINDING AFFINITY PREDICTED BY RF-SCORE:    0.00 PKD
ROOT
HETATM    1  C   UNL     1     -11.516  12.814  63.808  1.00  0.00    -0.533 C  
HETATM    2  C   UNL     1     -10.205  13.068  64.538  1.00  0.00    -0.308 C  
ENDROOT
BRANCH   2   3
HETATM    3  N   UNL     1     -10.373  12.852  65.988  1.00  0.00    -0.277 NA 
HETATM    4  C   UNL     1     -10.563  11.561  66.470  1.00  0.00    -0.258 C  
HETATM    5  C   UNL     1     -10.825  11.206  67.735  1.00  0.00    -0.288 C  
HETATM    6  C   UNL     1     -10.992   9.779  68.073  1.00  0.00    -0.180 C  
HETATM    7  C   UNL     1     -10.934  12.299  68.714  1.00  0.00    -0.236 C  
HETATM    8  C   UNL     1     -10.728  13.689  68.245  1.00  0.00    -0.266 A  
HETATM    9  O   UNL     1     -11.181  12.045  69.891  1.00  0.00    -0.120 OA 
HETATM   10  O   UNL     1     -10.901   8.879  67.248  1.00  0.00    -0.216 OA 
HETATM   11  O   UNL     1     -11.257   9.535  69.374  1.00  0.00    -0.163 OA 
HETATM   12  C   UNL     1     -10.800  14.712  69.194  1.00  0.00    -0.269 A  
HETATM   13  C   UNL     1     -10.547  16.020  68.809  1.00  0.00    -0.262 A  
HETATM   14  C   UNL     1     -10.226  16.364  67.487  1.00  0.00    -0.273 A  
HETATM   15  F   UNL     1     -10.618  16.965  69.759  1.00  0.00    -0.300 F  
HETATM   16  F   UNL     1      -9.925  15.624  65.274  1.00  0.00    -0.346 F  
HETATM   17  C   UNL     1     -10.229  15.306  66.544  1.00  0.00    -0.275 A  
HETATM   18  C   UNL     1     -10.451  13.949  66.885  1.00  0.00    -0.276 A  
BRANCH  14  19
HETATM   19  N   UNL     1      -9.823  17.643  67.132  1.00  0.00    -0.295 NA 
HETATM   20  C   UNL     1     -10.628  18.462  66.215  1.00  0.00    -0.311 C  
HETATM   21  C   UNL     1     -10.635  19.920  66.726  1.00  0.00    -0.414 C  
HETATM   22  N   UNL     1      -9.284  20.488  66.887  1.00  0.00    -0.592 NA 
HETATM   23  C   UNL     1      -8.468  19.617  67.768  1.00  0.00    -0.318 C  
HETATM   24  H   UNL     1      -9.312  21.451  67.221  1.00  0.00     0.000 HD 
HETATM   25  C   UNL     1      -8.445  18.125  67.318  1.00  0.00    -0.242 C  
HETATM   26  C   UNL     1      -7.054  20.194  67.815  1.00  0.00    -0.330 C  
ENDBRANCH  14  19
ENDBRANCH   2   3
TORSDOF 2
ENDMDL
MODEL       23
REMARK 921   NORMALIZED FREE ENERGY PREDICTED BY IDOCK:   -6.54 KCAL/MOL
REMARK 922        TOTAL FREE ENERGY PREDICTED BY IDOCK:   -7.84 KCAL/MOL
REMARK 923 INTER-LIGAND FREE ENERGY PREDICTED BY IDOCK:   -7.30 KCAL/MOL
REMARK 924 INTRA-LIGAND FREE ENERGY PREDICTED BY IDOCK:   -0.54 KCAL/MOL
REMARK 927      BINDING AFFINITY PREDICTED BY RF-SCORE:    0.00 PKD
ROOT
HETATM    1  C   UNL     1     -11.392  15.061  69.800  1.00  0.00    -0.310 C  
HETATM    2  C   UNL     1     -12.209  13.803  69.544  1.00  0.00    -0.293 C  
ENDROOT
BRANCH   2   3
HETATM    3  N   UNL     1     -11.628  13.032  68.428  1.00  0.00    -0.312 NA 
HETATM    4  C   UNL     1     -11.425  13.651  67.199  1.00  0.00    -0.342 C  
HETATM    5  C   UNL     1     -11.003  13.073  66.067  1.00  0.00    -0.296 C  
HETATM    6  C   UNL     1     -10.835  13.890  64.849  1.00  0.00    -0.405 C  
HETATM    7  C   UNL     1     -10.736  11.628  66.129  1.00  0.00    -0.278 C  
HETATM    8  C   UNL     1     -10.929  10.929  67.420  1.00  0.00    -0.353 A  
HETATM    9  O   UNL     1     -10.353  11.032  65.123  1.00  0.00    -0.269 OA 
HETATM   10  O   UNL     1     -11.063  15.092  64.810  1.00  0.00    -0.387 OA 
HETATM   11  O   UNL     1     -10.409  13.206  63.766  1.00  0.00    -0.311 OA 
HETATM   12  C   UNL     1     -10.638   9.564  67.471  1.00  0.00    -0.338 A  
HETATM   13  C   UNL     1     -10.740   8.887  68.676  1.00  0.00    -0.078 A  
HETATM   14  C   UNL     1     -11.139   9.523  69.862  1.00  0.00    -0.216 A  
HETATM   15  F   UNL     1     -10.440   7.579  68.675  1.00  0.00    -0.193 F  
HETATM   16  F   UNL     1     -11.874  11.512  70.882  1.00  0.00    -0.408 F  
HETATM   17  C   UNL     1     -11.489  10.893  69.753  1.00  0.00    -0.313 A  
HETATM   18  C   UNL     1     -11.376  11.640  68.556  1.00  0.00    -0.274 A  
BRANCH  14  19
HETATM   19  N   UNL     1     -11.094   8.888  71.094  1.00  0.00    -0.263 NA 
HETATM   20  C   UNL     1     -12.327   8.453  71.766  1.00  0.00    -0.331 C  
HETATM   21  C   UNL     1     -12.082   7.069  72.407  1.00  0.00    -0.088 C  
HETATM   22  N   UNL     1     -10.943   7.052  73.342  1.00  0.00    -0.536 NA 
HETATM   23  C   UNL     1      -9.721   7.549  72.663  1.00  0.00    -0.178 C  
HETATM   24  H   UNL     1     -10.802   6.131  73.756  1.00  0.00     0.000 HD 
HETATM   25  C   UNL     1      -9.914   8.933  71.972  1.00  0.00    -0.268 C  
HETATM   26  C   UNL     1      -8.601   7.610  73.700  1.00  0.00    -0.263 C  
ENDBRANCH  14  19
ENDBRANCH   2   3
TORSDOF 2
ENDMDL
MODEL       24
REMARK 921   NORMALIZED FREE ENERGY PREDICTED BY IDOCK:   -6.49 KCAL/MOL
REMARK 922        TOTAL FREE ENERGY PREDICTED BY IDOCK:   -7.78 KCAL/MOL
REMARK 923 INTER-LIGAND FREE ENERGY PREDICTED BY IDOCK:   -7.15 KCAL/MOL
REMARK 924 INTRA-LIGAND FREE ENERGY PREDICTED BY IDOCK:   -0.64 KCAL/MOL
REMARK 927      BINDING AFFINITY PREDICTED BY RF-SCORE:    0.00 PKD
ROOT
HETATM    1  C   UNL     1     -12.613  11.918  63.377  1.00  0.00    -0.555 C  
HETATM    2  C   UNL     1     -11.097  11.925  63.510  1.00  0.00    -0.428 C  
ENDROOT
BRANCH   2   3
HETATM    3  N   UNL     1     -10.686  12.752  64.661  1.00  0.00    -0.318 NA 
HETATM    4  C   UNL     1     -10.832  14.134  64.599  1.00  0.00    -0.386 C  
HETATM    5  C   UNL     1     -10.422  15.027  65.509  1.00  0.00    -0.385 C  
HETATM    6  C   UNL     1     -10.668  16.465  65.283  1.00  0.00    -0.295 C  
HETATM    7  C   UNL     1      -9.735  14.489  66.694  1.00  0.00    -0.273 C  
HETATM    8  C   UNL     1      -9.567  13.022  66.806  1.00  0.00    -0.248 A  
HETATM    9  O   UNL     1      -9.325  15.254  67.565  1.00  0.00    -0.201 OA 
HETATM   10  O   UNL     1     -11.238  16.900  64.292  1.00  0.00    -1.204 OA 
HETATM   11  O   UNL     1     -10.211  17.276  66.261  1.00  0.00    -0.327 OA 
HETATM   12  C   UNL     1      -8.944  12.525  67.954  1.00  0.00    -0.188 A  
HETATM   13  C   UNL     1      -8.828  11.154  68.129  1.00  0.00    -0.148 A  
HETATM   14  C   UNL     1      -9.308  10.234  67.184  1.00  0.00    -0.153 A  
HETATM   15  F   UNL     1      -8.231  10.726  69.252  1.00  0.00    -0.143 F  
HETATM   16  F   UNL     1     -10.334   9.908  65.092  1.00  0.00    -0.380 F  
HETATM   17  C   UNL     1      -9.873  10.781  66.005  1.00  0.00    -0.235 A  
HETATM   18  C   UNL     1     -10.043  12.169  65.785  1.00  0.00    -0.247 A  
BRANCH  14  19
HETATM   19  N   UNL     1      -9.331   8.868  67.426  1.00  0.00    -0.134 NA 
HETATM   20  C   UNL     1     -10.418   8.256  68.203  1.00  0.00    -0.171 C  
HETATM   21  C   UNL     1     -10.809   6.916  67.542  1.00  0.00    -0.292 C  
HETATM   22  N   UNL     1      -9.676   5.983  67.401  1.00  0.00    -0.111 NA 
HETATM   23  C   UNL     1      -8.566   6.638  66.666  1.00  0.00    -0.123 C  
HETATM   24  H   UNL     1      -9.957   5.104  66.966  1.00  0.00     0.000 HD 
HETATM   25  C   UNL     1      -8.145   8.011  67.271  1.00  0.00    -0.121 C  
HETATM   26  C   UNL     1      -7.386   5.668  66.640  1.00  0.00    -0.083 C  
ENDBRANCH  14  19
ENDBRANCH   2   3
TORSDOF 2
ENDMDL
MODEL       25
REMARK 921   NORMALIZED FREE ENERGY PREDICTED BY IDOCK:   -6.47 KCAL/MOL
REMARK 922        TOTAL FREE ENERGY PREDICTED BY IDOCK:   -7.76 KCAL/MOL
REMARK 923 INTER-LIGAND FREE ENERGY PREDICTED BY IDOCK:   -7.28 KCAL/MOL
REMARK 924 INTRA-LIGAND FREE ENERGY PREDICTED BY IDOCK:   -0.48 KCAL/MOL
REMARK 927      BINDING AFFINITY PREDICTED BY RF-SCORE:    0.00 PKD
ROOT
HETATM    1  C   UNL     1      -7.265   8.447  66.797  1.00  0.00    -0.078 C  
HETATM    2  C   UNL     1      -8.692   8.032  66.472  1.00  0.00    -0.146 C  
ENDROOT
BRANCH   2   3
HETATM    3  N   UNL     1      -9.557   9.220  66.342  1.00  0.00    -0.217 NA 
HETATM    4  C   UNL     1      -9.606   9.903  65.132  1.00  0.00    -0.300 C  
HETATM    5  C   UNL     1     -10.259  11.045  64.878  1.00  0.00    -0.373 C  
HETATM    6  C   UNL     1     -10.208  11.630  63.525  1.00  0.00    -0.436 C  
HETATM    7  C   UNL     1     -10.992  11.644  66.004  1.00  0.00    -0.286 C  
HETATM    8  C   UNL     1     -10.975  10.946  67.310  1.00  0.00    -0.355 A  
HETATM    9  O   UNL     1     -11.606  12.698  65.844  1.00  0.00    -0.352 OA 
HETATM   10  O   UNL     1      -9.593  11.122  62.596  1.00  0.00    -0.304 OA 
HETATM   11  O   UNL     1     -10.898  12.781  63.382  1.00  0.00    -0.351 OA 
HETATM   12  C   UNL     1     -11.705  11.510  68.359  1.00  0.00    -0.372 A  
HETATM   13  C   UNL     1     -11.770  10.852  69.578  1.00  0.00    -0.328 A  
HETATM   14  C   UNL     1     -11.117   9.631  69.806  1.00  0.00    -0.217 A  
HETATM   15  F   UNL     1     -12.492  11.429  70.551  1.00  0.00    -0.367 F  
HETATM   16  F   UNL     1      -9.703   7.958  68.946  1.00  0.00    -0.152 F  
HETATM   17  C   UNL     1     -10.334   9.127  68.738  1.00  0.00    -0.214 A  
HETATM   18  C   UNL     1     -10.255   9.740  67.464  1.00  0.00    -0.220 A  
BRANCH  14  19
HETATM   19  N   UNL     1     -11.306   8.897  70.968  1.00  0.00    -0.276 NA 
HETATM   20  C   UNL     1     -12.652   8.495  71.400  1.00  0.00    -0.283 C  
HETATM   21  C   UNL     1     -12.590   7.050  71.943  1.00  0.00    -0.295 C  
HETATM   22  N   UNL     1     -11.616   6.878  73.037  1.00  0.00    -0.509 NA 
HETATM   23  C   UNL     1     -10.276   7.344  72.602  1.00  0.00    -0.227 C  
HETATM   24  H   UNL     1     -11.594   5.919  73.382  1.00  0.00     0.000 HD 
HETATM   25  C   UNL     1     -10.280   8.789  72.018  1.00  0.00    -0.331 C  
HETATM   26  C   UNL     1      -9.335   7.242  73.801  1.00  0.00    -0.296 C  
ENDBRANCH  14  19
ENDBRANCH   2   3
TORSDOF 2
ENDMDL
MODEL       26
REMARK 921   NORMALIZED FREE ENERGY PREDICTED BY IDOCK:   -6.46 KCAL/MOL
REMARK 922        TOTAL FREE ENERGY PREDICTED BY IDOCK:   -7.76 KCAL/MOL
REMARK 923 INTER-LIGAND FREE ENERGY PREDICTED BY IDOCK:   -7.16 KCAL/MOL
REMARK 924 INTRA-LIGAND FREE ENERGY PREDICTED BY IDOCK:   -0.60 KCAL/MOL
REMARK 927      BINDING AFFINITY PREDICTED BY RF-SCORE:    0.00 PKD
ROOT
HETATM    1  C   UNL     1      -8.682   7.879  66.824  1.00  0.00    -0.143 C  
HETATM    2  C   UNL     1     -10.176   8.155  66.919  1.00  0.00    -0.316 C  
ENDROOT
BRANCH   2   3
HETATM    3  N   UNL     1     -10.553   8.475  68.309  1.00  0.00    -0.167 NA 
HETATM    4  C   UNL     1     -10.591   7.460  69.259  1.00  0.00    -0.213 C  
HETATM    5  C   UNL     1     -11.003   7.563  70.530  1.00  0.00    -0.266 C  
HETATM    6  C   UNL     1     -10.970   6.377  71.406  1.00  0.00    -0.267 C  
HETATM    7  C   UNL     1     -11.473   8.889  70.961  1.00  0.00    -0.294 C  
HETATM    8  C   UNL     1     -11.440  10.002  69.985  1.00  0.00    -0.310 A  
HETATM    9  O   UNL     1     -11.873   9.053  72.113  1.00  0.00    -0.358 OA 
HETATM   10  O   UNL     1     -10.578   5.278  71.035  1.00  0.00    -0.228 OA 
HETATM   11  O   UNL     1     -11.409   6.592  72.664  1.00  0.00    -0.261 OA 
HETATM   12  C   UNL     1     -11.856  11.262  70.420  1.00  0.00    -0.443 A  
HETATM   13  C   UNL     1     -11.776  12.344  69.558  1.00  0.00    -0.322 A  
HETATM   14  C   UNL     1     -11.297  12.223  68.245  1.00  0.00    -0.289 A  
HETATM   15  F   UNL     1     -12.180  13.536  70.026  1.00  0.00    -0.350 F  
HETATM   16  F   UNL     1     -10.487  10.788  66.565  1.00  0.00    -0.268 F  
HETATM   17  C   UNL     1     -10.947  10.916  67.822  1.00  0.00    -0.283 A  
HETATM   18  C   UNL     1     -10.981   9.781  68.667  1.00  0.00    -0.147 A  
BRANCH  14  19
HETATM   19  N   UNL     1     -11.072  13.326  67.433  1.00  0.00    -0.271 NA 
HETATM   20  C   UNL     1     -10.039  14.316  67.770  1.00  0.00    -0.231 C  
HETATM   21  C   UNL     1      -9.312  14.737  66.475  1.00  0.00    -0.290 C  
HETATM   22  N   UNL     1     -10.221  15.261  65.439  1.00  0.00    -0.373 NA 
HETATM   23  C   UNL     1     -11.290  14.272  65.154  1.00  0.00    -0.345 C  
HETATM   24  H   UNL     1      -9.719  15.536  64.595  1.00  0.00     0.000 HD 
HETATM   25  C   UNL     1     -12.043  13.788  66.429  1.00  0.00    -0.444 C  
HETATM   26  C   UNL     1     -12.258  14.906  64.156  1.00  0.00    -0.280 C  
ENDBRANCH  14  19
ENDBRANCH   2   3
TORSDOF 2
ENDMDL
MODEL       27
REMARK 921   NORMALIZED FREE ENERGY PREDICTED BY IDOCK:   -6.45 KCAL/MOL
REMARK 922        TOTAL FREE ENERGY PREDICTED BY IDOCK:   -7.74 KCAL/MOL
REMARK 923 INTER-LIGAND FREE ENERGY PREDICTED BY IDOCK:   -7.24 KCAL/MOL
REMARK 924 INTRA-LIGAND FREE ENERGY PREDICTED BY IDOCK:   -0.50 KCAL/MOL
REMARK 927      BINDING AFFINITY PREDICTED BY RF-SCORE:    0.00 PKD
ROOT
HETATM    1  C   UNL     1     -10.406  16.826  69.200  1.00  0.00    -0.326 C  
HETATM    2  C   UNL     1     -11.116  15.846  68.276  1.00  0.00    -0.345 C  
ENDROOT
BRANCH   2   3
HETATM    3  N   UNL     1     -11.631  14.696  69.044  1.00  0.00    -0.282 NA 
HETATM    4  C   UNL     1     -12.526  14.914  70.086  1.00  0.00    -0.306 C  
HETATM    5  C   UNL     1     -13.009  13.999  70.936  1.00  0.00    -0.347 C  
HETATM    6  C   UNL     1     -13.963  14.408  71.985  1.00  0.00    -0.500 C  
HETATM    7  C   UNL     1     -12.534  12.619  70.753  1.00  0.00    -0.270 C  
HETATM    8  C   UNL     1     -11.587  12.339  69.648  1.00  0.00    -0.348 A  
HETATM    9  O   UNL     1     -12.931  11.729  71.503  1.00  0.00    -0.419 OA 
HETATM   10  O   UNL     1     -14.349  15.561  72.128  1.00  0.00    -0.548 OA 
HETATM   11  O   UNL     1     -14.383  13.407  72.787  1.00  0.00    -0.633 OA 
HETATM   12  C   UNL     1     -11.173  11.017  69.466  1.00  0.00    -0.343 A  
HETATM   13  C   UNL     1     -10.341  10.702  68.403  1.00  0.00    -0.175 A  
HETATM   14  C   UNL     1      -9.885  11.670  67.496  1.00  0.00    -0.188 A  
HETATM   15  F   UNL     1      -9.979   9.417  68.265  1.00  0.00    -0.164 F  
HETATM   16  F   UNL     1      -9.842  13.944  66.892  1.00  0.00    -0.240 F  
HETATM   17  C   UNL     1     -10.275  13.008  67.755  1.00  0.00    -0.228 A  
HETATM   18  C   UNL     1     -11.145  13.383  68.807  1.00  0.00    -0.262 A  
BRANCH  14  19
HETATM   19  N   UNL     1      -9.182  11.336  66.347  1.00  0.00    -0.186 NA 
HETATM   20  C   UNL     1      -7.724  11.150  66.380  1.00  0.00    -0.124 C  
HETATM   21  C   UNL     1      -7.358   9.938  65.494  1.00  0.00    -0.122 C  
HETATM   22  N   UNL     1      -7.838  10.064  64.106  1.00  0.00    -0.142 NA 
HETATM   23  C   UNL     1      -9.301  10.310  64.095  1.00  0.00    -0.287 C  
HETATM   24  H   UNL     1      -7.582   9.256  63.539  1.00  0.00     0.000 HD 
HETATM   25  C   UNL     1      -9.736  11.506  64.995  1.00  0.00    -0.238 C  
HETATM   26  C   UNL     1      -9.726  10.535  62.645  1.00  0.00    -0.214 C  
ENDBRANCH  14  19
ENDBRANCH   2   3
TORSDOF 2
ENDMDL
MODEL       28
REMARK 921   NORMALIZED FREE ENERGY PREDICTED BY IDOCK:   -6.45 KCAL/MOL
REMARK 922        TOTAL FREE ENERGY PREDICTED BY IDOCK:   -7.74 KCAL/MOL
REMARK 923 INTER-LIGAND FREE ENERGY PREDICTED BY IDOCK:   -7.21 KCAL/MOL
REMARK 924 INTRA-LIGAND FREE ENERGY PREDICTED BY IDOCK:   -0.53 KCAL/MOL
REMARK 927      BINDING AFFINITY PREDICTED BY RF-SCORE:    0.00 PKD
ROOT
HETATM    1  C   UNL     1     -13.822   9.427  71.997  1.00  0.00    -0.409 C  
HETATM    2  C   UNL     1     -12.942  10.432  71.267  1.00  0.00    -0.419 C  
ENDROOT
BRANCH   2   3
HETATM    3  N   UNL     1     -11.595   9.870  71.045  1.00  0.00    -0.359 NA 
HETATM    4  C   UNL     1     -11.115   8.884  71.900  1.00  0.00    -0.372 C  
HETATM    5  C   UNL     1      -9.890   8.343  71.896  1.00  0.00    -0.328 C  
HETATM    6  C   UNL     1      -9.551   7.295  72.878  1.00  0.00    -0.164 C  
HETATM    7  C   UNL     1      -8.950   8.855  70.886  1.00  0.00    -0.222 C  
HETATM    8  C   UNL     1      -9.423   9.900  69.948  1.00  0.00    -0.256 A  
HETATM    9  O   UNL     1      -7.805   8.409  70.832  1.00  0.00    -0.082 OA 
HETATM   10  O   UNL     1     -10.341   6.878  73.715  1.00  0.00    -0.322 OA 
HETATM   11  O   UNL     1      -8.290   6.823  72.787  1.00  0.00    -0.110 OA 
HETATM   12  C   UNL     1      -8.529  10.350  68.973  1.00  0.00    -0.155 A  
HETATM   13  C   UNL     1      -8.954  11.277  68.033  1.00  0.00    -0.156 A  
HETATM   14  C   UNL     1     -10.258  11.794  68.026  1.00  0.00    -0.193 A  
HETATM   15  F   UNL     1      -8.061  11.671  67.111  1.00  0.00    -0.135 F  
HETATM   16  F   UNL     1     -12.363  11.852  69.076  1.00  0.00    -0.304 F  
HETATM   17  C   UNL     1     -11.112  11.361  69.072  1.00  0.00    -0.243 A  
HETATM   18  C   UNL     1     -10.742  10.396  70.040  1.00  0.00    -0.265 A  
BRANCH  14  19
HETATM   19  N   UNL     1     -10.729  12.601  67.001  1.00  0.00    -0.243 NA 
HETATM   20  C   UNL     1     -10.710  14.066  67.120  1.00  0.00    -0.283 C  
HETATM   21  C   UNL     1     -10.287  14.670  65.763  1.00  0.00    -0.332 C  
HETATM   22  N   UNL     1     -11.146  14.247  64.642  1.00  0.00    -0.499 NA 
HETATM   23  C   UNL     1     -11.200  12.766  64.574  1.00  0.00    -0.333 C  
HETATM   24  H   UNL     1     -10.852  14.660  63.758  1.00  0.00     0.000 HD 
HETATM   25  C   UNL     1     -11.596  12.096  65.924  1.00  0.00    -0.364 C  
HETATM   26  C   UNL     1     -12.182  12.385  63.467  1.00  0.00    -0.661 C  
ENDBRANCH  14  19
ENDBRANCH   2   3
TORSDOF 2
ENDMDL
MODEL       29
REMARK 921   NORMALIZED FREE ENERGY PREDICTED BY IDOCK:   -6.39 KCAL/MOL
REMARK 922        TOTAL FREE ENERGY PREDICTED BY IDOCK:   -7.68 KCAL/MOL
REMARK 923 INTER-LIGAND FREE ENERGY PREDICTED BY IDOCK:   -7.15 KCAL/MOL
REMARK 924 INTRA-LIGAND FREE ENERGY PREDICTED BY IDOCK:   -0.53 KCAL/MOL
REMARK 927      BINDING AFFINITY PREDICTED BY RF-SCORE:    0.00 PKD
ROOT
HETATM    1  C   UNL     1      -9.073   9.616  64.151  1.00  0.00    -0.256 C  
HETATM    2  C   UNL     1      -9.465   9.355  65.598  1.00  0.00    -0.262 C  
ENDROOT
BRANCH   2   3
HETATM    3  N   UNL     1     -10.383  10.405  66.080  1.00  0.00    -0.223 NA 
HETATM    4  C   UNL     1     -10.876  11.348  65.184  1.00  0.00    -0.238 C  
HETATM    5  C   UNL     1     -11.634  12.413  65.474  1.00  0.00    -0.432 C  
HETATM    6  C   UNL     1     -12.076  13.311  64.389  1.00  0.00    -0.415 C  
HETATM    7  C   UNL     1     -11.972  12.612  66.892  1.00  0.00    -0.275 C  
HETATM    8  C   UNL     1     -11.476  11.626  67.880  1.00  0.00    -0.381 A  
HETATM    9  O   UNL     1     -12.658  13.575  67.230  1.00  0.00    -0.088 OA 
HETATM   10  O   UNL     1     -11.787  13.136  63.213  1.00  0.00    -0.504 OA 
HETATM   11  O   UNL     1     -12.832  14.354  64.794  1.00  0.00    -0.647 OA 
HETATM   12  C   UNL     1     -11.835  11.809  69.218  1.00  0.00    -0.389 A  
HETATM   13  C   UNL     1     -11.448  10.872  70.163  1.00  0.00    -0.319 A  
HETATM   14  C   UNL     1     -10.695   9.737  69.830  1.00  0.00    -0.256 A  
HETATM   15  F   UNL     1     -11.826  11.088  71.433  1.00  0.00    -0.330 F  
HETATM   16  F   UNL     1      -9.571   8.540  68.143  1.00  0.00    -0.140 F  
HETATM   17  C   UNL     1     -10.296   9.623  68.474  1.00  0.00    -0.205 A  
HETATM   18  C   UNL     1     -10.685  10.533  67.461  1.00  0.00    -0.276 A  
BRANCH  14  19
HETATM   19  N   UNL     1     -10.439   8.723  70.742  1.00  0.00    -0.208 NA 
HETATM   20  C   UNL     1      -9.134   8.617  71.409  1.00  0.00    -0.229 C  
HETATM   21  C   UNL     1      -9.361   8.233  72.888  1.00  0.00    -0.254 C  
HETATM   22  N   UNL     1     -10.137   6.991  73.056  1.00  0.00    -0.192 NA 
HETATM   23  C   UNL     1     -11.425   7.094  72.327  1.00  0.00    -0.271 C  
HETATM   24  H   UNL     1     -10.272   6.754  74.038  1.00  0.00     0.000 HD 
HETATM   25  C   UNL     1     -11.262   7.506  70.833  1.00  0.00    -0.269 C  
HETATM   26  C   UNL     1     -12.139   5.748  72.446  1.00  0.00    -0.088 C  
ENDBRANCH  14  19
ENDBRANCH   2   3
TORSDOF 2
ENDMDL
MODEL       30
REMARK 921   NORMALIZED FREE ENERGY PREDICTED BY IDOCK:   -6.29 KCAL/MOL
REMARK 922        TOTAL FREE ENERGY PREDICTED BY IDOCK:   -7.57 KCAL/MOL
REMARK 923 INTER-LIGAND FREE ENERGY PREDICTED BY IDOCK:   -7.04 KCAL/MOL
REMARK 924 INTRA-LIGAND FREE ENERGY PREDICTED BY IDOCK:   -0.52 KCAL/MOL
REMARK 927      BINDING AFFINITY PREDICTED BY RF-SCORE:    0.00 PKD
ROOT
HETATM    1  C   UNL     1     -11.357  13.039  66.583  1.00  0.00    -0.366 C  
HETATM    2  C   UNL     1     -10.509  13.078  67.846  1.00  0.00    -0.229 C  
ENDROOT
BRANCH   2   3
HETATM    3  N   UNL     1     -11.312  12.676  69.017  1.00  0.00    -0.277 NA 
HETATM    4  C   UNL     1     -12.101  13.622  69.664  1.00  0.00    -0.321 C  
HETATM    5  C   UNL     1     -12.807  13.446  70.788  1.00  0.00    -0.221 C  
HETATM    6  C   UNL     1     -13.599  14.565  71.335  1.00  0.00    -0.381 C  
HETATM    7  C   UNL     1     -12.731  12.114  71.409  1.00  0.00    -0.263 C  
HETATM    8  C   UNL     1     -11.911  11.073  70.748  1.00  0.00    -0.436 A  
HETATM    9  O   UNL     1     -13.349  11.886  72.448  1.00  0.00    -0.370 OA 
HETATM   10  O   UNL     1     -13.652  15.669  70.811  1.00  0.00    -0.524 OA 
HETATM   11  O   UNL     1     -14.269  14.279  72.472  1.00  0.00    -0.568 OA 
HETATM   12  C   UNL     1     -11.878   9.804  71.331  1.00  0.00    -0.488 A  
HETATM   13  C   UNL     1     -11.177   8.783  70.706  1.00  0.00    -0.266 A  
HETATM   14  C   UNL     1     -10.483   8.977  69.503  1.00  0.00    -0.219 A  
HETATM   15  F   UNL     1     -11.184   7.580  71.301  1.00  0.00    -0.243 F  
HETATM   16  F   UNL     1      -9.824  10.493  67.828  1.00  0.00    -0.167 F  
HETATM   17  C   UNL     1     -10.487  10.295  68.980  1.00  0.00    -0.217 A  
HETATM   18  C   UNL     1     -11.209  11.368  69.558  1.00  0.00    -0.256 A  
BRANCH  14  19
HETATM   19  N   UNL     1      -9.912   7.927  68.799  1.00  0.00    -0.182 NA 
HETATM   20  C   UNL     1      -8.524   7.514  69.050  1.00  0.00    -0.133 C  
HETATM   21  C   UNL     1      -8.452   5.971  69.025  1.00  0.00    -0.117 C  
HETATM   22  N   UNL     1      -8.954   5.383  67.769  1.00  0.00    -0.109 NA 
HETATM   23  C   UNL     1     -10.334   5.858  67.503  1.00  0.00    -0.215 C  
HETATM   24  H   UNL     1      -8.894   4.366  67.773  1.00  0.00     0.000 HD 
HETATM   25  C   UNL     1     -10.476   7.410  67.542  1.00  0.00    -0.268 C  
HETATM   26  C   UNL     1     -10.764   5.305  66.145  1.00  0.00    -0.211 C  
ENDBRANCH  14  19
ENDBRANCH   2   3
TORSDOF 2
ENDMDL
MODEL       31
REMARK 921   NORMALIZED FREE ENERGY PREDICTED BY IDOCK:   -6.28 KCAL/MOL
REMARK 922        TOTAL FREE ENERGY PREDICTED BY IDOCK:   -7.55 KCAL/MOL
REMARK 923 INTER-LIGAND FREE ENERGY PREDICTED BY IDOCK:   -7.08 KCAL/MOL
REMARK 924 INTRA-LIGAND FREE ENERGY PREDICTED BY IDOCK:   -0.47 KCAL/MOL
REMARK 927      BINDING AFFINITY PREDICTED BY RF-SCORE:    0.00 PKD
ROOT
HETATM    1  C   UNL     1      -5.189  14.716  68.632  1.00  0.00    -0.095 C  
HETATM    2  C   UNL     1      -6.472  14.600  67.821  1.00  0.00    -0.164 C  
ENDROOT
BRANCH   2   3
HETATM    3  N   UNL     1      -7.294  15.816  67.983  1.00  0.00    -0.120 NA 
HETATM    4  C   UNL     1      -6.721  17.064  67.766  1.00  0.00    -0.148 C  
HETATM    5  C   UNL     1      -7.295  18.258  67.962  1.00  0.00    -0.244 C  
HETATM    6  C   UNL     1      -6.536  19.490  67.671  1.00  0.00    -0.218 C  
HETATM    7  C   UNL     1      -8.675  18.245  68.471  1.00  0.00    -0.308 C  
HETATM    8  C   UNL     1      -9.329  16.937  68.708  1.00  0.00    -0.260 A  
HETATM    9  O   UNL     1      -9.260  19.306  68.682  1.00  0.00    -0.360 OA 
HETATM   10  O   UNL     1      -5.388  19.487  67.249  1.00  0.00    -0.165 OA 
HETATM   11  O   UNL     1      -7.210  20.636  67.907  1.00  0.00    -0.280 OA 
HETATM   12  C   UNL     1     -10.651  16.943  69.158  1.00  0.00    -0.330 A  
HETATM   13  C   UNL     1     -11.321  15.741  69.326  1.00  0.00    -0.350 A  
HETATM   14  C   UNL     1     -10.715  14.502  69.069  1.00  0.00    -0.251 A  
HETATM   15  F   UNL     1     -12.593  15.800  69.751  1.00  0.00    -0.360 F  
HETATM   16  F   UNL     1      -8.761  13.357  68.430  1.00  0.00    -0.168 F  
HETATM   17  C   UNL     1      -9.353  14.538  68.677  1.00  0.00    -0.199 A  
HETATM   18  C   UNL     1      -8.628  15.736  68.462  1.00  0.00    -0.183 A  
BRANCH  14  19
HETATM   19  N   UNL     1     -11.426  13.311  69.088  1.00  0.00    -0.288 NA 
HETATM   20  C   UNL     1     -11.857  12.667  67.840  1.00  0.00    -0.332 C  
HETATM   21  C   UNL     1     -11.658  11.141  67.973  1.00  0.00    -0.263 C  
HETATM   22  N   UNL     1     -12.362  10.560  69.132  1.00  0.00    -0.749 NA 
HETATM   23  C   UNL     1     -11.958  11.262  70.375  1.00  0.00    -0.380 C  
HETATM   24  H   UNL     1     -12.221   9.552  69.198  1.00  0.00     0.000 HD 
HETATM   25  C   UNL     1     -12.110  12.811  70.291  1.00  0.00    -0.297 C  
HETATM   26  C   UNL     1     -12.791  10.694  71.523  1.00  0.00    -0.567 C  
ENDBRANCH  14  19
ENDBRANCH   2   3
TORSDOF 2
ENDMDL
MODEL       32
REMARK 921   NORMALIZED FREE ENERGY PREDICTED BY IDOCK:   -6.15 KCAL/MOL
REMARK 922        TOTAL FREE ENERGY PREDICTED BY IDOCK:   -7.41 KCAL/MOL
REMARK 923 INTER-LIGAND FREE ENERGY PREDICTED BY IDOCK:   -7.03 KCAL/MOL
REMARK 924 INTRA-LIGAND FREE ENERGY PREDICTED BY IDOCK:   -0.38 KCAL/MOL
REMARK 927      BINDING AFFINITY PREDICTED BY RF-SCORE:    0.00 PKD
ROOT
HETATM    1  C   UNL     1     -10.810  12.308  67.030  1.00  0.00    -0.288 C  
HETATM    2  C   UNL     1     -10.196  12.095  68.406  1.00  0.00    -0.210 C  
ENDROOT
BRANCH   2   3
HETATM    3  N   UNL     1     -11.233  12.185  69.452  1.00  0.00    -0.217 NA 
HETATM    4  C   UNL     1     -11.792  13.420  69.758  1.00  0.00    -0.326 C  
HETATM    5  C   UNL     1     -12.666  13.687  70.737  1.00  0.00    -0.338 C  
HETATM    6  C   UNL     1     -13.164  15.065  70.916  1.00  0.00    -0.399 C  
HETATM    7  C   UNL     1     -13.067  12.554  71.585  1.00  0.00    -0.315 C  
HETATM    8  C   UNL     1     -12.504  11.216  71.288  1.00  0.00    -0.466 A  
HETATM    9  O   UNL     1     -13.860  12.730  72.508  1.00  0.00    -0.518 OA 
HETATM   10  O   UNL     1     -12.820  16.001  70.205  1.00  0.00    -0.262 OA 
HETATM   11  O   UNL     1     -14.037  15.222  71.934  1.00  0.00    -0.469 OA 
HETATM   12  C   UNL     1     -12.923  10.144  72.080  1.00  0.00    -0.508 A  
HETATM   13  C   UNL     1     -12.472   8.865  71.792  1.00  0.00    -0.362 A  
HETATM   14  C   UNL     1     -11.594   8.601  70.730  1.00  0.00    -0.242 A  
HETATM   15  F   UNL     1     -12.910   7.868  72.576  1.00  0.00    -0.235 F  
HETATM   16  F   UNL     1     -10.298   9.484  68.975  1.00  0.00    -0.179 F  
HETATM   17  C   UNL     1     -11.142   9.725  69.994  1.00  0.00    -0.267 A  
HETATM   18  C   UNL     1     -11.591  11.048  70.224  1.00  0.00    -0.322 A  
BRANCH  14  19
HETATM   19  N   UNL     1     -11.263   7.310  70.346  1.00  0.00    -0.275 NA 
HETATM   20  C   UNL     1     -11.785   6.734  69.098  1.00  0.00     0.227 C  
HETATM   21  C   UNL     1     -10.661   5.925  68.415  1.00  0.00    -0.250 C  
HETATM   22  N   UNL     1     -10.092   4.873  69.278  1.00  0.00    -0.203 NA 
HETATM   23  C   UNL     1      -9.624   5.464  70.557  1.00  0.00    -0.175 C  
HETATM   24  H   UNL     1      -9.355   4.350  68.807  1.00  0.00     0.000 HD 
HETATM   25  C   UNL     1     -10.709   6.317  71.280  1.00  0.00    -0.248 C  
HETATM   26  C   UNL     1      -9.143   4.321  71.450  1.00  0.00    -0.179 C  
ENDBRANCH  14  19
ENDBRANCH   2   3
TORSDOF 2
ENDMDL
MODEL       33
REMARK 921   NORMALIZED FREE ENERGY PREDICTED BY IDOCK:   -6.15 KCAL/MOL
REMARK 922        TOTAL FREE ENERGY PREDICTED BY IDOCK:   -7.40 KCAL/MOL
REMARK 923 INTER-LIGAND FREE ENERGY PREDICTED BY IDOCK:   -6.82 KCAL/MOL
REMARK 924 INTRA-LIGAND FREE ENERGY PREDICTED BY IDOCK:   -0.58 KCAL/MOL
REMARK 927      BINDING AFFINITY PREDICTED BY RF-SCORE:    0.00 PKD
ROOT
HETATM    1  C   UNL     1     -14.277   8.529  71.754  1.00  0.00    -0.525 C  
HETATM    2  C   UNL     1     -12.915   9.042  72.200  1.00  0.00    -0.424 C  
ENDROOT
BRANCH   2   3
HETATM    3  N   UNL     1     -12.551  10.257  71.446  1.00  0.00    -0.396 NA 
HETATM    4  C   UNL     1     -13.058  11.488  71.844  1.00  0.00    -0.387 C  
HETATM    5  C   UNL     1     -12.905  12.662  71.218  1.00  0.00    -0.344 C  
HETATM    6  C   UNL     1     -13.511  13.880  71.790  1.00  0.00    -0.384 C  
HETATM    7  C   UNL     1     -12.126  12.642  69.970  1.00  0.00    -0.269 C  
HETATM    8  C   UNL     1     -11.558  11.353  69.512  1.00  0.00    -0.399 A  
HETATM    9  O   UNL     1     -11.954  13.684  69.338  1.00  0.00    -0.314 OA 
HETATM   10  O   UNL     1     -14.159  13.883  72.829  1.00  0.00    -0.668 OA 
HETATM   11  O   UNL     1     -13.297  15.005  71.076  1.00  0.00    -0.403 OA 
HETATM   12  C   UNL     1     -10.792  11.358  68.344  1.00  0.00    -0.248 A  
HETATM   13  C   UNL     1     -10.186  10.186  67.920  1.00  0.00    -0.180 A  
HETATM   14  C   UNL     1     -10.320   8.977  68.618  1.00  0.00    -0.209 A  
HETATM   15  F   UNL     1      -9.452  10.244  66.797  1.00  0.00    -0.169 F  
HETATM   16  F   UNL     1     -11.297   7.847  70.437  1.00  0.00    -0.268 F  
HETATM   17  C   UNL     1     -11.160   9.000  69.761  1.00  0.00    -0.104 A  
HETATM   18  C   UNL     1     -11.779  10.173  70.256  1.00  0.00    -0.282 A  
BRANCH  14  19
HETATM   19  N   UNL     1      -9.594   7.843  68.283  1.00  0.00    -0.153 NA 
HETATM   20  C   UNL     1     -10.191   6.776  67.468  1.00  0.00    -0.190 C  
HETATM   21  C   UNL     1      -9.134   6.268  66.462  1.00  0.00    -0.153 C  
HETATM   22  N   UNL     1      -7.892   5.802  67.106  1.00  0.00    -0.101 NA 
HETATM   23  C   UNL     1      -7.336   6.872  67.971  1.00  0.00    -0.097 C  
HETATM   24  H   UNL     1      -7.210   5.469  66.425  1.00  0.00     0.000 HD 
HETATM   25  C   UNL     1      -8.367   7.445  68.991  1.00  0.00    -0.126 C  
HETATM   26  C   UNL     1      -6.115   6.303  68.692  1.00  0.00    -0.028 C  
ENDBRANCH  14  19
ENDBRANCH   2   3
TORSDOF 2
ENDMDL
MODEL       34
REMARK 921   NORMALIZED FREE ENERGY PREDICTED BY IDOCK:   -6.15 KCAL/MOL
REMARK 922        TOTAL FREE ENERGY PREDICTED BY IDOCK:   -7.40 KCAL/MOL
REMARK 923 INTER-LIGAND FREE ENERGY PREDICTED BY IDOCK:   -6.82 KCAL/MOL
REMARK 924 INTRA-LIGAND FREE ENERGY PREDICTED BY IDOCK:   -0.58 KCAL/MOL
REMARK 927      BINDING AFFINITY PREDICTED BY RF-SCORE:    0.00 PKD
ROOT
HETATM    1  C   UNL     1     -12.246  12.287  63.538  1.00  0.00    -0.669 C  
HETATM    2  C   UNL     1     -12.282  12.148  65.053  1.00  0.00    -0.192 C  
ENDROOT
BRANCH   2   3
HETATM    3  N   UNL     1     -11.305  13.061  65.677  1.00  0.00    -0.294 NA 
HETATM    4  C   UNL     1     -11.258  14.392  65.276  1.00  0.00    -0.345 C  
HETATM    5  C   UNL     1     -10.375  15.319  65.669  1.00  0.00    -0.389 C  
HETATM    6  C   UNL     1     -10.478  16.694  65.144  1.00  0.00    -0.093 C  
HETATM    7  C   UNL     1      -9.339  14.878  66.616  1.00  0.00    -0.268 C  
HETATM    8  C   UNL     1      -9.357  13.471  67.078  1.00  0.00    -0.247 A  
HETATM    9  O   UNL     1      -8.491  15.676  67.011  1.00  0.00    -0.187 OA 
HETATM   10  O   UNL     1     -11.344  17.048  64.354  1.00  0.00    -1.140 OA 
HETATM   11  O   UNL     1      -9.536  17.545  65.602  1.00  0.00    -0.510 OA 
HETATM   12  C   UNL     1      -8.388  13.078  68.004  1.00  0.00    -0.169 A  
HETATM   13  C   UNL     1      -8.412  11.788  68.512  1.00  0.00    -0.125 A  
HETATM   14  C   UNL     1      -9.376  10.847  68.123  1.00  0.00    -0.165 A  
HETATM   15  F   UNL     1      -7.466  11.462  69.407  1.00  0.00    -0.110 F  
HETATM   16  F   UNL     1     -11.228  10.370  66.751  1.00  0.00    -0.247 F  
HETATM   17  C   UNL     1     -10.300  11.265  67.133  1.00  0.00    -0.209 A  
HETATM   18  C   UNL     1     -10.341  12.577  66.600  1.00  0.00    -0.227 A  
BRANCH  14  19
HETATM   19  N   UNL     1      -9.496   9.610  68.741  1.00  0.00    -0.146 NA 
HETATM   20  C   UNL     1      -9.915   9.504  70.146  1.00  0.00    -0.241 C  
HETATM   21  C   UNL     1     -10.885   8.310  70.286  1.00  0.00    -0.240 C  
HETATM   22  N   UNL     1     -10.314   7.035  69.813  1.00  0.00    -0.205 NA 
HETATM   23  C   UNL     1      -9.843   7.179  68.413  1.00  0.00    -0.152 C  
HETATM   24  H   UNL     1     -10.969   6.261  69.918  1.00  0.00     0.000 HD 
HETATM   25  C   UNL     1      -8.881   8.387  68.202  1.00  0.00    -0.142 C  
HETATM   26  C   UNL     1      -9.170   5.868  68.010  1.00  0.00    -0.112 C  
ENDBRANCH  14  19
ENDBRANCH   2   3
TORSDOF 2
ENDMDL
MODEL       35
REMARK 921   NORMALIZED FREE ENERGY PREDICTED BY IDOCK:   -6.15 KCAL/MOL
REMARK 922        TOTAL FREE ENERGY PREDICTED BY IDOCK:   -7.40 KCAL/MOL
REMARK 923 INTER-LIGAND FREE ENERGY PREDICTED BY IDOCK:   -6.91 KCAL/MOL
REMARK 924 INTRA-LIGAND FREE ENERGY PREDICTED BY IDOCK:   -0.49 KCAL/MOL
REMARK 927      BINDING AFFINITY PREDICTED BY RF-SCORE:    0.00 PKD
ROOT
HETATM    1  C   UNL     1     -11.874  14.402  69.883  1.00  0.00    -0.382 C  
HETATM    2  C   UNL     1     -12.243  12.929  69.783  1.00  0.00    -0.162 C  
ENDROOT
BRANCH   2   3
HETATM    3  N   UNL     1     -11.728  12.354  68.526  1.00  0.00    -0.312 NA 
HETATM    4  C   UNL     1     -11.789  13.101  67.355  1.00  0.00    -0.361 C  
HETATM    5  C   UNL     1     -11.457  12.694  66.123  1.00  0.00    -0.413 C  
HETATM    6  C   UNL     1     -11.578  13.629  64.988  1.00  0.00    -0.332 C  
HETATM    7  C   UNL     1     -10.989  11.305  65.995  1.00  0.00    -0.174 C  
HETATM    8  C   UNL     1     -10.898  10.475  67.219  1.00  0.00    -0.338 A  
HETATM    9  O   UNL     1     -10.675  10.863  64.891  1.00  0.00    -0.276 OA 
HETATM   10  O   UNL     1     -11.971  14.782  65.106  1.00  0.00    -0.346 OA 
HETATM   11  O   UNL     1     -11.220  13.114  63.792  1.00  0.00    -0.379 OA 
HETATM   12  C   UNL     1     -10.419   9.170  67.085  1.00  0.00    -0.325 A  
HETATM   13  C   UNL     1     -10.255   8.384  68.215  1.00  0.00    -0.205 A  
HETATM   14  C   UNL     1     -10.564   8.847  69.503  1.00  0.00    -0.228 A  
HETATM   15  F   UNL     1      -9.782   7.140  68.036  1.00  0.00    -0.135 F  
HETATM   16  F   UNL     1     -11.411  10.607  70.816  1.00  0.00    -0.373 F  
HETATM   17  C   UNL     1     -11.109  10.153  69.587  1.00  0.00    -0.263 A  
HETATM   18  C   UNL     1     -11.271  11.010  68.472  1.00  0.00    -0.268 A  
BRANCH  14  19
HETATM   19  N   UNL     1     -10.257   8.121  70.645  1.00  0.00    -0.195 NA 
HETATM   20  C   UNL     1      -9.049   8.415  71.427  1.00  0.00    -0.186 C  
HETATM   21  C   UNL     1      -9.393   8.320  72.930  1.00  0.00    -0.254 C  
HETATM   22  N   UNL     1      -9.963   7.016  73.317  1.00  0.00    -0.203 NA 
HETATM   23  C   UNL     1     -11.147   6.710  72.477  1.00  0.00    -0.261 C  
HETATM   24  H   UNL     1     -10.179   6.974  74.312  1.00  0.00     0.000 HD 
HETATM   25  C   UNL     1     -10.867   6.817  70.947  1.00  0.00    -0.249 C  
HETATM   26  C   UNL     1     -11.631   5.309  72.846  1.00  0.00    -0.292 C  
ENDBRANCH  14  19
ENDBRANCH   2   3
TORSDOF 2
ENDMDL
MODEL       36
REMARK 921   NORMALIZED FREE ENERGY PREDICTED BY IDOCK:   -6.11 KCAL/MOL
REMARK 922        TOTAL FREE ENERGY PREDICTED BY IDOCK:   -7.36 KCAL/MOL
REMARK 923 INTER-LIGAND FREE ENERGY PREDICTED BY IDOCK:   -6.79 KCAL/MOL
REMARK 924 INTRA-LIGAND FREE ENERGY PREDICTED BY IDOCK:   -0.58 KCAL/MOL
REMARK 927      BINDING AFFINITY PREDICTED BY RF-SCORE:    0.00 PKD
ROOT
HETATM    1  C   UNL     1      -7.672  16.258  67.072  1.00  0.00    -0.250 C  
HETATM    2  C   UNL     1      -7.971  14.853  67.573  1.00  0.00    -0.178 C  
ENDROOT
BRANCH   2   3
HETATM    3  N   UNL     1      -9.104  14.271  66.828  1.00  0.00    -0.257 NA 
HETATM    4  C   UNL     1      -9.840  15.074  65.963  1.00  0.00    -0.319 C  
HETATM    5  C   UNL     1     -10.946  14.730  65.291  1.00  0.00    -0.382 C  
HETATM    6  C   UNL     1     -11.598  15.714  64.405  1.00  0.00    -0.249 C  
HETATM    7  C   UNL     1     -11.441  13.361  65.501  1.00  0.00    -0.305 C  
HETATM    8  C   UNL     1     -10.683  12.467  66.407  1.00  0.00    -0.277 A  
HETATM    9  O   UNL     1     -12.458  12.981  64.922  1.00  0.00    -0.447 OA 
HETATM   10  O   UNL     1     -11.178  16.851  64.240  1.00  0.00    -1.204 OA 
HETATM   11  O   UNL     1     -12.707  15.263  63.781  1.00  0.00    -0.687 OA 
HETATM   12  C   UNL     1     -11.146  11.159  66.567  1.00  0.00    -0.233 A  
HETATM   13  C   UNL     1     -10.427  10.271  67.353  1.00  0.00    -0.251 A  
HETATM   14  C   UNL     1      -9.243  10.639  68.009  1.00  0.00    -0.148 A  
HETATM   15  F   UNL     1     -10.908   9.023  67.468  1.00  0.00    -0.333 F  
HETATM   16  F   UNL     1      -7.712  12.358  68.500  1.00  0.00    -0.119 F  
HETATM   17  C   UNL     1      -8.844  11.993  67.873  1.00  0.00    -0.174 A  
HETATM   18  C   UNL     1      -9.522  12.935  67.062  1.00  0.00    -0.235 A  
BRANCH  14  19
HETATM   19  N   UNL     1      -8.443   9.717  68.667  1.00  0.00    -0.117 NA 
HETATM   20  C   UNL     1      -7.493   8.874  67.927  1.00  0.00    -0.092 C  
HETATM   21  C   UNL     1      -6.184   8.769  68.739  1.00  0.00    -0.045 C  
HETATM   22  N   UNL     1      -6.384   8.254  70.106  1.00  0.00    -0.035 NA 
HETATM   23  C   UNL     1      -7.390   9.081  70.818  1.00  0.00    -0.106 C  
HETATM   24  H   UNL     1      -5.508   8.190  70.623  1.00  0.00     0.000 HD 
HETATM   25  C   UNL     1      -8.726   9.247  70.033  1.00  0.00    -0.195 C  
HETATM   26  C   UNL     1      -7.635   8.444  72.184  1.00  0.00    -0.152 C  
ENDBRANCH  14  19
ENDBRANCH   2   3
TORSDOF 2
ENDMDL
MODEL       37
REMARK 921   NORMALIZED FREE ENERGY PREDICTED BY IDOCK:   -6.03 KCAL/MOL
REMARK 922        TOTAL FREE ENERGY PREDICTED BY IDOCK:   -7.27 KCAL/MOL
REMARK 923 INTER-LIGAND FREE ENERGY PREDICTED BY IDOCK:   -6.76 KCAL/MOL
REMARK 924 INTRA-LIGAND FREE ENERGY PREDICTED BY IDOCK:   -0.51 KCAL/MOL
REMARK 927      BINDING AFFINITY PREDICTED BY RF-SCORE:    0.00 PKD
ROOT
HETATM    1  C   UNL     1      -7.672  16.258  67.072  1.00  0.00    -0.250 C  
HETATM    2  C   UNL     1      -7.971  14.853  67.573  1.00  0.00    -0.178 C  
ENDROOT
BRANCH   2   3
HETATM    3  N   UNL     1      -9.104  14.271  66.828  1.00  0.00    -0.257 NA 
HETATM    4  C   UNL     1      -9.840  15.074  65.963  1.00  0.00    -0.319 C  
HETATM    5  C   UNL     1     -10.946  14.730  65.291  1.00  0.00    -0.382 C  
HETATM    6  C   UNL     1     -11.598  15.714  64.405  1.00  0.00    -0.249 C  
HETATM    7  C   UNL     1     -11.441  13.361  65.501  1.00  0.00    -0.305 C  
HETATM    8  C   UNL     1     -10.683  12.467  66.407  1.00  0.00    -0.277 A  
HETATM    9  O   UNL     1     -12.458  12.981  64.922  1.00  0.00    -0.447 OA 
HETATM   10  O   UNL     1     -11.178  16.851  64.240  1.00  0.00    -1.204 OA 
HETATM   11  O   UNL     1     -12.707  15.263  63.781  1.00  0.00    -0.687 OA 
HETATM   12  C   UNL     1     -11.146  11.159  66.567  1.00  0.00    -0.233 A  
HETATM   13  C   UNL     1     -10.427  10.271  67.353  1.00  0.00    -0.251 A  
HETATM   14  C   UNL     1      -9.243  10.639  68.009  1.00  0.00    -0.148 A  
HETATM   15  F   UNL     1     -10.908   9.023  67.468  1.00  0.00    -0.333 F  
HETATM   16  F   UNL     1      -7.712  12.358  68.500  1.00  0.00    -0.119 F  
HETATM   17  C   UNL     1      -8.844  11.993  67.873  1.00  0.00    -0.174 A  
HETATM   18  C   UNL     1      -9.522  12.935  67.062  1.00  0.00    -0.235 A  
BRANCH  14  19
HETATM   19  N   UNL     1      -8.443   9.717  68.667  1.00  0.00    -0.117 NA 
HETATM   20  C   UNL     1      -8.604   9.465  70.106  1.00  0.00    -0.212 C  
HETATM   21  C   UNL     1      -8.467   7.949  70.365  1.00  0.00    -0.131 C  
HETATM   22  N   UNL     1      -7.195   7.386  69.875  1.00  0.00    -0.078 NA 
HETATM   23  C   UNL     1      -7.023   7.700  68.435  1.00  0.00    -0.072 C  
HETATM   24  H   UNL     1      -7.124   6.386  70.059  1.00  0.00     0.000 HD 
HETATM   25  C   UNL     1      -7.178   9.216  68.107  1.00  0.00    -0.079 C  
HETATM   26  C   UNL     1      -5.649   7.187  68.007  1.00  0.00    -0.021 C  
ENDBRANCH  14  19
ENDBRANCH   2   3
TORSDOF 2
ENDMDL
MODEL       38
REMARK 921   NORMALIZED FREE ENERGY PREDICTED BY IDOCK:   -6.02 KCAL/MOL
REMARK 922        TOTAL FREE ENERGY PREDICTED BY IDOCK:   -7.26 KCAL/MOL
REMARK 923 INTER-LIGAND FREE ENERGY PREDICTED BY IDOCK:   -6.75 KCAL/MOL
REMARK 924 INTRA-LIGAND FREE ENERGY PREDICTED BY IDOCK:   -0.51 KCAL/MOL
REMARK 927      BINDING AFFINITY PREDICTED BY RF-SCORE:    0.00 PKD
ROOT
HETATM    1  C   UNL     1     -10.977  15.403  67.005  1.00  0.00    -0.306 C  
HETATM    2  C   UNL     1     -10.219  15.020  68.268  1.00  0.00    -0.222 C  
ENDROOT
BRANCH   2   3
HETATM    3  N   UNL     1     -10.997  14.049  69.061  1.00  0.00    -0.257 NA 
HETATM    4  C   UNL     1     -11.878  14.509  70.033  1.00  0.00    -0.313 C  
HETATM    5  C   UNL     1     -12.581  13.765  70.898  1.00  0.00    -0.428 C  
HETATM    6  C   UNL     1     -13.480  14.424  71.865  1.00  0.00    -0.393 C  
HETATM    7  C   UNL     1     -12.391  12.309  70.815  1.00  0.00    -0.290 C  
HETATM    8  C   UNL     1     -11.469  11.774  69.786  1.00  0.00    -0.320 A  
HETATM    9  O   UNL     1     -12.999  11.567  71.585  1.00  0.00    -0.437 OA 
HETATM   10  O   UNL     1     -13.628  15.638  71.925  1.00  0.00    -0.471 OA 
HETATM   11  O   UNL     1     -14.136  13.581  72.690  1.00  0.00    -0.762 OA 
HETATM   12  C   UNL     1     -11.327  10.387  69.698  1.00  0.00    -0.333 A  
HETATM   13  C   UNL     1     -10.526   9.845  68.705  1.00  0.00    -0.206 A  
HETATM   14  C   UNL     1      -9.836  10.641  67.779  1.00  0.00    -0.165 A  
HETATM   15  F   UNL     1     -10.429   8.507  68.655  1.00  0.00    -0.213 F  
HETATM   16  F   UNL     1      -9.297  12.818  67.064  1.00  0.00    -0.199 F  
HETATM   17  C   UNL     1      -9.955  12.044  67.944  1.00  0.00    -0.197 A  
HETATM   18  C   UNL     1     -10.780  12.653  68.921  1.00  0.00    -0.164 A  
BRANCH  14  19
HETATM   19  N   UNL     1      -9.161  10.101  66.694  1.00  0.00    -0.153 NA 
HETATM   20  C   UNL     1      -9.876   9.732  65.464  1.00  0.00    -0.308 C  
HETATM   21  C   UNL     1      -9.016  10.140  64.248  1.00  0.00    -0.237 C  
HETATM   22  N   UNL     1      -7.665   9.550  64.263  1.00  0.00    -0.117 NA 
HETATM   23  C   UNL     1      -6.981   9.884  65.537  1.00  0.00    -0.110 C  
HETATM   24  H   UNL     1      -7.117   9.830  63.450  1.00  0.00     0.000 HD 
HETATM   25  C   UNL     1      -7.813   9.520  66.803  1.00  0.00    -0.101 C  
HETATM   26  C   UNL     1      -5.633   9.164  65.545  1.00  0.00    -0.048 C  
ENDBRANCH  14  19
ENDBRANCH   2   3
TORSDOF 2
ENDMDL
MODEL       39
REMARK 921   NORMALIZED FREE ENERGY PREDICTED BY IDOCK:   -6.01 KCAL/MOL
REMARK 922        TOTAL FREE ENERGY PREDICTED BY IDOCK:   -7.25 KCAL/MOL
REMARK 923 INTER-LIGAND FREE ENERGY PREDICTED BY IDOCK:   -6.70 KCAL/MOL
REMARK 924 INTRA-LIGAND FREE ENERGY PREDICTED BY IDOCK:   -0.55 KCAL/MOL
REMARK 927      BINDING AFFINITY PREDICTED BY RF-SCORE:    0.00 PKD
ROOT
HETATM    1  C   UNL     1     -11.468  15.814  71.330  1.00  0.00    -0.481 C  
HETATM    2  C   UNL     1     -12.105  15.196  70.093  1.00  0.00    -0.343 C  
ENDROOT
BRANCH   2   3
HETATM    3  N   UNL     1     -11.287  15.479  68.898  1.00  0.00    -0.302 NA 
HETATM    4  C   UNL     1     -11.115  16.795  68.482  1.00  0.00    -0.260 C  
HETATM    5  C   UNL     1     -10.490  17.212  67.373  1.00  0.00    -0.334 C  
HETATM    6  C   UNL     1     -10.394  18.657  67.089  1.00  0.00    -0.401 C  
HETATM    7  C   UNL     1      -9.937  16.166  66.499  1.00  0.00    -0.280 C  
HETATM    8  C   UNL     1     -10.088  14.751  66.909  1.00  0.00    -0.246 A  
HETATM    9  O   UNL     1      -9.357  16.478  65.460  1.00  0.00    -0.453 OA 
HETATM   10  O   UNL     1     -10.860  19.518  67.824  1.00  0.00    -0.417 OA 
HETATM   11  O   UNL     1      -9.746  18.965  65.946  1.00  0.00    -0.474 OA 
HETATM   12  C   UNL     1      -9.527  13.771  66.085  1.00  0.00    -0.180 A  
HETATM   13  C   UNL     1      -9.587  12.440  66.468  1.00  0.00    -0.240 A  
HETATM   14  C   UNL     1     -10.206  12.029  67.658  1.00  0.00    -0.199 A  
HETATM   15  F   UNL     1      -9.025  11.538  65.648  1.00  0.00    -0.206 F  
HETATM   16  F   UNL     1     -11.418  12.664  69.573  1.00  0.00    -0.300 F  
HETATM   17  C   UNL     1     -10.820  13.047  68.431  1.00  0.00    -0.258 A  
HETATM   18  C   UNL     1     -10.765  14.423  68.105  1.00  0.00    -0.236 A  
BRANCH  14  19
HETATM   19  N   UNL     1     -10.134  10.722  68.117  1.00  0.00    -0.160 NA 
HETATM   20  C   UNL     1     -11.158   9.734  67.750  1.00  0.00    -0.075 C  
HETATM   21  C   UNL     1     -10.464   8.385  67.458  1.00  0.00    -0.257 C  
HETATM   22  N   UNL     1      -9.644   7.895  68.581  1.00  0.00    -0.153 NA 
HETATM   23  C   UNL     1      -8.656   8.929  68.977  1.00  0.00    -0.138 C  
HETATM   24  H   UNL     1      -9.199   7.003  68.369  1.00  0.00     0.000 HD 
HETATM   25  C   UNL     1      -9.294  10.323  69.258  1.00  0.00    -0.207 C  
HETATM   26  C   UNL     1      -7.907   8.414  70.205  1.00  0.00    -0.102 C  
ENDBRANCH  14  19
ENDBRANCH   2   3
TORSDOF 2
ENDMDL
MODEL       40
REMARK 921   NORMALIZED FREE ENERGY PREDICTED BY IDOCK:   -5.94 KCAL/MOL
REMARK 922        TOTAL FREE ENERGY PREDICTED BY IDOCK:   -7.17 KCAL/MOL
REMARK 923 INTER-LIGAND FREE ENERGY PREDICTED BY IDOCK:   -6.56 KCAL/MOL
REMARK 924 INTRA-LIGAND FREE ENERGY PREDICTED BY IDOCK:   -0.62 KCAL/MOL
REMARK 927      BINDING AFFINITY PREDICTED BY RF-SCORE:    0.00 PKD
ROOT
HETATM    1  C   UNL     1      -6.440  14.106  69.818  1.00  0.00    -0.130 C  
HETATM    2  C   UNL     1      -6.481  14.553  68.364  1.00  0.00    -0.102 C  
ENDROOT
BRANCH   2   3
HETATM    3  N   UNL     1      -7.693  15.353  68.106  1.00  0.00    -0.120 NA 
HETATM    4  C   UNL     1      -7.708  16.702  68.441  1.00  0.00    -0.200 C  
HETATM    5  C   UNL     1      -8.751  17.539  68.362  1.00  0.00    -0.276 C  
HETATM    6  C   UNL     1      -8.584  18.952  68.755  1.00  0.00    -0.301 C  
HETATM    7  C   UNL     1     -10.017  16.966  67.881  1.00  0.00    -0.274 C  
HETATM    8  C   UNL     1     -10.045  15.534  67.503  1.00  0.00    -0.241 A  
HETATM    9  O   UNL     1     -11.017  17.676  67.792  1.00  0.00    -0.309 OA 
HETATM   10  O   UNL     1      -7.525  19.417  69.156  1.00  0.00    -0.358 OA 
HETATM   11  O   UNL     1      -9.699  19.704  68.640  1.00  0.00    -0.380 OA 
HETATM   12  C   UNL     1     -11.246  15.013  67.015  1.00  0.00    -0.328 A  
HETATM   13  C   UNL     1     -11.295  13.695  66.587  1.00  0.00    -0.326 A  
HETATM   14  C   UNL     1     -10.177  12.849  66.633  1.00  0.00    -0.247 A  
HETATM   15  F   UNL     1     -12.469  13.245  66.117  1.00  0.00    -0.445 F  
HETATM   16  F   UNL     1      -7.920  12.594  67.247  1.00  0.00    -0.153 F  
HETATM   17  C   UNL     1      -8.997  13.397  67.196  1.00  0.00    -0.226 A  
HETATM   18  C   UNL     1      -8.881  14.742  67.622  1.00  0.00    -0.179 A  
BRANCH  14  19
HETATM   19  N   UNL     1     -10.182  11.583  66.065  1.00  0.00    -0.233 NA 
HETATM   20  C   UNL     1     -10.263  11.407  64.609  1.00  0.00    -0.294 C  
HETATM   21  C   UNL     1      -9.312  10.263  64.193  1.00  0.00    -0.287 C  
HETATM   22  N   UNL     1      -9.587   8.993  64.889  1.00  0.00    -0.338 NA 
HETATM   23  C   UNL     1      -9.559   9.203  66.358  1.00  0.00    -0.245 C  
HETATM   24  H   UNL     1      -8.950   8.252  64.597  1.00  0.00     0.000 HD 
HETATM   25  C   UNL     1     -10.480  10.366  66.836  1.00  0.00    -0.240 C  
HETATM   26  C   UNL     1      -9.952   7.886  67.025  1.00  0.00    -0.322 C  
ENDBRANCH  14  19
ENDBRANCH   2   3
TORSDOF 2
ENDMDL
MODEL       41
REMARK 921   NORMALIZED FREE ENERGY PREDICTED BY IDOCK:   -5.94 KCAL/MOL
REMARK 922        TOTAL FREE ENERGY PREDICTED BY IDOCK:   -7.16 KCAL/MOL
REMARK 923 INTER-LIGAND FREE ENERGY PREDICTED BY IDOCK:   -6.58 KCAL/MOL
REMARK 924 INTRA-LIGAND FREE ENERGY PREDICTED BY IDOCK:   -0.58 KCAL/MOL
REMARK 927      BINDING AFFINITY PREDICTED BY RF-SCORE:    0.00 PKD
ROOT
HETATM    1  C   UNL     1      -6.974  11.228  67.406  1.00  0.00    -0.101 C  
HETATM    2  C   UNL     1      -8.288  10.466  67.490  1.00  0.00    -0.114 C  
ENDROOT
BRANCH   2   3
HETATM    3  N   UNL     1      -9.393  11.381  67.837  1.00  0.00    -0.159 NA 
HETATM    4  C   UNL     1      -9.529  12.582  67.149  1.00  0.00    -0.208 C  
HETATM    5  C   UNL     1     -10.410  13.559  67.403  1.00  0.00    -0.237 C  
HETATM    6  C   UNL     1     -10.419  14.770  66.560  1.00  0.00    -0.291 C  
HETATM    7  C   UNL     1     -11.321  13.342  68.537  1.00  0.00    -0.284 C  
HETATM    8  C   UNL     1     -11.217  12.072  69.293  1.00  0.00    -0.291 A  
HETATM    9  O   UNL     1     -12.149  14.202  68.831  1.00  0.00    -0.345 OA 
HETATM   10  O   UNL     1      -9.654  14.940  65.620  1.00  0.00    -0.325 OA 
HETATM   11  O   UNL     1     -11.343  15.691  66.906  1.00  0.00    -0.185 OA 
HETATM   12  C   UNL     1     -12.113  11.867  70.345  1.00  0.00    -0.421 A  
HETATM   13  C   UNL     1     -12.094  10.663  71.033  1.00  0.00    -0.368 A  
HETATM   14  C   UNL     1     -11.194   9.634  70.719  1.00  0.00    -0.336 A  
HETATM   15  F   UNL     1     -12.980  10.510  72.030  1.00  0.00    -0.502 F  
HETATM   16  F   UNL     1      -9.391   8.929  69.381  1.00  0.00    -0.147 F  
HETATM   17  C   UNL     1     -10.259   9.908  69.689  1.00  0.00    -0.237 A  
HETATM   18  C   UNL     1     -10.251  11.106  68.934  1.00  0.00    -0.194 A  
BRANCH  14  19
HETATM   19  N   UNL     1     -11.274   8.377  71.301  1.00  0.00    -0.250 NA 
HETATM   20  C   UNL     1     -12.101   7.318  70.705  1.00  0.00    -0.245 C  
HETATM   21  C   UNL     1     -11.339   5.978  70.801  1.00  0.00    -0.225 C  
HETATM   22  N   UNL     1     -10.950   5.625  72.179  1.00  0.00    -0.248 NA 
HETATM   23  C   UNL     1     -10.167   6.730  72.784  1.00  0.00    -0.189 C  
HETATM   24  H   UNL     1     -10.452   4.736  72.220  1.00  0.00     0.000 HD 
HETATM   25  C   UNL     1     -10.874   8.116  72.693  1.00  0.00    -0.359 C  
HETATM   26  C   UNL     1      -9.882   6.358  74.238  1.00  0.00    -0.320 C  
ENDBRANCH  14  19
ENDBRANCH   2   3
TORSDOF 2
ENDMDL
MODEL       42
REMARK 921   NORMALIZED FREE ENERGY PREDICTED BY IDOCK:   -5.93 KCAL/MOL
REMARK 922        TOTAL FREE ENERGY PREDICTED BY IDOCK:   -7.16 KCAL/MOL
REMARK 923 INTER-LIGAND FREE ENERGY PREDICTED BY IDOCK:   -6.57 KCAL/MOL
REMARK 924 INTRA-LIGAND FREE ENERGY PREDICTED BY IDOCK:   -0.59 KCAL/MOL
REMARK 927      BINDING AFFINITY PREDICTED BY RF-SCORE:    0.00 PKD
ROOT
HETATM    1  C   UNL     1     -12.259   9.191  71.934  1.00  0.00    -0.449 C  
HETATM    2  C   UNL     1     -11.390   9.802  70.844  1.00  0.00    -0.365 C  
ENDROOT
BRANCH   2   3
HETATM    3  N   UNL     1     -10.968   8.767  69.881  1.00  0.00    -0.218 NA 
HETATM    4  C   UNL     1     -10.825   7.451  70.308  1.00  0.00    -0.245 C  
HETATM    5  C   UNL     1     -10.362   6.419  69.592  1.00  0.00    -0.249 C  
HETATM    6  C   UNL     1     -10.284   5.080  70.207  1.00  0.00    -0.258 C  
HETATM    7  C   UNL     1      -9.950   6.712  68.210  1.00  0.00    -0.144 C  
HETATM    8  C   UNL     1     -10.094   8.099  67.710  1.00  0.00    -0.260 A  
HETATM    9  O   UNL     1      -9.507   5.812  67.498  1.00  0.00    -0.111 OA 
HETATM   10  O   UNL     1     -10.628   4.849  71.358  1.00  0.00    -0.148 OA 
HETATM   11  O   UNL     1      -9.800   4.114  69.397  1.00  0.00    -0.197 OA 
HETATM   12  C   UNL     1      -9.732   8.353  66.384  1.00  0.00    -0.312 A  
HETATM   13  C   UNL     1      -9.915   9.622  65.857  1.00  0.00    -0.281 A  
HETATM   14  C   UNL     1     -10.448  10.677  66.612  1.00  0.00    -0.237 A  
HETATM   15  F   UNL     1      -9.561   9.813  64.577  1.00  0.00    -0.326 F  
HETATM   16  F   UNL     1     -11.249  11.400  68.704  1.00  0.00    -0.205 F  
HETATM   17  C   UNL     1     -10.740  10.395  67.970  1.00  0.00    -0.249 A  
HETATM   18  C   UNL     1     -10.601   9.112  68.553  1.00  0.00    -0.169 A  
BRANCH  14  19
HETATM   19  N   UNL     1     -10.775  11.901  66.047  1.00  0.00    -0.275 NA 
HETATM   20  C   UNL     1     -11.988  12.060  65.233  1.00  0.00    -0.139 C  
HETATM   21  C   UNL     1     -12.644  13.415  65.577  1.00  0.00    -0.465 C  
HETATM   22  N   UNL     1     -11.739  14.565  65.394  1.00  0.00    -0.355 NA 
HETATM   23  C   UNL     1     -10.495  14.360  66.176  1.00  0.00    -0.291 C  
HETATM   24  H   UNL     1     -12.193  15.448  65.623  1.00  0.00     0.000 HD 
HETATM   25  C   UNL     1      -9.801  12.994  65.893  1.00  0.00    -0.237 C  
HETATM   26  C   UNL     1      -9.554  15.524  65.870  1.00  0.00    -0.383 C  
ENDBRANCH  14  19
ENDBRANCH   2   3
TORSDOF 2
ENDMDL
MODEL       43
REMARK 921   NORMALIZED FREE ENERGY PREDICTED BY IDOCK:   -5.92 KCAL/MOL
REMARK 922        TOTAL FREE ENERGY PREDICTED BY IDOCK:   -7.15 KCAL/MOL
REMARK 923 INTER-LIGAND FREE ENERGY PREDICTED BY IDOCK:   -6.71 KCAL/MOL
REMARK 924 INTRA-LIGAND FREE ENERGY PREDICTED BY IDOCK:   -0.44 KCAL/MOL
REMARK 927      BINDING AFFINITY PREDICTED BY RF-SCORE:    0.00 PKD
ROOT
HETATM    1  C   UNL     1     -12.046  12.860  63.898  1.00  0.00    -0.553 C  
HETATM    2  C   UNL     1     -12.273  13.353  65.320  1.00  0.00    -0.440 C  
ENDROOT
BRANCH   2   3
HETATM    3  N   UNL     1     -11.168  12.919  66.197  1.00  0.00    -0.283 NA 
HETATM    4  C   UNL     1     -10.970  11.562  66.429  1.00  0.00    -0.284 C  
HETATM    5  C   UNL     1     -10.083  11.011  67.268  1.00  0.00    -0.222 C  
HETATM    6  C   UNL     1     -10.005   9.542  67.384  1.00  0.00    -0.189 C  
HETATM    7  C   UNL     1      -9.237  11.941  68.031  1.00  0.00    -0.190 C  
HETATM    8  C   UNL     1      -9.407  13.395  67.808  1.00  0.00    -0.211 A  
HETATM    9  O   UNL     1      -8.407  11.503  68.826  1.00  0.00    -0.141 OA 
HETATM   10  O   UNL     1     -10.716   8.779  66.745  1.00  0.00    -0.206 OA 
HETATM   11  O   UNL     1      -9.079   9.095  68.260  1.00  0.00    -0.133 OA 
HETATM   12  C   UNL     1      -8.571  14.264  68.515  1.00  0.00    -0.175 A  
HETATM   13  C   UNL     1      -8.652  15.628  68.284  1.00  0.00    -0.158 A  
HETATM   14  C   UNL     1      -9.556  16.181  67.365  1.00  0.00    -0.229 A  
HETATM   15  F   UNL     1      -7.821  16.420  68.981  1.00  0.00    -0.194 F  
HETATM   16  F   UNL     1     -11.303  15.791  65.837  1.00  0.00    -0.234 F  
HETATM   17  C   UNL     1     -10.430  15.272  66.719  1.00  0.00    -0.293 A  
HETATM   18  C   UNL     1     -10.374  13.868  66.893  1.00  0.00    -0.266 A  
BRANCH  14  19
HETATM   19  N   UNL     1      -9.534  17.525  67.021  1.00  0.00    -0.260 NA 
HETATM   20  C   UNL     1     -10.706  18.383  67.243  1.00  0.00    -0.353 C  
HETATM   21  C   UNL     1     -10.226  19.757  67.760  1.00  0.00    -0.437 C  
HETATM   22  N   UNL     1      -9.260  20.414  66.860  1.00  0.00    -0.541 NA 
HETATM   23  C   UNL     1      -8.112  19.510  66.600  1.00  0.00    -0.306 C  
HETATM   24  H   UNL     1      -8.959  21.320  67.218  1.00  0.00     0.000 HD 
HETATM   25  C   UNL     1      -8.536  18.096  66.102  1.00  0.00    -0.111 C  
HETATM   26  C   UNL     1      -7.199  20.195  65.585  1.00  0.00    -0.303 C  
ENDBRANCH  14  19
ENDBRANCH   2   3
TORSDOF 2
ENDMDL
MODEL       44
REMARK 921   NORMALIZED FREE ENERGY PREDICTED BY IDOCK:   -5.88 KCAL/MOL
REMARK 922        TOTAL FREE ENERGY PREDICTED BY IDOCK:   -7.10 KCAL/MOL
REMARK 923 INTER-LIGAND FREE ENERGY PREDICTED BY IDOCK:   -6.61 KCAL/MOL
REMARK 924 INTRA-LIGAND FREE ENERGY PREDICTED BY IDOCK:   -0.49 KCAL/MOL
REMARK 927      BINDING AFFINITY PREDICTED BY RF-SCORE:    0.00 PKD
ROOT
HETATM    1  C   UNL     1      -6.352  16.194  69.767  1.00  0.00    -0.175 C  
HETATM    2  C   UNL     1      -7.154  15.130  69.031  1.00  0.00    -0.140 C  
ENDROOT
BRANCH   2   3
HETATM    3  N   UNL     1      -8.046  15.756  68.036  1.00  0.00    -0.138 NA 
HETATM    4  C   UNL     1      -7.785  17.049  67.598  1.00  0.00    -0.170 C  
HETATM    5  C   UNL     1      -8.544  17.790  66.780  1.00  0.00    -0.272 C  
HETATM    6  C   UNL     1      -8.107  19.151  66.412  1.00  0.00    -0.308 C  
HETATM    7  C   UNL     1      -9.791  17.172  66.304  1.00  0.00    -0.291 C  
HETATM    8  C   UNL     1     -10.105  15.791  66.737  1.00  0.00    -0.276 A  
HETATM    9  O   UNL     1     -10.539  17.800  65.556  1.00  0.00    -0.632 OA 
HETATM   10  O   UNL     1      -7.068  19.655  66.817  1.00  0.00    -0.209 OA 
HETATM   11  O   UNL     1      -8.948  19.809  65.586  1.00  0.00    -0.325 OA 
HETATM   12  C   UNL     1     -11.275  15.206  66.247  1.00  0.00    -0.273 A  
HETATM   13  C   UNL     1     -11.570  13.891  66.574  1.00  0.00    -0.369 A  
HETATM   14  C   UNL     1     -10.736  13.117  67.394  1.00  0.00    -0.253 A  
HETATM   15  F   UNL     1     -12.701  13.372  66.071  1.00  0.00    -0.451 F  
HETATM   16  F   UNL     1      -8.788  13.037  68.712  1.00  0.00    -0.117 F  
HETATM   17  C   UNL     1      -9.593  13.769  67.923  1.00  0.00    -0.222 A  
HETATM   18  C   UNL     1      -9.228  15.099  67.601  1.00  0.00    -0.181 A  
BRANCH  14  19
HETATM   19  N   UNL     1     -10.948  11.761  67.597  1.00  0.00    -0.219 NA 
HETATM   20  C   UNL     1     -10.949  10.818  66.469  1.00  0.00    -0.075 C  
HETATM   21  C   UNL     1     -10.214   9.529  66.898  1.00  0.00    -0.249 C  
HETATM   22  N   UNL     1     -10.788   8.904  68.104  1.00  0.00    -0.467 NA 
HETATM   23  C   UNL     1     -10.832   9.887  69.214  1.00  0.00    -0.227 C  
HETATM   24  H   UNL     1     -10.291   8.053  68.366  1.00  0.00     0.000 HD 
HETATM   25  C   UNL     1     -11.539  11.223  68.832  1.00  0.00    -0.319 C  
HETATM   26  C   UNL     1     -11.528   9.221  70.400  1.00  0.00    -0.255 C  
ENDBRANCH  14  19
ENDBRANCH   2   3
TORSDOF 2
ENDMDL
MODEL       45
REMARK 921   NORMALIZED FREE ENERGY PREDICTED BY IDOCK:   -5.87 KCAL/MOL
REMARK 922        TOTAL FREE ENERGY PREDICTED BY IDOCK:   -7.09 KCAL/MOL
REMARK 923 INTER-LIGAND FREE ENERGY PREDICTED BY IDOCK:   -6.59 KCAL/MOL
REMARK 924 INTRA-LIGAND FREE ENERGY PREDICTED BY IDOCK:   -0.51 KCAL/MOL
REMARK 927      BINDING AFFINITY PREDICTED BY RF-SCORE:    0.00 PKD
ROOT
HETATM    1  C   UNL     1      -8.939   5.543  67.478  1.00  0.00    -0.107 C  
HETATM    2  C   UNL     1     -10.348   6.107  67.583  1.00  0.00    -0.201 C  
ENDROOT
BRANCH   2   3
HETATM    3  N   UNL     1     -10.473   6.959  68.781  1.00  0.00    -0.196 NA 
HETATM    4  C   UNL     1     -10.515   6.369  70.040  1.00  0.00    -0.215 C  
HETATM    5  C   UNL     1     -10.721   6.986  71.211  1.00  0.00    -0.243 C  
HETATM    6  C   UNL     1     -10.727   6.199  72.459  1.00  0.00    -0.224 C  
HETATM    7  C   UNL     1     -10.936   8.440  71.157  1.00  0.00    -0.244 C  
HETATM    8  C   UNL     1     -10.890   9.112  69.838  1.00  0.00    -0.242 A  
HETATM    9  O   UNL     1     -11.140   9.069  72.194  1.00  0.00    -0.350 OA 
HETATM   10  O   UNL     1     -10.549   4.989  72.491  1.00  0.00    -0.207 OA 
HETATM   11  O   UNL     1     -10.947   6.920  73.579  1.00  0.00    -0.274 OA 
HETATM   12  C   UNL     1     -11.061  10.498  69.808  1.00  0.00    -0.354 A  
HETATM   13  C   UNL     1     -10.956  11.174  68.601  1.00  0.00    -0.220 A  
HETATM   14  C   UNL     1     -10.692  10.513  67.392  1.00  0.00    -0.281 A  
HETATM   15  F   UNL     1     -11.119  12.506  68.626  1.00  0.00    -0.234 F  
HETATM   16  F   UNL     1     -10.340   8.456  66.304  1.00  0.00    -0.350 F  
HETATM   17  C   UNL     1     -10.591   9.100  67.457  1.00  0.00    -0.249 A  
HETATM   18  C   UNL     1     -10.660   8.362  68.663  1.00  0.00    -0.113 A  
BRANCH  14  19
HETATM   19  N   UNL     1     -10.436  11.198  66.214  1.00  0.00    -0.253 NA 
HETATM   20  C   UNL     1      -9.061  11.382  65.729  1.00  0.00    -0.184 C  
HETATM   21  C   UNL     1      -9.044  11.191  64.196  1.00  0.00    -0.039 C  
HETATM   22  N   UNL     1      -9.973  12.088  63.486  1.00  0.00    -0.522 NA 
HETATM   23  C   UNL     1     -11.345  11.931  64.028  1.00  0.00    -0.397 C  
HETATM   24  H   UNL     1      -9.943  11.947  62.476  1.00  0.00     0.000 HD 
HETATM   25  C   UNL     1     -11.422  12.086  65.577  1.00  0.00    -0.313 C  
HETATM   26  C   UNL     1     -12.242  12.953  63.333  1.00  0.00    -0.574 C  
ENDBRANCH  14  19
ENDBRANCH   2   3
TORSDOF 2
ENDMDL
MODEL       46
REMARK 921   NORMALIZED FREE ENERGY PREDICTED BY IDOCK:   -5.86 KCAL/MOL
REMARK 922        TOTAL FREE ENERGY PREDICTED BY IDOCK:   -7.08 KCAL/MOL
REMARK 923 INTER-LIGAND FREE ENERGY PREDICTED BY IDOCK:   -6.55 KCAL/MOL
REMARK 924 INTRA-LIGAND FREE ENERGY PREDICTED BY IDOCK:   -0.53 KCAL/MOL
REMARK 927      BINDING AFFINITY PREDICTED BY RF-SCORE:    0.00 PKD
ROOT
HETATM    1  C   UNL     1     -12.192  12.010  63.722  1.00  0.00    -0.600 C  
HETATM    2  C   UNL     1     -10.855  11.735  64.396  1.00  0.00    -0.334 C  
ENDROOT
BRANCH   2   3
HETATM    3  N   UNL     1     -10.425  12.908  65.182  1.00  0.00    -0.301 NA 
HETATM    4  C   UNL     1     -10.821  14.181  64.785  1.00  0.00    -0.413 C  
HETATM    5  C   UNL     1     -10.441  15.346  65.326  1.00  0.00    -0.440 C  
HETATM    6  C   UNL     1     -10.969  16.611  64.779  1.00  0.00    -0.109 C  
HETATM    7  C   UNL     1      -9.497  15.270  66.451  1.00  0.00    -0.298 C  
HETATM    8  C   UNL     1      -9.056  13.934  66.914  1.00  0.00    -0.257 A  
HETATM    9  O   UNL     1      -9.100  16.302  66.990  1.00  0.00    -0.197 OA 
HETATM   10  O   UNL     1     -11.753  16.662  63.840  1.00  0.00    -1.153 OA 
HETATM   11  O   UNL     1     -10.519  17.724  65.396  1.00  0.00    -0.641 OA 
HETATM   12  C   UNL     1      -8.187  13.878  68.006  1.00  0.00    -0.161 A  
HETATM   13  C   UNL     1      -7.804  12.645  68.512  1.00  0.00    -0.104 A  
HETATM   14  C   UNL     1      -8.253  11.436  67.960  1.00  0.00    -0.140 A  
HETATM   15  F   UNL     1      -6.976  12.644  69.568  1.00  0.00    -0.076 F  
HETATM   16  F   UNL     1      -9.514  10.384  66.274  1.00  0.00    -0.176 F  
HETATM   17  C   UNL     1      -9.080  11.536  66.813  1.00  0.00    -0.181 A  
HETATM   18  C   UNL     1      -9.525  12.767  66.271  1.00  0.00    -0.196 A  
BRANCH  14  19
HETATM   19  N   UNL     1      -7.997  10.209  68.556  1.00  0.00    -0.101 NA 
HETATM   20  C   UNL     1      -6.972   9.305  68.016  1.00  0.00    -0.076 C  
HETATM   21  C   UNL     1      -6.200   8.668  69.193  1.00  0.00    -0.043 C  
HETATM   22  N   UNL     1      -7.073   7.960  70.148  1.00  0.00    -0.049 NA 
HETATM   23  C   UNL     1      -8.136   8.872  70.637  1.00  0.00    -0.144 C  
HETATM   24  H   UNL     1      -6.543   7.544  70.914  1.00  0.00     0.000 HD 
HETATM   25  C   UNL     1      -8.933   9.567  69.492  1.00  0.00    -0.181 C  
HETATM   26  C   UNL     1      -9.068   8.062  71.536  1.00  0.00    -0.182 C  
ENDBRANCH  14  19
ENDBRANCH   2   3
TORSDOF 2
ENDMDL
MODEL       47
REMARK 921   NORMALIZED FREE ENERGY PREDICTED BY IDOCK:   -5.85 KCAL/MOL
REMARK 922        TOTAL FREE ENERGY PREDICTED BY IDOCK:   -7.07 KCAL/MOL
REMARK 923 INTER-LIGAND FREE ENERGY PREDICTED BY IDOCK:   -6.81 KCAL/MOL
REMARK 924 INTRA-LIGAND FREE ENERGY PREDICTED BY IDOCK:   -0.27 KCAL/MOL
REMARK 927      BINDING AFFINITY PREDICTED BY RF-SCORE:    0.00 PKD
ROOT
HETATM    1  C   UNL     1     -12.284  13.047  63.627  1.00  0.00    -0.568 C  
HETATM    2  C   UNL     1     -11.716  13.375  65.000  1.00  0.00    -0.325 C  
ENDROOT
BRANCH   2   3
HETATM    3  N   UNL     1     -10.994  12.212  65.550  1.00  0.00    -0.291 NA 
HETATM    4  C   UNL     1     -10.247  11.404  64.698  1.00  0.00    -0.294 C  
HETATM    5  C   UNL     1      -9.617  10.266  65.017  1.00  0.00    -0.346 C  
HETATM    6  C   UNL     1      -8.861   9.536  63.981  1.00  0.00    -0.212 C  
HETATM    7  C   UNL     1      -9.737   9.819  66.413  1.00  0.00    -0.216 C  
HETATM    8  C   UNL     1     -10.514  10.654  67.358  1.00  0.00    -0.280 A  
HETATM    9  O   UNL     1      -9.190   8.778  66.772  1.00  0.00    -0.152 OA 
HETATM   10  O   UNL     1      -8.770   9.918  62.821  1.00  0.00    -0.170 OA 
HETATM   11  O   UNL     1      -8.268   8.402  64.410  1.00  0.00    -0.160 OA 
HETATM   12  C   UNL     1     -10.588  10.234  68.688  1.00  0.00    -0.232 A  
HETATM   13  C   UNL     1     -11.249  11.022  69.617  1.00  0.00    -0.278 A  
HETATM   14  C   UNL     1     -11.861  12.236  69.271  1.00  0.00    -0.306 A  
HETATM   15  F   UNL     1     -11.284  10.580  70.884  1.00  0.00    -0.376 F  
HETATM   16  F   UNL     1     -12.405  13.753  67.557  1.00  0.00    -0.393 F  
HETATM   17  C   UNL     1     -11.820  12.593  67.900  1.00  0.00    -0.332 A  
HETATM   18  C   UNL     1     -11.136  11.842  66.913  1.00  0.00    -0.305 A  
BRANCH  14  19
HETATM   19  N   UNL     1     -12.387  13.098  70.223  1.00  0.00    -0.287 NA 
HETATM   20  C   UNL     1     -13.612  12.756  70.959  1.00  0.00     0.775 C  
HETATM   21  C   UNL     1     -13.441  13.181  72.434  1.00  0.00    -0.543 C  
HETATM   22  N   UNL     1     -13.114  14.610  72.596  1.00  0.00    -0.423 NA 
HETATM   23  C   UNL     1     -11.910  14.949  71.799  1.00  0.00    -0.356 C  
HETATM   24  H   UNL     1     -13.010  14.870  73.576  1.00  0.00     0.000 HD 
HETATM   25  C   UNL     1     -12.013  14.519  70.304  1.00  0.00    -0.314 C  
HETATM   26  C   UNL     1     -11.680  16.455  71.918  1.00  0.00    -0.419 C  
ENDBRANCH  14  19
ENDBRANCH   2   3
TORSDOF 2
ENDMDL
MODEL       48
REMARK 921   NORMALIZED FREE ENERGY PREDICTED BY IDOCK:   -5.82 KCAL/MOL
REMARK 922        TOTAL FREE ENERGY PREDICTED BY IDOCK:   -7.04 KCAL/MOL
REMARK 923 INTER-LIGAND FREE ENERGY PREDICTED BY IDOCK:   -6.39 KCAL/MOL
REMARK 924 INTRA-LIGAND FREE ENERGY PREDICTED BY IDOCK:   -0.65 KCAL/MOL
REMARK 927      BINDING AFFINITY PREDICTED BY RF-SCORE:    0.00 PKD
ROOT
HETATM    1  C   UNL     1     -11.763  12.325  63.847  1.00  0.00    -0.536 C  
HETATM    2  C   UNL     1     -10.312  12.352  64.306  1.00  0.00    -0.362 C  
ENDROOT
BRANCH   2   3
HETATM    3  N   UNL     1     -10.216  11.980  65.730  1.00  0.00    -0.235 NA 
HETATM    4  C   UNL     1     -10.351  10.647  66.102  1.00  0.00    -0.227 C  
HETATM    5  C   UNL     1     -10.386  10.159  67.349  1.00  0.00    -0.289 C  
HETATM    6  C   UNL     1     -10.529   8.706  67.560  1.00  0.00    -0.266 C  
HETATM    7  C   UNL     1     -10.280  11.140  68.440  1.00  0.00    -0.188 C  
HETATM    8  C   UNL     1     -10.124  12.571  68.090  1.00  0.00    -0.225 A  
HETATM    9  O   UNL     1     -10.314  10.762  69.610  1.00  0.00    -0.201 OA 
HETATM   10  O   UNL     1     -10.618   7.899  66.643  1.00  0.00    -0.276 OA 
HETATM   11  O   UNL     1     -10.556   8.324  68.855  1.00  0.00    -0.211 OA 
HETATM   12  C   UNL     1      -9.990  13.486  69.138  1.00  0.00     0.251 A  
HETATM   13  C   UNL     1      -9.774  14.825  68.852  1.00  0.00    -0.215 A  
HETATM   14  C   UNL     1      -9.693  15.308  67.537  1.00  0.00    -0.204 A  
HETATM   15  F   UNL     1      -9.642  15.662  69.893  1.00  0.00    -0.270 F  
HETATM   16  F   UNL     1      -9.827  14.810  65.241  1.00  0.00    -0.359 F  
HETATM   17  C   UNL     1      -9.901  14.358  66.505  1.00  0.00    -0.287 A  
HETATM   18  C   UNL     1     -10.096  12.975  66.737  1.00  0.00    -0.247 A  
BRANCH  14  19
HETATM   19  N   UNL     1      -9.326  16.614  67.249  1.00  0.00    -0.227 NA 
HETATM   20  C   UNL     1      -7.926  17.048  67.357  1.00  0.00    -0.178 C  
HETATM   21  C   UNL     1      -7.601  17.980  66.169  1.00  0.00    -0.250 C  
HETATM   22  N   UNL     1      -8.503  19.142  66.074  1.00  0.00    -0.459 NA 
HETATM   23  C   UNL     1      -9.914  18.687  66.025  1.00  0.00    -0.242 C  
HETATM   24  H   UNL     1      -8.268  19.745  65.287  1.00  0.00     0.000 HD 
HETATM   25  C   UNL     1     -10.295  17.719  67.186  1.00  0.00    -0.353 C  
HETATM   26  C   UNL     1     -10.805  19.927  66.034  1.00  0.00    -0.330 C  
ENDBRANCH  14  19
ENDBRANCH   2   3
TORSDOF 2
ENDMDL
MODEL       49
REMARK 921   NORMALIZED FREE ENERGY PREDICTED BY IDOCK:   -5.82 KCAL/MOL
REMARK 922        TOTAL FREE ENERGY PREDICTED BY IDOCK:   -7.04 KCAL/MOL
REMARK 923 INTER-LIGAND FREE ENERGY PREDICTED BY IDOCK:   -7.08 KCAL/MOL
REMARK 924 INTRA-LIGAND FREE ENERGY PREDICTED BY IDOCK:    0.05 KCAL/MOL
REMARK 927      BINDING AFFINITY PREDICTED BY RF-SCORE:    0.00 PKD
ROOT
HETATM    1  C   UNL     1      -8.064   9.283  68.407  1.00  0.00    -0.106 C  
HETATM    2  C   UNL     1      -9.544   9.341  68.057  1.00  0.00    -0.142 C  
ENDROOT
BRANCH   2   3
HETATM    3  N   UNL     1     -10.366   9.199  69.274  1.00  0.00    -0.211 NA 
HETATM    4  C   UNL     1     -10.435   7.966  69.915  1.00  0.00    -0.229 C  
HETATM    5  C   UNL     1     -11.205   7.647  70.963  1.00  0.00    -0.283 C  
HETATM    6  C   UNL     1     -11.145   6.283  71.524  1.00  0.00    -0.281 C  
HETATM    7  C   UNL     1     -12.076   8.711  71.485  1.00  0.00    -0.316 C  
HETATM    8  C   UNL     1     -12.028  10.044  70.840  1.00  0.00    -0.453 A  
HETATM    9  O   UNL     1     -12.815   8.485  72.442  1.00  0.00    -0.359 OA 
HETATM   10  O   UNL     1     -10.417   5.406  71.080  1.00  0.00    -0.234 OA 
HETATM   11  O   UNL     1     -11.964   6.070  72.576  1.00  0.00    -0.258 OA 
HETATM   12  C   UNL     1     -12.835  11.053  71.369  1.00  0.00    -0.548 A  
HETATM   13  C   UNL     1     -12.769  12.331  70.837  1.00  0.00    -0.187 A  
HETATM   14  C   UNL     1     -11.920  12.655  69.769  1.00  0.00    -0.295 A  
HETATM   15  F   UNL     1     -13.557  13.268  71.387  1.00  0.00    -0.353 F  
HETATM   16  F   UNL     1     -10.351  11.887  68.192  1.00  0.00    -0.177 F  
HETATM   17  C   UNL     1     -11.166  11.588  69.218  1.00  0.00    -0.272 A  
HETATM   18  C   UNL     1     -11.173  10.271  69.738  1.00  0.00    -0.282 A  
BRANCH  14  19
HETATM   19  N   UNL     1     -11.738  13.961  69.336  1.00  0.00    -0.294 NA 
HETATM   20  C   UNL     1     -11.862  15.091  70.268  1.00  0.00    -0.309 C  
HETATM   21  C   UNL     1     -10.753  16.119  69.954  1.00  0.00    -0.328 C  
HETATM   22  N   UNL     1     -10.771  16.589  68.557  1.00  0.00    -0.318 NA 
HETATM   23  C   UNL     1     -10.704  15.431  67.631  1.00  0.00    -0.292 C  
HETATM   24  H   UNL     1     -10.033  17.269  68.373  1.00  0.00     0.000 HD 
HETATM   25  C   UNL     1     -11.784  14.344  67.916  1.00  0.00    -0.356 C  
HETATM   26  C   UNL     1     -10.831  15.966  66.205  1.00  0.00    -0.200 C  
ENDBRANCH  14  19
ENDBRANCH   2   3
TORSDOF 2
ENDMDL
MODEL       50
REMARK 921   NORMALIZED FREE ENERGY PREDICTED BY IDOCK:   -5.74 KCAL/MOL
REMARK 922        TOTAL FREE ENERGY PREDICTED BY IDOCK:   -6.95 KCAL/MOL
REMARK 923 INTER-LIGAND FREE ENERGY PREDICTED BY IDOCK:   -6.36 KCAL/MOL
REMARK 924 INTRA-LIGAND FREE ENERGY PREDICTED BY IDOCK:   -0.59 KCAL/MOL
REMARK 927      BINDING AFFINITY PREDICTED BY RF-SCORE:    0.00 PKD
ROOT
HETATM    1  C   UNL     1     -14.407   8.173  72.010  1.00  0.00    -0.524 C  
HETATM    2  C   UNL     1     -13.412   9.317  71.885  1.00  0.00    -0.430 C  
ENDROOT
BRANCH   2   3
HETATM    3  N   UNL     1     -12.046   8.792  71.700  1.00  0.00    -0.316 NA 
HETATM    4  C   UNL     1     -11.646   7.658  72.398  1.00  0.00    -0.336 C  
HETATM    5  C   UNL     1     -10.422   7.114  72.417  1.00  0.00    -0.247 C  
HETATM    6  C   UNL     1     -10.177   5.897  73.213  1.00  0.00    -0.203 C  
HETATM    7  C   UNL     1      -9.390   7.797  71.622  1.00  0.00    -0.140 C  
HETATM    8  C   UNL     1      -9.773   9.005  70.854  1.00  0.00    -0.329 A  
HETATM    9  O   UNL     1      -8.241   7.357  71.601  1.00  0.00    -0.102 OA 
HETATM   10  O   UNL     1     -11.044   5.339  73.872  1.00  0.00    -0.231 OA 
HETATM   11  O   UNL     1      -8.908   5.436  73.163  1.00  0.00    -0.120 OA 
HETATM   12  C   UNL     1      -8.789   9.621  70.077  1.00  0.00    -0.259 A  
HETATM   13  C   UNL     1      -9.123  10.712  69.291  1.00  0.00    -0.100 A  
HETATM   14  C   UNL     1     -10.424  11.236  69.249  1.00  0.00    -0.111 A  
HETATM   15  F   UNL     1      -8.145  11.263  68.555  1.00  0.00    -0.118 F  
HETATM   16  F   UNL     1     -12.626  11.118  70.072  1.00  0.00    -0.338 F  
HETATM   17  C   UNL     1     -11.376  10.623  70.102  1.00  0.00    -0.323 A  
HETATM   18  C   UNL     1     -11.098   9.489  70.904  1.00  0.00    -0.336 A  
BRANCH  14  19
HETATM   19  N   UNL     1     -10.795  12.226  68.351  1.00  0.00    -0.220 NA 
HETATM   20  C   UNL     1     -10.959  11.929  66.921  1.00  0.00    -0.289 C  
HETATM   21  C   UNL     1     -12.201  12.682  66.395  1.00  0.00    -0.104 C  
HETATM   22  N   UNL     1     -12.141  14.137  66.623  1.00  0.00    -0.447 NA 
HETATM   23  C   UNL     1     -11.917  14.417  68.063  1.00  0.00    -0.291 C  
HETATM   24  H   UNL     1     -12.968  14.615  66.265  1.00  0.00     0.000 HD 
HETATM   25  C   UNL     1     -10.691  13.662  68.659  1.00  0.00    -0.256 C  
HETATM   26  C   UNL     1     -11.758  15.928  68.226  1.00  0.00    -0.191 C  
ENDBRANCH  14  19
ENDBRANCH   2   3
TORSDOF 2
ENDMDL
MODEL       51
REMARK 921   NORMALIZED FREE ENERGY PREDICTED BY IDOCK:   -5.73 KCAL/MOL
REMARK 922        TOTAL FREE ENERGY PREDICTED BY IDOCK:   -6.94 KCAL/MOL
REMARK 923 INTER-LIGAND FREE ENERGY PREDICTED BY IDOCK:   -6.46 KCAL/MOL
REMARK 924 INTRA-LIGAND FREE ENERGY PREDICTED BY IDOCK:   -0.49 KCAL/MOL
REMARK 927      BINDING AFFINITY PREDICTED BY RF-SCORE:    0.00 PKD
ROOT
HETATM    1  C   UNL     1      -8.958   6.815  65.948  1.00  0.00    -0.095 C  
HETATM    2  C   UNL     1      -8.335   8.137  66.374  1.00  0.00    -0.115 C  
ENDROOT
BRANCH   2   3
HETATM    3  N   UNL     1      -9.384   9.143  66.623  1.00  0.00    -0.165 NA 
HETATM    4  C   UNL     1      -9.817   9.955  65.580  1.00  0.00    -0.311 C  
HETATM    5  C   UNL     1     -10.683  10.973  65.659  1.00  0.00    -0.217 C  
HETATM    6  C   UNL     1     -11.037  11.727  64.441  1.00  0.00    -0.334 C  
HETATM    7  C   UNL     1     -11.226  11.270  66.994  1.00  0.00    -0.255 C  
HETATM    8  C   UNL     1     -10.800  10.424  68.133  1.00  0.00    -0.311 A  
HETATM    9  O   UNL     1     -12.020  12.197  67.140  1.00  0.00    -0.580 OA 
HETATM   10  O   UNL     1     -10.577  11.472  63.336  1.00  0.00    -0.381 OA 
HETATM   11  O   UNL     1     -11.915  12.734  64.635  1.00  0.00    -0.353 OA 
HETATM   12  C   UNL     1     -11.351  10.697  69.387  1.00  0.00    -0.348 A  
HETATM   13  C   UNL     1     -11.031   9.887  70.465  1.00  0.00    -0.326 A  
HETATM   14  C   UNL     1     -10.158   8.795  70.349  1.00  0.00    -0.192 A  
HETATM   15  F   UNL     1     -11.594  10.184  71.647  1.00  0.00    -0.420 F  
HETATM   16  F   UNL     1      -8.729   7.551  68.953  1.00  0.00    -0.129 F  
HETATM   17  C   UNL     1      -9.569   8.593  69.075  1.00  0.00    -0.163 A  
HETATM   18  C   UNL     1      -9.881   9.370  67.934  1.00  0.00    -0.165 A  
BRANCH  14  19
HETATM   19  N   UNL     1      -9.956   7.894  71.385  1.00  0.00    -0.170 NA 
HETATM   20  C   UNL     1      -8.767   7.981  72.243  1.00  0.00    -0.164 C  
HETATM   21  C   UNL     1      -9.185   7.702  73.704  1.00  0.00    -0.283 C  
HETATM   22  N   UNL     1      -9.863   6.405  73.879  1.00  0.00    -0.206 NA 
HETATM   23  C   UNL     1     -11.026   6.311  72.963  1.00  0.00    -0.242 C  
HETATM   24  H   UNL     1     -10.127   6.239  74.850  1.00  0.00     0.000 HD 
HETATM   25  C   UNL     1     -10.671   6.611  71.475  1.00  0.00    -0.230 C  
HETATM   26  C   UNL     1     -11.625   4.914  73.110  1.00  0.00    -0.300 C  
ENDBRANCH  14  19
ENDBRANCH   2   3
TORSDOF 2
ENDMDL
MODEL       52
REMARK 921   NORMALIZED FREE ENERGY PREDICTED BY IDOCK:   -5.71 KCAL/MOL
REMARK 922        TOTAL FREE ENERGY PREDICTED BY IDOCK:   -6.92 KCAL/MOL
REMARK 923 INTER-LIGAND FREE ENERGY PREDICTED BY IDOCK:   -6.49 KCAL/MOL
REMARK 924 INTRA-LIGAND FREE ENERGY PREDICTED BY IDOCK:   -0.42 KCAL/MOL
REMARK 927      BINDING AFFINITY PREDICTED BY RF-SCORE:    0.00 PKD
ROOT
HETATM    1  C   UNL     1     -11.949  10.067  70.707  1.00  0.00    -0.426 C  
HETATM    2  C   UNL     1     -11.481  10.775  69.443  1.00  0.00    -0.295 C  
ENDROOT
BRANCH   2   3
HETATM    3  N   UNL     1     -10.875   9.808  68.508  1.00  0.00    -0.212 NA 
HETATM    4  C   UNL     1     -10.645   8.502  68.925  1.00  0.00    -0.144 C  
HETATM    5  C   UNL     1     -10.021   7.536  68.239  1.00  0.00    -0.193 C  
HETATM    6  C   UNL     1      -9.871   6.195  68.837  1.00  0.00    -0.140 C  
HETATM    7  C   UNL     1      -9.516   7.900  66.906  1.00  0.00    -0.191 C  
HETATM    8  C   UNL     1      -9.747   9.279  66.416  1.00  0.00    -0.325 A  
HETATM    9  O   UNL     1      -8.925   7.064  66.224  1.00  0.00    -0.150 OA 
HETATM   10  O   UNL     1     -10.294   5.905  69.948  1.00  0.00    -0.199 OA 
HETATM   11  O   UNL     1      -9.224   5.300  68.061  1.00  0.00    -0.109 OA 
HETATM   12  C   UNL     1      -9.292   9.599  65.135  1.00  0.00    -0.322 A  
HETATM   13  C   UNL     1      -9.549  10.857  64.613  1.00  0.00    -0.257 A  
HETATM   14  C   UNL     1     -10.248  11.839  65.331  1.00  0.00    -0.261 A  
HETATM   15  F   UNL     1      -9.100  11.113  63.374  1.00  0.00    -0.205 F  
HETATM   16  F   UNL     1     -11.302  12.430  67.351  1.00  0.00    -0.282 F  
HETATM   17  C   UNL     1     -10.633  11.496  66.652  1.00  0.00    -0.253 A  
HETATM   18  C   UNL     1     -10.424  10.219  67.225  1.00  0.00    -0.253 A  
BRANCH  14  19
HETATM   19  N   UNL     1     -10.638  13.040  64.757  1.00  0.00    -0.341 NA 
HETATM   20  C   UNL     1     -11.447  13.065  63.531  1.00  0.00    -0.348 C  
HETATM   21  C   UNL     1     -12.510  14.178  63.658  1.00  0.00     0.176 C  
HETATM   22  N   UNL     1     -11.934  15.507  63.931  1.00  0.00    -0.986 NA 
HETATM   23  C   UNL     1     -11.074  15.449  65.139  1.00  0.00    -0.394 C  
HETATM   24  H   UNL     1     -12.652  16.227  64.008  1.00  0.00     0.000 HD 
HETATM   25  C   UNL     1      -9.997  14.324  65.081  1.00  0.00    -0.231 C  
HETATM   26  C   UNL     1     -10.422  16.820  65.314  1.00  0.00    -0.153 C  
ENDBRANCH  14  19
ENDBRANCH   2   3
TORSDOF 2
ENDMDL
MODEL       53
REMARK 921   NORMALIZED FREE ENERGY PREDICTED BY IDOCK:   -5.71 KCAL/MOL
REMARK 922        TOTAL FREE ENERGY PREDICTED BY IDOCK:   -6.91 KCAL/MOL
REMARK 923 INTER-LIGAND FREE ENERGY PREDICTED BY IDOCK:   -6.30 KCAL/MOL
REMARK 924 INTRA-LIGAND FREE ENERGY PREDICTED BY IDOCK:   -0.62 KCAL/MOL
REMARK 927      BINDING AFFINITY PREDICTED BY RF-SCORE:    0.00 PKD
ROOT
HETATM    1  C   UNL     1     -11.760  12.803  69.750  1.00  0.00    -0.352 C  
HETATM    2  C   UNL     1     -12.014  11.421  69.167  1.00  0.00    -0.328 C  
ENDROOT
BRANCH   2   3
HETATM    3  N   UNL     1     -11.481  11.336  67.794  1.00  0.00    -0.458 NA 
HETATM    4  C   UNL     1     -11.898  12.256  66.838  1.00  0.00    -0.264 C  
HETATM    5  C   UNL     1     -11.588  12.259  65.536  1.00  0.00    -0.422 C  
HETATM    6  C   UNL     1     -12.118  13.324  64.662  1.00  0.00    -0.408 C  
HETATM    7  C   UNL     1     -10.722  11.167  65.065  1.00  0.00    -0.231 C  
HETATM    8  C   UNL     1     -10.245  10.169  66.051  1.00  0.00    -0.288 A  
HETATM    9  O   UNL     1     -10.404  11.104  63.879  1.00  0.00    -0.324 OA 
HETATM   10  O   UNL     1     -12.839  14.226  65.065  1.00  0.00    -0.674 OA 
HETATM   11  O   UNL     1     -11.745  13.228  63.367  1.00  0.00    -0.421 OA 
HETATM   12  C   UNL     1      -9.395   9.159  65.595  1.00  0.00    -0.300 A  
HETATM   13  C   UNL     1      -8.872   8.246  66.498  1.00  0.00    -0.150 A  
HETATM   14  C   UNL     1      -9.173   8.290  67.867  1.00  0.00    -0.132 A  
HETATM   15  F   UNL     1      -8.053   7.300  66.012  1.00  0.00    -0.099 F  
HETATM   16  F   UNL     1     -10.387   9.340  69.588  1.00  0.00    -0.187 F  
HETATM   17  C   UNL     1     -10.091   9.290  68.278  1.00  0.00    -0.185 A  
HETATM   18  C   UNL     1     -10.632  10.265  67.406  1.00  0.00    -0.270 A  
BRANCH  14  19
HETATM   19  N   UNL     1      -8.534   7.478  68.793  1.00  0.00    -0.129 NA 
HETATM   20  C   UNL     1      -7.163   7.769  69.237  1.00  0.00    -0.081 C  
HETATM   21  C   UNL     1      -7.067   7.508  70.756  1.00  0.00    -0.059 C  
HETATM   22  N   UNL     1      -7.462   6.140  71.140  1.00  0.00    -0.084 NA 
HETATM   23  C   UNL     1      -8.824   5.844  70.633  1.00  0.00    -0.141 C  
HETATM   24  H   UNL     1      -7.387   5.989  72.145  1.00  0.00     0.000 HD 
HETATM   25  C   UNL     1      -8.992   6.115  69.107  1.00  0.00    -0.126 C  
HETATM   26  C   UNL     1      -9.140   4.387  70.966  1.00  0.00    -0.185 C  
ENDBRANCH  14  19
ENDBRANCH   2   3
TORSDOF 2
ENDMDL
MODEL       54
REMARK 921   NORMALIZED FREE ENERGY PREDICTED BY IDOCK:   -5.71 KCAL/MOL
REMARK 922        TOTAL FREE ENERGY PREDICTED BY IDOCK:   -6.91 KCAL/MOL
REMARK 923 INTER-LIGAND FREE ENERGY PREDICTED BY IDOCK:   -6.41 KCAL/MOL
REMARK 924 INTRA-LIGAND FREE ENERGY PREDICTED BY IDOCK:   -0.50 KCAL/MOL
REMARK 927      BINDING AFFINITY PREDICTED BY RF-SCORE:    0.00 PKD
ROOT
HETATM    1  C   UNL     1     -12.972  12.586  64.080  1.00  0.00    -0.212 C  
HETATM    2  C   UNL     1     -11.551  12.895  63.630  1.00  0.00    -0.485 C  
ENDROOT
BRANCH   2   3
HETATM    3  N   UNL     1     -10.765  13.446  64.751  1.00  0.00    -0.366 NA 
HETATM    4  C   UNL     1     -10.771  14.817  64.983  1.00  0.00    -0.433 C  
HETATM    5  C   UNL     1     -10.043  15.482  65.889  1.00  0.00    -0.374 C  
HETATM    6  C   UNL     1     -10.182  16.947  66.005  1.00  0.00    -0.336 C  
HETATM    7  C   UNL     1      -9.133  14.677  66.718  1.00  0.00    -0.264 C  
HETATM    8  C   UNL     1      -9.101  13.211  66.511  1.00  0.00    -0.135 A  
HETATM    9  O   UNL     1      -8.428  15.225  67.564  1.00  0.00    -0.159 OA 
HETATM   10  O   UNL     1     -10.942  17.606  65.308  1.00  0.00    -0.524 OA 
HETATM   11  O   UNL     1      -9.399  17.515  66.947  1.00  0.00    -0.253 OA 
HETATM   12  C   UNL     1      -8.257  12.457  67.330  1.00  0.00    -0.180 A  
HETATM   13  C   UNL     1      -8.248  11.075  67.214  1.00  0.00    -0.125 A  
HETATM   14  C   UNL     1      -9.056  10.395  66.291  1.00  0.00    -0.158 A  
HETATM   15  F   UNL     1      -7.427  10.395  68.030  1.00  0.00    -0.086 F  
HETATM   16  F   UNL     1     -10.624  10.559  64.544  1.00  0.00    -0.426 F  
HETATM   17  C   UNL     1      -9.847  11.201  65.434  1.00  0.00    -0.242 A  
HETATM   18  C   UNL     1      -9.918  12.612  65.527  1.00  0.00    -0.224 A  
BRANCH  14  19
HETATM   19  N   UNL     1      -9.163   9.012  66.278  1.00  0.00    -0.189 NA 
HETATM   20  C   UNL     1      -8.367   8.199  65.347  1.00  0.00    -0.155 C  
HETATM   21  C   UNL     1      -7.868   6.939  66.088  1.00  0.00    -0.102 C  
HETATM   22  N   UNL     1      -8.956   6.140  66.680  1.00  0.00    -0.126 NA 
HETATM   23  C   UNL     1      -9.784   6.991  67.571  1.00  0.00    -0.136 C  
HETATM   24  H   UNL     1      -8.605   5.313  67.161  1.00  0.00     0.000 HD 
HETATM   25  C   UNL     1     -10.295   8.294  66.886  1.00  0.00    -0.320 C  
HETATM   26  C   UNL     1     -10.952   6.144  68.073  1.00  0.00    -0.399 C  
ENDBRANCH  14  19
ENDBRANCH   2   3
TORSDOF 2
ENDMDL
MODEL       55
REMARK 921   NORMALIZED FREE ENERGY PREDICTED BY IDOCK:   -5.71 KCAL/MOL
REMARK 922        TOTAL FREE ENERGY PREDICTED BY IDOCK:   -6.91 KCAL/MOL
REMARK 923 INTER-LIGAND FREE ENERGY PREDICTED BY IDOCK:   -6.36 KCAL/MOL
REMARK 924 INTRA-LIGAND FREE ENERGY PREDICTED BY IDOCK:   -0.54 KCAL/MOL
REMARK 927      BINDING AFFINITY PREDICTED BY RF-SCORE:    0.00 PKD
ROOT
HETATM    1  C   UNL     1     -13.943   9.169  72.378  1.00  0.00    -0.488 C  
HETATM    2  C   UNL     1     -12.618   9.821  72.011  1.00  0.00    -0.347 C  
ENDROOT
BRANCH   2   3
HETATM    3  N   UNL     1     -11.724   8.839  71.366  1.00  0.00    -0.288 NA 
HETATM    4  C   UNL     1     -11.622   7.556  71.892  1.00  0.00    -0.275 C  
HETATM    5  C   UNL     1     -10.792   6.585  71.490  1.00  0.00    -0.288 C  
HETATM    6  C   UNL     1     -10.824   5.272  72.162  1.00  0.00    -0.188 C  
HETATM    7  C   UNL     1      -9.885   6.916  70.380  1.00  0.00    -0.179 C  
HETATM    8  C   UNL     1      -9.966   8.269  69.782  1.00  0.00    -0.191 A  
HETATM    9  O   UNL     1      -9.091   6.074  69.965  1.00  0.00    -0.143 OA 
HETATM   10  O   UNL     1     -11.583   5.009  73.086  1.00  0.00    -0.328 OA 
HETATM   11  O   UNL     1      -9.945   4.369  71.678  1.00  0.00    -0.179 OA 
HETATM   12  C   UNL     1      -9.122   8.556  68.706  1.00  0.00    -0.143 A  
HETATM   13  C   UNL     1      -9.214   9.787  68.075  1.00  0.00    -0.124 A  
HETATM   14  C   UNL     1     -10.125  10.773  68.483  1.00  0.00    -0.176 A  
HETATM   15  F   UNL     1      -8.389  10.011  67.040  1.00  0.00    -0.118 F  
HETATM   16  F   UNL     1     -11.791  11.405  70.021  1.00  0.00    -0.319 F  
HETATM   17  C   UNL     1     -10.916  10.467  69.620  1.00  0.00    -0.277 A  
HETATM   18  C   UNL     1     -10.885   9.217  70.285  1.00  0.00    -0.246 A  
BRANCH  14  19
HETATM   19  N   UNL     1     -10.326  11.941  67.762  1.00  0.00    -0.195 NA 
HETATM   20  C   UNL     1      -9.648  13.189  68.138  1.00  0.00    -0.227 C  
HETATM   21  C   UNL     1      -9.188  13.912  66.853  1.00  0.00    -0.259 C  
HETATM   22  N   UNL     1     -10.288  14.179  65.908  1.00  0.00    -0.304 NA 
HETATM   23  C   UNL     1     -10.998  12.916  65.585  1.00  0.00    -0.271 C  
HETATM   24  H   UNL     1      -9.963  14.659  65.069  1.00  0.00     0.000 HD 
HETATM   25  C   UNL     1     -11.463  12.126  66.846  1.00  0.00    -0.351 C  
HETATM   26  C   UNL     1     -12.186  13.264  64.691  1.00  0.00    -0.460 C  
ENDBRANCH  14  19
ENDBRANCH   2   3
TORSDOF 2
ENDMDL
MODEL       56
REMARK 921   NORMALIZED FREE ENERGY PREDICTED BY IDOCK:   -5.66 KCAL/MOL
REMARK 922        TOTAL FREE ENERGY PREDICTED BY IDOCK:   -6.86 KCAL/MOL
REMARK 923 INTER-LIGAND FREE ENERGY PREDICTED BY IDOCK:   -6.27 KCAL/MOL
REMARK 924 INTRA-LIGAND FREE ENERGY PREDICTED BY IDOCK:   -0.58 KCAL/MOL
REMARK 927      BINDING AFFINITY PREDICTED BY RF-SCORE:    0.00 PKD
ROOT
HETATM    1  C   UNL     1      -7.826   9.234  68.671  1.00  0.00    -0.089 C  
HETATM    2  C   UNL     1      -7.573  10.591  68.030  1.00  0.00    -0.091 C  
ENDROOT
BRANCH   2   3
HETATM    3  N   UNL     1      -8.521  10.822  66.924  1.00  0.00    -0.128 NA 
HETATM    4  C   UNL     1      -8.355  10.137  65.725  1.00  0.00    -0.145 C  
HETATM    5  C   UNL     1      -9.063  10.302  64.600  1.00  0.00    -0.265 C  
HETATM    6  C   UNL     1      -8.753   9.479  63.415  1.00  0.00    -0.222 C  
HETATM    7  C   UNL     1     -10.121  11.324  64.635  1.00  0.00    -0.290 C  
HETATM    8  C   UNL     1     -10.340  12.071  65.895  1.00  0.00    -0.278 A  
HETATM    9  O   UNL     1     -10.805  11.533  63.634  1.00  0.00    -0.374 OA 
HETATM   10  O   UNL     1      -7.869   8.633  63.398  1.00  0.00    -0.135 OA 
HETATM   11  O   UNL     1      -9.525   9.730  62.336  1.00  0.00    -0.259 OA 
HETATM   12  C   UNL     1     -11.372  13.012  65.922  1.00  0.00    -0.344 A  
HETATM   13  C   UNL     1     -11.653  13.684  67.102  1.00  0.00    -0.361 A  
HETATM   14  C   UNL     1     -10.930  13.461  68.283  1.00  0.00    -0.259 A  
HETATM   15  F   UNL     1     -12.660  14.571  67.080  1.00  0.00    -0.345 F  
HETATM   16  F   UNL     1      -9.148  12.326  69.320  1.00  0.00     0.232 F  
HETATM   17  C   UNL     1      -9.849  12.546  68.195  1.00  0.00    -0.221 A  
HETATM   18  C   UNL     1      -9.535  11.812  67.026  1.00  0.00    -0.185 A  
BRANCH  14  19
HETATM   19  N   UNL     1     -11.305  14.014  69.498  1.00  0.00    -0.258 NA 
HETATM   20  C   UNL     1     -10.641  15.217  70.020  1.00  0.00    -0.270 C  
HETATM   21  C   UNL     1     -11.707  16.139  70.652  1.00  0.00    -0.273 C  
HETATM   22  N   UNL     1     -12.498  15.480  71.707  1.00  0.00    -0.367 NA 
HETATM   23  C   UNL     1     -13.113  14.237  71.178  1.00  0.00    -0.343 C  
HETATM   24  H   UNL     1     -13.192  16.107  72.112  1.00  0.00     0.000 HD 
HETATM   25  C   UNL     1     -12.089  13.276  70.502  1.00  0.00    -0.314 C  
HETATM   26  C   UNL     1     -13.830  13.543  72.335  1.00  0.00    -0.687 C  
ENDBRANCH  14  19
ENDBRANCH   2   3
TORSDOF 2
ENDMDL
MODEL       57
REMARK 921   NORMALIZED FREE ENERGY PREDICTED BY IDOCK:   -5.65 KCAL/MOL
REMARK 922        TOTAL FREE ENERGY PREDICTED BY IDOCK:   -6.85 KCAL/MOL
REMARK 923 INTER-LIGAND FREE ENERGY PREDICTED BY IDOCK:   -6.29 KCAL/MOL
REMARK 924 INTRA-LIGAND FREE ENERGY PREDICTED BY IDOCK:   -0.56 KCAL/MOL
REMARK 927      BINDING AFFINITY PREDICTED BY RF-SCORE:    0.00 PKD
ROOT
HETATM    1  C   UNL     1     -13.709  14.772  71.291  1.00  0.00    -0.476 C  
HETATM    2  C   UNL     1     -12.194  14.919  71.296  1.00  0.00    -0.325 C  
ENDROOT
BRANCH   2   3
HETATM    3  N   UNL     1     -11.587  14.022  70.294  1.00  0.00    -0.219 NA 
HETATM    4  C   UNL     1     -11.816  12.653  70.371  1.00  0.00    -0.154 C  
HETATM    5  C   UNL     1     -11.266  11.701  69.605  1.00  0.00    -0.249 C  
HETATM    6  C   UNL     1     -11.631  10.288  69.823  1.00  0.00    -0.227 C  
HETATM    7  C   UNL     1     -10.312  12.153  68.582  1.00  0.00    -0.195 C  
HETATM    8  C   UNL     1     -10.045  13.605  68.457  1.00  0.00    -0.219 A  
HETATM    9  O   UNL     1      -9.763  11.331  67.849  1.00  0.00    -0.170 OA 
HETATM   10  O   UNL     1     -12.426   9.924  70.680  1.00  0.00    -0.262 OA 
HETATM   11  O   UNL     1     -11.017   9.413  68.999  1.00  0.00    -0.176 OA 
HETATM   12  C   UNL     1      -9.162  14.020  67.457  1.00  0.00    -0.197 A  
HETATM   13  C   UNL     1      -8.938  15.375  67.263  1.00  0.00    -0.198 A  
HETATM   14  C   UNL     1      -9.562  16.358  68.046  1.00  0.00    -0.226 A  
HETATM   15  F   UNL     1      -8.090  15.724  66.283  1.00  0.00    -0.291 F  
HETATM   16  F   UNL     1     -11.000  16.825  69.850  1.00  0.00    -0.333 F  
HETATM   17  C   UNL     1     -10.398  15.892  69.092  1.00  0.00    -0.237 A  
HETATM   18  C   UNL     1     -10.686  14.524  69.318  1.00  0.00    -0.226 A  
BRANCH  14  19
HETATM   19  N   UNL     1      -9.460  17.711  67.757  1.00  0.00    -0.257 NA 
HETATM   20  C   UNL     1      -8.592  18.591  68.551  1.00  0.00    -0.324 C  
HETATM   21  C   UNL     1      -7.876  19.575  67.599  1.00  0.00    -0.279 C  
HETATM   22  N   UNL     1      -8.805  20.365  66.770  1.00  0.00    -0.531 NA 
HETATM   23  C   UNL     1      -9.711  19.461  66.021  1.00  0.00    -0.272 C  
HETATM   24  H   UNL     1      -8.312  21.010  66.153  1.00  0.00     0.000 HD 
HETATM   25  C   UNL     1     -10.443  18.424  66.926  1.00  0.00    -0.389 C  
HETATM   26  C   UNL     1     -10.715  20.328  65.264  1.00  0.00     0.134 C  
ENDBRANCH  14  19
ENDBRANCH   2   3
TORSDOF 2
ENDMDL
MODEL       58
REMARK 921   NORMALIZED FREE ENERGY PREDICTED BY IDOCK:   -5.65 KCAL/MOL
REMARK 922        TOTAL FREE ENERGY PREDICTED BY IDOCK:   -6.85 KCAL/MOL
REMARK 923 INTER-LIGAND FREE ENERGY PREDICTED BY IDOCK:   -6.24 KCAL/MOL
REMARK 924 INTRA-LIGAND FREE ENERGY PREDICTED BY IDOCK:   -0.61 KCAL/MOL
REMARK 927      BINDING AFFINITY PREDICTED BY RF-SCORE:    0.00 PKD
ROOT
HETATM    1  C   UNL     1      -6.029  12.513  68.714  1.00  0.00    -0.066 C  
HETATM    2  C   UNL     1      -6.644  13.408  67.648  1.00  0.00    -0.167 C  
ENDROOT
BRANCH   2   3
HETATM    3  N   UNL     1      -8.102  13.520  67.848  1.00  0.00    -0.150 NA 
HETATM    4  C   UNL     1      -8.852  12.371  68.078  1.00  0.00    -0.187 C  
HETATM    5  C   UNL     1     -10.185  12.289  68.182  1.00  0.00    -0.212 C  
HETATM    6  C   UNL     1     -10.818  10.980  68.435  1.00  0.00    -0.220 C  
HETATM    7  C   UNL     1     -10.933  13.546  68.026  1.00  0.00    -0.251 C  
HETATM    8  C   UNL     1     -10.174  14.796  67.790  1.00  0.00    -0.232 A  
HETATM    9  O   UNL     1     -12.161  13.542  68.102  1.00  0.00    -0.346 OA 
HETATM   10  O   UNL     1     -10.184   9.941  68.561  1.00  0.00    -0.164 OA 
HETATM   11  O   UNL     1     -12.165  11.012  68.519  1.00  0.00    -0.582 OA 
HETATM   12  C   UNL     1     -10.898  15.985  67.680  1.00  0.00    -0.311 A  
HETATM   13  C   UNL     1     -10.220  17.185  67.527  1.00  0.00    -0.323 A  
HETATM   14  C   UNL     1      -8.820  17.254  67.469  1.00  0.00    -0.218 A  
HETATM   15  F   UNL     1     -10.960  18.302  67.435  1.00  0.00    -0.412 F  
HETATM   16  F   UNL     1      -6.785  16.072  67.461  1.00  0.00    -0.132 F  
HETATM   17  C   UNL     1      -8.127  16.018  67.518  1.00  0.00    -0.148 A  
HETATM   18  C   UNL     1      -8.764  14.767  67.702  1.00  0.00    -0.178 A  
BRANCH  14  19
HETATM   19  N   UNL     1      -8.137  18.461  67.470  1.00  0.00    -0.245 NA 
HETATM   20  C   UNL     1      -7.980  19.241  68.706  1.00  0.00    -0.357 C  
HETATM   21  C   UNL     1      -6.550  19.822  68.750  1.00  0.00    -0.309 C  
HETATM   22  N   UNL     1      -6.216  20.640  67.570  1.00  0.00    -0.235 NA 
HETATM   23  C   UNL     1      -6.436  19.857  66.330  1.00  0.00    -0.205 C  
HETATM   24  H   UNL     1      -5.270  21.017  67.621  1.00  0.00     0.000 HD 
HETATM   25  C   UNL     1      -7.856  19.220  66.241  1.00  0.00    -0.299 C  
HETATM   26  C   UNL     1      -6.178  20.781  65.141  1.00  0.00    -0.294 C  
ENDBRANCH  14  19
ENDBRANCH   2   3
TORSDOF 2
ENDMDL
MODEL       59
REMARK 921   NORMALIZED FREE ENERGY PREDICTED BY IDOCK:   -5.65 KCAL/MOL
REMARK 922        TOTAL FREE ENERGY PREDICTED BY IDOCK:   -6.84 KCAL/MOL
REMARK 923 INTER-LIGAND FREE ENERGY PREDICTED BY IDOCK:   -6.33 KCAL/MOL
REMARK 924 INTRA-LIGAND FREE ENERGY PREDICTED BY IDOCK:   -0.51 KCAL/MOL
REMARK 927      BINDING AFFINITY PREDICTED BY RF-SCORE:    0.00 PKD
ROOT
HETATM    1  C   UNL     1     -12.173  14.615  64.488  1.00  0.00    -0.473 C  
HETATM    2  C   UNL     1     -12.083  13.984  65.870  1.00  0.00    -0.428 C  
ENDROOT
BRANCH   2   3
HETATM    3  N   UNL     1     -10.734  14.177  66.436  1.00  0.00    -0.286 NA 
HETATM    4  C   UNL     1     -10.085  15.394  66.261  1.00  0.00    -0.292 C  
HETATM    5  C   UNL     1      -8.831  15.696  66.624  1.00  0.00    -0.327 C  
HETATM    6  C   UNL     1      -8.303  17.050  66.367  1.00  0.00    -0.284 C  
HETATM    7  C   UNL     1      -8.057  14.622  67.266  1.00  0.00    -0.206 C  
HETATM    8  C   UNL     1      -8.713  13.311  67.481  1.00  0.00    -0.202 A  
HETATM    9  O   UNL     1      -6.897  14.828  67.617  1.00  0.00    -0.162 OA 
HETATM   10  O   UNL     1      -8.956  17.935  65.830  1.00  0.00    -0.512 OA 
HETATM   11  O   UNL     1      -7.029  17.244  66.769  1.00  0.00    -0.170 OA 
HETATM   12  C   UNL     1      -7.976  12.313  68.122  1.00  0.00    -0.155 A  
HETATM   13  C   UNL     1      -8.575  11.095  68.403  1.00  0.00    -0.152 A  
HETATM   14  C   UNL     1      -9.906  10.816  68.057  1.00  0.00    -0.165 A  
HETATM   15  F   UNL     1      -7.829  10.172  69.030  1.00  0.00    -0.080 F  
HETATM   16  F   UNL     1     -11.872  11.574  67.010  1.00  0.00    -0.334 F  
HETATM   17  C   UNL     1     -10.597  11.831  67.348  1.00  0.00    -0.224 A  
HETATM   18  C   UNL     1     -10.045  13.103  67.060  1.00  0.00    -0.241 A  
BRANCH  14  19
HETATM   19  N   UNL     1     -10.553   9.661  68.471  1.00  0.00    -0.219 NA 
HETATM   20  C   UNL     1     -10.885   8.595  67.515  1.00  0.00    -0.017 C  
HETATM   21  C   UNL     1     -10.614   7.228  68.181  1.00  0.00    -0.177 C  
HETATM   22  N   UNL     1     -11.344   7.040  69.448  1.00  0.00    -0.512 NA 
HETATM   23  C   UNL     1     -11.042   8.156  70.378  1.00  0.00    -0.239 C  
HETATM   24  H   UNL     1     -11.154   6.131  69.867  1.00  0.00     0.000 HD 
HETATM   25  C   UNL     1     -11.271   9.565  69.752  1.00  0.00    -0.144 C  
HETATM   26  C   UNL     1     -11.901   7.968  71.627  1.00  0.00    -0.329 C  
ENDBRANCH  14  19
ENDBRANCH   2   3
TORSDOF 2
ENDMDL
MODEL       60
REMARK 921   NORMALIZED FREE ENERGY PREDICTED BY IDOCK:   -5.62 KCAL/MOL
REMARK 922        TOTAL FREE ENERGY PREDICTED BY IDOCK:   -6.81 KCAL/MOL
REMARK 923 INTER-LIGAND FREE ENERGY PREDICTED BY IDOCK:   -6.34 KCAL/MOL
REMARK 924 INTRA-LIGAND FREE ENERGY PREDICTED BY IDOCK:   -0.47 KCAL/MOL
REMARK 927      BINDING AFFINITY PREDICTED BY RF-SCORE:    0.00 PKD
ROOT
HETATM    1  C   UNL     1      -7.036   8.214  65.264  1.00  0.00    -0.063 C  
HETATM    2  C   UNL     1      -8.556   8.150  65.206  1.00  0.00    -0.106 C  
ENDROOT
BRANCH   2   3
HETATM    3  N   UNL     1      -9.129   8.307  66.556  1.00  0.00    -0.167 NA 
HETATM    4  C   UNL     1      -8.960   7.295  67.495  1.00  0.00    -0.122 C  
HETATM    5  C   UNL     1      -9.494   7.238  68.722  1.00  0.00    -0.142 C  
HETATM    6  C   UNL     1      -9.202   6.084  69.593  1.00  0.00    -0.138 C  
HETATM    7  C   UNL     1     -10.359   8.362  69.113  1.00  0.00    -0.220 C  
HETATM    8  C   UNL     1     -10.559   9.469  68.148  1.00  0.00    -0.265 A  
HETATM    9  O   UNL     1     -10.889   8.371  70.223  1.00  0.00    -0.236 OA 
HETATM   10  O   UNL     1      -8.482   5.153  69.255  1.00  0.00    -0.092 OA 
HETATM   11  O   UNL     1      -9.794   6.128  70.805  1.00  0.00    -0.181 OA 
HETATM   12  C   UNL     1     -11.354  10.545  68.548  1.00  0.00    -0.320 A  
HETATM   13  C   UNL     1     -11.510  11.631  67.701  1.00  0.00    -0.303 A  
HETATM   14  C   UNL     1     -10.902  11.691  66.438  1.00  0.00    -0.287 A  
HETATM   15  F   UNL     1     -12.276  12.645  68.135  1.00  0.00    -0.358 F  
HETATM   16  F   UNL     1      -9.572  10.596  64.835  1.00  0.00    -0.226 F  
HETATM   17  C   UNL     1     -10.158  10.550  66.044  1.00  0.00    -0.256 A  
HETATM   18  C   UNL     1      -9.941   9.427  66.878  1.00  0.00    -0.229 A  
BRANCH  14  19
HETATM   19  N   UNL     1     -10.930  12.836  65.656  1.00  0.00    -0.269 NA 
HETATM   20  C   UNL     1     -11.585  12.838  64.340  1.00  0.00    -0.361 C  
HETATM   21  C   UNL     1     -12.352  14.168  64.168  1.00  0.00    -0.335 C  
HETATM   22  N   UNL     1     -11.498  15.359  64.328  1.00  0.00    -0.721 NA 
HETATM   23  C   UNL     1     -10.800  15.310  65.637  1.00  0.00    -0.363 C  
HETATM   24  H   UNL     1     -12.022  16.224  64.207  1.00  0.00     0.000 HD 
HETATM   25  C   UNL     1     -10.029  13.978  65.881  1.00  0.00    -0.307 C  
HETATM   26  C   UNL     1      -9.853  16.508  65.706  1.00  0.00    -0.275 C  
ENDBRANCH  14  19
ENDBRANCH   2   3
TORSDOF 2
ENDMDL
MODEL       61
REMARK 921   NORMALIZED FREE ENERGY PREDICTED BY IDOCK:   -5.62 KCAL/MOL
REMARK 922        TOTAL FREE ENERGY PREDICTED BY IDOCK:   -6.81 KCAL/MOL
REMARK 923 INTER-LIGAND FREE ENERGY PREDICTED BY IDOCK:   -6.40 KCAL/MOL
REMARK 924 INTRA-LIGAND FREE ENERGY PREDICTED BY IDOCK:   -0.41 KCAL/MOL
REMARK 927      BINDING AFFINITY PREDICTED BY RF-SCORE:    0.00 PKD
ROOT
HETATM    1  C   UNL     1     -12.790  15.482  70.637  1.00  0.00    -0.466 C  
HETATM    2  C   UNL     1     -11.803  14.350  70.388  1.00  0.00    -0.312 C  
ENDROOT
BRANCH   2   3
HETATM    3  N   UNL     1     -11.120  14.538  69.094  1.00  0.00    -0.253 NA 
HETATM    4  C   UNL     1     -11.050  15.809  68.535  1.00  0.00    -0.335 C  
HETATM    5  C   UNL     1     -10.556  16.133  67.333  1.00  0.00    -0.311 C  
HETATM    6  C   UNL     1     -10.555  17.544  66.900  1.00  0.00    -0.219 C  
HETATM    7  C   UNL     1     -10.043  15.023  66.514  1.00  0.00    -0.276 C  
HETATM    8  C   UNL     1     -10.089  13.653  67.075  1.00  0.00    -0.248 A  
HETATM    9  O   UNL     1      -9.583  15.248  65.396  1.00  0.00    -0.279 OA 
HETATM   10  O   UNL     1     -10.986  18.458  67.589  1.00  0.00    -0.346 OA 
HETATM   11  O   UNL     1     -10.037  17.756  65.671  1.00  0.00    -0.570 OA 
HETATM   12  C   UNL     1      -9.566  12.615  66.299  1.00  0.00    -0.244 A  
HETATM   13  C   UNL     1      -9.527  11.329  66.815  1.00  0.00    -0.179 A  
HETATM   14  C   UNL     1     -10.007  11.021  68.097  1.00  0.00    -0.177 A  
HETATM   15  F   UNL     1      -9.007  10.369  66.035  1.00  0.00    -0.151 F  
HETATM   16  F   UNL     1     -11.054  11.805  70.053  1.00  0.00    -0.225 F  
HETATM   17  C   UNL     1     -10.589  12.089  68.824  1.00  0.00    -0.209 A  
HETATM   18  C   UNL     1     -10.629  13.426  68.360  1.00  0.00    -0.248 A  
BRANCH  14  19
HETATM   19  N   UNL     1      -9.831   9.771  68.673  1.00  0.00    -0.154 NA 
HETATM   20  C   UNL     1      -8.806   9.550  69.704  1.00  0.00    -0.187 C  
HETATM   21  C   UNL     1      -9.390   8.628  70.796  1.00  0.00    -0.191 C  
HETATM   22  N   UNL     1      -9.889   7.343  70.270  1.00  0.00    -0.186 NA 
HETATM   23  C   UNL     1     -10.877   7.586  69.191  1.00  0.00    -0.088 C  
HETATM   24  H   UNL     1     -10.266   6.749  71.008  1.00  0.00     0.000 HD 
HETATM   25  C   UNL     1     -10.354   8.535  68.071  1.00  0.00    -0.217 C  
HETATM   26  C   UNL     1     -11.280   6.230  68.614  1.00  0.00    -0.328 C  
ENDBRANCH  14  19
ENDBRANCH   2   3
TORSDOF 2
ENDMDL
MODEL       62
REMARK 921   NORMALIZED FREE ENERGY PREDICTED BY IDOCK:   -5.60 KCAL/MOL
REMARK 922        TOTAL FREE ENERGY PREDICTED BY IDOCK:   -6.79 KCAL/MOL
REMARK 923 INTER-LIGAND FREE ENERGY PREDICTED BY IDOCK:   -6.31 KCAL/MOL
REMARK 924 INTRA-LIGAND FREE ENERGY PREDICTED BY IDOCK:   -0.48 KCAL/MOL
REMARK 927      BINDING AFFINITY PREDICTED BY RF-SCORE:    0.00 PKD
ROOT
HETATM    1  C   UNL     1      -6.474  12.422  68.877  1.00  0.00    -0.090 C  
HETATM    2  C   UNL     1      -6.536  13.298  67.635  1.00  0.00    -0.167 C  
ENDROOT
BRANCH   2   3
HETATM    3  N   UNL     1      -7.918  13.760  67.399  1.00  0.00    -0.173 NA 
HETATM    4  C   UNL     1      -8.902  12.835  67.066  1.00  0.00    -0.213 C  
HETATM    5  C   UNL     1     -10.171  13.097  66.729  1.00  0.00    -0.252 C  
HETATM    6  C   UNL     1     -11.086  11.984  66.410  1.00  0.00    -0.318 C  
HETATM    7  C   UNL     1     -10.561  14.515  66.698  1.00  0.00    -0.283 C  
HETATM    8  C   UNL     1      -9.548  15.534  67.056  1.00  0.00    -0.233 A  
HETATM    9  O   UNL     1     -11.710  14.828  66.389  1.00  0.00    -0.346 OA 
HETATM   10  O   UNL     1     -10.749  10.808  66.438  1.00  0.00    -0.234 OA 
HETATM   11  O   UNL     1     -12.340  12.362  66.081  1.00  0.00    -0.606 OA 
HETATM   12  C   UNL     1      -9.945  16.874  67.056  1.00  0.00    -0.279 A  
HETATM   13  C   UNL     1      -9.045  17.853  67.450  1.00  0.00    -0.245 A  
HETATM   14  C   UNL     1      -7.734  17.551  67.846  1.00  0.00    -0.213 A  
HETATM   15  F   UNL     1      -9.477  19.124  67.442  1.00  0.00    -0.310 F  
HETATM   16  F   UNL     1      -6.096  15.887  68.144  1.00  0.00    -0.098 F  
HETATM   17  C   UNL     1      -7.352  16.188  67.769  1.00  0.00    -0.135 A  
HETATM   18  C   UNL     1      -8.235  15.144  67.401  1.00  0.00    -0.193 A  
BRANCH  14  19
HETATM   19  N   UNL     1      -6.884  18.506  68.385  1.00  0.00    -0.244 NA 
HETATM   20  C   UNL     1      -6.119  19.414  67.520  1.00  0.00    -0.194 C  
HETATM   21  C   UNL     1      -6.127  20.825  68.148  1.00  0.00    -0.328 C  
HETATM   22  N   UNL     1      -5.605  20.853  69.526  1.00  0.00    -0.379 NA 
HETATM   23  C   UNL     1      -6.351  19.888  70.371  1.00  0.00    -0.262 C  
HETATM   24  H   UNL     1      -5.616  21.793  69.920  1.00  0.00     0.000 HD 
HETATM   25  C   UNL     1      -6.401  18.449  69.774  1.00  0.00    -0.132 C  
HETATM   26  C   UNL     1      -5.704  19.882  71.755  1.00  0.00    -0.382 C  
ENDBRANCH  14  19
ENDBRANCH   2   3
TORSDOF 2
ENDMDL
MODEL       63
REMARK 921   NORMALIZED FREE ENERGY PREDICTED BY IDOCK:   -5.55 KCAL/MOL
REMARK 922        TOTAL FREE ENERGY PREDICTED BY IDOCK:   -6.74 KCAL/MOL
REMARK 923 INTER-LIGAND FREE ENERGY PREDICTED BY IDOCK:   -6.22 KCAL/MOL
REMARK 924 INTRA-LIGAND FREE ENERGY PREDICTED BY IDOCK:   -0.52 KCAL/MOL
REMARK 927      BINDING AFFINITY PREDICTED BY RF-SCORE:    0.00 PKD
ROOT
HETATM    1  C   UNL     1     -13.846   9.413  71.464  1.00  0.00    -0.297 C  
HETATM    2  C   UNL     1     -12.390   9.846  71.562  1.00  0.00    -0.412 C  
ENDROOT
BRANCH   2   3
HETATM    3  N   UNL     1     -12.221  11.208  71.020  1.00  0.00    -0.354 NA 
HETATM    4  C   UNL     1     -12.883  12.272  71.623  1.00  0.00    -0.273 C  
HETATM    5  C   UNL     1     -12.913  13.543  71.201  1.00  0.00    -0.338 C  
HETATM    6  C   UNL     1     -13.665  14.551  71.973  1.00  0.00    -0.436 C  
HETATM    7  C   UNL     1     -12.177  13.840  69.963  1.00  0.00    -0.342 C  
HETATM    8  C   UNL     1     -11.449  12.738  69.292  1.00  0.00    -0.349 A  
HETATM    9  O   UNL     1     -12.169  14.986  69.514  1.00  0.00    -0.290 OA 
HETATM   10  O   UNL     1     -14.276  14.290  73.001  1.00  0.00    -0.272 OA 
HETATM   11  O   UNL     1     -13.632  15.798  71.457  1.00  0.00    -0.488 OA 
HETATM   12  C   UNL     1     -10.725  13.045  68.137  1.00  0.00    -0.258 A  
HETATM   13  C   UNL     1      -9.975  12.057  67.518  1.00  0.00    -0.192 A  
HETATM   14  C   UNL     1      -9.919  10.742  68.005  1.00  0.00    -0.164 A  
HETATM   15  F   UNL     1      -9.290  12.403  66.417  1.00  0.00    -0.220 F  
HETATM   16  F   UNL     1     -10.675   9.200  69.614  1.00  0.00    -0.217 F  
HETATM   17  C   UNL     1     -10.720  10.458  69.140  1.00  0.00    -0.234 A  
HETATM   18  C   UNL     1     -11.481  11.432  69.829  1.00  0.00    -0.300 A  
BRANCH  14  19
HETATM   19  N   UNL     1      -9.053   9.794  67.480  1.00  0.00    -0.131 NA 
HETATM   20  C   UNL     1      -9.563   8.623  66.754  1.00  0.00    -0.207 C  
HETATM   21  C   UNL     1      -8.652   8.358  65.535  1.00  0.00    -0.176 C  
HETATM   22  N   UNL     1      -7.234   8.174  65.894  1.00  0.00    -0.071 NA 
HETATM   23  C   UNL     1      -6.754   9.339  66.677  1.00  0.00    -0.076 C  
HETATM   24  H   UNL     1      -6.653   7.997  65.076  1.00  0.00     0.000 HD 
HETATM   25  C   UNL     1      -7.650   9.674  67.907  1.00  0.00    -0.083 C  
HETATM   26  C   UNL     1      -5.318   9.050  67.110  1.00  0.00    -0.040 C  
ENDBRANCH  14  19
ENDBRANCH   2   3
TORSDOF 2
ENDMDL
MODEL       64
REMARK 921   NORMALIZED FREE ENERGY PREDICTED BY IDOCK:   -5.52 KCAL/MOL
REMARK 922        TOTAL FREE ENERGY PREDICTED BY IDOCK:   -6.70 KCAL/MOL
REMARK 923 INTER-LIGAND FREE ENERGY PREDICTED BY IDOCK:   -6.13 KCAL/MOL
REMARK 924 INTRA-LIGAND FREE ENERGY PREDICTED BY IDOCK:   -0.58 KCAL/MOL
REMARK 927      BINDING AFFINITY PREDICTED BY RF-SCORE:    0.00 PKD
ROOT
HETATM    1  C   UNL     1      -8.625   9.580  64.866  1.00  0.00    -0.191 C  
HETATM    2  C   UNL     1      -9.572   8.882  65.832  1.00  0.00    -0.223 C  
ENDROOT
BRANCH   2   3
HETATM    3  N   UNL     1     -10.343   9.876  66.604  1.00  0.00    -0.224 NA 
HETATM    4  C   UNL     1     -10.863  10.992  65.958  1.00  0.00    -0.122 C  
HETATM    5  C   UNL     1     -11.496  12.027  66.525  1.00  0.00    -0.413 C  
HETATM    6  C   UNL     1     -11.991  13.132  65.680  1.00  0.00    -0.415 C  
HETATM    7  C   UNL     1     -11.649  11.981  67.987  1.00  0.00    -0.342 C  
HETATM    8  C   UNL     1     -11.120  10.805  68.715  1.00  0.00    -0.312 A  
HETATM    9  O   UNL     1     -12.214  12.902  68.574  1.00  0.00    -0.203 OA 
HETATM   10  O   UNL     1     -11.856  13.160  64.464  1.00  0.00    -0.344 OA 
HETATM   11  O   UNL     1     -12.611  14.123  66.355  1.00  0.00    -0.427 OA 
HETATM   12  C   UNL     1     -11.305  10.760  70.100  1.00  0.00    -0.390 A  
HETATM   13  C   UNL     1     -10.885   9.645  70.809  1.00  0.00    -0.330 A  
HETATM   14  C   UNL     1     -10.265   8.550  70.187  1.00  0.00    -0.195 A  
HETATM   15  F   UNL     1     -11.093   9.645  72.135  1.00  0.00    -0.288 F  
HETATM   16  F   UNL     1      -9.443   7.622  68.187  1.00  0.00    -0.143 F  
HETATM   17  C   UNL     1     -10.038   8.665  68.793  1.00  0.00    -0.196 A  
HETATM   18  C   UNL     1     -10.471   9.765  68.014  1.00  0.00    -0.226 A  
BRANCH  14  19
HETATM   19  N   UNL     1      -9.984   7.374  70.867  1.00  0.00    -0.185 NA 
HETATM   20  C   UNL     1     -10.977   6.293  70.951  1.00  0.00    -0.286 C  
HETATM   21  C   UNL     1     -10.253   4.939  70.780  1.00  0.00    -0.206 C  
HETATM   22  N   UNL     1      -9.168   4.730  71.755  1.00  0.00    -0.135 NA 
HETATM   23  C   UNL     1      -8.207   5.859  71.697  1.00  0.00    -0.119 C  
HETATM   24  H   UNL     1      -8.707   3.829  71.627  1.00  0.00     0.000 HD 
HETATM   25  C   UNL     1      -8.883   7.257  71.836  1.00  0.00    -0.122 C  
HETATM   26  C   UNL     1      -7.167   5.645  72.794  1.00  0.00    -0.090 C  
ENDBRANCH  14  19
ENDBRANCH   2   3
TORSDOF 2
ENDMDL
MODEL       65
REMARK 921   NORMALIZED FREE ENERGY PREDICTED BY IDOCK:   -5.48 KCAL/MOL
REMARK 922        TOTAL FREE ENERGY PREDICTED BY IDOCK:   -6.66 KCAL/MOL
REMARK 923 INTER-LIGAND FREE ENERGY PREDICTED BY IDOCK:   -6.18 KCAL/MOL
REMARK 924 INTRA-LIGAND FREE ENERGY PREDICTED BY IDOCK:   -0.48 KCAL/MOL
REMARK 927      BINDING AFFINITY PREDICTED BY RF-SCORE:    0.00 PKD
ROOT
HETATM    1  C   UNL     1      -6.666  10.582  67.320  1.00  0.00    -0.077 C  
HETATM    2  C   UNL     1      -7.390  11.919  67.250  1.00  0.00    -0.146 C  
ENDROOT
BRANCH   2   3
HETATM    3  N   UNL     1      -8.640  11.868  68.032  1.00  0.00    -0.160 NA 
HETATM    4  C   UNL     1      -9.053  10.662  68.586  1.00  0.00    -0.170 C  
HETATM    5  C   UNL     1     -10.201  10.426  69.236  1.00  0.00    -0.248 C  
HETATM    6  C   UNL     1     -10.475   9.077  69.767  1.00  0.00    -0.218 C  
HETATM    7  C   UNL     1     -11.125  11.563  69.367  1.00  0.00    -0.226 C  
HETATM    8  C   UNL     1     -10.721  12.871  68.800  1.00  0.00    -0.249 A  
HETATM    9  O   UNL     1     -12.201  11.415  69.944  1.00  0.00    -0.298 OA 
HETATM   10  O   UNL     1      -9.699   8.138  69.650  1.00  0.00    -0.168 OA 
HETATM   11  O   UNL     1     -11.661   8.951  70.400  1.00  0.00    -0.219 OA 
HETATM   12  C   UNL     1     -11.595  13.948  68.964  1.00  0.00    -0.351 A  
HETATM   13  C   UNL     1     -11.223  15.204  68.508  1.00  0.00    -0.293 A  
HETATM   14  C   UNL     1      -9.995  15.438  67.873  1.00  0.00    -0.221 A  
HETATM   15  F   UNL     1     -12.093  16.209  68.698  1.00  0.00    -0.354 F  
HETATM   16  F   UNL     1      -7.988  14.518  67.058  1.00  0.00    -0.207 F  
HETATM   17  C   UNL     1      -9.167  14.306  67.668  1.00  0.00    -0.194 A  
HETATM   18  C   UNL     1      -9.481  13.007  68.137  1.00  0.00    -0.218 A  
BRANCH  14  19
HETATM   19  N   UNL     1      -9.556  16.716  67.555  1.00  0.00    -0.240 NA 
HETATM   20  C   UNL     1      -9.915  17.343  66.276  1.00  0.00    -0.297 C  
HETATM   21  C   UNL     1     -10.242  18.832  66.525  1.00  0.00    -0.413 C  
HETATM   22  N   UNL     1      -9.145  19.568  67.179  1.00  0.00    -0.299 NA 
HETATM   23  C   UNL     1      -8.757  18.888  68.439  1.00  0.00    -0.345 C  
HETATM   24  H   UNL     1      -9.380  20.549  67.331  1.00  0.00     0.000 HD 
HETATM   25  C   UNL     1      -8.441  17.373  68.256  1.00  0.00    -0.249 C  
HETATM   26  C   UNL     1      -7.553  19.629  69.019  1.00  0.00    -0.320 C  
ENDBRANCH  14  19
ENDBRANCH   2   3
TORSDOF 2
ENDMDL
MODEL       66
REMARK 921   NORMALIZED FREE ENERGY PREDICTED BY IDOCK:   -5.48 KCAL/MOL
REMARK 922        TOTAL FREE ENERGY PREDICTED BY IDOCK:   -6.66 KCAL/MOL
REMARK 923 INTER-LIGAND FREE ENERGY PREDICTED BY IDOCK:   -6.13 KCAL/MOL
REMARK 924 INTRA-LIGAND FREE ENERGY PREDICTED BY IDOCK:   -0.53 KCAL/MOL
REMARK 927      BINDING AFFINITY PREDICTED BY RF-SCORE:    0.00 PKD
ROOT
HETATM    1  C   UNL     1      -9.796   4.747  67.997  1.00  0.00    -0.185 C  
HETATM    2  C   UNL     1      -9.731   6.265  68.090  1.00  0.00    -0.122 C  
ENDROOT
BRANCH   2   3
HETATM    3  N   UNL     1     -10.126   6.715  69.439  1.00  0.00    -0.169 NA 
HETATM    4  C   UNL     1     -10.164   5.798  70.484  1.00  0.00    -0.221 C  
HETATM    5  C   UNL     1     -10.590   6.021  71.734  1.00  0.00    -0.277 C  
HETATM    6  C   UNL     1     -10.553   4.926  72.723  1.00  0.00    -0.217 C  
HETATM    7  C   UNL     1     -11.079   7.376  72.028  1.00  0.00    -0.242 C  
HETATM    8  C   UNL     1     -11.047   8.389  70.947  1.00  0.00    -0.289 A  
HETATM    9  O   UNL     1     -11.493   7.648  73.154  1.00  0.00    -0.314 OA 
HETATM   10  O   UNL     1     -10.146   3.801  72.465  1.00  0.00    -0.156 OA 
HETATM   11  O   UNL     1     -11.008   5.259  73.950  1.00  0.00    -0.275 OA 
HETATM   12  C   UNL     1     -11.482   9.681  71.253  1.00  0.00    -0.463 A  
HETATM   13  C   UNL     1     -11.405  10.674  70.289  1.00  0.00    -0.319 A  
HETATM   14  C   UNL     1     -10.910  10.430  68.999  1.00  0.00    -0.234 A  
HETATM   15  F   UNL     1     -11.826  11.901  70.635  1.00  0.00    -0.417 F  
HETATM   16  F   UNL     1     -10.067   8.846  67.476  1.00  0.00    -0.210 F  
HETATM   17  C   UNL     1     -10.541   9.092  68.710  1.00  0.00    -0.169 A  
HETATM   18  C   UNL     1     -10.572   8.045  69.662  1.00  0.00    -0.223 A  
BRANCH  14  19
HETATM   19  N   UNL     1     -10.688  11.450  68.085  1.00  0.00    -0.191 NA 
HETATM   20  C   UNL     1     -11.666  11.744  67.028  1.00  0.00    -0.167 C  
HETATM   21  C   UNL     1     -11.784  13.276  66.872  1.00  0.00    -0.388 C  
HETATM   22  N   UNL     1     -10.495  13.935  66.591  1.00  0.00    -0.270 NA 
HETATM   23  C   UNL     1      -9.505  13.580  67.637  1.00  0.00    -0.222 C  
HETATM   24  H   UNL     1     -10.597  14.945  66.488  1.00  0.00     0.000 HD 
HETATM   25  C   UNL     1      -9.361  12.044  67.860  1.00  0.00    -0.190 C  
HETATM   26  C   UNL     1      -8.166  14.201  67.243  1.00  0.00    -0.200 C  
ENDBRANCH  14  19
ENDBRANCH   2   3
TORSDOF 2
ENDMDL
MODEL       67
REMARK 921   NORMALIZED FREE ENERGY PREDICTED BY IDOCK:   -5.44 KCAL/MOL
REMARK 922        TOTAL FREE ENERGY PREDICTED BY IDOCK:   -6.62 KCAL/MOL
REMARK 923 INTER-LIGAND FREE ENERGY PREDICTED BY IDOCK:   -6.01 KCAL/MOL
REMARK 924 INTRA-LIGAND FREE ENERGY PREDICTED BY IDOCK:   -0.60 KCAL/MOL
REMARK 927      BINDING AFFINITY PREDICTED BY RF-SCORE:    0.00 PKD
ROOT
HETATM    1  C   UNL     1     -13.610   7.524  71.358  1.00  0.00    -0.397 C  
HETATM    2  C   UNL     1     -12.293   8.130  71.819  1.00  0.00    -0.321 C  
ENDROOT
BRANCH   2   3
HETATM    3  N   UNL     1     -12.024   9.387  71.096  1.00  0.00    -0.317 NA 
HETATM    4  C   UNL     1     -12.545  10.582  71.581  1.00  0.00    -0.393 C  
HETATM    5  C   UNL     1     -12.476  11.785  70.997  1.00  0.00    -0.411 C  
HETATM    6  C   UNL     1     -13.083  12.955  71.661  1.00  0.00    -0.335 C  
HETATM    7  C   UNL     1     -11.786  11.846  69.699  1.00  0.00    -0.337 C  
HETATM    8  C   UNL     1     -11.207  10.598  69.149  1.00  0.00    -0.324 A  
HETATM    9  O   UNL     1     -11.694  12.918  69.103  1.00  0.00    -0.290 OA 
HETATM   10  O   UNL     1     -13.656  12.892  72.741  1.00  0.00    -0.508 OA 
HETATM   11  O   UNL     1     -12.958  14.116  70.984  1.00  0.00    -0.333 OA 
HETATM   12  C   UNL     1     -10.524  10.680  67.932  1.00  0.00    -0.243 A  
HETATM   13  C   UNL     1      -9.910   9.549  67.417  1.00  0.00    -0.170 A  
HETATM   14  C   UNL     1      -9.953   8.308  68.070  1.00  0.00    -0.185 A  
HETATM   15  F   UNL     1      -9.258   9.680  66.251  1.00  0.00    -0.160 F  
HETATM   16  F   UNL     1     -10.761   7.069  69.901  1.00  0.00    -0.217 F  
HETATM   17  C   UNL     1     -10.711   8.254  69.267  1.00  0.00    -0.128 A  
HETATM   18  C   UNL     1     -11.335   9.381  69.854  1.00  0.00    -0.093 A  
BRANCH  14  19
HETATM   19  N   UNL     1      -9.214   7.217  67.638  1.00  0.00    -0.126 NA 
HETATM   20  C   UNL     1      -7.765   7.142  67.876  1.00  0.00    -0.113 C  
HETATM   21  C   UNL     1      -7.400   5.694  68.271  1.00  0.00    -0.076 C  
HETATM   22  N   UNL     1      -7.819   4.693  67.272  1.00  0.00    -0.090 NA 
HETATM   23  C   UNL     1      -9.272   4.823  67.001  1.00  0.00    -0.126 C  
HETATM   24  H   UNL     1      -7.565   3.746  67.551  1.00  0.00     0.000 HD 
HETATM   25  C   UNL     1      -9.706   6.271  66.624  1.00  0.00    -0.155 C  
HETATM   26  C   UNL     1      -9.629   3.839  65.889  1.00  0.00    -0.166 C  
ENDBRANCH  14  19
ENDBRANCH   2   3
TORSDOF 2
ENDMDL
MODEL       68
REMARK 921   NORMALIZED FREE ENERGY PREDICTED BY IDOCK:   -5.38 KCAL/MOL
REMARK 922        TOTAL FREE ENERGY PREDICTED BY IDOCK:   -6.54 KCAL/MOL
REMARK 923 INTER-LIGAND FREE ENERGY PREDICTED BY IDOCK:   -6.00 KCAL/MOL
REMARK 924 INTRA-LIGAND FREE ENERGY PREDICTED BY IDOCK:   -0.54 KCAL/MOL
REMARK 927      BINDING AFFINITY PREDICTED BY RF-SCORE:    0.00 PKD
ROOT
HETATM    1  C   UNL     1      -5.969  12.332  67.363  1.00  0.00    -0.149 C  
HETATM    2  C   UNL     1      -6.747  13.068  68.445  1.00  0.00    -0.093 C  
ENDROOT
BRANCH   2   3
HETATM    3  N   UNL     1      -8.087  13.441  67.952  1.00  0.00    -0.147 NA 
HETATM    4  C   UNL     1      -8.246  14.614  67.223  1.00  0.00    -0.212 C  
HETATM    5  C   UNL     1      -9.399  15.141  66.790  1.00  0.00    -0.268 C  
HETATM    6  C   UNL     1      -9.382  16.399  66.018  1.00  0.00    -0.300 C  
HETATM    7  C   UNL     1     -10.626  14.406  67.133  1.00  0.00    -0.277 C  
HETATM    8  C   UNL     1     -10.502  13.145  67.901  1.00  0.00    -0.245 A  
HETATM    9  O   UNL     1     -11.720  14.838  66.774  1.00  0.00    -0.366 OA 
HETATM   10  O   UNL     1      -8.354  17.003  65.741  1.00  0.00    -0.500 OA 
HETATM   11  O   UNL     1     -10.598  16.842  65.635  1.00  0.00    -0.444 OA 
HETATM   12  C   UNL     1     -11.674  12.441  68.187  1.00  0.00    -0.408 A  
HETATM   13  C   UNL     1     -11.595  11.222  68.844  1.00  0.00    -0.319 A  
HETATM   14  C   UNL     1     -10.372  10.665  69.246  1.00  0.00    -0.218 A  
HETATM   15  F   UNL     1     -12.748  10.580  69.088  1.00  0.00    -0.118 F  
HETATM   16  F   UNL     1      -8.036  10.919  69.378  1.00  0.00    -0.146 F  
HETATM   17  C   UNL     1      -9.214  11.443  68.995  1.00  0.00     0.071 A  
HETATM   18  C   UNL     1      -9.232  12.678  68.303  1.00  0.00    -0.184 A  
BRANCH  14  19
HETATM   19  N   UNL     1     -10.278   9.381  69.764  1.00  0.00    -0.206 NA 
HETATM   20  C   UNL     1     -10.085   9.157  71.203  1.00  0.00    -0.314 C  
HETATM   21  C   UNL     1     -10.959   7.962  71.643  1.00  0.00    -0.238 C  
HETATM   22  N   UNL     1     -10.687   6.729  70.881  1.00  0.00    -0.228 NA 
HETATM   23  C   UNL     1     -10.829   6.989  69.427  1.00  0.00    -0.227 C  
HETATM   24  H   UNL     1     -11.271   5.953  71.189  1.00  0.00     0.000 HD 
HETATM   25  C   UNL     1      -9.990   8.204  68.928  1.00  0.00    -0.192 C  
HETATM   26  C   UNL     1     -10.436   5.713  68.684  1.00  0.00    -0.277 C  
ENDBRANCH  14  19
ENDBRANCH   2   3
TORSDOF 2
ENDMDL
MODEL       69
REMARK 921   NORMALIZED FREE ENERGY PREDICTED BY IDOCK:   -5.26 KCAL/MOL
REMARK 922        TOTAL FREE ENERGY PREDICTED BY IDOCK:   -6.41 KCAL/MOL
REMARK 923 INTER-LIGAND FREE ENERGY PREDICTED BY IDOCK:   -5.79 KCAL/MOL
REMARK 924 INTRA-LIGAND FREE ENERGY PREDICTED BY IDOCK:   -0.62 KCAL/MOL
REMARK 927      BINDING AFFINITY PREDICTED BY RF-SCORE:    0.00 PKD
ROOT
HETATM    1  C   UNL     1      -6.178  10.370  67.766  1.00  0.00    -0.056 C  
HETATM    2  C   UNL     1      -7.672  10.091  67.844  1.00  0.00    -0.090 C  
ENDROOT
BRANCH   2   3
HETATM    3  N   UNL     1      -8.258  10.042  66.491  1.00  0.00    -0.118 NA 
HETATM    4  C   UNL     1      -7.977   8.962  65.661  1.00  0.00    -0.098 C  
HETATM    5  C   UNL     1      -8.346   8.813  64.383  1.00  0.00    -0.165 C  
HETATM    6  C   UNL     1      -7.964   7.589  63.650  1.00  0.00    -0.074 C  
HETATM    7  C   UNL     1      -9.122   9.914  63.791  1.00  0.00    -0.256 C  
HETATM    8  C   UNL     1      -9.453  11.081  64.642  1.00  0.00    -0.270 A  
HETATM    9  O   UNL     1      -9.486   9.846  62.619  1.00  0.00    -0.275 OA 
HETATM   10  O   UNL     1      -7.317   6.681  64.153  1.00  0.00    -0.065 OA 
HETATM   11  O   UNL     1      -8.385   7.545  62.369  1.00  0.00    -0.128 OA 
HETATM   12  C   UNL     1     -10.220  12.102  64.076  1.00  0.00    -0.396 A  
HETATM   13  C   UNL     1     -10.608  13.178  64.858  1.00  0.00    -0.349 A  
HETATM   14  C   UNL     1     -10.250  13.291  66.209  1.00  0.00    -0.296 A  
HETATM   15  F   UNL     1     -11.352  14.129  64.270  1.00  0.00    -0.372 F  
HETATM   16  F   UNL     1      -9.066  12.366  68.021  1.00  0.00    -0.167 F  
HETATM   17  C   UNL     1      -9.417  12.268  66.727  1.00  0.00    -0.222 A  
HETATM   18  C   UNL     1      -9.014  11.132  65.984  1.00  0.00    -0.200 A  
BRANCH  14  19
HETATM   19  N   UNL     1     -10.763  14.284  67.031  1.00  0.00    -0.287 NA 
HETATM   20  C   UNL     1     -12.022  14.087  67.762  1.00  0.00    -0.357 C  
HETATM   21  C   UNL     1     -11.874  14.681  69.180  1.00  0.00    -0.312 C  
HETATM   22  N   UNL     1     -11.487  16.104  69.179  1.00  0.00    -0.334 NA 
HETATM   23  C   UNL     1     -10.246  16.293  68.388  1.00  0.00    -0.249 C  
HETATM   24  H   UNL     1     -11.399  16.477  70.124  1.00  0.00     0.000 HD 
HETATM   25  C   UNL     1     -10.326  15.688  66.953  1.00  0.00    -0.293 C  
HETATM   26  C   UNL     1      -9.951  17.791  68.332  1.00  0.00    -0.362 C  
ENDBRANCH  14  19
ENDBRANCH   2   3
TORSDOF 2
ENDMDL
MODEL       70
REMARK 921   NORMALIZED FREE ENERGY PREDICTED BY IDOCK:   -5.24 KCAL/MOL
REMARK 922        TOTAL FREE ENERGY PREDICTED BY IDOCK:   -6.39 KCAL/MOL
REMARK 923 INTER-LIGAND FREE ENERGY PREDICTED BY IDOCK:   -5.89 KCAL/MOL
REMARK 924 INTRA-LIGAND FREE ENERGY PREDICTED BY IDOCK:   -0.51 KCAL/MOL
REMARK 927      BINDING AFFINITY PREDICTED BY RF-SCORE:    0.00 PKD
ROOT
HETATM    1  C   UNL     1      -5.616   8.433  70.362  1.00  0.00    -0.025 C  
HETATM    2  C   UNL     1      -6.382   9.748  70.372  1.00  0.00    -0.093 C  
ENDROOT
BRANCH   2   3
HETATM    3  N   UNL     1      -7.789   9.521  70.752  1.00  0.00    -0.296 NA 
HETATM    4  C   UNL     1      -8.080   8.795  71.902  1.00  0.00    -0.025 C  
HETATM    5  C   UNL     1      -9.292   8.420  72.331  1.00  0.00    -0.356 C  
HETATM    6  C   UNL     1      -9.418   7.655  73.587  1.00  0.00    -0.282 C  
HETATM    7  C   UNL     1     -10.435   8.808  71.490  1.00  0.00    -0.303 C  
HETATM    8  C   UNL     1     -10.172   9.591  70.260  1.00  0.00    -0.312 A  
HETATM    9  O   UNL     1     -11.576   8.490  71.821  1.00  0.00    -0.273 OA 
HETATM   10  O   UNL     1      -8.459   7.336  74.277  1.00  0.00    -0.164 OA 
HETATM   11  O   UNL     1     -10.683   7.326  73.923  1.00  0.00    -0.318 OA 
HETATM   12  C   UNL     1     -11.271   9.982  69.491  1.00  0.00    -0.254 A  
HETATM   13  C   UNL     1     -11.074  10.773  68.370  1.00  0.00    -0.266 A  
HETATM   14  C   UNL     1      -9.798  11.195  67.965  1.00  0.00    -0.174 A  
HETATM   15  F   UNL     1     -12.162  11.131  67.670  1.00  0.00    -0.131 F  
HETATM   16  F   UNL     1      -7.479  11.119  68.355  1.00  0.00    -0.082 F  
HETATM   17  C   UNL     1      -8.706  10.722  68.735  1.00  0.00    -0.163 A  
HETATM   18  C   UNL     1      -8.850   9.937  69.904  1.00  0.00    -0.195 A  
BRANCH  14  19
HETATM   19  N   UNL     1      -9.612  12.109  66.938  1.00  0.00    -0.201 NA 
HETATM   20  C   UNL     1      -9.523  11.668  65.539  1.00  0.00    -0.195 C  
HETATM   21  C   UNL     1     -10.298  12.667  64.652  1.00  0.00    -0.330 C  
HETATM   22  N   UNL     1      -9.829  14.058  64.793  1.00  0.00    -0.539 NA 
HETATM   23  C   UNL     1      -9.870  14.466  66.218  1.00  0.00    -0.304 C  
HETATM   24  H   UNL     1     -10.351  14.699  64.196  1.00  0.00     0.000 HD 
HETATM   25  C   UNL     1      -9.127  13.479  67.169  1.00  0.00    -0.232 C  
HETATM   26  C   UNL     1      -9.278  15.870  66.319  1.00  0.00    -0.372 C  
ENDBRANCH  14  19
ENDBRANCH   2   3
TORSDOF 2
ENDMDL
MODEL       71
REMARK 921   NORMALIZED FREE ENERGY PREDICTED BY IDOCK:   -5.17 KCAL/MOL
REMARK 922        TOTAL FREE ENERGY PREDICTED BY IDOCK:   -6.31 KCAL/MOL
REMARK 923 INTER-LIGAND FREE ENERGY PREDICTED BY IDOCK:   -5.73 KCAL/MOL
REMARK 924 INTRA-LIGAND FREE ENERGY PREDICTED BY IDOCK:   -0.58 KCAL/MOL
REMARK 927      BINDING AFFINITY PREDICTED BY RF-SCORE:    0.00 PKD
ROOT
HETATM    1  C   UNL     1      -9.697   7.876  69.538  1.00  0.00    -0.173 C  
HETATM    2  C   UNL     1     -10.122   8.723  68.347  1.00  0.00    -0.190 C  
ENDROOT
BRANCH   2   3
HETATM    3  N   UNL     1      -9.469   8.243  67.115  1.00  0.00    -0.151 NA 
HETATM    4  C   UNL     1      -8.846   6.999  67.110  1.00  0.00    -0.121 C  
HETATM    5  C   UNL     1      -8.130   6.462  66.113  1.00  0.00    -0.117 C  
HETATM    6  C   UNL     1      -7.542   5.119  66.278  1.00  0.00    -0.088 C  
HETATM    7  C   UNL     1      -7.980   7.280  64.900  1.00  0.00    -0.127 C  
HETATM    8  C   UNL     1      -8.635   8.608  64.857  1.00  0.00    -0.163 A  
HETATM    9  O   UNL     1      -7.328   6.852  63.948  1.00  0.00    -0.067 OA 
HETATM   10  O   UNL     1      -7.672   4.449  67.294  1.00  0.00    -0.087 OA 
HETATM   11  O   UNL     1      -6.839   4.677  65.214  1.00  0.00    -0.057 OA 
HETATM   12  C   UNL     1      -8.512   9.357  63.684  1.00  0.00    -0.203 A  
HETATM   13  C   UNL     1      -9.167  10.574  63.579  1.00  0.00    -0.274 A  
HETATM   14  C   UNL     1      -9.951  11.096  64.619  1.00  0.00    -0.292 A  
HETATM   15  F   UNL     1      -9.026  11.251  62.429  1.00  0.00    -0.321 F  
HETATM   16  F   UNL     1     -10.743  10.828  66.818  1.00  0.00    -0.280 F  
HETATM   17  C   UNL     1      -9.996  10.336  65.815  1.00  0.00    -0.271 A  
HETATM   18  C   UNL     1      -9.372   9.075  65.968  1.00  0.00    -0.242 A  
BRANCH  14  19
HETATM   19  N   UNL     1     -10.729  12.234  64.460  1.00  0.00    -0.300 NA 
HETATM   20  C   UNL     1     -12.016  12.179  63.753  1.00  0.00    -0.513 C  
HETATM   21  C   UNL     1     -13.035  13.063  64.505  1.00  0.00    -0.028 C  
HETATM   22  N   UNL     1     -12.588  14.458  64.670  1.00  0.00    -0.653 NA 
HETATM   23  C   UNL     1     -11.261  14.491  65.333  1.00  0.00    -0.342 C  
HETATM   24  H   UNL     1     -13.277  15.024  65.165  1.00  0.00     0.000 HD 
HETATM   25  C   UNL     1     -10.195  13.594  64.634  1.00  0.00    -0.311 C  
HETATM   26  C   UNL     1     -10.800  15.947  65.384  1.00  0.00    -0.361 C  
ENDBRANCH  14  19
ENDBRANCH   2   3
TORSDOF 2
ENDMDL
MODEL       72
REMARK 921   NORMALIZED FREE ENERGY PREDICTED BY IDOCK:   -5.08 KCAL/MOL
REMARK 922        TOTAL FREE ENERGY PREDICTED BY IDOCK:   -6.21 KCAL/MOL
REMARK 923 INTER-LIGAND FREE ENERGY PREDICTED BY IDOCK:   -5.61 KCAL/MOL
REMARK 924 INTRA-LIGAND FREE ENERGY PREDICTED BY IDOCK:   -0.60 KCAL/MOL
REMARK 927      BINDING AFFINITY PREDICTED BY RF-SCORE:    0.00 PKD
ROOT
HETATM    1  C   UNL     1     -12.414  15.223  70.235  1.00  0.00    -0.405 C  
HETATM    2  C   UNL     1     -12.044  15.003  68.776  1.00  0.00    -0.180 C  
ENDROOT
BRANCH   2   3
HETATM    3  N   UNL     1     -10.723  15.591  68.485  1.00  0.00    -0.250 NA 
HETATM    4  C   UNL     1     -10.581  16.974  68.449  1.00  0.00    -0.375 C  
HETATM    5  C   UNL     1      -9.483  17.662  68.108  1.00  0.00    -0.286 C  
HETATM    6  C   UNL     1      -9.509  19.137  68.132  1.00  0.00    -0.342 C  
HETATM    7  C   UNL     1      -8.307  16.868  67.721  1.00  0.00    -0.194 C  
HETATM    8  C   UNL     1      -8.409  15.391  67.754  1.00  0.00    -0.156 A  
HETATM    9  O   UNL     1      -7.267  17.435  67.388  1.00  0.00    -0.161 OA 
HETATM   10  O   UNL     1     -10.495  19.786  68.454  1.00  0.00    -0.431 OA 
HETATM   11  O   UNL     1      -8.351  19.727  67.767  1.00  0.00    -0.296 OA 
HETATM   12  C   UNL     1      -7.272  14.652  67.418  1.00  0.00    -0.182 A  
HETATM   13  C   UNL     1      -7.307  13.269  67.502  1.00  0.00    -0.152 A  
HETATM   14  C   UNL     1      -8.454  12.570  67.909  1.00  0.00    -0.171 A  
HETATM   15  F   UNL     1      -6.186  12.604  67.178  1.00  0.00    -0.152 F  
HETATM   16  F   UNL     1     -10.710  12.695  68.565  1.00  0.00    -0.224 F  
HETATM   17  C   UNL     1      -9.605  13.354  68.177  1.00  0.00    -0.222 A  
HETATM   18  C   UNL     1      -9.619  14.769  68.135  1.00  0.00    -0.209 A  
BRANCH  14  19
HETATM   19  N   UNL     1      -8.445  11.203  68.141  1.00  0.00    -0.132 NA 
HETATM   20  C   UNL     1      -7.640  10.625  69.226  1.00  0.00    -0.138 C  
HETATM   21  C   UNL     1      -8.458   9.508  69.912  1.00  0.00    -0.187 C  
HETATM   22  N   UNL     1      -8.910   8.459  68.981  1.00  0.00    -0.145 NA 
HETATM   23  C   UNL     1      -9.671   9.067  67.861  1.00  0.00    -0.155 C  
HETATM   24  H   UNL     1      -9.444   7.731  69.454  1.00  0.00     0.000 HD 
HETATM   25  C   UNL     1      -8.906  10.222  67.146  1.00  0.00    -0.136 C  
HETATM   26  C   UNL     1     -10.023   7.954  66.876  1.00  0.00    -0.332 C  
ENDBRANCH  14  19
ENDBRANCH   2   3
TORSDOF 2
ENDMDL
MODEL       73
REMARK 921   NORMALIZED FREE ENERGY PREDICTED BY IDOCK:   -5.06 KCAL/MOL
REMARK 922        TOTAL FREE ENERGY PREDICTED BY IDOCK:   -6.19 KCAL/MOL
REMARK 923 INTER-LIGAND FREE ENERGY PREDICTED BY IDOCK:   -5.67 KCAL/MOL
REMARK 924 INTRA-LIGAND FREE ENERGY PREDICTED BY IDOCK:   -0.52 KCAL/MOL
REMARK 927      BINDING AFFINITY PREDICTED BY RF-SCORE:    0.00 PKD
ROOT
HETATM    1  C   UNL     1     -13.412   9.334  71.615  1.00  0.00    -0.465 C  
HETATM    2  C   UNL     1     -12.648  10.298  70.719  1.00  0.00    -0.352 C  
ENDROOT
BRANCH   2   3
HETATM    3  N   UNL     1     -11.509   9.612  70.079  1.00  0.00    -0.192 NA 
HETATM    4  C   UNL     1     -11.280   8.267  70.348  1.00  0.00    -0.219 C  
HETATM    5  C   UNL     1     -10.244   7.529  69.930  1.00  0.00    -0.210 C  
HETATM    6  C   UNL     1     -10.163   6.104  70.307  1.00  0.00    -0.199 C  
HETATM    7  C   UNL     1      -9.237   8.217  69.107  1.00  0.00    -0.151 C  
HETATM    8  C   UNL     1      -9.447   9.648  68.786  1.00  0.00    -0.148 A  
HETATM    9  O   UNL     1      -8.256   7.601  68.695  1.00  0.00    -0.125 OA 
HETATM   10  O   UNL     1     -11.005   5.543  70.995  1.00  0.00    -0.222 OA 
HETATM   11  O   UNL     1      -9.077   5.457  69.835  1.00  0.00    -0.130 OA 
HETATM   12  C   UNL     1      -8.500  10.278  67.974  1.00  0.00    -0.118 A  
HETATM   13  C   UNL     1      -8.695  11.598  67.595  1.00  0.00    -0.156 A  
HETATM   14  C   UNL     1      -9.813  12.339  68.006  1.00  0.00    -0.204 A  
HETATM   15  F   UNL     1      -7.762  12.155  66.807  1.00  0.00    -0.148 F  
HETATM   16  F   UNL     1     -11.789  12.385  69.284  1.00  0.00    -0.307 F  
HETATM   17  C   UNL     1     -10.715  11.683  68.882  1.00  0.00    -0.207 A  
HETATM   18  C   UNL     1     -10.582  10.330  69.278  1.00  0.00    -0.230 A  
BRANCH  14  19
HETATM   19  N   UNL     1     -10.088  13.603  67.507  1.00  0.00    -0.235 NA 
HETATM   20  C   UNL     1      -9.831  14.807  68.310  1.00  0.00    -0.222 C  
HETATM   21  C   UNL     1      -9.241  15.901  67.392  1.00  0.00    -0.201 C  
HETATM   22  N   UNL     1     -10.099  16.217  66.235  1.00  0.00    -0.306 NA 
HETATM   23  C   UNL     1     -10.396  14.981  65.470  1.00  0.00    -0.373 C  
HETATM   24  H   UNL     1      -9.693  16.943  65.646  1.00  0.00     0.000 HD 
HETATM   25  C   UNL     1     -10.969  13.829  66.350  1.00  0.00    -0.298 C  
HETATM   26  C   UNL     1     -11.368  15.348  64.350  1.00  0.00    -0.246 C  
ENDBRANCH  14  19
ENDBRANCH   2   3
TORSDOF 2
ENDMDL
MODEL       74
REMARK 921   NORMALIZED FREE ENERGY PREDICTED BY IDOCK:   -5.03 KCAL/MOL
REMARK 922        TOTAL FREE ENERGY PREDICTED BY IDOCK:   -6.15 KCAL/MOL
REMARK 923 INTER-LIGAND FREE ENERGY PREDICTED BY IDOCK:   -6.22 KCAL/MOL
REMARK 924 INTRA-LIGAND FREE ENERGY PREDICTED BY IDOCK:    0.07 KCAL/MOL
REMARK 927      BINDING AFFINITY PREDICTED BY RF-SCORE:    0.00 PKD
ROOT
HETATM    1  C   UNL     1      -9.597   9.194  65.994  1.00  0.00    -0.342 C  
HETATM    2  C   UNL     1      -8.859   9.860  67.146  1.00  0.00    -0.138 C  
ENDROOT
BRANCH   2   3
HETATM    3  N   UNL     1      -9.778  10.099  68.275  1.00  0.00    -0.139 NA 
HETATM    4  C   UNL     1     -10.245   9.021  69.019  1.00  0.00    -0.205 C  
HETATM    5  C   UNL     1     -11.151   9.057  70.004  1.00  0.00    -0.197 C  
HETATM    6  C   UNL     1     -11.528   7.808  70.695  1.00  0.00    -0.245 C  
HETATM    7  C   UNL     1     -11.719  10.375  70.326  1.00  0.00    -0.321 C  
HETATM    8  C   UNL     1     -11.242  11.554  69.566  1.00  0.00    -0.305 A  
HETATM    9  O   UNL     1     -12.563  10.479  71.215  1.00  0.00    -0.352 OA 
HETATM   10  O   UNL     1     -11.050   6.716  70.417  1.00  0.00    -0.273 OA 
HETATM   11  O   UNL     1     -12.451   7.958  71.669  1.00  0.00    -0.301 OA 
HETATM   12  C   UNL     1     -11.765  12.803  69.908  1.00  0.00    -0.321 A  
HETATM   13  C   UNL     1     -11.295  13.939  69.267  1.00  0.00    -0.272 A  
HETATM   14  C   UNL     1     -10.310  13.884  68.270  1.00  0.00    -0.249 A  
HETATM   15  F   UNL     1     -11.822  15.117  69.638  1.00  0.00    -0.278 F  
HETATM   16  F   UNL     1      -8.911  12.527  66.951  1.00  0.00    -0.188 F  
HETATM   17  C   UNL     1      -9.854  12.592  67.907  1.00  0.00    -0.207 A  
HETATM   18  C   UNL     1     -10.277  11.401  68.546  1.00  0.00    -0.208 A  
BRANCH  14  19
HETATM   19  N   UNL     1      -9.730  15.026  67.738  1.00  0.00    -0.214 NA 
HETATM   20  C   UNL     1      -8.269  15.178  67.683  1.00  0.00    -0.164 C  
HETATM   21  C   UNL     1      -7.886  15.825  66.334  1.00  0.00     0.093 C  
HETATM   22  N   UNL     1      -8.556  17.117  66.095  1.00  0.00    -0.469 NA 
HETATM   23  C   UNL     1     -10.026  16.957  66.213  1.00  0.00    -0.309 C  
HETATM   24  H   UNL     1      -8.286  17.528  65.202  1.00  0.00     0.000 HD 
HETATM   25  C   UNL     1     -10.473  16.282  67.545  1.00  0.00    -0.302 C  
HETATM   26  C   UNL     1     -10.660  18.338  66.062  1.00  0.00    -0.318 C  
ENDBRANCH  14  19
ENDBRANCH   2   3
TORSDOF 2
ENDMDL
MODEL       75
REMARK 921   NORMALIZED FREE ENERGY PREDICTED BY IDOCK:   -5.00 KCAL/MOL
REMARK 922        TOTAL FREE ENERGY PREDICTED BY IDOCK:   -6.12 KCAL/MOL
REMARK 923 INTER-LIGAND FREE ENERGY PREDICTED BY IDOCK:   -5.73 KCAL/MOL
REMARK 924 INTRA-LIGAND FREE ENERGY PREDICTED BY IDOCK:   -0.39 KCAL/MOL
REMARK 927      BINDING AFFINITY PREDICTED BY RF-SCORE:    0.00 PKD
ROOT
HETATM    1  C   UNL     1      -6.041   9.507  70.108  1.00  0.00    -0.049 C  
HETATM    2  C   UNL     1      -7.077  10.003  69.109  1.00  0.00    -0.069 C  
ENDROOT
BRANCH   2   3
HETATM    3  N   UNL     1      -8.434   9.892  69.677  1.00  0.00    -0.173 NA 
HETATM    4  C   UNL     1      -8.754   8.803  70.481  1.00  0.00    -0.174 C  
HETATM    5  C   UNL     1      -9.956   8.506  70.990  1.00  0.00    -0.255 C  
HETATM    6  C   UNL     1     -10.115   7.305  71.834  1.00  0.00    -0.178 C  
HETATM    7  C   UNL     1     -11.056   9.424  70.655  1.00  0.00    -0.289 C  
HETATM    8  C   UNL     1     -10.758  10.603  69.810  1.00  0.00    -0.283 A  
HETATM    9  O   UNL     1     -12.188   9.206  71.083  1.00  0.00    -0.296 OA 
HETATM   10  O   UNL     1      -9.192   6.548  72.104  1.00  0.00    -0.141 OA 
HETATM   11  O   UNL     1     -11.368   7.099  72.292  1.00  0.00    -0.249 OA 
HETATM   12  C   UNL     1     -11.806  11.484  69.530  1.00  0.00    -0.419 A  
HETATM   13  C   UNL     1     -11.554  12.635  68.800  1.00  0.00    -0.313 A  
HETATM   14  C   UNL     1     -10.276  12.952  68.316  1.00  0.00    -0.245 A  
HETATM   15  F   UNL     1     -12.592  13.454  68.566  1.00  0.00    -0.183 F  
HETATM   16  F   UNL     1      -8.027  12.292  68.104  1.00  0.00    -0.121 F  
HETATM   17  C   UNL     1      -9.256  11.999  68.565  1.00  0.00    -0.114 A  
HETATM   18  C   UNL     1      -9.449  10.823  69.329  1.00  0.00    -0.082 A  
BRANCH  14  19
HETATM   19  N   UNL     1      -9.991  14.172  67.720  1.00  0.00    -0.231 NA 
HETATM   20  C   UNL     1      -9.476  14.241  66.346  1.00  0.00    -0.275 C  
HETATM   21  C   UNL     1     -10.156  15.421  65.618  1.00  0.00    -0.376 C  
HETATM   22  N   UNL     1      -9.980  16.712  66.308  1.00  0.00    -0.303 NA 
HETATM   23  C   UNL     1     -10.451  16.606  67.711  1.00  0.00    -0.316 C  
HETATM   24  H   UNL     1     -10.433  17.477  65.809  1.00  0.00     0.000 HD 
HETATM   25  C   UNL     1      -9.819  15.414  68.490  1.00  0.00    -0.207 C  
HETATM   26  C   UNL     1     -10.149  17.933  68.406  1.00  0.00    -0.385 C  
ENDBRANCH  14  19
ENDBRANCH   2   3
TORSDOF 2
ENDMDL
MODEL       76
REMARK 921   NORMALIZED FREE ENERGY PREDICTED BY IDOCK:   -4.92 KCAL/MOL
REMARK 922        TOTAL FREE ENERGY PREDICTED BY IDOCK:   -6.03 KCAL/MOL
REMARK 923 INTER-LIGAND FREE ENERGY PREDICTED BY IDOCK:   -5.54 KCAL/MOL
REMARK 924 INTRA-LIGAND FREE ENERGY PREDICTED BY IDOCK:   -0.50 KCAL/MOL
REMARK 927      BINDING AFFINITY PREDICTED BY RF-SCORE:    0.00 PKD
ROOT
HETATM    1  C   UNL     1      -5.388  12.319  68.496  1.00  0.00    -0.054 C  
HETATM    2  C   UNL     1      -6.552  13.264  68.759  1.00  0.00    -0.099 C  
ENDROOT
BRANCH   2   3
HETATM    3  N   UNL     1      -7.709  12.902  67.919  1.00  0.00    -0.128 NA 
HETATM    4  C   UNL     1      -8.028  11.561  67.734  1.00  0.00    -0.128 C  
HETATM    5  C   UNL     1      -8.979  11.064  66.931  1.00  0.00    -0.162 C  
HETATM    6  C   UNL     1      -9.186   9.604  66.862  1.00  0.00    -0.143 C  
HETATM    7  C   UNL     1      -9.760  12.041  66.157  1.00  0.00    -0.238 C  
HETATM    8  C   UNL     1      -9.461  13.481  66.331  1.00  0.00    -0.236 A  
HETATM    9  O   UNL     1     -10.643  11.653  65.394  1.00  0.00    -0.264 OA 
HETATM   10  O   UNL     1      -8.527   8.801  67.510  1.00  0.00    -0.119 OA 
HETATM   11  O   UNL     1     -10.166   9.213  66.021  1.00  0.00    -0.256 OA 
HETATM   12  C   UNL     1     -10.235  14.397  65.615  1.00  0.00    -0.371 A  
HETATM   13  C   UNL     1     -10.033  15.756  65.801  1.00  0.00    -0.358 A  
HETATM   14  C   UNL     1      -9.063  16.255  66.683  1.00  0.00    -0.248 A  
HETATM   15  F   UNL     1     -10.808  16.595  65.097  1.00  0.00    -0.388 F  
HETATM   16  F   UNL     1      -7.322  15.761  68.187  1.00  0.00    -0.115 F  
HETATM   17  C   UNL     1      -8.255  15.293  67.340  1.00  0.00    -0.184 A  
HETATM   18  C   UNL     1      -8.436  13.895  67.210  1.00  0.00    -0.200 A  
BRANCH  14  19
HETATM   19  N   UNL     1      -8.963  17.605  66.986  1.00  0.00    -0.244 NA 
HETATM   20  C   UNL     1      -8.153  18.509  66.157  1.00  0.00    -0.176 C  
HETATM   21  C   UNL     1      -8.909  19.846  65.993  1.00  0.00    -0.240 C  
HETATM   22  N   UNL     1      -9.253  20.483  67.278  1.00  0.00    -0.489 NA 
HETATM   23  C   UNL     1     -10.020  19.536  68.125  1.00  0.00    -0.418 C  
HETATM   24  H   UNL     1      -9.747  21.365  67.146  1.00  0.00     0.000 HD 
HETATM   25  C   UNL     1      -9.318  18.155  68.304  1.00  0.00    -0.303 C  
HETATM   26  C   UNL     1     -10.258  20.206  69.476  1.00  0.00     0.025 C  
ENDBRANCH  14  19
ENDBRANCH   2   3
TORSDOF 2
ENDMDL
MODEL       77
REMARK 921   NORMALIZED FREE ENERGY PREDICTED BY IDOCK:   -4.92 KCAL/MOL
REMARK 922        TOTAL FREE ENERGY PREDICTED BY IDOCK:   -6.03 KCAL/MOL
REMARK 923 INTER-LIGAND FREE ENERGY PREDICTED BY IDOCK:   -5.72 KCAL/MOL
REMARK 924 INTRA-LIGAND FREE ENERGY PREDICTED BY IDOCK:   -0.31 KCAL/MOL
REMARK 927      BINDING AFFINITY PREDICTED BY RF-SCORE:    0.00 PKD
ROOT
HETATM    1  C   UNL     1      -6.955   9.495  68.765  1.00  0.00    -0.067 C  
HETATM    2  C   UNL     1      -8.294   8.818  68.506  1.00  0.00    -0.129 C  
ENDROOT
BRANCH   2   3
HETATM    3  N   UNL     1      -8.863   9.276  67.224  1.00  0.00    -0.124 NA 
HETATM    4  C   UNL     1      -8.404   8.723  66.034  1.00  0.00    -0.126 C  
HETATM    5  C   UNL     1      -8.743   9.093  64.792  1.00  0.00    -0.208 C  
HETATM    6  C   UNL     1      -8.160   8.386  63.635  1.00  0.00    -0.142 C  
HETATM    7  C   UNL     1      -9.693  10.210  64.677  1.00  0.00    -0.309 C  
HETATM    8  C   UNL     1     -10.216  10.823  65.920  1.00  0.00    -0.319 A  
HETATM    9  O   UNL     1     -10.042  10.607  63.566  1.00  0.00    -0.323 OA 
HETATM   10  O   UNL     1      -7.369   7.459  63.744  1.00  0.00    -0.076 OA 
HETATM   11  O   UNL     1      -8.568   8.842  62.432  1.00  0.00    -0.209 OA 
HETATM   12  C   UNL     1     -11.144  11.860  65.793  1.00  0.00    -0.367 A  
HETATM   13  C   UNL     1     -11.708  12.414  66.932  1.00  0.00    -0.362 A  
HETATM   14  C   UNL     1     -11.375  11.978  68.223  1.00  0.00    -0.286 A  
HETATM   15  F   UNL     1     -12.602  13.401  66.758  1.00  0.00    -0.353 F  
HETATM   16  F   UNL     1     -10.051  10.547  69.542  1.00  0.00    -0.220 F  
HETATM   17  C   UNL     1     -10.381  10.971  68.309  1.00  0.00    -0.178 A  
HETATM   18  C   UNL     1      -9.792  10.349  67.181  1.00  0.00    -0.181 A  
BRANCH  14  19
HETATM   19  N   UNL     1     -12.047  12.423  69.352  1.00  0.00    -0.230 NA 
HETATM   20  C   UNL     1     -12.898  11.514  70.133  1.00  0.00     0.173 C  
HETATM   21  C   UNL     1     -12.684  11.799  71.636  1.00  0.00    -0.251 C  
HETATM   22  N   UNL     1     -12.941  13.203  72.005  1.00  0.00    -0.324 NA 
HETATM   23  C   UNL     1     -12.117  14.108  71.167  1.00  0.00    -0.314 C  
HETATM   24  H   UNL     1     -12.797  13.368  73.001  1.00  0.00     0.000 HD 
HETATM   25  C   UNL     1     -12.270  13.849  69.638  1.00  0.00    -0.321 C  
HETATM   26  C   UNL     1     -12.499  15.546  71.517  1.00  0.00    -0.474 C  
ENDBRANCH  14  19
ENDBRANCH   2   3
TORSDOF 2
ENDMDL
MODEL       78
REMARK 921   NORMALIZED FREE ENERGY PREDICTED BY IDOCK:   -4.89 KCAL/MOL
REMARK 922        TOTAL FREE ENERGY PREDICTED BY IDOCK:   -6.00 KCAL/MOL
REMARK 923 INTER-LIGAND FREE ENERGY PREDICTED BY IDOCK:   -6.12 KCAL/MOL
REMARK 924 INTRA-LIGAND FREE ENERGY PREDICTED BY IDOCK:    0.12 KCAL/MOL
REMARK 927      BINDING AFFINITY PREDICTED BY RF-SCORE:    0.00 PKD
ROOT
HETATM    1  C   UNL     1     -11.852  11.511  67.963  1.00  0.00    -0.287 C  
HETATM    2  C   UNL     1     -10.672  11.542  67.002  1.00  0.00    -0.259 C  
ENDROOT
BRANCH   2   3
HETATM    3  N   UNL     1     -10.343  12.933  66.637  1.00  0.00    -0.248 NA 
HETATM    4  C   UNL     1     -11.186  13.636  65.783  1.00  0.00    -0.295 C  
HETATM    5  C   UNL     1     -10.984  14.861  65.281  1.00  0.00    -0.389 C  
HETATM    6  C   UNL     1     -11.995  15.460  64.389  1.00  0.00    -0.228 C  
HETATM    7  C   UNL     1      -9.731  15.528  65.666  1.00  0.00    -0.320 C  
HETATM    8  C   UNL     1      -8.807  14.821  66.583  1.00  0.00    -0.262 A  
HETATM    9  O   UNL     1      -9.477  16.652  65.235  1.00  0.00    -0.238 OA 
HETATM   10  O   UNL     1     -13.033  14.893  64.074  1.00  0.00    -0.558 OA 
HETATM   11  O   UNL     1     -11.689  16.695  63.939  1.00  0.00    -1.153 OA 
HETATM   12  C   UNL     1      -7.638  15.483  66.967  1.00  0.00    -0.228 A  
HETATM   13  C   UNL     1      -6.781  14.884  67.876  1.00  0.00    -0.160 A  
HETATM   14  C   UNL     1      -7.036  13.619  68.427  1.00  0.00    -0.107 A  
HETATM   15  F   UNL     1      -5.676  15.565  68.221  1.00  0.00    -0.090 F  
HETATM   16  F   UNL     1      -8.452  11.740  68.481  1.00  0.00    -0.147 F  
HETATM   17  C   UNL     1      -8.198  12.954  67.961  1.00  0.00    -0.168 A  
HETATM   18  C   UNL     1      -9.124  13.529  67.057  1.00  0.00    -0.244 A  
BRANCH  14  19
HETATM   19  N   UNL     1      -6.264  13.086  69.448  1.00  0.00    -0.107 NA 
HETATM   20  C   UNL     1      -5.539  13.958  70.384  1.00  0.00    -0.137 C  
HETATM   21  C   UNL     1      -5.654  13.366  71.806  1.00  0.00    -0.016 C  
HETATM   22  N   UNL     1      -5.167  11.978  71.901  1.00  0.00    -0.365 NA 
HETATM   23  C   UNL     1      -5.868  11.125  70.910  1.00  0.00     0.013 C  
HETATM   24  H   UNL     1      -5.248  11.608  72.848  1.00  0.00     0.000 HD 
HETATM   25  C   UNL     1      -5.810  11.686  69.457  1.00  0.00    -0.080 C  
HETATM   26  C   UNL     1      -5.254   9.727  70.979  1.00  0.00    -0.053 C  
ENDBRANCH  14  19
ENDBRANCH   2   3
TORSDOF 2
ENDMDL
MODEL       79
REMARK 921   NORMALIZED FREE ENERGY PREDICTED BY IDOCK:   -4.89 KCAL/MOL
REMARK 922        TOTAL FREE ENERGY PREDICTED BY IDOCK:   -6.00 KCAL/MOL
REMARK 923 INTER-LIGAND FREE ENERGY PREDICTED BY IDOCK:   -5.42 KCAL/MOL
REMARK 924 INTRA-LIGAND FREE ENERGY PREDICTED BY IDOCK:   -0.58 KCAL/MOL
REMARK 927      BINDING AFFINITY PREDICTED BY RF-SCORE:    0.00 PKD
ROOT
HETATM    1  C   UNL     1      -5.379  18.236  70.123  1.00  0.00    -0.240 C  
HETATM    2  C   UNL     1      -5.833  17.183  69.122  1.00  0.00    -0.187 C  
ENDROOT
BRANCH   2   3
HETATM    3  N   UNL     1      -6.755  17.776  68.134  1.00  0.00    -0.199 NA 
HETATM    4  C   UNL     1      -6.283  18.741  67.250  1.00  0.00    -0.178 C  
HETATM    5  C   UNL     1      -7.005  19.441  66.365  1.00  0.00    -0.228 C  
HETATM    6  C   UNL     1      -6.334  20.427  65.495  1.00  0.00    -0.246 C  
HETATM    7  C   UNL     1      -8.450  19.168  66.334  1.00  0.00    -0.318 C  
HETATM    8  C   UNL     1      -8.994  18.141  67.252  1.00  0.00    -0.248 A  
HETATM    9  O   UNL     1      -9.173  19.782  65.552  1.00  0.00    -0.237 OA 
HETATM   10  O   UNL     1      -5.131  20.647  65.532  1.00  0.00    -0.168 OA 
HETATM   11  O   UNL     1      -7.156  21.078  64.644  1.00  0.00     0.065 OA 
HETATM   12  C   UNL     1     -10.363  17.869  67.185  1.00  0.00    -0.371 A  
HETATM   13  C   UNL     1     -10.899  16.867  67.979  1.00  0.00    -0.338 A  
HETATM   14  C   UNL     1     -10.116  16.111  68.865  1.00  0.00    -0.238 A  
HETATM   15  F   UNL     1     -12.218  16.637  67.872  1.00  0.00     0.376 F  
HETATM   16  F   UNL     1      -7.986  15.748  69.797  1.00  0.00    -0.215 F  
HETATM   17  C   UNL     1      -8.746  16.464  68.950  1.00  0.00    -0.253 A  
HETATM   18  C   UNL     1      -8.138  17.457  68.144  1.00  0.00    -0.232 A  
BRANCH  14  19
HETATM   19  N   UNL     1     -10.619  15.011  69.544  1.00  0.00    -0.255 NA 
HETATM   20  C   UNL     1     -11.066  15.122  70.939  1.00  0.00    -0.248 C  
HETATM   21  C   UNL     1     -12.359  14.294  71.115  1.00  0.00    -0.368 C  
HETATM   22  N   UNL     1     -12.204  12.881  70.726  1.00  0.00    -0.465 NA 
HETATM   23  C   UNL     1     -11.696  12.789  69.335  1.00  0.00    -0.319 C  
HETATM   24  H   UNL     1     -13.066  12.353  70.854  1.00  0.00     0.000 HD 
HETATM   25  C   UNL     1     -10.405  13.628  69.089  1.00  0.00     0.063 C  
HETATM   26  C   UNL     1     -11.455  11.313  69.023  1.00  0.00    -0.369 C  
ENDBRANCH  14  19
ENDBRANCH   2   3
TORSDOF 2
ENDMDL
MODEL       80
REMARK 921   NORMALIZED FREE ENERGY PREDICTED BY IDOCK:   -4.89 KCAL/MOL
REMARK 922        TOTAL FREE ENERGY PREDICTED BY IDOCK:   -5.99 KCAL/MOL
REMARK 923 INTER-LIGAND FREE ENERGY PREDICTED BY IDOCK:   -5.48 KCAL/MOL
REMARK 924 INTRA-LIGAND FREE ENERGY PREDICTED BY IDOCK:   -0.51 KCAL/MOL
REMARK 927      BINDING AFFINITY PREDICTED BY RF-SCORE:    0.00 PKD
ROOT
HETATM    1  C   UNL     1      -5.301  16.039  70.182  1.00  0.00    -0.157 C  
HETATM    2  C   UNL     1      -6.667  15.440  69.879  1.00  0.00    -0.130 C  
ENDROOT
BRANCH   2   3
HETATM    3  N   UNL     1      -7.300  16.146  68.748  1.00  0.00    -0.172 NA 
HETATM    4  C   UNL     1      -7.179  17.528  68.650  1.00  0.00    -0.246 C  
HETATM    5  C   UNL     1      -7.769  18.325  67.749  1.00  0.00    -0.239 C  
HETATM    6  C   UNL     1      -7.522  19.779  67.789  1.00  0.00    -0.286 C  
HETATM    7  C   UNL     1      -8.644  17.668  66.766  1.00  0.00    -0.255 C  
HETATM    8  C   UNL     1      -8.793  16.195  66.827  1.00  0.00    -0.275 A  
HETATM    9  O   UNL     1      -9.223  18.340  65.915  1.00  0.00    -0.503 OA 
HETATM   10  O   UNL     1      -6.793  20.314  68.613  1.00  0.00    -0.290 OA 
HETATM   11  O   UNL     1      -8.168  20.487  66.838  1.00  0.00    -0.284 OA 
HETATM   12  C   UNL     1      -9.600  15.583  65.865  1.00  0.00    -0.383 A  
HETATM   13  C   UNL     1      -9.712  14.201  65.845  1.00  0.00    -0.241 A  
HETATM   14  C   UNL     1      -9.047  13.382  66.770  1.00  0.00    -0.212 A  
HETATM   15  F   UNL     1     -10.491  13.660  64.895  1.00  0.00    -0.323 F  
HETATM   16  F   UNL     1      -7.652  13.271  68.662  1.00  0.00    -0.117 F  
HETATM   17  C   UNL     1      -8.292  14.046  67.770  1.00  0.00    -0.176 A  
HETATM   18  C   UNL     1      -8.119  15.451  67.821  1.00  0.00    -0.140 A  
BRANCH  14  19
HETATM   19  N   UNL     1      -9.033  11.999  66.659  1.00  0.00    -0.204 NA 
HETATM   20  C   UNL     1     -10.071  11.178  67.299  1.00  0.00    -0.188 C  
HETATM   21  C   UNL     1     -10.466  10.037  66.336  1.00  0.00    -0.129 C  
HETATM   22  N   UNL     1      -9.324   9.204  65.918  1.00  0.00    -0.226 NA 
HETATM   23  C   UNL     1      -8.262  10.056  65.329  1.00  0.00    -0.148 C  
HETATM   24  H   UNL     1      -9.608   8.455  65.287  1.00  0.00     0.000 HD 
HETATM   25  C   UNL     1      -7.840  11.245  66.245  1.00  0.00    -0.069 C  
HETATM   26  C   UNL     1      -7.066   9.160  65.011  1.00  0.00    -0.092 C  
ENDBRANCH  14  19
ENDBRANCH   2   3
TORSDOF 2
ENDMDL
MODEL       81
REMARK 921   NORMALIZED FREE ENERGY PREDICTED BY IDOCK:   -4.87 KCAL/MOL
REMARK 922        TOTAL FREE ENERGY PREDICTED BY IDOCK:   -5.98 KCAL/MOL
REMARK 923 INTER-LIGAND FREE ENERGY PREDICTED BY IDOCK:   -5.41 KCAL/MOL
REMARK 924 INTRA-LIGAND FREE ENERGY PREDICTED BY IDOCK:   -0.57 KCAL/MOL
REMARK 927      BINDING AFFINITY PREDICTED BY RF-SCORE:    0.00 PKD
ROOT
HETATM    1  C   UNL     1     -10.589   6.033  70.571  1.00  0.00    -0.329 C  
HETATM    2  C   UNL     1     -10.137   6.869  69.382  1.00  0.00    -0.167 C  
ENDROOT
BRANCH   2   3
HETATM    3  N   UNL     1     -10.589   8.266  69.535  1.00  0.00    -0.227 NA 
HETATM    4  C   UNL     1     -11.434   8.602  70.586  1.00  0.00    -0.228 C  
HETATM    5  C   UNL     1     -12.008   9.791  70.808  1.00  0.00    -0.382 C  
HETATM    6  C   UNL     1     -12.878   9.974  71.987  1.00  0.00    -0.389 C  
HETATM    7  C   UNL     1     -11.720  10.851  69.829  1.00  0.00    -0.338 C  
HETATM    8  C   UNL     1     -10.816  10.540  68.698  1.00  0.00    -0.276 A  
HETATM    9  O   UNL     1     -12.221  11.966  69.968  1.00  0.00    -0.273 OA 
HETATM   10  O   UNL     1     -13.111   9.083  72.793  1.00  0.00    -0.386 OA 
HETATM   11  O   UNL     1     -13.406  11.210  72.112  1.00  0.00    -0.452 OA 
HETATM   12  C   UNL     1     -10.525  11.567  67.797  1.00  0.00    -0.216 A  
HETATM   13  C   UNL     1      -9.630  11.336  66.763  1.00  0.00    -0.193 A  
HETATM   14  C   UNL     1      -9.003  10.095  66.577  1.00  0.00    -0.143 A  
HETATM   15  F   UNL     1      -9.376  12.358  65.930  1.00  0.00    -0.230 F  
HETATM   16  F   UNL     1      -8.783   7.868  67.304  1.00  0.00    -0.125 F  
HETATM   17  C   UNL     1      -9.376   9.062  67.474  1.00  0.00    -0.135 A  
HETATM   18  C   UNL     1     -10.261   9.248  68.563  1.00  0.00    -0.201 A  
BRANCH  14  19
HETATM   19  N   UNL     1      -7.996   9.907  65.642  1.00  0.00    -0.124 NA 
HETATM   20  C   UNL     1      -6.661  10.490  65.839  1.00  0.00    -0.130 C  
HETATM   21  C   UNL     1      -5.598   9.461  65.396  1.00  0.00    -0.052 C  
HETATM   22  N   UNL     1      -5.770   9.006  64.004  1.00  0.00    -0.069 NA 
HETATM   23  C   UNL     1      -7.142   8.475  63.809  1.00  0.00    -0.092 C  
HETATM   24  H   UNL     1      -5.057   8.331  63.731  1.00  0.00     0.000 HD 
HETATM   25  C   UNL     1      -8.260   9.461  64.265  1.00  0.00    -0.153 C  
HETATM   26  C   UNL     1      -7.299   8.118  62.332  1.00  0.00    -0.098 C  
ENDBRANCH  14  19
ENDBRANCH   2   3
TORSDOF 2
ENDMDL
MODEL       82
REMARK 921   NORMALIZED FREE ENERGY PREDICTED BY IDOCK:   -4.80 KCAL/MOL
REMARK 922        TOTAL FREE ENERGY PREDICTED BY IDOCK:   -5.90 KCAL/MOL
REMARK 923 INTER-LIGAND FREE ENERGY PREDICTED BY IDOCK:   -5.38 KCAL/MOL
REMARK 924 INTRA-LIGAND FREE ENERGY PREDICTED BY IDOCK:   -0.52 KCAL/MOL
REMARK 927      BINDING AFFINITY PREDICTED BY RF-SCORE:    0.00 PKD
ROOT
HETATM    1  C   UNL     1     -10.975  19.298  67.648  1.00  0.00    -0.382 C  
HETATM    2  C   UNL     1      -9.987  18.377  66.947  1.00  0.00    -0.353 C  
ENDROOT
BRANCH   2   3
HETATM    3  N   UNL     1      -8.909  17.979  67.873  1.00  0.00    -0.263 NA 
HETATM    4  C   UNL     1      -8.069  18.951  68.404  1.00  0.00    -0.341 C  
HETATM    5  C   UNL     1      -6.992  18.750  69.175  1.00  0.00    -0.293 C  
HETATM    6  C   UNL     1      -6.214  19.907  69.658  1.00  0.00    -0.342 C  
HETATM    7  C   UNL     1      -6.659  17.351  69.483  1.00  0.00    -0.172 C  
HETATM    8  C   UNL     1      -7.533  16.282  68.946  1.00  0.00    -0.209 A  
HETATM    9  O   UNL     1      -5.678  17.093  70.179  1.00  0.00    -0.228 OA 
HETATM   10  O   UNL     1      -6.500  21.067  69.394  1.00  0.00     0.123 OA 
HETATM   11  O   UNL     1      -5.148  19.589  70.424  1.00  0.00    -0.187 OA 
HETATM   12  C   UNL     1      -7.223  14.961  69.277  1.00  0.00    -0.172 A  
HETATM   13  C   UNL     1      -8.055  13.937  68.852  1.00  0.00     0.033 A  
HETATM   14  C   UNL     1      -9.205  14.175  68.085  1.00  0.00    -0.194 A  
HETATM   15  F   UNL     1      -7.720  12.685  69.203  1.00  0.00    -0.024 F  
HETATM   16  F   UNL     1     -10.546  15.761  66.979  1.00  0.00    -0.293 F  
HETATM   17  C   UNL     1      -9.447  15.522  67.715  1.00  0.00    -0.204 A  
HETATM   18  C   UNL     1      -8.649  16.610  68.145  1.00  0.00    -0.200 A  
BRANCH  14  19
HETATM   19  N   UNL     1     -10.119  13.173  67.789  1.00  0.00    -0.221 NA 
HETATM   20  C   UNL     1     -10.289  12.686  66.413  1.00  0.00    -0.249 C  
HETATM   21  C   UNL     1     -10.455  11.151  66.446  1.00  0.00    -0.260 C  
HETATM   22  N   UNL     1     -11.569  10.702  67.301  1.00  0.00    -0.390 NA 
HETATM   23  C   UNL     1     -11.412  11.252  68.670  1.00  0.00    -0.297 C  
HETATM   24  H   UNL     1     -11.663   9.687  67.305  1.00  0.00     0.000 HD 
HETATM   25  C   UNL     1     -11.212  12.798  68.700  1.00  0.00    -0.282 C  
HETATM   26  C   UNL     1     -12.642  10.846  69.481  1.00  0.00     0.017 C  
ENDBRANCH  14  19
ENDBRANCH   2   3
TORSDOF 2
ENDMDL
MODEL       83
REMARK 921   NORMALIZED FREE ENERGY PREDICTED BY IDOCK:   -4.79 KCAL/MOL
REMARK 922        TOTAL FREE ENERGY PREDICTED BY IDOCK:   -5.89 KCAL/MOL
REMARK 923 INTER-LIGAND FREE ENERGY PREDICTED BY IDOCK:   -5.51 KCAL/MOL
REMARK 924 INTRA-LIGAND FREE ENERGY PREDICTED BY IDOCK:   -0.38 KCAL/MOL
REMARK 927      BINDING AFFINITY PREDICTED BY RF-SCORE:    0.00 PKD
ROOT
HETATM    1  C   UNL     1      -9.434   6.693  72.402  1.00  0.00    -0.154 C  
HETATM    2  C   UNL     1      -8.632   7.753  71.662  1.00  0.00    -0.118 C  
ENDROOT
BRANCH   2   3
HETATM    3  N   UNL     1      -8.868   7.656  70.209  1.00  0.00    -0.144 NA 
HETATM    4  C   UNL     1      -8.253   6.643  69.481  1.00  0.00    -0.130 C  
HETATM    5  C   UNL     1      -8.286   6.474  68.152  1.00  0.00    -0.117 C  
HETATM    6  C   UNL     1      -7.576   5.332  67.544  1.00  0.00    -0.088 C  
HETATM    7  C   UNL     1      -9.044   7.472  67.383  1.00  0.00    -0.126 C  
HETATM    8  C   UNL     1      -9.724   8.563  68.118  1.00  0.00    -0.175 A  
HETATM    9  O   UNL     1      -9.108   7.383  66.158  1.00  0.00    -0.168 OA 
HETATM   10  O   UNL     1      -6.946   4.509  68.196  1.00  0.00    -0.054 OA 
HETATM   11  O   UNL     1      -7.672   5.259  66.200  1.00  0.00    -0.086 OA 
HETATM   12  C   UNL     1     -10.469   9.483  67.376  1.00  0.00    -0.336 A  
HETATM   13  C   UNL     1     -11.176  10.478  68.032  1.00  0.00    -0.294 A  
HETATM   14  C   UNL     1     -11.167  10.608  69.429  1.00  0.00    -0.270 A  
HETATM   15  F   UNL     1     -11.885  11.331  67.275  1.00  0.00    -0.310 F  
HETATM   16  F   UNL     1     -10.329   9.812  71.479  1.00  0.00    -0.328 F  
HETATM   17  C   UNL     1     -10.347   9.696  70.140  1.00  0.00    -0.266 A  
HETATM   18  C   UNL     1      -9.627   8.643  69.525  1.00  0.00    -0.170 A  
BRANCH  14  19
HETATM   19  N   UNL     1     -11.992  11.503  70.095  1.00  0.00    -0.350 NA 
HETATM   20  C   UNL     1     -13.146  11.032  70.875  1.00  0.00    -0.112 C  
HETATM   21  C   UNL     1     -13.235  11.856  72.178  1.00  0.00    -0.261 C  
HETATM   22  N   UNL     1     -13.318  13.310  71.945  1.00  0.00    -0.444 NA 
HETATM   23  C   UNL     1     -12.177  13.756  71.108  1.00  0.00    -0.278 C  
HETATM   24  H   UNL     1     -13.380  13.834  72.818  1.00  0.00     0.000 HD 
HETATM   25  C   UNL     1     -12.019  12.942  69.789  1.00  0.00    -0.296 C  
HETATM   26  C   UNL     1     -12.369  15.243  70.812  1.00  0.00    -0.433 C  
ENDBRANCH  14  19
ENDBRANCH   2   3
TORSDOF 2
ENDMDL
MODEL       84
REMARK 921   NORMALIZED FREE ENERGY PREDICTED BY IDOCK:   -4.79 KCAL/MOL
REMARK 922        TOTAL FREE ENERGY PREDICTED BY IDOCK:   -5.89 KCAL/MOL
REMARK 923 INTER-LIGAND FREE ENERGY PREDICTED BY IDOCK:   -5.40 KCAL/MOL
REMARK 924 INTRA-LIGAND FREE ENERGY PREDICTED BY IDOCK:   -0.48 KCAL/MOL
REMARK 927      BINDING AFFINITY PREDICTED BY RF-SCORE:    0.00 PKD
ROOT
HETATM    1  C   UNL     1     -10.777   5.650  70.452  1.00  0.00    -0.352 C  
HETATM    2  C   UNL     1     -11.024   6.832  69.526  1.00  0.00    -0.279 C  
ENDROOT
BRANCH   2   3
HETATM    3  N   UNL     1     -10.353   6.618  68.229  1.00  0.00    -0.174 NA 
HETATM    4  C   UNL     1     -10.034   5.325  67.827  1.00  0.00    -0.162 C  
HETATM    5  C   UNL     1      -9.345   4.970  66.736  1.00  0.00    -0.136 C  
HETATM    6  C   UNL     1      -9.104   3.540  66.459  1.00  0.00    -0.162 C  
HETATM    7  C   UNL     1      -8.864   6.064  65.878  1.00  0.00    -0.149 C  
HETATM    8  C   UNL     1      -9.189   7.457  66.263  1.00  0.00    -0.182 A  
HETATM    9  O   UNL     1      -8.217   5.809  64.864  1.00  0.00    -0.130 OA 
HETATM   10  O   UNL     1      -9.507   2.639  67.181  1.00  0.00    -0.123 OA 
HETATM   11  O   UNL     1      -8.396   3.295  65.335  1.00  0.00    -0.096 OA 
HETATM   12  C   UNL     1      -8.756   8.482  65.418  1.00  0.00    -0.194 A  
HETATM   13  C   UNL     1      -9.097   9.795  65.707  1.00  0.00    -0.177 A  
HETATM   14  C   UNL     1      -9.862  10.141  66.831  1.00  0.00    -0.195 A  
HETATM   15  F   UNL     1      -8.665  10.743  64.860  1.00  0.00    -0.178 F  
HETATM   16  F   UNL     1     -10.957   9.399  68.777  1.00  0.00    -0.238 F  
HETATM   17  C   UNL     1     -10.225   9.078  67.696  1.00  0.00    -0.242 A  
HETATM   18  C   UNL     1      -9.929   7.718  67.437  1.00  0.00    -0.195 A  
BRANCH  14  19
HETATM   19  N   UNL     1     -10.333  11.429  67.038  1.00  0.00    -0.215 NA 
HETATM   20  C   UNL     1      -9.812  12.259  68.133  1.00  0.00    -0.212 C  
HETATM   21  C   UNL     1      -9.642  13.707  67.623  1.00  0.00    -0.221 C  
HETATM   22  N   UNL     1     -10.884  14.283  67.076  1.00  0.00    -0.293 NA 
HETATM   23  C   UNL     1     -11.427  13.402  66.012  1.00  0.00    -0.326 C  
HETATM   24  H   UNL     1     -10.751  15.239  66.749  1.00  0.00     0.000 HD 
HETATM   25  C   UNL     1     -11.595  11.919  66.460  1.00  0.00    -0.255 C  
HETATM   26  C   UNL     1     -12.762  13.989  65.556  1.00  0.00    -0.517 C  
ENDBRANCH  14  19
ENDBRANCH   2   3
TORSDOF 2
ENDMDL
MODEL       85
REMARK 921   NORMALIZED FREE ENERGY PREDICTED BY IDOCK:   -4.75 KCAL/MOL
REMARK 922        TOTAL FREE ENERGY PREDICTED BY IDOCK:   -5.84 KCAL/MOL
REMARK 923 INTER-LIGAND FREE ENERGY PREDICTED BY IDOCK:   -5.24 KCAL/MOL
REMARK 924 INTRA-LIGAND FREE ENERGY PREDICTED BY IDOCK:   -0.60 KCAL/MOL
REMARK 927      BINDING AFFINITY PREDICTED BY RF-SCORE:    0.00 PKD
ROOT
HETATM    1  C   UNL     1      -7.638  10.345  69.220  1.00  0.00    -0.132 C  
HETATM    2  C   UNL     1      -8.801   9.579  68.606  1.00  0.00    -0.132 C  
ENDROOT
BRANCH   2   3
HETATM    3  N   UNL     1      -9.890   9.424  69.589  1.00  0.00    -0.182 NA 
HETATM    4  C   UNL     1     -10.703  10.512  69.888  1.00  0.00    -0.247 C  
HETATM    5  C   UNL     1     -11.665  10.566  70.818  1.00  0.00    -0.454 C  
HETATM    6  C   UNL     1     -12.439  11.809  70.997  1.00  0.00    -0.309 C  
HETATM    7  C   UNL     1     -11.875   9.347  71.615  1.00  0.00    -0.394 C  
HETATM    8  C   UNL     1     -11.039   8.160  71.323  1.00  0.00    -0.287 A  
HETATM    9  O   UNL     1     -12.737   9.329  72.492  1.00  0.00    -0.341 OA 
HETATM   10  O   UNL     1     -12.253  12.818  70.329  1.00  0.00    -0.334 OA 
HETATM   11  O   UNL     1     -13.380  11.754  71.963  1.00  0.00    -0.487 OA 
HETATM   12  C   UNL     1     -11.275   7.000  72.065  1.00  0.00    -0.288 A  
HETATM   13  C   UNL     1     -10.561   5.847  71.776  1.00  0.00    -0.234 A  
HETATM   14  C   UNL     1      -9.590   5.800  70.764  1.00  0.00    -0.171 A  
HETATM   15  F   UNL     1     -10.831   4.756  72.510  1.00  0.00    -0.256 F  
HETATM   16  F   UNL     1      -8.406   6.982  69.110  1.00  0.00    -0.119 F  
HETATM   17  C   UNL     1      -9.335   7.015  70.081  1.00  0.00    -0.162 A  
HETATM   18  C   UNL     1     -10.053   8.214  70.313  1.00  0.00    -0.192 A  
BRANCH  14  19
HETATM   19  N   UNL     1      -8.986   4.614  70.372  1.00  0.00    -0.097 NA 
HETATM   20  C   UNL     1      -9.533   3.815  69.266  1.00  0.00    -0.182 C  
HETATM   21  C   UNL     1      -8.362   3.278  68.414  1.00  0.00    -0.077 C  
HETATM   22  N   UNL     1      -7.386   2.494  69.193  1.00  0.00    -0.044 NA 
HETATM   23  C   UNL     1      -6.889   3.295  70.338  1.00  0.00    -0.033 C  
HETATM   24  H   UNL     1      -6.624   2.146  68.611  1.00  0.00     0.000 HD 
HETATM   25  C   UNL     1      -8.027   3.889  71.221  1.00  0.00    -0.067 C  
HETATM   26  C   UNL     1      -5.965   2.404  71.166  1.00  0.00    -0.014 C  
ENDBRANCH  14  19
ENDBRANCH   2   3
TORSDOF 2
ENDMDL
MODEL       86
REMARK 921   NORMALIZED FREE ENERGY PREDICTED BY IDOCK:   -4.74 KCAL/MOL
REMARK 922        TOTAL FREE ENERGY PREDICTED BY IDOCK:   -5.83 KCAL/MOL
REMARK 923 INTER-LIGAND FREE ENERGY PREDICTED BY IDOCK:   -5.24 KCAL/MOL
REMARK 924 INTRA-LIGAND FREE ENERGY PREDICTED BY IDOCK:   -0.59 KCAL/MOL
REMARK 927      BINDING AFFINITY PREDICTED BY RF-SCORE:    0.00 PKD
ROOT
HETATM    1  C   UNL     1      -6.207  11.970  67.497  1.00  0.00    -0.113 C  
HETATM    2  C   UNL     1      -7.000  10.763  67.018  1.00  0.00    -0.100 C  
ENDROOT
BRANCH   2   3
HETATM    3  N   UNL     1      -8.447  10.998  67.187  1.00  0.00    -0.134 NA 
HETATM    4  C   UNL     1      -9.130  11.767  66.252  1.00  0.00    -0.206 C  
HETATM    5  C   UNL     1     -10.412  12.152  66.309  1.00  0.00    -0.270 C  
HETATM    6  C   UNL     1     -10.979  12.967  65.217  1.00  0.00    -0.283 C  
HETATM    7  C   UNL     1     -11.173  11.724  67.493  1.00  0.00    -0.291 C  
HETATM    8  C   UNL     1     -10.487  10.895  68.511  1.00  0.00    -0.209 A  
HETATM    9  O   UNL     1     -12.352  12.050  67.614  1.00  0.00    -0.345 OA 
HETATM   10  O   UNL     1     -10.335  13.318  64.237  1.00  0.00    -0.427 OA 
HETATM   11  O   UNL     1     -12.277  13.301  65.378  1.00  0.00    -0.401 OA 
HETATM   12  C   UNL     1     -11.234  10.467  69.612  1.00  0.00    -0.342 A  
HETATM   13  C   UNL     1     -10.649   9.633  70.552  1.00  0.00    -0.306 A  
HETATM   14  C   UNL     1      -9.318   9.202  70.447  1.00  0.00    -0.232 A  
HETATM   15  F   UNL     1     -11.410   9.242  71.586  1.00  0.00    -0.375 F  
HETATM   16  F   UNL     1      -7.299   9.307  69.241  1.00  0.00    -0.064 F  
HETATM   17  C   UNL     1      -8.576   9.712  69.351  1.00  0.00    -0.158 A  
HETATM   18  C   UNL     1      -9.129  10.542  68.346  1.00  0.00    -0.148 A  
BRANCH  14  19
HETATM   19  N   UNL     1      -8.778   8.249  71.298  1.00  0.00    -0.139 NA 
HETATM   20  C   UNL     1      -7.878   8.636  72.394  1.00  0.00     0.022 C  
HETATM   21  C   UNL     1      -8.223   7.793  73.642  1.00  0.00    -0.192 C  
HETATM   22  N   UNL     1      -8.159   6.340  73.401  1.00  0.00    -0.111 NA 
HETATM   23  C   UNL     1      -9.028   5.977  72.254  1.00  0.00    -0.141 C  
HETATM   24  H   UNL     1      -8.387   5.804  74.238  1.00  0.00     0.000 HD 
HETATM   25  C   UNL     1      -8.746   6.815  70.971  1.00  0.00    -0.137 C  
HETATM   26  C   UNL     1      -8.844   4.485  71.983  1.00  0.00    -0.134 C  
ENDBRANCH  14  19
ENDBRANCH   2   3
TORSDOF 2
ENDMDL
MODEL       87
REMARK 921   NORMALIZED FREE ENERGY PREDICTED BY IDOCK:   -4.73 KCAL/MOL
REMARK 922        TOTAL FREE ENERGY PREDICTED BY IDOCK:   -5.82 KCAL/MOL
REMARK 923 INTER-LIGAND FREE ENERGY PREDICTED BY IDOCK:   -6.34 KCAL/MOL
REMARK 924 INTRA-LIGAND FREE ENERGY PREDICTED BY IDOCK:    0.52 KCAL/MOL
REMARK 927      BINDING AFFINITY PREDICTED BY RF-SCORE:    0.00 PKD
ROOT
HETATM    1  C   UNL     1      -9.463  10.229  62.366  1.00  0.00    -0.252 C  
HETATM    2  C   UNL     1      -9.265   9.745  63.796  1.00  0.00    -0.189 C  
ENDROOT
BRANCH   2   3
HETATM    3  N   UNL     1     -10.183  10.451  64.709  1.00  0.00    -0.318 NA 
HETATM    4  C   UNL     1     -10.887  11.560  64.251  1.00  0.00    -0.359 C  
HETATM    5  C   UNL     1     -11.679  12.364  64.973  1.00  0.00    -0.420 C  
HETATM    6  C   UNL     1     -12.359  13.498  64.318  1.00  0.00    -0.335 C  
HETATM    7  C   UNL     1     -11.808  12.045  66.403  1.00  0.00    -0.153 C  
HETATM    8  C   UNL     1     -11.084  10.867  66.932  1.00  0.00    -0.236 A  
HETATM    9  O   UNL     1     -12.513  12.748  67.126  1.00  0.00    -0.239 OA 
HETATM   10  O   UNL     1     -12.242  13.754  63.126  1.00  0.00    -0.609 OA 
HETATM   11  O   UNL     1     -13.129  14.244  65.138  1.00  0.00    -0.704 OA 
HETATM   12  C   UNL     1     -11.245  10.558  68.285  1.00  0.00    -0.354 A  
HETATM   13  C   UNL     1     -10.639   9.424  68.804  1.00  0.00    -0.208 A  
HETATM   14  C   UNL     1      -9.852   8.569  68.019  1.00  0.00    -0.169 A  
HETATM   15  F   UNL     1     -10.832   9.165  70.107  1.00  0.00    -0.220 F  
HETATM   16  F   UNL     1      -8.906   8.142  65.906  1.00  0.00    -0.147 F  
HETATM   17  C   UNL     1      -9.660   8.954  66.668  1.00  0.00    -0.219 A  
HETATM   18  C   UNL     1     -10.277  10.084  66.078  1.00  0.00    -0.207 A  
BRANCH  14  19
HETATM   19  N   UNL     1      -9.373   7.357  68.495  1.00  0.00    -0.142 NA 
HETATM   20  C   UNL     1      -8.309   6.632  67.786  1.00  0.00    -0.122 C  
HETATM   21  C   UNL     1      -7.331   6.042  68.826  1.00  0.00    -0.085 C  
HETATM   22  N   UNL     1      -7.988   5.169  69.816  1.00  0.00    -0.077 NA 
HETATM   23  C   UNL     1      -9.096   5.899  70.480  1.00  0.00    -0.148 C  
HETATM   24  H   UNL     1      -7.324   4.788  70.489  1.00  0.00     0.000 HD 
HETATM   25  C   UNL     1     -10.103   6.542  69.479  1.00  0.00    -0.176 C  
HETATM   26  C   UNL     1      -9.806   4.921  71.414  1.00  0.00    -0.252 C  
ENDBRANCH  14  19
ENDBRANCH   2   3
TORSDOF 2
ENDMDL
MODEL       88
REMARK 921   NORMALIZED FREE ENERGY PREDICTED BY IDOCK:   -4.70 KCAL/MOL
REMARK 922        TOTAL FREE ENERGY PREDICTED BY IDOCK:   -5.79 KCAL/MOL
REMARK 923 INTER-LIGAND FREE ENERGY PREDICTED BY IDOCK:   -5.14 KCAL/MOL
REMARK 924 INTRA-LIGAND FREE ENERGY PREDICTED BY IDOCK:   -0.65 KCAL/MOL
REMARK 927      BINDING AFFINITY PREDICTED BY RF-SCORE:    0.00 PKD
ROOT
HETATM    1  C   UNL     1      -5.669  14.512  68.841  1.00  0.00    -0.086 C  
HETATM    2  C   UNL     1      -6.476  14.007  67.653  1.00  0.00    -0.140 C  
ENDROOT
BRANCH   2   3
HETATM    3  N   UNL     1      -7.818  14.620  67.645  1.00  0.00    -0.165 NA 
HETATM    4  C   UNL     1      -7.952  15.972  67.348  1.00  0.00    -0.159 C  
HETATM    5  C   UNL     1      -9.077  16.697  67.393  1.00  0.00    -0.206 C  
HETATM    6  C   UNL     1      -9.037  18.129  67.036  1.00  0.00    -0.263 C  
HETATM    7  C   UNL     1     -10.297  15.990  67.810  1.00  0.00    -0.279 C  
HETATM    8  C   UNL     1     -10.203  14.546  68.127  1.00  0.00    -0.230 A  
HETATM    9  O   UNL     1     -11.365  16.597  67.881  1.00  0.00    -0.199 OA 
HETATM   10  O   UNL     1      -8.015  18.707  66.692  1.00  0.00    -0.247 OA 
HETATM   11  O   UNL     1     -10.226  18.764  67.119  1.00  0.00    -0.343 OA 
HETATM   12  C   UNL     1     -11.378  13.881  68.487  1.00  0.00    -0.311 A  
HETATM   13  C   UNL     1     -11.344  12.515  68.725  1.00  0.00    -0.293 A  
HETATM   14  C   UNL     1     -10.163  11.765  68.626  1.00  0.00    -0.201 A  
HETATM   15  F   UNL     1     -12.500  11.921  69.059  1.00  0.00    -0.240 F  
HETATM   16  F   UNL     1      -7.844  11.781  68.226  1.00  0.00    -0.107 F  
HETATM   17  C   UNL     1      -8.982  12.489  68.322  1.00  0.00    -0.178 A  
HETATM   18  C   UNL     1      -8.962  13.877  68.042  1.00  0.00    -0.184 A  
BRANCH  14  19
HETATM   19  N   UNL     1     -10.155  10.381  68.711  1.00  0.00    -0.178 NA 
HETATM   20  C   UNL     1     -10.593   9.550  67.581  1.00  0.00    -0.269 C  
HETATM   21  C   UNL     1      -9.647   8.335  67.460  1.00  0.00    -0.154 C  
HETATM   22  N   UNL     1      -9.563   7.535  68.696  1.00  0.00    -0.150 NA 
HETATM   23  C   UNL     1      -9.176   8.402  69.837  1.00  0.00    -0.151 C  
HETATM   24  H   UNL     1      -8.936   6.737  68.593  1.00  0.00     0.000 HD 
HETATM   25  C   UNL     1     -10.080   9.662  69.993  1.00  0.00    -0.252 C  
HETATM   26  C   UNL     1      -9.206   7.548  71.103  1.00  0.00    -0.151 C  
ENDBRANCH  14  19
ENDBRANCH   2   3
TORSDOF 2
ENDMDL
MODEL       89
REMARK 921   NORMALIZED FREE ENERGY PREDICTED BY IDOCK:   -4.69 KCAL/MOL
REMARK 922        TOTAL FREE ENERGY PREDICTED BY IDOCK:   -5.77 KCAL/MOL
REMARK 923 INTER-LIGAND FREE ENERGY PREDICTED BY IDOCK:   -5.32 KCAL/MOL
REMARK 924 INTRA-LIGAND FREE ENERGY PREDICTED BY IDOCK:   -0.45 KCAL/MOL
REMARK 927      BINDING AFFINITY PREDICTED BY RF-SCORE:    0.00 PKD
ROOT
HETATM    1  C   UNL     1      -9.455   9.905  65.037  1.00  0.00    -0.343 C  
HETATM    2  C   UNL     1      -9.693   9.236  66.383  1.00  0.00    -0.258 C  
ENDROOT
BRANCH   2   3
HETATM    3  N   UNL     1      -9.161   7.859  66.374  1.00  0.00    -0.184 NA 
HETATM    4  C   UNL     1      -8.395   7.428  65.297  1.00  0.00    -0.104 C  
HETATM    5  C   UNL     1      -7.923   6.192  65.090  1.00  0.00    -0.117 C  
HETATM    6  C   UNL     1      -7.114   5.911  63.887  1.00  0.00    -0.052 C  
HETATM    7  C   UNL     1      -8.261   5.182  66.104  1.00  0.00    -0.109 C  
HETATM    8  C   UNL     1      -9.068   5.599  67.274  1.00  0.00    -0.110 A  
HETATM    9  O   UNL     1      -7.867   4.024  65.972  1.00  0.00    -0.089 OA 
HETATM   10  O   UNL     1      -6.841   6.760  63.049  1.00  0.00    -0.044 OA 
HETATM   11  O   UNL     1      -6.693   4.634  63.776  1.00  0.00    -0.040 OA 
HETATM   12  C   UNL     1      -9.351   4.636  68.246  1.00  0.00    -0.182 A  
HETATM   13  C   UNL     1     -10.045   5.003  69.389  1.00  0.00    -0.218 A  
HETATM   14  C   UNL     1     -10.489   6.315  69.608  1.00  0.00    -0.238 A  
HETATM   15  F   UNL     1     -10.284   4.044  70.297  1.00  0.00    -0.250 F  
HETATM   16  F   UNL     1     -10.662   8.506  68.767  1.00  0.00    -0.231 F  
HETATM   17  C   UNL     1     -10.239   7.246  68.568  1.00  0.00    -0.181 A  
HETATM   18  C   UNL     1      -9.511   6.935  67.394  1.00  0.00    -0.132 A  
BRANCH  14  19
HETATM   19  N   UNL     1     -11.046   6.717  70.814  1.00  0.00    -0.260 NA 
HETATM   20  C   UNL     1     -10.311   6.559  72.077  1.00  0.00    -0.199 C  
HETATM   21  C   UNL     1     -10.539   7.816  72.946  1.00  0.00    -0.366 C  
HETATM   22  N   UNL     1     -11.964   8.098  73.201  1.00  0.00    -0.517 NA 
HETATM   23  C   UNL     1     -12.700   8.197  71.916  1.00  0.00    -0.332 C  
HETATM   24  H   UNL     1     -12.091   8.929  73.779  1.00  0.00     0.000 HD 
HETATM   25  C   UNL     1     -12.486   6.967  70.982  1.00  0.00    -0.326 C  
HETATM   26  C   UNL     1     -14.181   8.385  72.240  1.00  0.00    -0.436 C  
ENDBRANCH  14  19
ENDBRANCH   2   3
TORSDOF 2
ENDMDL
MODEL       90
REMARK 921   NORMALIZED FREE ENERGY PREDICTED BY IDOCK:   -4.68 KCAL/MOL
REMARK 922        TOTAL FREE ENERGY PREDICTED BY IDOCK:   -5.77 KCAL/MOL
REMARK 923 INTER-LIGAND FREE ENERGY PREDICTED BY IDOCK:   -6.00 KCAL/MOL
REMARK 924 INTRA-LIGAND FREE ENERGY PREDICTED BY IDOCK:    0.23 KCAL/MOL
REMARK 927      BINDING AFFINITY PREDICTED BY RF-SCORE:    0.00 PKD
ROOT
HETATM    1  C   UNL     1      -7.022   9.073  69.464  1.00  0.00    -0.051 C  
HETATM    2  C   UNL     1      -8.387   8.509  69.098  1.00  0.00    -0.120 C  
ENDROOT
BRANCH   2   3
HETATM    3  N   UNL     1      -9.074   8.003  70.301  1.00  0.00    -0.147 NA 
HETATM    4  C   UNL     1      -8.614   6.844  70.917  1.00  0.00    -0.136 C  
HETATM    5  C   UNL     1      -9.177   6.204  71.950  1.00  0.00    -0.150 C  
HETATM    6  C   UNL     1      -8.544   4.983  72.485  1.00  0.00    -0.120 C  
HETATM    7  C   UNL     1     -10.421   6.783  72.481  1.00  0.00    -0.209 C  
HETATM    8  C   UNL     1     -10.943   8.023  71.861  1.00  0.00    -0.321 A  
HETATM    9  O   UNL     1     -10.996   6.241  73.423  1.00  0.00    -0.245 OA 
HETATM   10  O   UNL     1      -7.510   4.510  72.033  1.00  0.00    -0.077 OA 
HETATM   11  O   UNL     1      -9.197   4.417  73.522  1.00  0.00    -0.109 OA 
HETATM   12  C   UNL     1     -12.106   8.580  72.400  1.00  0.00    -0.436 A  
HETATM   13  C   UNL     1     -12.588   9.777  71.893  1.00  0.00    -0.391 A  
HETATM   14  C   UNL     1     -11.955  10.456  70.842  1.00  0.00    -0.377 A  
HETATM   15  F   UNL     1     -13.703  10.276  72.451  1.00  0.00    -0.443 F  
HETATM   16  F   UNL     1     -10.203  10.465  69.271  1.00  0.00    -0.189 F  
HETATM   17  C   UNL     1     -10.817   9.824  70.281  1.00  0.00    -0.301 A  
HETATM   18  C   UNL     1     -10.263   8.619  70.776  1.00  0.00    -0.204 A  
BRANCH  14  19
HETATM   19  N   UNL     1     -12.346  11.724  70.437  1.00  0.00    -0.306 NA 
HETATM   20  C   UNL     1     -13.092  12.611  71.341  1.00  0.00    -0.216 C  
HETATM   21  C   UNL     1     -12.554  14.050  71.182  1.00  0.00    -0.371 C  
HETATM   22  N   UNL     1     -12.615  14.546  69.795  1.00  0.00    -0.548 NA 
HETATM   23  C   UNL     1     -11.907  13.608  68.889  1.00  0.00    -0.364 C  
HETATM   24  H   UNL     1     -12.259  15.498  69.714  1.00  0.00     0.000 HD 
HETATM   25  C   UNL     1     -12.388  12.132  69.024  1.00  0.00     0.198 C  
HETATM   26  C   UNL     1     -12.090  14.113  67.459  1.00  0.00    -0.363 C  
ENDBRANCH  14  19
ENDBRANCH   2   3
TORSDOF 2
ENDMDL
MODEL       91
REMARK 921   NORMALIZED FREE ENERGY PREDICTED BY IDOCK:   -4.61 KCAL/MOL
REMARK 922        TOTAL FREE ENERGY PREDICTED BY IDOCK:   -5.69 KCAL/MOL
REMARK 923 INTER-LIGAND FREE ENERGY PREDICTED BY IDOCK:   -5.40 KCAL/MOL
REMARK 924 INTRA-LIGAND FREE ENERGY PREDICTED BY IDOCK:   -0.29 KCAL/MOL
REMARK 927      BINDING AFFINITY PREDICTED BY RF-SCORE:    0.00 PKD
ROOT
HETATM    1  C   UNL     1     -11.487   8.848  71.495  1.00  0.00    -0.391 C  
HETATM    2  C   UNL     1     -11.206   9.521  70.160  1.00  0.00    -0.234 C  
ENDROOT
BRANCH   2   3
HETATM    3  N   UNL     1      -9.752   9.677  69.959  1.00  0.00    -0.228 NA 
HETATM    4  C   UNL     1      -8.872   8.847  70.645  1.00  0.00    -0.198 C  
HETATM    5  C   UNL     1      -7.535   8.921  70.650  1.00  0.00    -0.091 C  
HETATM    6  C   UNL     1      -6.753   7.947  71.435  1.00  0.00    -0.046 C  
HETATM    7  C   UNL     1      -6.935  10.002  69.852  1.00  0.00    -0.118 C  
HETATM    8  C   UNL     1      -7.835  10.904  69.096  1.00  0.00    -0.119 A  
HETATM    9  O   UNL     1      -5.713  10.133  69.818  1.00  0.00    -0.040 OA 
HETATM   10  O   UNL     1      -7.264   7.053  72.097  1.00  0.00    -0.075 OA 
HETATM   11  O   UNL     1      -5.415   8.115  71.371  1.00  0.00    -0.033 OA 
HETATM   12  C   UNL     1      -7.248  11.903  68.316  1.00  0.00    -0.089 A  
HETATM   13  C   UNL     1      -8.051  12.724  67.540  1.00  0.00    -0.180 A  
HETATM   14  C   UNL     1      -9.448  12.598  67.513  1.00  0.00    -0.186 A  
HETATM   15  F   UNL     1      -7.439  13.662  66.800  1.00  0.00     0.040 F  
HETATM   16  F   UNL     1     -11.346  11.488  68.353  1.00  0.00    -0.237 F  
HETATM   17  C   UNL     1     -10.007  11.616  68.369  1.00  0.00    -0.201 A  
HETATM   18  C   UNL     1      -9.235  10.731  69.160  1.00  0.00    -0.116 A  
BRANCH  14  19
HETATM   19  N   UNL     1     -10.240  13.313  66.626  1.00  0.00    -0.260 NA 
HETATM   20  C   UNL     1     -10.461  14.755  66.801  1.00  0.00    -0.282 C  
HETATM   21  C   UNL     1     -10.414  15.438  65.417  1.00  0.00    -0.402 C  
HETATM   22  N   UNL     1     -11.378  14.874  64.454  1.00  0.00    -0.645 NA 
HETATM   23  C   UNL     1     -11.178  13.409  64.334  1.00  0.00    -0.384 C  
HETATM   24  H   UNL     1     -11.333  15.341  63.550  1.00  0.00     0.000 HD 
HETATM   25  C   UNL     1     -11.188  12.666  65.705  1.00  0.00    -0.309 C  
HETATM   26  C   UNL     1     -12.265  12.863  63.411  1.00  0.00    -0.574 C  
ENDBRANCH  14  19
ENDBRANCH   2   3
TORSDOF 2
ENDMDL
MODEL       92
REMARK 921   NORMALIZED FREE ENERGY PREDICTED BY IDOCK:   -4.60 KCAL/MOL
REMARK 922        TOTAL FREE ENERGY PREDICTED BY IDOCK:   -5.68 KCAL/MOL
REMARK 923 INTER-LIGAND FREE ENERGY PREDICTED BY IDOCK:   -5.15 KCAL/MOL
REMARK 924 INTRA-LIGAND FREE ENERGY PREDICTED BY IDOCK:   -0.53 KCAL/MOL
REMARK 927      BINDING AFFINITY PREDICTED BY RF-SCORE:    0.00 PKD
ROOT
HETATM    1  C   UNL     1     -11.419   9.806  71.790  1.00  0.00    -0.137 C  
HETATM    2  C   UNL     1     -11.883   9.259  70.448  1.00  0.00    -0.054 C  
ENDROOT
BRANCH   2   3
HETATM    3  N   UNL     1     -11.464  10.156  69.354  1.00  0.00    -0.186 NA 
HETATM    4  C   UNL     1     -11.772  11.510  69.422  1.00  0.00    -0.346 C  
HETATM    5  C   UNL     1     -11.552  12.434  68.478  1.00  0.00    -0.358 C  
HETATM    6  C   UNL     1     -11.940  13.836  68.724  1.00  0.00    -0.365 C  
HETATM    7  C   UNL     1     -10.928  11.962  67.232  1.00  0.00    -0.268 C  
HETATM    8  C   UNL     1     -10.573  10.528  67.120  1.00  0.00    -0.319 A  
HETATM    9  O   UNL     1     -10.705  12.756  66.320  1.00  0.00    -0.265 OA 
HETATM   10  O   UNL     1     -12.461  14.216  69.764  1.00  0.00    -0.332 OA 
HETATM   11  O   UNL     1     -11.675  14.682  67.705  1.00  0.00    -0.347 OA 
HETATM   12  C   UNL     1      -9.949  10.103  65.944  1.00  0.00    -0.334 A  
HETATM   13  C   UNL     1      -9.539   8.784  65.827  1.00  0.00    -0.120 A  
HETATM   14  C   UNL     1      -9.737   7.844  66.849  1.00  0.00    -0.219 A  
HETATM   15  F   UNL     1      -8.935   8.427  64.682  1.00  0.00    -0.109 F  
HETATM   16  F   UNL     1     -10.629   7.406  68.982  1.00  0.00    -0.204 F  
HETATM   17  C   UNL     1     -10.433   8.299  67.997  1.00  0.00    -0.181 A  
HETATM   18  C   UNL     1     -10.848   9.640  68.183  1.00  0.00    -0.190 A  
BRANCH  14  19
HETATM   19  N   UNL     1      -9.194   6.568  66.797  1.00  0.00    -0.142 NA 
HETATM   20  C   UNL     1     -10.045   5.392  66.566  1.00  0.00    -0.216 C  
HETATM   21  C   UNL     1      -9.311   4.427  65.610  1.00  0.00    -0.161 C  
HETATM   22  N   UNL     1      -7.980   4.021  66.097  1.00  0.00    -0.094 NA 
HETATM   23  C   UNL     1      -7.156   5.222  66.380  1.00  0.00    -0.072 C  
HETATM   24  H   UNL     1      -7.516   3.382  65.453  1.00  0.00     0.000 HD 
HETATM   25  C   UNL     1      -7.856   6.249  67.320  1.00  0.00    -0.108 C  
HETATM   26  C   UNL     1      -5.832   4.749  66.978  1.00  0.00    -0.022 C  
ENDBRANCH  14  19
ENDBRANCH   2   3
TORSDOF 2
ENDMDL
MODEL       93
REMARK 921   NORMALIZED FREE ENERGY PREDICTED BY IDOCK:   -4.59 KCAL/MOL
REMARK 922        TOTAL FREE ENERGY PREDICTED BY IDOCK:   -5.67 KCAL/MOL
REMARK 923 INTER-LIGAND FREE ENERGY PREDICTED BY IDOCK:   -5.11 KCAL/MOL
REMARK 924 INTRA-LIGAND FREE ENERGY PREDICTED BY IDOCK:   -0.56 KCAL/MOL
REMARK 927      BINDING AFFINITY PREDICTED BY RF-SCORE:    0.00 PKD
ROOT
HETATM    1  C   UNL     1      -5.624  13.396  67.817  1.00  0.00    -0.098 C  
HETATM    2  C   UNL     1      -6.926  13.582  68.582  1.00  0.00    -0.100 C  
ENDROOT
BRANCH   2   3
HETATM    3  N   UNL     1      -8.077  13.526  67.659  1.00  0.00    -0.166 NA 
HETATM    4  C   UNL     1      -8.486  14.682  67.004  1.00  0.00    -0.210 C  
HETATM    5  C   UNL     1      -9.560  14.823  66.216  1.00  0.00    -0.339 C  
HETATM    6  C   UNL     1      -9.840  16.131  65.591  1.00  0.00    -0.255 C  
HETATM    7  C   UNL     1     -10.401  13.630  66.036  1.00  0.00    -0.304 C  
HETATM    8  C   UNL     1      -9.998  12.374  66.708  1.00  0.00    -0.234 A  
HETATM    9  O   UNL     1     -11.408  13.691  65.332  1.00  0.00    -0.298 OA 
HETATM   10  O   UNL     1      -9.133  17.117  65.751  1.00  0.00    -0.525 OA 
HETATM   11  O   UNL     1     -10.949  16.161  64.821  1.00  0.00    -0.594 OA 
HETATM   12  C   UNL     1     -10.789  11.241  66.498  1.00  0.00    -0.319 A  
HETATM   13  C   UNL     1     -10.408  10.029  67.053  1.00  0.00    -0.243 A  
HETATM   14  C   UNL     1      -9.251   9.894  67.836  1.00  0.00    -0.130 A  
HETATM   15  F   UNL     1     -11.195   8.969  66.814  1.00  0.00    -0.051 F  
HETATM   16  F   UNL     1      -7.405  10.962  68.830  1.00  0.00    -0.076 F  
HETATM   17  C   UNL     1      -8.514  11.080  68.079  1.00  0.00    -0.129 A  
HETATM   18  C   UNL     1      -8.839  12.337  67.515  1.00  0.00    -0.182 A  
BRANCH  14  19
HETATM   19  N   UNL     1      -8.787   8.658  68.264  1.00  0.00    -0.141 NA 
HETATM   20  C   UNL     1      -7.868   7.867  67.434  1.00  0.00    -0.121 C  
HETATM   21  C   UNL     1      -6.801   7.225  68.347  1.00  0.00    -0.073 C  
HETATM   22  N   UNL     1      -7.375   6.399  69.425  1.00  0.00    -0.089 NA 
HETATM   23  C   UNL     1      -8.343   7.198  70.216  1.00  0.00    -0.136 C  
HETATM   24  H   UNL     1      -6.653   5.982  70.013  1.00  0.00     0.000 HD 
HETATM   25  C   UNL     1      -9.431   7.895  69.344  1.00  0.00    -0.156 C  
HETATM   26  C   UNL     1      -8.982   6.270  71.247  1.00  0.00    -0.139 C  
ENDBRANCH  14  19
ENDBRANCH   2   3
TORSDOF 2
ENDMDL
MODEL       94
REMARK 921   NORMALIZED FREE ENERGY PREDICTED BY IDOCK:   -4.59 KCAL/MOL
REMARK 922        TOTAL FREE ENERGY PREDICTED BY IDOCK:   -5.66 KCAL/MOL
REMARK 923 INTER-LIGAND FREE ENERGY PREDICTED BY IDOCK:   -5.22 KCAL/MOL
REMARK 924 INTRA-LIGAND FREE ENERGY PREDICTED BY IDOCK:   -0.43 KCAL/MOL
REMARK 927      BINDING AFFINITY PREDICTED BY RF-SCORE:    0.00 PKD
ROOT
HETATM    1  C   UNL     1      -5.531  12.080  68.218  1.00  0.00    -0.048 C  
HETATM    2  C   UNL     1      -6.362  12.030  66.944  1.00  0.00    -0.065 C  
ENDROOT
BRANCH   2   3
HETATM    3  N   UNL     1      -7.696  11.462  67.221  1.00  0.00    -0.137 NA 
HETATM    4  C   UNL     1      -7.853  10.082  67.286  1.00  0.00    -0.102 C  
HETATM    5  C   UNL     1      -9.002   9.409  67.430  1.00  0.00    -0.134 C  
HETATM    6  C   UNL     1      -8.983   7.935  67.486  1.00  0.00    -0.127 C  
HETATM    7  C   UNL     1     -10.228  10.218  67.520  1.00  0.00    -0.210 C  
HETATM    8  C   UNL     1     -10.106  11.693  67.466  1.00  0.00    -0.209 A  
HETATM    9  O   UNL     1     -11.319   9.665  67.645  1.00  0.00    -0.006 OA 
HETATM   10  O   UNL     1      -7.956   7.273  67.408  1.00  0.00    -0.109 OA 
HETATM   11  O   UNL     1     -10.196   7.360  67.630  1.00  0.00    -0.171 OA 
HETATM   12  C   UNL     1     -11.276  12.447  67.588  1.00  0.00    -0.340 A  
HETATM   13  C   UNL     1     -11.198  13.831  67.611  1.00  0.00    -0.293 A  
HETATM   14  C   UNL     1      -9.977  14.515  67.506  1.00  0.00    -0.224 A  
HETATM   15  F   UNL     1     -12.349  14.510  67.740  1.00  0.00    -0.342 F  
HETATM   16  F   UNL     1      -7.647  14.359  67.214  1.00  0.00    -0.183 F  
HETATM   17  C   UNL     1      -8.822  13.714  67.318  1.00  0.00    -0.224 A  
HETATM   18  C   UNL     1      -8.839  12.299  67.315  1.00  0.00    -0.190 A  
BRANCH  14  19
HETATM   19  N   UNL     1      -9.880  15.887  67.682  1.00  0.00    -0.232 NA 
HETATM   20  C   UNL     1      -9.335  16.454  68.924  1.00  0.00    -0.249 C  
HETATM   21  C   UNL     1      -8.437  17.659  68.569  1.00  0.00    -0.289 C  
HETATM   22  N   UNL     1      -9.132  18.694  67.783  1.00  0.00    -0.282 NA 
HETATM   23  C   UNL     1      -9.725  18.092  66.563  1.00  0.00    -0.344 C  
HETATM   24  H   UNL     1      -8.523  19.481  67.563  1.00  0.00     0.000 HD 
HETATM   25  C   UNL     1     -10.622  16.852  66.856  1.00  0.00    -0.214 C  
HETATM   26  C   UNL     1     -10.519  19.182  65.843  1.00  0.00    -0.500 C  
ENDBRANCH  14  19
ENDBRANCH   2   3
TORSDOF 2
ENDMDL
MODEL       95
REMARK 921   NORMALIZED FREE ENERGY PREDICTED BY IDOCK:   -4.58 KCAL/MOL
REMARK 922        TOTAL FREE ENERGY PREDICTED BY IDOCK:   -5.65 KCAL/MOL
REMARK 923 INTER-LIGAND FREE ENERGY PREDICTED BY IDOCK:   -5.13 KCAL/MOL
REMARK 924 INTRA-LIGAND FREE ENERGY PREDICTED BY IDOCK:   -0.53 KCAL/MOL
REMARK 927      BINDING AFFINITY PREDICTED BY RF-SCORE:    0.00 PKD
ROOT
HETATM    1  C   UNL     1     -12.034   6.617  71.942  1.00  0.00    -0.386 C  
HETATM    2  C   UNL     1     -11.428   7.743  71.116  1.00  0.00    -0.274 C  
ENDROOT
BRANCH   2   3
HETATM    3  N   UNL     1     -10.687   7.194  69.964  1.00  0.00    -0.242 NA 
HETATM    4  C   UNL     1     -10.383   5.837  69.928  1.00  0.00    -0.262 C  
HETATM    5  C   UNL     1      -9.640   5.204  69.012  1.00  0.00    -0.204 C  
HETATM    6  C   UNL     1      -9.425   3.748  69.126  1.00  0.00    -0.172 C  
HETATM    7  C   UNL     1      -9.079   6.034  67.935  1.00  0.00    -0.117 C  
HETATM    8  C   UNL     1      -9.385   7.483  67.928  1.00  0.00    -0.144 A  
HETATM    9  O   UNL     1      -8.380   5.518  67.064  1.00  0.00    -0.108 OA 
HETATM   10  O   UNL     1      -9.896   3.069  70.028  1.00  0.00    -0.039 OA 
HETATM   11  O   UNL     1      -8.659   3.214  68.151  1.00  0.00    -0.082 OA 
HETATM   12  C   UNL     1      -8.873   8.251  66.879  1.00  0.00    -0.155 A  
HETATM   13  C   UNL     1      -9.193   9.598  66.799  1.00  0.00    -0.149 A  
HETATM   14  C   UNL     1     -10.013  10.231  67.745  1.00  0.00    -0.173 A  
HETATM   15  F   UNL     1      -8.685  10.291  65.768  1.00  0.00    -0.138 F  
HETATM   16  F   UNL     1     -11.243  10.029  69.741  1.00  0.00    -0.239 F  
HETATM   17  C   UNL     1     -10.458   9.432  68.828  1.00  0.00    -0.212 A  
HETATM   18  C   UNL     1     -10.186   8.047  68.946  1.00  0.00    -0.209 A  
BRANCH  14  19
HETATM   19  N   UNL     1     -10.459  11.535  67.584  1.00  0.00    -0.184 NA 
HETATM   20  C   UNL     1      -9.838  12.644  68.323  1.00  0.00    -0.227 C  
HETATM   21  C   UNL     1      -9.709  13.860  67.379  1.00  0.00    -0.234 C  
HETATM   22  N   UNL     1     -10.992  14.279  66.787  1.00  0.00    -0.299 NA 
HETATM   23  C   UNL     1     -11.632  13.133  66.096  1.00  0.00    -0.355 C  
HETATM   24  H   UNL     1     -10.884  15.085  66.172  1.00  0.00     0.000 HD 
HETATM   25  C   UNL     1     -11.765  11.864  66.992  1.00  0.00    -0.227 C  
HETATM   26  C   UNL     1     -13.000  13.593  65.595  1.00  0.00    -0.296 C  
ENDBRANCH  14  19
ENDBRANCH   2   3
TORSDOF 2
ENDMDL
MODEL       96
REMARK 921   NORMALIZED FREE ENERGY PREDICTED BY IDOCK:   -4.58 KCAL/MOL
REMARK 922        TOTAL FREE ENERGY PREDICTED BY IDOCK:   -5.65 KCAL/MOL
REMARK 923 INTER-LIGAND FREE ENERGY PREDICTED BY IDOCK:   -5.18 KCAL/MOL
REMARK 924 INTRA-LIGAND FREE ENERGY PREDICTED BY IDOCK:   -0.47 KCAL/MOL
REMARK 927      BINDING AFFINITY PREDICTED BY RF-SCORE:    0.00 PKD
ROOT
HETATM    1  C   UNL     1     -11.784  14.870  69.810  1.00  0.00    -0.344 C  
HETATM    2  C   UNL     1     -11.522  13.978  68.605  1.00  0.00    -0.302 C  
ENDROOT
BRANCH   2   3
HETATM    3  N   UNL     1     -10.071  13.853  68.365  1.00  0.00    -0.234 NA 
HETATM    4  C   UNL     1      -9.280  14.996  68.332  1.00  0.00    -0.193 C  
HETATM    5  C   UNL     1      -7.976  15.064  68.033  1.00  0.00    -0.134 C  
HETATM    6  C   UNL     1      -7.289  16.370  68.055  1.00  0.00    -0.136 C  
HETATM    7  C   UNL     1      -7.315  13.795  67.692  1.00  0.00    -0.172 C  
HETATM    8  C   UNL     1      -8.117  12.550  67.724  1.00  0.00    -0.164 A  
HETATM    9  O   UNL     1      -6.121  13.785  67.399  1.00  0.00    -0.344 OA 
HETATM   10  O   UNL     1      -7.851  17.419  68.338  1.00  0.00    -0.236 OA 
HETATM   11  O   UNL     1      -5.979  16.323  67.734  1.00  0.00    -0.116 OA 
HETATM   12  C   UNL     1      -7.466  11.349  67.432  1.00  0.00    -0.120 A  
HETATM   13  C   UNL     1      -8.165  10.154  67.517  1.00  0.00    -0.114 A  
HETATM   14  C   UNL     1      -9.519  10.102  67.879  1.00  0.00    -0.141 A  
HETATM   15  F   UNL     1      -7.492   9.027  67.237  1.00  0.00    -0.082 F  
HETATM   16  F   UNL     1     -11.457  11.309  68.449  1.00  0.00    -0.263 F  
HETATM   17  C   UNL     1     -10.159  11.347  68.103  1.00  0.00    -0.189 A  
HETATM   18  C   UNL     1      -9.489  12.594  68.059  1.00  0.00    -0.209 A  
BRANCH  14  19
HETATM   19  N   UNL     1     -10.177   8.904  68.114  1.00  0.00    -0.193 NA 
HETATM   20  C   UNL     1     -10.757   8.129  67.008  1.00  0.00    -0.177 C  
HETATM   21  C   UNL     1     -10.488   6.629  67.256  1.00  0.00    -0.275 C  
HETATM   22  N   UNL     1     -11.000   6.151  68.553  1.00  0.00    -0.324 NA 
HETATM   23  C   UNL     1     -10.451   6.981  69.653  1.00  0.00    -0.223 C  
HETATM   24  H   UNL     1     -10.815   5.158  68.695  1.00  0.00     0.000 HD 
HETATM   25  C   UNL     1     -10.667   8.511  69.445  1.00  0.00    -0.156 C  
HETATM   26  C   UNL     1     -11.093   6.512  70.958  1.00  0.00    -0.339 C  
ENDBRANCH  14  19
ENDBRANCH   2   3
TORSDOF 2
ENDMDL
MODEL       97
REMARK 921   NORMALIZED FREE ENERGY PREDICTED BY IDOCK:   -4.58 KCAL/MOL
REMARK 922        TOTAL FREE ENERGY PREDICTED BY IDOCK:   -5.65 KCAL/MOL
REMARK 923 INTER-LIGAND FREE ENERGY PREDICTED BY IDOCK:   -5.24 KCAL/MOL
REMARK 924 INTRA-LIGAND FREE ENERGY PREDICTED BY IDOCK:   -0.41 KCAL/MOL
REMARK 927      BINDING AFFINITY PREDICTED BY RF-SCORE:    0.00 PKD
ROOT
HETATM    1  C   UNL     1      -7.325   6.525  66.687  1.00  0.00    -0.078 C  
HETATM    2  C   UNL     1      -8.821   6.769  66.560  1.00  0.00    -0.143 C  
ENDROOT
BRANCH   2   3
HETATM    3  N   UNL     1      -9.441   6.874  67.895  1.00  0.00    -0.121 NA 
HETATM    4  C   UNL     1      -9.451   5.765  68.735  1.00  0.00    -0.124 C  
HETATM    5  C   UNL     1     -10.052   5.666  69.927  1.00  0.00    -0.289 C  
HETATM    6  C   UNL     1      -9.953   4.407  70.691  1.00  0.00    -0.183 C  
HETATM    7  C   UNL     1     -10.788   6.851  70.392  1.00  0.00    -0.261 C  
HETATM    8  C   UNL     1     -10.796   8.059  69.534  1.00  0.00    -0.135 A  
HETATM    9  O   UNL     1     -11.371   6.826  71.475  1.00  0.00    -0.252 OA 
HETATM   10  O   UNL     1      -9.339   3.426  70.293  1.00  0.00    -0.142 OA 
HETATM   11  O   UNL     1     -10.598   4.415  71.877  1.00  0.00    -0.089 OA 
HETATM   12  C   UNL     1     -11.470   9.188  70.005  1.00  0.00    -0.034 A  
HETATM   13  C   UNL     1     -11.444  10.359  69.264  1.00  0.00    -0.215 A  
HETATM   14  C   UNL     1     -10.767  10.455  68.039  1.00  0.00    -0.249 A  
HETATM   15  F   UNL     1     -12.098  11.419  69.764  1.00  0.00    -0.322 F  
HETATM   16  F   UNL     1      -9.502   9.350  66.391  1.00  0.00    -0.185 F  
HETATM   17  C   UNL     1     -10.152   9.269  67.565  1.00  0.00    -0.218 A  
HETATM   18  C   UNL     1     -10.122   8.055  68.292  1.00  0.00    -0.196 A  
BRANCH  14  19
HETATM   19  N   UNL     1     -10.609  11.662  67.372  1.00  0.00    -0.212 NA 
HETATM   20  C   UNL     1     -10.087  12.847  68.066  1.00  0.00    -0.235 C  
HETATM   21  C   UNL     1      -9.118  13.590  67.120  1.00  0.00    -0.232 C  
HETATM   22  N   UNL     1      -9.731  13.966  65.833  1.00  0.00    -0.466 NA 
HETATM   23  C   UNL     1     -10.305  12.766  65.175  1.00  0.00    -0.295 C  
HETATM   24  H   UNL     1      -9.076  14.458  65.227  1.00  0.00     0.000 HD 
HETATM   25  C   UNL     1     -11.272  11.958  66.092  1.00  0.00    -0.333 C  
HETATM   26  C   UNL     1     -11.017  13.227  63.904  1.00  0.00    -0.227 C  
ENDBRANCH  14  19
ENDBRANCH   2   3
TORSDOF 2
ENDMDL
MODEL       98
REMARK 921   NORMALIZED FREE ENERGY PREDICTED BY IDOCK:   -4.53 KCAL/MOL
REMARK 922        TOTAL FREE ENERGY PREDICTED BY IDOCK:   -5.60 KCAL/MOL
REMARK 923 INTER-LIGAND FREE ENERGY PREDICTED BY IDOCK:   -5.15 KCAL/MOL
REMARK 924 INTRA-LIGAND FREE ENERGY PREDICTED BY IDOCK:   -0.45 KCAL/MOL
REMARK 927      BINDING AFFINITY PREDICTED BY RF-SCORE:    0.00 PKD
ROOT
HETATM    1  C   UNL     1      -9.427   3.501  67.477  1.00  0.00    -0.233 C  
HETATM    2  C   UNL     1      -8.789   4.774  68.012  1.00  0.00    -0.105 C  
ENDROOT
BRANCH   2   3
HETATM    3  N   UNL     1      -9.400   5.154  69.300  1.00  0.00    -0.116 NA 
HETATM    4  C   UNL     1      -9.540   4.199  70.301  1.00  0.00    -0.199 C  
HETATM    5  C   UNL     1     -10.155   4.354  71.480  1.00  0.00    -0.221 C  
HETATM    6  C   UNL     1     -10.203   3.228  72.432  1.00  0.00    -0.125 C  
HETATM    7  C   UNL     1     -10.756   5.672  71.738  1.00  0.00    -0.244 C  
HETATM    8  C   UNL     1     -10.623   6.723  70.703  1.00  0.00    -0.257 A  
HETATM    9  O   UNL     1     -11.344   5.881  72.798  1.00  0.00    -0.279 OA 
HETATM   10  O   UNL     1      -9.701   2.135  72.205  1.00  0.00    -0.099 OA 
HETATM   11  O   UNL     1     -10.850   3.492  73.587  1.00  0.00    -0.198 OA 
HETATM   12  C   UNL     1     -11.168   7.980  70.979  1.00  0.00    -0.287 A  
HETATM   13  C   UNL     1     -11.006   9.010  70.065  1.00  0.00    -0.214 A  
HETATM   14  C   UNL     1     -10.315   8.839  68.856  1.00  0.00    -0.212 A  
HETATM   15  F   UNL     1     -11.540  10.201  70.380  1.00  0.00    -0.282 F  
HETATM   16  F   UNL     1      -9.173   7.356  67.429  1.00  0.00    -0.128 F  
HETATM   17  C   UNL     1      -9.835   7.532  68.586  1.00  0.00    -0.165 A  
HETATM   18  C   UNL     1      -9.947   6.451  69.493  1.00  0.00    -0.162 A  
BRANCH  14  19
HETATM   19  N   UNL     1     -10.019   9.901  68.015  1.00  0.00    -0.147 NA 
HETATM   20  C   UNL     1      -8.669  10.479  67.971  1.00  0.00    -0.128 C  
HETATM   21  C   UNL     1      -8.311  10.797  66.503  1.00  0.00    -0.146 C  
HETATM   22  N   UNL     1      -9.283  11.689  65.845  1.00  0.00    -0.289 NA 
HETATM   23  C   UNL     1     -10.648  11.119  65.950  1.00  0.00    -0.234 C  
HETATM   24  H   UNL     1      -9.025  11.889  64.879  1.00  0.00     0.000 HD 
HETATM   25  C   UNL     1     -11.057  10.751  67.409  1.00  0.00    -0.296 C  
HETATM   26  C   UNL     1     -11.624  12.128  65.349  1.00  0.00    -0.383 C  
ENDBRANCH  14  19
ENDBRANCH   2   3
TORSDOF 2
ENDMDL
MODEL       99
REMARK 921   NORMALIZED FREE ENERGY PREDICTED BY IDOCK:   -4.52 KCAL/MOL
REMARK 922        TOTAL FREE ENERGY PREDICTED BY IDOCK:   -5.58 KCAL/MOL
REMARK 923 INTER-LIGAND FREE ENERGY PREDICTED BY IDOCK:   -5.16 KCAL/MOL
REMARK 924 INTRA-LIGAND FREE ENERGY PREDICTED BY IDOCK:   -0.43 KCAL/MOL
REMARK 927      BINDING AFFINITY PREDICTED BY RF-SCORE:    0.00 PKD
ROOT
HETATM    1  C   UNL     1      -6.876  15.191  68.357  1.00  0.00    -0.109 C  
HETATM    2  C   UNL     1      -8.245  14.541  68.504  1.00  0.00    -0.154 C  
ENDROOT
BRANCH   2   3
HETATM    3  N   UNL     1      -9.018  14.683  67.255  1.00  0.00    -0.194 NA 
HETATM    4  C   UNL     1      -9.431  15.946  66.845  1.00  0.00    -0.227 C  
HETATM    5  C   UNL     1     -10.215  16.236  65.798  1.00  0.00    -0.390 C  
HETATM    6  C   UNL     1     -10.549  17.643  65.503  1.00  0.00    -0.068 C  
HETATM    7  C   UNL     1     -10.698  15.095  65.006  1.00  0.00    -0.430 C  
HETATM    8  C   UNL     1     -10.275  13.731  65.400  1.00  0.00    -0.344 A  
HETATM    9  O   UNL     1     -11.429  15.288  64.035  1.00  0.00    -0.097 OA 
HETATM   10  O   UNL     1     -10.142  18.584  66.172  1.00  0.00    -0.409 OA 
HETATM   11  O   UNL     1     -11.347  17.820  64.429  1.00  0.00    -0.361 OA 
HETATM   12  C   UNL     1     -10.714  12.661  64.616  1.00  0.00    -0.353 A  
HETATM   13  C   UNL     1     -10.285  11.377  64.912  1.00  0.00    -0.278 A  
HETATM   14  C   UNL     1      -9.424  11.102  65.985  1.00  0.00    -0.208 A  
HETATM   15  F   UNL     1     -10.726  10.384  64.124  1.00  0.00    -0.300 F  
HETATM   16  F   UNL     1      -8.232  11.953  67.827  1.00  0.00    -0.122 F  
HETATM   17  C   UNL     1      -9.056  12.206  66.795  1.00  0.00    -0.205 A  
HETATM   18  C   UNL     1      -9.439  13.541  66.524  1.00  0.00    -0.256 A  
BRANCH  14  19
HETATM   19  N   UNL     1      -8.873   9.845  66.190  1.00  0.00    -0.141 NA 
HETATM   20  C   UNL     1      -9.662   8.760  66.790  1.00  0.00    -0.221 C  
HETATM   21  C   UNL     1      -9.343   7.444  66.049  1.00  0.00     0.015 C  
HETATM   22  N   UNL     1      -7.908   7.107  66.049  1.00  0.00    -0.102 NA 
HETATM   23  C   UNL     1      -7.121   8.236  65.494  1.00  0.00    -0.067 C  
HETATM   24  H   UNL     1      -7.720   6.233  65.558  1.00  0.00     0.000 HD 
HETATM   25  C   UNL     1      -7.422   9.601  66.185  1.00  0.00    -0.098 C  
HETATM   26  C   UNL     1      -5.641   7.878  65.614  1.00  0.00    -0.036 C  
ENDBRANCH  14  19
ENDBRANCH   2   3
TORSDOF 2
ENDMDL
MODEL      100
REMARK 921   NORMALIZED FREE ENERGY PREDICTED BY IDOCK:   -4.47 KCAL/MOL
REMARK 922        TOTAL FREE ENERGY PREDICTED BY IDOCK:   -5.53 KCAL/MOL
REMARK 923 INTER-LIGAND FREE ENERGY PREDICTED BY IDOCK:   -6.08 KCAL/MOL
REMARK 924 INTRA-LIGAND FREE ENERGY PREDICTED BY IDOCK:    0.56 KCAL/MOL
REMARK 927      BINDING AFFINITY PREDICTED BY RF-SCORE:    0.00 PKD
ROOT
HETATM    1  C   UNL     1     -11.420  15.043  70.689  1.00  0.00    -0.338 C  
HETATM    2  C   UNL     1      -9.972  14.874  70.249  1.00  0.00     0.376 C  
ENDROOT
BRANCH   2   3
HETATM    3  N   UNL     1      -9.729  15.602  68.989  1.00  0.00    -0.224 NA 
HETATM    4  C   UNL     1      -9.461  16.966  69.026  1.00  0.00    -0.199 C  
HETATM    5  C   UNL     1      -9.315  17.786  67.977  1.00  0.00    -0.276 C  
HETATM    6  C   UNL     1      -9.024  19.215  68.202  1.00  0.00    -0.322 C  
HETATM    7  C   UNL     1      -9.465  17.179  66.645  1.00  0.00    -0.264 C  
HETATM    8  C   UNL     1      -9.742  15.727  66.558  1.00  0.00    -0.285 A  
HETATM    9  O   UNL     1      -9.352  17.876  65.638  1.00  0.00    -0.388 OA 
HETATM   10  O   UNL     1      -8.902  19.708  69.316  1.00  0.00    -0.189 OA 
HETATM   11  O   UNL     1      -8.899  19.949  67.076  1.00  0.00    -0.308 OA 
HETATM   12  C   UNL     1      -9.847  15.160  65.285  1.00  0.00    -0.249 A  
HETATM   13  C   UNL     1     -10.038  13.793  65.160  1.00  0.00    -0.289 A  
HETATM   14  C   UNL     1     -10.140  12.945  66.273  1.00  0.00    -0.276 A  
HETATM   15  F   UNL     1     -10.123  13.295  63.916  1.00  0.00    -0.396 F  
HETATM   16  F   UNL     1     -10.193  12.766  68.619  1.00  0.00    -0.224 F  
HETATM   17  C   UNL     1     -10.094  13.569  67.545  1.00  0.00    -0.234 A  
HETATM   18  C   UNL     1      -9.873  14.954  67.733  1.00  0.00    -0.217 A  
BRANCH  14  19
HETATM   19  N   UNL     1     -10.176  11.563  66.151  1.00  0.00    -0.225 NA 
HETATM   20  C   UNL     1      -9.965  10.912  64.850  1.00  0.00    -0.303 C  
HETATM   21  C   UNL     1      -9.092   9.655  65.059  1.00  0.00    -0.233 C  
HETATM   22  N   UNL     1      -9.660   8.705  66.033  1.00  0.00    -0.389 NA 
HETATM   23  C   UNL     1      -9.922   9.394  67.321  1.00  0.00    -0.196 C  
HETATM   24  H   UNL     1      -9.070   7.882  66.153  1.00  0.00     0.000 HD 
HETATM   25  C   UNL     1     -10.777  10.688  67.171  1.00  0.00    -0.272 C  
HETATM   26  C   UNL     1     -10.604   8.395  68.255  1.00  0.00    -0.163 C  
ENDBRANCH  14  19
ENDBRANCH   2   3
TORSDOF 2
ENDMDL
MODEL      101
REMARK 921   NORMALIZED FREE ENERGY PREDICTED BY IDOCK:   -4.44 KCAL/MOL
REMARK 922        TOTAL FREE ENERGY PREDICTED BY IDOCK:   -5.49 KCAL/MOL
REMARK 923 INTER-LIGAND FREE ENERGY PREDICTED BY IDOCK:   -4.91 KCAL/MOL
REMARK 924 INTRA-LIGAND FREE ENERGY PREDICTED BY IDOCK:   -0.58 KCAL/MOL
REMARK 927      BINDING AFFINITY PREDICTED BY RF-SCORE:    0.00 PKD
ROOT
HETATM    1  C   UNL     1      -9.680   1.621  71.821  1.00  0.00    -0.200 C  
HETATM    2  C   UNL     1      -9.424   2.333  70.500  1.00  0.00    -0.107 C  
ENDROOT
BRANCH   2   3
HETATM    3  N   UNL     1      -9.771   3.763  70.610  1.00  0.00    -0.187 NA 
HETATM    4  C   UNL     1      -9.978   4.323  71.866  1.00  0.00    -0.185 C  
HETATM    5  C   UNL     1     -10.391   5.569  72.133  1.00  0.00    -0.263 C  
HETATM    6  C   UNL     1     -10.551   6.000  73.536  1.00  0.00    -0.268 C  
HETATM    7  C   UNL     1     -10.663   6.432  70.974  1.00  0.00    -0.251 C  
HETATM    8  C   UNL     1     -10.446   5.880  69.616  1.00  0.00    -0.346 A  
HETATM    9  O   UNL     1     -11.053   7.585  71.146  1.00  0.00    -0.244 OA 
HETATM   10  O   UNL     1     -10.323   5.271  74.492  1.00  0.00    -0.264 OA 
HETATM   11  O   UNL     1     -10.974   7.273  73.689  1.00  0.00    -0.294 OA 
HETATM   12  C   UNL     1     -10.675   6.723  68.527  1.00  0.00    -0.280 A  
HETATM   13  C   UNL     1     -10.419   6.267  67.243  1.00  0.00    -0.254 A  
HETATM   14  C   UNL     1      -9.941   4.972  66.989  1.00  0.00    -0.203 A  
HETATM   15  F   UNL     1     -10.646   7.118  66.230  1.00  0.00    -0.174 F  
HETATM   16  F   UNL     1      -9.329   2.884  67.885  1.00  0.00    -0.190 F  
HETATM   17  C   UNL     1      -9.785   4.127  68.117  1.00  0.00    -0.088 A  
HETATM   18  C   UNL     1     -10.003   4.548  69.451  1.00  0.00    -0.142 A  
BRANCH  14  19
HETATM   19  N   UNL     1      -9.539   4.566  65.725  1.00  0.00    -0.173 NA 
HETATM   20  C   UNL     1      -8.254   5.003  65.162  1.00  0.00    -0.131 C  
HETATM   21  C   UNL     1      -7.604   3.812  64.424  1.00  0.00    -0.079 C  
HETATM   22  N   UNL     1      -8.465   3.235  63.375  1.00  0.00    -0.089 NA 
HETATM   23  C   UNL     1      -9.779   2.854  63.949  1.00  0.00    -0.141 C  
HETATM   24  H   UNL     1      -8.015   2.455  62.898  1.00  0.00     0.000 HD 
HETATM   25  C   UNL     1     -10.472   4.009  64.733  1.00  0.00    -0.177 C  
HETATM   26  C   UNL     1     -10.663   2.363  62.805  1.00  0.00    -0.177 C  
ENDBRANCH  14  19
ENDBRANCH   2   3
TORSDOF 2
ENDMDL
MODEL      102
REMARK 921   NORMALIZED FREE ENERGY PREDICTED BY IDOCK:   -4.41 KCAL/MOL
REMARK 922        TOTAL FREE ENERGY PREDICTED BY IDOCK:   -5.46 KCAL/MOL
REMARK 923 INTER-LIGAND FREE ENERGY PREDICTED BY IDOCK:   -4.99 KCAL/MOL
REMARK 924 INTRA-LIGAND FREE ENERGY PREDICTED BY IDOCK:   -0.47 KCAL/MOL
REMARK 927      BINDING AFFINITY PREDICTED BY RF-SCORE:    0.00 PKD
ROOT
HETATM    1  C   UNL     1      -7.049  12.061  67.270  1.00  0.00    -0.149 C  
HETATM    2  C   UNL     1      -8.466  11.538  67.084  1.00  0.00    -0.158 C  
ENDROOT
BRANCH   2   3
HETATM    3  N   UNL     1      -8.442  10.161  66.555  1.00  0.00    -0.126 NA 
HETATM    4  C   UNL     1      -7.793   9.900  65.352  1.00  0.00    -0.132 C  
HETATM    5  C   UNL     1      -7.762   8.735  64.692  1.00  0.00    -0.119 C  
HETATM    6  C   UNL     1      -7.014   8.636  63.424  1.00  0.00    -0.089 C  
HETATM    7  C   UNL     1      -8.500   7.617  65.299  1.00  0.00    -0.076 C  
HETATM    8  C   UNL     1      -9.197   7.847  66.586  1.00  0.00    -0.221 A  
HETATM    9  O   UNL     1      -8.520   6.521  64.742  1.00  0.00    -0.069 OA 
HETATM   10  O   UNL     1      -6.405   9.574  62.928  1.00  0.00    -0.097 OA 
HETATM   11  O   UNL     1      -7.051   7.418  62.842  1.00  0.00    -0.067 OA 
HETATM   12  C   UNL     1      -9.864   6.766  67.166  1.00  0.00    -0.207 A  
HETATM   13  C   UNL     1     -10.472   6.922  68.403  1.00  0.00    -0.204 A  
HETATM   14  C   UNL     1     -10.451   8.139  69.100  1.00  0.00    -0.206 A  
HETATM   15  F   UNL     1     -11.091   5.851  68.923  1.00  0.00    -0.356 F  
HETATM   16  F   UNL     1      -9.798  10.400  69.104  1.00  0.00    -0.181 F  
HETATM   17  C   UNL     1      -9.822   9.228  68.446  1.00  0.00    -0.155 A  
HETATM   18  C   UNL     1      -9.161   9.120  67.198  1.00  0.00    -0.126 A  
BRANCH  14  19
HETATM   19  N   UNL     1     -10.922   8.256  70.400  1.00  0.00    -0.241 NA 
HETATM   20  C   UNL     1     -12.081   9.105  70.711  1.00  0.00    -0.149 C  
HETATM   21  C   UNL     1     -12.965   8.379  71.748  1.00  0.00    -0.344 C  
HETATM   22  N   UNL     1     -12.240   8.011  72.979  1.00  0.00    -0.645 NA 
HETATM   23  C   UNL     1     -11.042   7.205  72.640  1.00  0.00    -0.292 C  
HETATM   24  H   UNL     1     -12.843   7.537  73.650  1.00  0.00     0.000 HD 
HETATM   25  C   UNL     1     -10.123   7.875  71.575  1.00  0.00    -0.180 C  
HETATM   26  C   UNL     1     -10.275   6.942  73.935  1.00  0.00    -0.401 C  
ENDBRANCH  14  19
ENDBRANCH   2   3
TORSDOF 2
ENDMDL
MODEL      103
REMARK 921   NORMALIZED FREE ENERGY PREDICTED BY IDOCK:   -4.36 KCAL/MOL
REMARK 922        TOTAL FREE ENERGY PREDICTED BY IDOCK:   -5.40 KCAL/MOL
REMARK 923 INTER-LIGAND FREE ENERGY PREDICTED BY IDOCK:   -5.03 KCAL/MOL
REMARK 924 INTRA-LIGAND FREE ENERGY PREDICTED BY IDOCK:   -0.38 KCAL/MOL
REMARK 927      BINDING AFFINITY PREDICTED BY RF-SCORE:    0.00 PKD
ROOT
HETATM    1  C   UNL     1      -8.099  11.944  68.337  1.00  0.00    -0.155 C  
HETATM    2  C   UNL     1      -9.225  11.098  67.760  1.00  0.00    -0.153 C  
ENDROOT
BRANCH   2   3
HETATM    3  N   UNL     1     -10.127  10.641  68.835  1.00  0.00    -0.193 NA 
HETATM    4  C   UNL     1     -10.969  11.555  69.458  1.00  0.00    -0.125 C  
HETATM    5  C   UNL     1     -11.771  11.326  70.505  1.00  0.00    -0.345 C  
HETATM    6  C   UNL     1     -12.608  12.419  71.037  1.00  0.00    -0.254 C  
HETATM    7  C   UNL     1     -11.750   9.964  71.061  1.00  0.00    -0.382 C  
HETATM    8  C   UNL     1     -10.875   8.954  70.423  1.00  0.00    -0.269 A  
HETATM    9  O   UNL     1     -12.456   9.686  72.030  1.00  0.00    -0.370 OA 
HETATM   10  O   UNL     1     -12.615  13.549  70.567  1.00  0.00    -0.304 OA 
HETATM   11  O   UNL     1     -13.375  12.079  72.095  1.00  0.00    -0.510 OA 
HETATM   12  C   UNL     1     -10.893   7.657  70.941  1.00  0.00    -0.250 A  
HETATM   13  C   UNL     1     -10.140   6.666  70.329  1.00  0.00    -0.179 A  
HETATM   14  C   UNL     1      -9.343   6.918  69.203  1.00  0.00    -0.140 A  
HETATM   15  F   UNL     1     -10.198   5.434  70.859  1.00  0.00    -0.241 F  
HETATM   16  F   UNL     1      -8.540   8.514  67.671  1.00  0.00    -0.127 F  
HETATM   17  C   UNL     1      -9.302   8.261  68.749  1.00  0.00    -0.143 A  
HETATM   18  C   UNL     1     -10.071   9.306  69.316  1.00  0.00    -0.200 A  
BRANCH  14  19
HETATM   19  N   UNL     1      -8.713   5.902  68.499  1.00  0.00    -0.113 NA 
HETATM   20  C   UNL     1      -7.521   5.234  69.040  1.00  0.00    -0.070 C  
HETATM   21  C   UNL     1      -7.622   3.721  68.747  1.00  0.00    -0.053 C  
HETATM   22  N   UNL     1      -7.789   3.414  67.314  1.00  0.00    -0.078 NA 
HETATM   23  C   UNL     1      -8.962   4.143  66.772  1.00  0.00    -0.126 C  
HETATM   24  H   UNL     1      -7.850   2.411  67.143  1.00  0.00     0.000 HD 
HETATM   25  C   UNL     1      -8.930   5.674  67.062  1.00  0.00    -0.114 C  
HETATM   26  C   UNL     1      -9.026   3.874  65.270  1.00  0.00    -0.132 C  
ENDBRANCH  14  19
ENDBRANCH   2   3
TORSDOF 2
ENDMDL
MODEL      104
REMARK 921   NORMALIZED FREE ENERGY PREDICTED BY IDOCK:   -4.34 KCAL/MOL
REMARK 922        TOTAL FREE ENERGY PREDICTED BY IDOCK:   -5.38 KCAL/MOL
REMARK 923 INTER-LIGAND FREE ENERGY PREDICTED BY IDOCK:   -4.84 KCAL/MOL
REMARK 924 INTRA-LIGAND FREE ENERGY PREDICTED BY IDOCK:   -0.54 KCAL/MOL
REMARK 927      BINDING AFFINITY PREDICTED BY RF-SCORE:    0.00 PKD
ROOT
HETATM    1  C   UNL     1      -6.085  12.777  67.467  1.00  0.00    -0.152 C  
HETATM    2  C   UNL     1      -6.629  11.564  66.727  1.00  0.00    -0.119 C  
ENDROOT
BRANCH   2   3
HETATM    3  N   UNL     1      -8.103  11.538  66.796  1.00  0.00    -0.160 NA 
HETATM    4  C   UNL     1      -8.805  12.733  66.910  1.00  0.00    -0.194 C  
HETATM    5  C   UNL     1     -10.126  12.876  67.080  1.00  0.00    -0.243 C  
HETATM    6  C   UNL     1     -10.707  14.229  67.175  1.00  0.00    -0.282 C  
HETATM    7  C   UNL     1     -10.914  11.637  67.167  1.00  0.00    -0.280 C  
HETATM    8  C   UNL     1     -10.209  10.341  67.041  1.00  0.00    -0.282 A  
HETATM    9  O   UNL     1     -12.132  11.695  67.332  1.00  0.00    -0.605 OA 
HETATM   10  O   UNL     1     -10.040  15.253  67.103  1.00  0.00    -0.236 OA 
HETATM   11  O   UNL     1     -12.045  14.258  67.349  1.00  0.00    -0.400 OA 
HETATM   12  C   UNL     1     -10.976   9.175  67.090  1.00  0.00     0.074 A  
HETATM   13  C   UNL     1     -10.363   7.945  66.908  1.00  0.00    -0.330 A  
HETATM   14  C   UNL     1      -8.984   7.820  66.683  1.00  0.00    -0.149 A  
HETATM   15  F   UNL     1     -11.145   6.855  66.955  1.00  0.00    -0.422 F  
HETATM   16  F   UNL     1      -6.909   8.915  66.493  1.00  0.00    -0.073 F  
HETATM   17  C   UNL     1      -8.232   9.022  66.706  1.00  0.00    -0.115 A  
HETATM   18  C   UNL     1      -8.808  10.307  66.859  1.00  0.00    -0.132 A  
BRANCH  14  19
HETATM   19  N   UNL     1      -8.394   6.610  66.349  1.00  0.00    -0.116 NA 
HETATM   20  C   UNL     1      -7.679   5.813  67.356  1.00  0.00    -0.097 C  
HETATM   21  C   UNL     1      -8.015   4.321  67.140  1.00  0.00    -0.097 C  
HETATM   22  N   UNL     1      -7.707   3.844  65.780  1.00  0.00    -0.088 NA 
HETATM   23  C   UNL     1      -8.390   4.696  64.776  1.00  0.00    -0.127 C  
HETATM   24  H   UNL     1      -7.933   2.857  65.661  1.00  0.00     0.000 HD 
HETATM   25  C   UNL     1      -8.111   6.218  64.959  1.00  0.00    -0.136 C  
HETATM   26  C   UNL     1      -7.955   4.225  63.389  1.00  0.00    -0.084 C  
ENDBRANCH  14  19
ENDBRANCH   2   3
TORSDOF 2
ENDMDL
MODEL      105
REMARK 921   NORMALIZED FREE ENERGY PREDICTED BY IDOCK:   -4.30 KCAL/MOL
REMARK 922        TOTAL FREE ENERGY PREDICTED BY IDOCK:   -5.34 KCAL/MOL
REMARK 923 INTER-LIGAND FREE ENERGY PREDICTED BY IDOCK:   -5.48 KCAL/MOL
REMARK 924 INTRA-LIGAND FREE ENERGY PREDICTED BY IDOCK:    0.14 KCAL/MOL
REMARK 927      BINDING AFFINITY PREDICTED BY RF-SCORE:    0.00 PKD
ROOT
HETATM    1  C   UNL     1     -12.456  13.028  64.034  1.00  0.00    -0.369 C  
HETATM    2  C   UNL     1     -11.094  12.412  64.317  1.00  0.00    -0.349 C  
ENDROOT
BRANCH   2   3
HETATM    3  N   UNL     1     -10.394  13.172  65.371  1.00  0.00    -0.296 NA 
HETATM    4  C   UNL     1     -10.497  14.558  65.399  1.00  0.00    -0.380 C  
HETATM    5  C   UNL     1      -9.853  15.396  66.221  1.00  0.00    -0.320 C  
HETATM    6  C   UNL     1     -10.088  16.849  66.115  1.00  0.00    -0.333 C  
HETATM    7  C   UNL     1      -8.931  14.783  67.191  1.00  0.00    -0.224 C  
HETATM    8  C   UNL     1      -8.798  13.308  67.203  1.00  0.00    -0.223 A  
HETATM    9  O   UNL     1      -8.300  15.495  67.971  1.00  0.00    -0.139 OA 
HETATM   10  O   UNL     1     -10.857  17.347  65.303  1.00  0.00    -0.588 OA 
HETATM   11  O   UNL     1      -9.386  17.600  66.990  1.00  0.00    -0.246 OA 
HETATM   12  C   UNL     1      -7.945  12.740  68.153  1.00  0.00    -0.156 A  
HETATM   13  C   UNL     1      -7.844  11.360  68.242  1.00  0.00    -0.132 A  
HETATM   14  C   UNL     1      -8.566  10.500  67.401  1.00  0.00    -0.122 A  
HETATM   15  F   UNL     1      -7.020  10.863  69.177  1.00  0.00    -0.061 F  
HETATM   16  F   UNL     1     -10.063  10.302  65.596  1.00  0.00    -0.295 F  
HETATM   17  C   UNL     1      -9.368  11.117  66.409  1.00  0.00    -0.188 A  
HETATM   18  C   UNL     1      -9.531  12.519  66.290  1.00  0.00    -0.210 A  
BRANCH  14  19
HETATM   19  N   UNL     1      -8.585   9.125  67.589  1.00  0.00    -0.117 NA 
HETATM   20  C   UNL     1      -8.395   8.540  68.923  1.00  0.00    -0.118 C  
HETATM   21  C   UNL     1      -9.371   7.355  69.091  1.00  0.00    -0.146 C  
HETATM   22  N   UNL     1      -9.227   6.327  68.044  1.00  0.00    -0.118 NA 
HETATM   23  C   UNL     1      -9.364   6.946  66.703  1.00  0.00    -0.163 C  
HETATM   24  H   UNL     1      -9.878   5.553  68.176  1.00  0.00     0.000 HD 
HETATM   25  C   UNL     1      -8.421   8.168  66.483  1.00  0.00    -0.130 C  
HETATM   26  C   UNL     1      -9.102   5.861  65.659  1.00  0.00    -0.058 C  
ENDBRANCH  14  19
ENDBRANCH   2   3
TORSDOF 2
ENDMDL
MODEL      106
REMARK 921   NORMALIZED FREE ENERGY PREDICTED BY IDOCK:   -4.29 KCAL/MOL
REMARK 922        TOTAL FREE ENERGY PREDICTED BY IDOCK:   -5.33 KCAL/MOL
REMARK 923 INTER-LIGAND FREE ENERGY PREDICTED BY IDOCK:   -5.05 KCAL/MOL
REMARK 924 INTRA-LIGAND FREE ENERGY PREDICTED BY IDOCK:   -0.28 KCAL/MOL
REMARK 927      BINDING AFFINITY PREDICTED BY RF-SCORE:    0.00 PKD
ROOT
HETATM    1  C   UNL     1     -11.868   6.625  71.453  1.00  0.00    -0.388 C  
HETATM    2  C   UNL     1     -10.806   6.726  70.367  1.00  0.00    -0.262 C  
ENDROOT
BRANCH   2   3
HETATM    3  N   UNL     1     -10.840   8.061  69.738  1.00  0.00    -0.229 NA 
HETATM    4  C   UNL     1     -11.398   9.130  70.430  1.00  0.00    -0.224 C  
HETATM    5  C   UNL     1     -11.593  10.373  69.969  1.00  0.00    -0.378 C  
HETATM    6  C   UNL     1     -12.197  11.392  70.850  1.00  0.00    -0.344 C  
HETATM    7  C   UNL     1     -11.182  10.628  68.580  1.00  0.00    -0.282 C  
HETATM    8  C   UNL     1     -10.573   9.520  67.808  1.00  0.00    -0.318 A  
HETATM    9  O   UNL     1     -11.340  11.745  68.090  1.00  0.00    -0.239 OA 
HETATM   10  O   UNL     1     -12.536  11.166  72.003  1.00  0.00    -0.181 OA 
HETATM   11  O   UNL     1     -12.350  12.607  70.283  1.00  0.00    -0.281 OA 
HETATM   12  C   UNL     1     -10.156   9.789  66.502  1.00  0.00    -0.307 A  
HETATM   13  C   UNL     1      -9.520   8.798  65.771  1.00  0.00    -0.169 A  
HETATM   14  C   UNL     1      -9.283   7.517  66.291  1.00  0.00    -0.146 A  
HETATM   15  F   UNL     1      -9.130   9.109  64.524  1.00  0.00    -0.242 F  
HETATM   16  F   UNL     1      -9.561   6.041  68.102  1.00  0.00    -0.117 F  
HETATM   17  C   UNL     1      -9.781   7.266  67.594  1.00  0.00    -0.142 A  
HETATM   18  C   UNL     1     -10.411   8.247  68.398  1.00  0.00    -0.199 A  
BRANCH  14  19
HETATM   19  N   UNL     1      -8.514   6.576  65.621  1.00  0.00    -0.147 NA 
HETATM   20  C   UNL     1      -9.018   5.216  65.385  1.00  0.00    -0.156 C  
HETATM   21  C   UNL     1      -8.613   4.776  63.961  1.00  0.00    -0.137 C  
HETATM   22  N   UNL     1      -7.160   4.844  63.720  1.00  0.00    -0.048 NA 
HETATM   23  C   UNL     1      -6.660   6.208  64.020  1.00  0.00    -0.033 C  
HETATM   24  H   UNL     1      -6.915   4.546  62.776  1.00  0.00     0.000 HD 
HETATM   25  C   UNL     1      -7.062   6.720  65.436  1.00  0.00    -0.064 C  
HETATM   26  C   UNL     1      -5.141   6.195  63.855  1.00  0.00    -0.017 C  
ENDBRANCH  14  19
ENDBRANCH   2   3
TORSDOF 2
ENDMDL
MODEL      107
REMARK 921   NORMALIZED FREE ENERGY PREDICTED BY IDOCK:   -4.22 KCAL/MOL
REMARK 922        TOTAL FREE ENERGY PREDICTED BY IDOCK:   -5.25 KCAL/MOL
REMARK 923 INTER-LIGAND FREE ENERGY PREDICTED BY IDOCK:   -5.21 KCAL/MOL
REMARK 924 INTRA-LIGAND FREE ENERGY PREDICTED BY IDOCK:   -0.04 KCAL/MOL
REMARK 927      BINDING AFFINITY PREDICTED BY RF-SCORE:    0.00 PKD
ROOT
HETATM    1  C   UNL     1      -6.824   7.542  68.555  1.00  0.00    -0.066 C  
HETATM    2  C   UNL     1      -8.034   7.041  67.779  1.00  0.00    -0.114 C  
ENDROOT
BRANCH   2   3
HETATM    3  N   UNL     1      -8.561   8.106  66.905  1.00  0.00    -0.122 NA 
HETATM    4  C   UNL     1      -8.065   8.239  65.612  1.00  0.00    -0.124 C  
HETATM    5  C   UNL     1      -8.364   9.203  64.731  1.00  0.00    -0.176 C  
HETATM    6  C   UNL     1      -7.746   9.184  63.391  1.00  0.00    -0.120 C  
HETATM    7  C   UNL     1      -9.308  10.236  65.185  1.00  0.00    -0.226 C  
HETATM    8  C   UNL     1      -9.869  10.128  66.552  1.00  0.00    -0.268 A  
HETATM    9  O   UNL     1      -9.619  11.156  64.430  1.00  0.00    -0.235 OA 
HETATM   10  O   UNL     1      -6.960   8.320  63.026  1.00  0.00    -0.088 OA 
HETATM   11  O   UNL     1      -8.114  10.204  62.587  1.00  0.00    -0.130 OA 
HETATM   12  C   UNL     1     -10.791  11.098  66.954  1.00  0.00    -0.333 A  
HETATM   13  C   UNL     1     -11.390  10.995  68.200  1.00  0.00    -0.307 A  
HETATM   14  C   UNL     1     -11.098   9.949  69.089  1.00  0.00    -0.159 A  
HETATM   15  F   UNL     1     -12.276  11.945  68.537  1.00  0.00    -0.367 F  
HETATM   16  F   UNL     1      -9.820   8.019  69.513  1.00  0.00    -0.172 F  
HETATM   17  C   UNL     1     -10.109   9.024  68.668  1.00  0.00    -0.189 A  
HETATM   18  C   UNL     1      -9.486   9.064  67.397  1.00  0.00    -0.144 A  
BRANCH  14  19
HETATM   19  N   UNL     1     -11.806   9.759  70.267  1.00  0.00    -0.196 NA 
HETATM   20  C   UNL     1     -11.813  10.784  71.320  1.00  0.00    -0.080 C  
HETATM   21  C   UNL     1     -13.238  10.885  71.905  1.00  0.00    -0.403 C  
HETATM   22  N   UNL     1     -13.751   9.603  72.421  1.00  0.00    -0.634 NA 
HETATM   23  C   UNL     1     -13.681   8.566  71.362  1.00  0.00    -0.241 C  
HETATM   24  H   UNL     1     -14.690   9.693  72.806  1.00  0.00     0.000 HD 
HETATM   25  C   UNL     1     -12.271   8.435  70.712  1.00  0.00    -0.000 C  
HETATM   26  C   UNL     1     -14.123   7.239  71.978  1.00  0.00    -0.315 C  
ENDBRANCH  14  19
ENDBRANCH   2   3
TORSDOF 2
ENDMDL
MODEL      108
REMARK 921   NORMALIZED FREE ENERGY PREDICTED BY IDOCK:   -4.16 KCAL/MOL
REMARK 922        TOTAL FREE ENERGY PREDICTED BY IDOCK:   -5.18 KCAL/MOL
REMARK 923 INTER-LIGAND FREE ENERGY PREDICTED BY IDOCK:   -6.01 KCAL/MOL
REMARK 924 INTRA-LIGAND FREE ENERGY PREDICTED BY IDOCK:    0.83 KCAL/MOL
REMARK 927      BINDING AFFINITY PREDICTED BY RF-SCORE:    0.00 PKD
ROOT
HETATM    1  C   UNL     1      -7.616  12.417  67.487  1.00  0.00    -0.155 C  
HETATM    2  C   UNL     1      -8.932  12.614  66.747  1.00  0.00    -0.197 C  
ENDROOT
BRANCH   2   3
HETATM    3  N   UNL     1      -9.795  13.563  67.476  1.00  0.00    -0.223 NA 
HETATM    4  C   UNL     1      -9.790  14.907  67.118  1.00  0.00    -0.231 C  
HETATM    5  C   UNL     1     -10.435  15.906  67.735  1.00  0.00    -0.287 C  
HETATM    6  C   UNL     1     -10.323  17.281  67.211  1.00  0.00    -0.331 C  
HETATM    7  C   UNL     1     -11.223  15.542  68.923  1.00  0.00    -0.304 C  
HETATM    8  C   UNL     1     -11.265  14.120  69.334  1.00  0.00    -0.298 A  
HETATM    9  O   UNL     1     -11.834  16.411  69.543  1.00  0.00    -0.101 OA 
HETATM   10  O   UNL     1      -9.663  17.571  66.223  1.00  0.00    -0.317 OA 
HETATM   11  O   UNL     1     -11.011  18.208  67.911  1.00  0.00    -0.298 OA 
HETATM   12  C   UNL     1     -12.046  13.786  70.444  1.00  0.00    -0.421 A  
HETATM   13  C   UNL     1     -12.166  12.457  70.820  1.00  0.00    -0.242 A  
HETATM   14  C   UNL     1     -11.519  11.421  70.130  1.00  0.00    -0.214 A  
HETATM   15  F   UNL     1     -12.935  12.187  71.886  1.00  0.00    -0.486 F  
HETATM   16  F   UNL     1     -10.058  10.824  68.384  1.00  0.00    -0.151 F  
HETATM   17  C   UNL     1     -10.684  11.809  69.052  1.00  0.00    -0.169 A  
HETATM   18  C   UNL     1     -10.547  13.146  68.605  1.00  0.00    -0.239 A  
BRANCH  14  19
HETATM   19  N   UNL     1     -11.759  10.083  70.408  1.00  0.00    -0.279 NA 
HETATM   20  C   UNL     1     -11.008   9.021  69.724  1.00  0.00    -0.166 C  
HETATM   21  C   UNL     1     -10.662   7.917  70.747  1.00  0.00    -0.223 C  
HETATM   22  N   UNL     1     -11.846   7.364  71.430  1.00  0.00    -0.287 NA 
HETATM   23  C   UNL     1     -12.623   8.456  72.065  1.00  0.00    -0.356 C  
HETATM   24  H   UNL     1     -11.596   6.635  72.097  1.00  0.00     0.000 HD 
HETATM   25  C   UNL     1     -12.978   9.616  71.086  1.00  0.00    -0.309 C  
HETATM   26  C   UNL     1     -13.887   7.843  72.665  1.00  0.00     0.276 C  
ENDBRANCH  14  19
ENDBRANCH   2   3
TORSDOF 2
ENDMDL
MODEL      109
REMARK 921   NORMALIZED FREE ENERGY PREDICTED BY IDOCK:   -4.14 KCAL/MOL
REMARK 922        TOTAL FREE ENERGY PREDICTED BY IDOCK:   -5.16 KCAL/MOL
REMARK 923 INTER-LIGAND FREE ENERGY PREDICTED BY IDOCK:   -4.85 KCAL/MOL
REMARK 924 INTRA-LIGAND FREE ENERGY PREDICTED BY IDOCK:   -0.31 KCAL/MOL
REMARK 927      BINDING AFFINITY PREDICTED BY RF-SCORE:    0.00 PKD
ROOT
HETATM    1  C   UNL     1      -7.156   9.203  64.429  1.00  0.00    -0.091 C  
HETATM    2  C   UNL     1      -7.716   8.408  65.599  1.00  0.00    -0.099 C  
ENDROOT
BRANCH   2   3
HETATM    3  N   UNL     1      -8.899   9.086  66.162  1.00  0.00    -0.154 NA 
HETATM    4  C   UNL     1      -9.615   9.982  65.376  1.00  0.00    -0.279 C  
HETATM    5  C   UNL     1     -10.644  10.747  65.762  1.00  0.00    -0.204 C  
HETATM    6  C   UNL     1     -11.296  11.642  64.786  1.00  0.00    -0.201 C  
HETATM    7  C   UNL     1     -11.053  10.634  67.171  1.00  0.00    -0.196 C  
HETATM    8  C   UNL     1     -10.324   9.684  68.043  1.00  0.00    -0.262 A  
HETATM    9  O   UNL     1     -11.986  11.314  67.595  1.00  0.00    -0.634 OA 
HETATM   10  O   UNL     1     -10.945  11.728  63.616  1.00  0.00    -0.378 OA 
HETATM   11  O   UNL     1     -12.319  12.368  65.282  1.00  0.00    -0.563 OA 
HETATM   12  C   UNL     1     -10.747   9.563  69.369  1.00  0.00    -0.244 A  
HETATM   13  C   UNL     1     -10.136   8.636  70.199  1.00  0.00    -0.185 A  
HETATM   14  C   UNL     1      -9.090   7.811  69.760  1.00  0.00    -0.147 A  
HETATM   15  F   UNL     1     -10.584   8.551  71.462  1.00  0.00    -0.252 F  
HETATM   16  F   UNL     1      -7.645   7.227  67.997  1.00  0.00    -0.101 F  
HETATM   17  C   UNL     1      -8.647   8.012  68.428  1.00  0.00    -0.127 A  
HETATM   18  C   UNL     1      -9.252   8.922  67.528  1.00  0.00    -0.136 A  
BRANCH  14  19
HETATM   19  N   UNL     1      -8.582   6.781  70.539  1.00  0.00    -0.141 NA 
HETATM   20  C   UNL     1      -9.477   5.823  71.204  1.00  0.00    -0.158 C  
HETATM   21  C   UNL     1      -8.864   4.410  71.092  1.00  0.00    -0.115 C  
HETATM   22  N   UNL     1      -7.499   4.319  71.642  1.00  0.00    -0.062 NA 
HETATM   23  C   UNL     1      -6.626   5.333  71.000  1.00  0.00    -0.042 C  
HETATM   24  H   UNL     1      -7.116   3.378  71.561  1.00  0.00     0.000 HD 
HETATM   25  C   UNL     1      -7.205   6.778  71.057  1.00  0.00    -0.077 C  
HETATM   26  C   UNL     1      -5.258   5.266  71.678  1.00  0.00    -0.005 C  
ENDBRANCH  14  19
ENDBRANCH   2   3
TORSDOF 2
ENDMDL
MODEL      110
REMARK 921   NORMALIZED FREE ENERGY PREDICTED BY IDOCK:   -4.10 KCAL/MOL
REMARK 922        TOTAL FREE ENERGY PREDICTED BY IDOCK:   -5.12 KCAL/MOL
REMARK 923 INTER-LIGAND FREE ENERGY PREDICTED BY IDOCK:   -4.54 KCAL/MOL
REMARK 924 INTRA-LIGAND FREE ENERGY PREDICTED BY IDOCK:   -0.57 KCAL/MOL
REMARK 927      BINDING AFFINITY PREDICTED BY RF-SCORE:    0.00 PKD
ROOT
HETATM    1  C   UNL     1      -6.509  13.859  69.580  1.00  0.00    -0.115 C  
HETATM    2  C   UNL     1      -6.857  13.004  68.370  1.00  0.00    -0.097 C  
ENDROOT
BRANCH   2   3
HETATM    3  N   UNL     1      -8.221  13.312  67.899  1.00  0.00    -0.149 NA 
HETATM    4  C   UNL     1      -8.956  14.308  68.531  1.00  0.00    -0.185 C  
HETATM    5  C   UNL     1     -10.231  14.641  68.293  1.00  0.00    -0.227 C  
HETATM    6  C   UNL     1     -10.855  15.738  69.059  1.00  0.00    -0.248 C  
HETATM    7  C   UNL     1     -10.930  13.862  67.259  1.00  0.00    -0.290 C  
HETATM    8  C   UNL     1     -10.182  12.797  66.552  1.00  0.00    -0.261 A  
HETATM    9  O   UNL     1     -12.106  14.110  66.994  1.00  0.00    -0.427 OA 
HETATM   10  O   UNL     1     -10.264  16.377  69.918  1.00  0.00    -0.189 OA 
HETATM   11  O   UNL     1     -12.143  15.987  68.740  1.00  0.00    -0.255 OA 
HETATM   12  C   UNL     1     -10.850  12.090  65.548  1.00  0.00    -0.336 A  
HETATM   13  C   UNL     1     -10.165  11.132  64.817  1.00  0.00    -0.306 A  
HETATM   14  C   UNL     1      -8.815  10.832  65.051  1.00  0.00    -0.177 A  
HETATM   15  F   UNL     1     -10.847  10.487  63.857  1.00  0.00    -0.254 F  
HETATM   16  F   UNL     1      -6.900  11.244  66.357  1.00  0.00    -0.126 F  
HETATM   17  C   UNL     1      -8.194  11.525  66.121  1.00  0.00     0.018 A  
HETATM   18  C   UNL     1      -8.835  12.533  66.882  1.00  0.00    -0.203 A  
BRANCH  14  19
HETATM   19  N   UNL     1      -8.088   9.989  64.224  1.00  0.00    -0.151 NA 
HETATM   20  C   UNL     1      -7.644  10.430  62.894  1.00  0.00    -0.118 C  
HETATM   21  C   UNL     1      -6.209   9.913  62.652  1.00  0.00    -0.113 C  
HETATM   22  N   UNL     1      -6.085   8.450  62.785  1.00  0.00    -0.086 NA 
HETATM   23  C   UNL     1      -6.593   8.016  64.110  1.00  0.00    -0.065 C  
HETATM   24  H   UNL     1      -5.132   8.131  62.618  1.00  0.00     0.000 HD 
HETATM   25  C   UNL     1      -8.030   8.532  64.424  1.00  0.00    -0.147 C  
HETATM   26  C   UNL     1      -6.539   6.490  64.154  1.00  0.00    -0.037 C  
ENDBRANCH  14  19
ENDBRANCH   2   3
TORSDOF 2
ENDMDL
MODEL      111
REMARK 921   NORMALIZED FREE ENERGY PREDICTED BY IDOCK:   -4.10 KCAL/MOL
REMARK 922        TOTAL FREE ENERGY PREDICTED BY IDOCK:   -5.12 KCAL/MOL
REMARK 923 INTER-LIGAND FREE ENERGY PREDICTED BY IDOCK:   -4.67 KCAL/MOL
REMARK 924 INTRA-LIGAND FREE ENERGY PREDICTED BY IDOCK:   -0.45 KCAL/MOL
REMARK 927      BINDING AFFINITY PREDICTED BY RF-SCORE:    0.00 PKD
ROOT
HETATM    1  C   UNL     1      -6.066   9.824  69.026  1.00  0.00    -0.041 C  
HETATM    2  C   UNL     1      -6.358  11.166  68.370  1.00  0.00    -0.049 C  
ENDROOT
BRANCH   2   3
HETATM    3  N   UNL     1      -7.366  11.009  67.304  1.00  0.00    -0.100 NA 
HETATM    4  C   UNL     1      -7.330   9.883  66.488  1.00  0.00    -0.099 C  
HETATM    5  C   UNL     1      -8.104   9.638  65.423  1.00  0.00    -0.127 C  
HETATM    6  C   UNL     1      -7.933   8.379  64.671  1.00  0.00    -0.147 C  
HETATM    7  C   UNL     1      -9.089  10.674  65.075  1.00  0.00    -0.202 C  
HETATM    8  C   UNL     1      -9.168  11.886  65.923  1.00  0.00    -0.147 A  
HETATM    9  O   UNL     1      -9.826  10.517  64.103  1.00  0.00    -0.306 OA 
HETATM   10  O   UNL     1      -7.109   7.525  64.970  1.00  0.00    -0.057 OA 
HETATM   11  O   UNL     1      -8.762   8.236  63.615  1.00  0.00     0.096 OA 
HETATM   12  C   UNL     1     -10.132  12.844  65.599  1.00  0.00    -0.282 A  
HETATM   13  C   UNL     1     -10.285  13.959  66.408  1.00  0.00    -0.292 A  
HETATM   14  C   UNL     1      -9.495  14.173  67.548  1.00  0.00    -0.210 A  
HETATM   15  F   UNL     1     -11.231  14.846  66.061  1.00  0.00    -0.326 F  
HETATM   16  F   UNL     1      -7.721  13.407  68.891  1.00  0.00    -0.122 F  
HETATM   17  C   UNL     1      -8.485  13.211  67.803  1.00  0.00    -0.185 A  
HETATM   18  C   UNL     1      -8.303  12.039  67.029  1.00  0.00    -0.178 A  
BRANCH  14  19
HETATM   19  N   UNL     1      -9.747  15.205  68.441  1.00  0.00    -0.207 NA 
HETATM   20  C   UNL     1      -9.252  16.565  68.185  1.00  0.00    -0.217 C  
HETATM   21  C   UNL     1     -10.347  17.577  68.588  1.00  0.00    -0.369 C  
HETATM   22  N   UNL     1     -10.786  17.434  69.989  1.00  0.00    -0.045 NA 
HETATM   23  C   UNL     1     -11.227  16.041  70.243  1.00  0.00    -0.389 C  
HETATM   24  H   UNL     1     -11.506  18.114  70.234  1.00  0.00     0.000 HD 
HETATM   25  C   UNL     1     -10.172  14.970  69.830  1.00  0.00    -0.125 C  
HETATM   26  C   UNL     1     -11.570  15.923  71.727  1.00  0.00    -0.541 C  
ENDBRANCH  14  19
ENDBRANCH   2   3
TORSDOF 2
ENDMDL
MODEL      112
REMARK 921   NORMALIZED FREE ENERGY PREDICTED BY IDOCK:   -4.07 KCAL/MOL
REMARK 922        TOTAL FREE ENERGY PREDICTED BY IDOCK:   -5.08 KCAL/MOL
REMARK 923 INTER-LIGAND FREE ENERGY PREDICTED BY IDOCK:   -4.95 KCAL/MOL
REMARK 924 INTRA-LIGAND FREE ENERGY PREDICTED BY IDOCK:   -0.13 KCAL/MOL
REMARK 927      BINDING AFFINITY PREDICTED BY RF-SCORE:    0.00 PKD
ROOT
HETATM    1  C   UNL     1     -10.985   6.603  70.848  1.00  0.00    -0.315 C  
HETATM    2  C   UNL     1     -11.265   7.840  70.007  1.00  0.00    -0.117 C  
ENDROOT
BRANCH   2   3
HETATM    3  N   UNL     1     -10.627   7.716  68.682  1.00  0.00    -0.171 NA 
HETATM    4  C   UNL     1     -10.347   6.453  68.172  1.00  0.00    -0.192 C  
HETATM    5  C   UNL     1      -9.689   6.171  67.039  1.00  0.00    -0.167 C  
HETATM    6  C   UNL     1      -9.486   4.763  66.645  1.00  0.00    -0.155 C  
HETATM    7  C   UNL     1      -9.205   7.320  66.259  1.00  0.00    -0.130 C  
HETATM    8  C   UNL     1      -9.490   8.684  66.760  1.00  0.00    -0.250 A  
HETATM    9  O   UNL     1      -8.586   7.133  65.212  1.00  0.00    -0.098 OA 
HETATM   10  O   UNL     1      -9.893   3.816  67.304  1.00  0.00    -0.163 OA 
HETATM   11  O   UNL     1      -8.809   4.594  65.489  1.00  0.00    -0.125 OA 
HETATM   12  C   UNL     1      -9.053   9.764  65.989  1.00  0.00    -0.201 A  
HETATM   13  C   UNL     1      -9.359  11.056  66.387  1.00  0.00    -0.183 A  
HETATM   14  C   UNL     1     -10.091  11.328  67.553  1.00  0.00    -0.183 A  
HETATM   15  F   UNL     1      -8.926  12.060  65.608  1.00  0.00    -0.143 F  
HETATM   16  F   UNL     1     -11.158  10.456  69.461  1.00  0.00    -0.217 F  
HETATM   17  C   UNL     1     -10.458  10.208  68.341  1.00  0.00    -0.208 A  
HETATM   18  C   UNL     1     -10.198   8.866  67.968  1.00  0.00    -0.213 A  
BRANCH  14  19
HETATM   19  N   UNL     1     -10.529  12.605  67.872  1.00  0.00    -0.213 NA 
HETATM   20  C   UNL     1     -11.963  12.910  67.974  1.00  0.00    -0.275 C  
HETATM   21  C   UNL     1     -12.189  13.846  69.181  1.00  0.00    -0.267 C  
HETATM   22  N   UNL     1     -11.394  15.086  69.116  1.00  0.00    -0.278 NA 
HETATM   23  C   UNL     1      -9.956  14.759  68.955  1.00  0.00    -0.233 C  
HETATM   24  H   UNL     1     -11.561  15.690  69.920  1.00  0.00     0.000 HD 
HETATM   25  C   UNL     1      -9.668  13.793  67.766  1.00  0.00    -0.230 C  
HETATM   26  C   UNL     1      -9.194  16.073  68.787  1.00  0.00    -0.224 C  
ENDBRANCH  14  19
ENDBRANCH   2   3
TORSDOF 2
ENDMDL
MODEL      113
REMARK 921   NORMALIZED FREE ENERGY PREDICTED BY IDOCK:   -4.04 KCAL/MOL
REMARK 922        TOTAL FREE ENERGY PREDICTED BY IDOCK:   -5.04 KCAL/MOL
REMARK 923 INTER-LIGAND FREE ENERGY PREDICTED BY IDOCK:   -4.52 KCAL/MOL
REMARK 924 INTRA-LIGAND FREE ENERGY PREDICTED BY IDOCK:   -0.52 KCAL/MOL
REMARK 927      BINDING AFFINITY PREDICTED BY RF-SCORE:    0.00 PKD
ROOT
HETATM    1  C   UNL     1      -7.879   4.822  70.903  1.00  0.00    -0.081 C  
HETATM    2  C   UNL     1      -7.645   5.860  69.814  1.00  0.00    -0.081 C  
ENDROOT
BRANCH   2   3
HETATM    3  N   UNL     1      -8.713   6.878  69.836  1.00  0.00    -0.141 NA 
HETATM    4  C   UNL     1      -9.444   7.080  71.002  1.00  0.00    -0.159 C  
HETATM    5  C   UNL     1     -10.500   7.888  71.159  1.00  0.00    -0.230 C  
HETATM    6  C   UNL     1     -11.155   7.985  72.478  1.00  0.00    -0.375 C  
HETATM    7  C   UNL     1     -10.939   8.632  69.969  1.00  0.00    -0.203 C  
HETATM    8  C   UNL     1     -10.183   8.456  68.707  1.00  0.00    -0.223 A  
HETATM    9  O   UNL     1     -11.908   9.386  70.040  1.00  0.00    -0.047 OA 
HETATM   10  O   UNL     1     -10.781   7.358  73.461  1.00  0.00    -0.385 OA 
HETATM   11  O   UNL     1     -12.210   8.825  72.523  1.00  0.00    -0.364 OA 
HETATM   12  C   UNL     1     -10.591   9.197  67.596  1.00  0.00    -0.307 A  
HETATM   13  C   UNL     1      -9.869   9.112  66.415  1.00  0.00    -0.280 A  
HETATM   14  C   UNL     1      -8.736   8.295  66.287  1.00  0.00    -0.151 A  
HETATM   15  F   UNL     1     -10.295   9.851  65.379  1.00  0.00    -0.368 F  
HETATM   16  F   UNL     1      -7.312   6.721  67.304  1.00  0.00    -0.080 F  
HETATM   17  C   UNL     1      -8.395   7.510  67.417  1.00  0.00    -0.112 A  
HETATM   18  C   UNL     1      -9.078   7.578  68.656  1.00  0.00    -0.134 A  
BRANCH  14  19
HETATM   19  N   UNL     1      -7.925   8.324  65.161  1.00  0.00    -0.120 NA 
HETATM   20  C   UNL     1      -7.965   7.239  64.171  1.00  0.00    -0.084 C  
HETATM   21  C   UNL     1      -7.880   7.854  62.756  1.00  0.00    -0.143 C  
HETATM   22  N   UNL     1      -6.688   8.699  62.558  1.00  0.00    -0.095 NA 
HETATM   23  C   UNL     1      -6.633   9.752  63.602  1.00  0.00    -0.119 C  
HETATM   24  H   UNL     1      -6.649   9.091  61.618  1.00  0.00     0.000 HD 
HETATM   25  C   UNL     1      -6.743   9.194  65.053  1.00  0.00    -0.073 C  
HETATM   26  C   UNL     1      -5.331  10.529  63.414  1.00  0.00    -0.167 C  
ENDBRANCH  14  19
ENDBRANCH   2   3
TORSDOF 2
ENDMDL
MODEL      114
REMARK 921   NORMALIZED FREE ENERGY PREDICTED BY IDOCK:   -3.90 KCAL/MOL
REMARK 922        TOTAL FREE ENERGY PREDICTED BY IDOCK:   -4.89 KCAL/MOL
REMARK 923 INTER-LIGAND FREE ENERGY PREDICTED BY IDOCK:   -4.70 KCAL/MOL
REMARK 924 INTRA-LIGAND FREE ENERGY PREDICTED BY IDOCK:   -0.19 KCAL/MOL
REMARK 927      BINDING AFFINITY PREDICTED BY RF-SCORE:    0.00 PKD
ROOT
HETATM    1  C   UNL     1     -10.004   7.875  66.851  1.00  0.00    -0.332 C  
HETATM    2  C   UNL     1     -10.962   6.694  66.799  1.00  0.00    -0.216 C  
ENDROOT
BRANCH   2   3
HETATM    3  N   UNL     1     -10.218   5.424  66.899  1.00  0.00    -0.212 NA 
HETATM    4  C   UNL     1      -9.837   4.760  65.738  1.00  0.00    -0.199 C  
HETATM    5  C   UNL     1      -9.247   3.560  65.655  1.00  0.00    -0.158 C  
HETATM    6  C   UNL     1      -8.903   3.006  64.331  1.00  0.00    -0.109 C  
HETATM    7  C   UNL     1      -8.986   2.868  66.926  1.00  0.00    -0.158 C  
HETATM    8  C   UNL     1      -9.367   3.543  68.189  1.00  0.00    -0.236 A  
HETATM    9  O   UNL     1      -8.455   1.759  66.923  1.00  0.00    -0.082 OA 
HETATM   10  O   UNL     1      -9.128   3.591  63.279  1.00  0.00    -0.093 OA 
HETATM   11  O   UNL     1      -8.316   1.791  64.363  1.00  0.00    -0.076 OA 
HETATM   12  C   UNL     1      -9.080   2.888  69.389  1.00  0.00    -0.197 A  
HETATM   13  C   UNL     1      -9.359   3.515  70.593  1.00  0.00    -0.160 A  
HETATM   14  C   UNL     1      -9.933   4.793  70.658  1.00  0.00    -0.230 A  
HETATM   15  F   UNL     1      -9.056   2.849  71.718  1.00  0.00    -0.112 F  
HETATM   16  F   UNL     1     -10.822   6.620  69.468  1.00  0.00    -0.231 F  
HETATM   17  C   UNL     1     -10.269   5.395  69.419  1.00  0.00    -0.264 A  
HETATM   18  C   UNL     1      -9.982   4.815  68.160  1.00  0.00    -0.087 A  
BRANCH  14  19
HETATM   19  N   UNL     1     -10.071   5.484  71.853  1.00  0.00    -0.184 NA 
HETATM   20  C   UNL     1     -11.094   5.101  72.836  1.00  0.00    -0.295 C  
HETATM   21  C   UNL     1     -10.486   5.202  74.252  1.00  0.00    -0.275 C  
HETATM   22  N   UNL     1      -9.941   6.538  74.559  1.00  0.00    -0.369 NA 
HETATM   23  C   UNL     1      -8.954   6.933  73.524  1.00  0.00    -0.141 C  
HETATM   24  H   UNL     1      -9.549   6.583  75.499  1.00  0.00     0.000 HD 
HETATM   25  C   UNL     1      -9.502   6.824  72.069  1.00  0.00    -0.141 C  
HETATM   26  C   UNL     1      -8.501   8.359  73.831  1.00  0.00    -0.143 C  
ENDBRANCH  14  19
ENDBRANCH   2   3
TORSDOF 2
ENDMDL
MODEL      115
REMARK 921   NORMALIZED FREE ENERGY PREDICTED BY IDOCK:   -3.89 KCAL/MOL
REMARK 922        TOTAL FREE ENERGY PREDICTED BY IDOCK:   -4.88 KCAL/MOL
REMARK 923 INTER-LIGAND FREE ENERGY PREDICTED BY IDOCK:   -4.29 KCAL/MOL
REMARK 924 INTRA-LIGAND FREE ENERGY PREDICTED BY IDOCK:   -0.58 KCAL/MOL
REMARK 927      BINDING AFFINITY PREDICTED BY RF-SCORE:    0.00 PKD
ROOT
HETATM    1  C   UNL     1     -11.706  12.442  65.668  1.00  0.00    -0.468 C  
HETATM    2  C   UNL     1     -10.750  11.312  66.022  1.00  0.00    -0.242 C  
ENDROOT
BRANCH   2   3
HETATM    3  N   UNL     1      -9.665  11.810  66.890  1.00  0.00    -0.195 NA 
HETATM    4  C   UNL     1      -9.283  13.145  66.811  1.00  0.00    -0.230 C  
HETATM    5  C   UNL     1      -8.262  13.728  67.453  1.00  0.00    -0.194 C  
HETATM    6  C   UNL     1      -8.003  15.168  67.256  1.00  0.00    -0.205 C  
HETATM    7  C   UNL     1      -7.453  12.861  68.323  1.00  0.00    -0.125 C  
HETATM    8  C   UNL     1      -7.830  11.434  68.445  1.00  0.00    -0.135 A  
HETATM    9  O   UNL     1      -6.495  13.329  68.936  1.00  0.00    -0.088 OA 
HETATM   10  O   UNL     1      -8.682  15.879  66.527  1.00  0.00    -0.257 OA 
HETATM   11  O   UNL     1      -6.949  15.651  67.947  1.00  0.00    -0.115 OA 
HETATM   12  C   UNL     1      -7.074  10.632  69.303  1.00  0.00    -0.107 A  
HETATM   13  C   UNL     1      -7.435   9.307  69.496  1.00  0.00    -0.079 A  
HETATM   14  C   UNL     1      -8.539   8.729  68.851  1.00  0.00    -0.136 A  
HETATM   15  F   UNL     1      -6.683   8.581  70.338  1.00  0.00    -0.035 F  
HETATM   16  F   UNL     1     -10.297   9.014  67.313  1.00  0.00    -0.256 F  
HETATM   17  C   UNL     1      -9.239   9.558  67.939  1.00  0.00    -0.125 A  
HETATM   18  C   UNL     1      -8.933  10.924  67.723  1.00  0.00    -0.139 A  
BRANCH  14  19
HETATM   19  N   UNL     1      -8.993   7.455  69.158  1.00  0.00    -0.136 NA 
HETATM   20  C   UNL     1      -9.732   7.194  70.401  1.00  0.00    -0.176 C  
HETATM   21  C   UNL     1     -10.887   6.215  70.097  1.00  0.00    -0.329 C  
HETATM   22  N   UNL     1     -10.436   4.953  69.483  1.00  0.00    -0.094 NA 
HETATM   23  C   UNL     1      -9.642   5.238  68.262  1.00  0.00    -0.130 C  
HETATM   24  H   UNL     1     -11.213   4.320  69.294  1.00  0.00     0.000 HD 
HETATM   25  C   UNL     1      -8.476   6.244  68.501  1.00  0.00    -0.115 C  
HETATM   26  C   UNL     1      -9.113   3.908  67.728  1.00  0.00    -0.183 C  
ENDBRANCH  14  19
ENDBRANCH   2   3
TORSDOF 2
ENDMDL
MODEL      116
REMARK 921   NORMALIZED FREE ENERGY PREDICTED BY IDOCK:   -3.88 KCAL/MOL
REMARK 922        TOTAL FREE ENERGY PREDICTED BY IDOCK:   -4.87 KCAL/MOL
REMARK 923 INTER-LIGAND FREE ENERGY PREDICTED BY IDOCK:   -4.36 KCAL/MOL
REMARK 924 INTRA-LIGAND FREE ENERGY PREDICTED BY IDOCK:   -0.51 KCAL/MOL
REMARK 927      BINDING AFFINITY PREDICTED BY RF-SCORE:    0.00 PKD
ROOT
HETATM    1  C   UNL     1      -9.970   1.826  71.877  1.00  0.00    -0.221 C  
HETATM    2  C   UNL     1      -9.478   2.552  70.633  1.00  0.00    -0.127 C  
ENDROOT
BRANCH   2   3
HETATM    3  N   UNL     1      -9.825   3.984  70.702  1.00  0.00    -0.194 NA 
HETATM    4  C   UNL     1     -10.074   4.570  71.938  1.00  0.00    -0.188 C  
HETATM    5  C   UNL     1     -10.492   5.822  72.165  1.00  0.00    -0.258 C  
HETATM    6  C   UNL     1     -10.700   6.282  73.552  1.00  0.00    -0.242 C  
HETATM    7  C   UNL     1     -10.722   6.662  70.980  1.00  0.00    -0.236 C  
HETATM    8  C   UNL     1     -10.459   6.082  69.642  1.00  0.00    -0.325 A  
HETATM    9  O   UNL     1     -11.115   7.819  71.115  1.00  0.00    -0.241 OA 
HETATM   10  O   UNL     1     -10.508   5.573  74.531  1.00  0.00    -0.263 OA 
HETATM   11  O   UNL     1     -11.125   7.558  73.665  1.00  0.00    -0.280 OA 
HETATM   12  C   UNL     1     -10.649   6.903  68.528  1.00  0.00    -0.247 A  
HETATM   13  C   UNL     1     -10.349   6.420  67.264  1.00  0.00    -0.218 A  
HETATM   14  C   UNL     1      -9.866   5.120  67.053  1.00  0.00    -0.177 A  
HETATM   15  F   UNL     1     -10.538   7.251  66.227  1.00  0.00    -0.183 F  
HETATM   16  F   UNL     1      -9.291   3.049  68.012  1.00  0.00    -0.189 F  
HETATM   17  C   UNL     1      -9.751   4.298  68.202  1.00  0.00    -0.102 A  
HETATM   18  C   UNL     1     -10.015   4.746  69.519  1.00  0.00    -0.216 A  
BRANCH  14  19
HETATM   19  N   UNL     1      -9.421   4.687  65.812  1.00  0.00    -0.162 NA 
HETATM   20  C   UNL     1     -10.335   4.029  64.868  1.00  0.00    -0.183 C  
HETATM   21  C   UNL     1     -10.034   4.543  63.443  1.00  0.00     0.191 C  
HETATM   22  N   UNL     1      -8.630   4.345  63.036  1.00  0.00    -0.102 NA 
HETATM   23  C   UNL     1      -7.721   4.965  64.032  1.00  0.00    -0.077 C  
HETATM   24  H   UNL     1      -8.454   4.688  62.093  1.00  0.00     0.000 HD 
HETATM   25  C   UNL     1      -7.996   4.505  65.495  1.00  0.00    -0.095 C  
HETATM   26  C   UNL     1      -6.286   4.641  63.619  1.00  0.00    -0.026 C  
ENDBRANCH  14  19
ENDBRANCH   2   3
TORSDOF 2
ENDMDL
MODEL      117
REMARK 921   NORMALIZED FREE ENERGY PREDICTED BY IDOCK:   -3.85 KCAL/MOL
REMARK 922        TOTAL FREE ENERGY PREDICTED BY IDOCK:   -4.84 KCAL/MOL
REMARK 923 INTER-LIGAND FREE ENERGY PREDICTED BY IDOCK:   -4.42 KCAL/MOL
REMARK 924 INTRA-LIGAND FREE ENERGY PREDICTED BY IDOCK:   -0.41 KCAL/MOL
REMARK 927      BINDING AFFINITY PREDICTED BY RF-SCORE:    0.00 PKD
ROOT
HETATM    1  C   UNL     1      -7.018  10.449  68.746  1.00  0.00    -0.068 C  
HETATM    2  C   UNL     1      -8.306  10.199  67.976  1.00  0.00    -0.117 C  
ENDROOT
BRANCH   2   3
HETATM    3  N   UNL     1      -9.477  10.417  68.847  1.00  0.00    -0.177 NA 
HETATM    4  C   UNL     1     -10.048  11.682  68.924  1.00  0.00    -0.092 C  
HETATM    5  C   UNL     1     -11.044  12.067  69.733  1.00  0.00     0.007 C  
HETATM    6  C   UNL     1     -11.533  13.458  69.677  1.00  0.00    -0.207 C  
HETATM    7  C   UNL     1     -11.583  11.044  70.641  1.00  0.00    -0.167 C  
HETATM    8  C   UNL     1     -11.012   9.678  70.586  1.00  0.00    -0.386 A  
HETATM    9  O   UNL     1     -12.494  11.331  71.417  1.00  0.00    -0.345 OA 
HETATM   10  O   UNL     1     -11.074  14.302  68.918  1.00  0.00    -0.242 OA 
HETATM   11  O   UNL     1     -12.536  13.738  70.536  1.00  0.00    -0.327 OA 
HETATM   12  C   UNL     1     -11.559   8.709  71.430  1.00  0.00    -0.354 A  
HETATM   13  C   UNL     1     -11.099   7.403  71.360  1.00  0.00    -0.239 A  
HETATM   14  C   UNL     1     -10.087   7.011  70.471  1.00  0.00    -0.191 A  
HETATM   15  F   UNL     1     -11.663   6.507  72.185  1.00  0.00    -0.299 F  
HETATM   16  F   UNL     1      -8.541   7.674  68.825  1.00  0.00    -0.126 F  
HETATM   17  C   UNL     1      -9.513   8.038  69.679  1.00  0.00    -0.163 A  
HETATM   18  C   UNL     1      -9.962   9.381  69.688  1.00  0.00    -0.197 A  
BRANCH  14  19
HETATM   19  N   UNL     1      -9.733   5.682  70.291  1.00  0.00    -0.170 NA 
HETATM   20  C   UNL     1     -10.211   4.923  69.127  1.00  0.00    -0.116 C  
HETATM   21  C   UNL     1      -9.059   4.037  68.603  1.00  0.00    -0.133 C  
HETATM   22  N   UNL     1      -8.507   3.132  69.627  1.00  0.00    -0.058 NA 
HETATM   23  C   UNL     1      -8.084   3.910  70.818  1.00  0.00    -0.062 C  
HETATM   24  H   UNL     1      -7.752   2.555  69.259  1.00  0.00     0.000 HD 
HETATM   25  C   UNL     1      -9.198   4.845  71.376  1.00  0.00    -0.145 C  
HETATM   26  C   UNL     1      -7.620   2.918  71.883  1.00  0.00    -0.052 C  
ENDBRANCH  14  19
ENDBRANCH   2   3
TORSDOF 2
ENDMDL
MODEL      118
REMARK 921   NORMALIZED FREE ENERGY PREDICTED BY IDOCK:   -3.81 KCAL/MOL
REMARK 922        TOTAL FREE ENERGY PREDICTED BY IDOCK:   -4.79 KCAL/MOL
REMARK 923 INTER-LIGAND FREE ENERGY PREDICTED BY IDOCK:   -5.55 KCAL/MOL
REMARK 924 INTRA-LIGAND FREE ENERGY PREDICTED BY IDOCK:    0.76 KCAL/MOL
REMARK 927      BINDING AFFINITY PREDICTED BY RF-SCORE:    0.00 PKD
ROOT
HETATM    1  C   UNL     1     -10.509   7.275  71.474  1.00  0.00    -0.220 C  
HETATM    2  C   UNL     1     -11.099   8.494  70.778  1.00  0.00    -0.254 C  
ENDROOT
BRANCH   2   3
HETATM    3  N   UNL     1     -10.559   8.617  69.411  1.00  0.00    -0.218 NA 
HETATM    4  C   UNL     1     -10.194   7.472  68.712  1.00  0.00    -0.197 C  
HETATM    5  C   UNL     1      -9.603   7.417  67.511  1.00  0.00    -0.171 C  
HETATM    6  C   UNL     1      -9.292   6.105  66.911  1.00  0.00    -0.134 C  
HETATM    7  C   UNL     1      -9.299   8.705  66.870  1.00  0.00    -0.170 C  
HETATM    8  C   UNL     1      -9.679   9.951  67.575  1.00  0.00    -0.193 A  
HETATM    9  O   UNL     1      -8.749   8.728  65.770  1.00  0.00    -0.157 OA 
HETATM   10  O   UNL     1      -9.548   5.039  67.455  1.00  0.00    -0.132 OA 
HETATM   11  O   UNL     1      -8.695   6.166  65.702  1.00  0.00    -0.154 OA 
HETATM   12  C   UNL     1      -9.415  11.166  66.936  1.00  0.00    -0.203 A  
HETATM   13  C   UNL     1      -9.817  12.352  67.531  1.00  0.00    -0.194 A  
HETATM   14  C   UNL     1     -10.478  12.384  68.768  1.00  0.00    -0.154 A  
HETATM   15  F   UNL     1      -9.549  13.491  66.874  1.00  0.00    -0.224 F  
HETATM   16  F   UNL     1     -11.298  11.155  70.600  1.00  0.00    -0.355 F  
HETATM   17  C   UNL     1     -10.667  11.136  69.413  1.00  0.00    -0.175 A  
HETATM   18  C   UNL     1     -10.304   9.892  68.840  1.00  0.00    -0.205 A  
BRANCH  14  19
HETATM   19  N   UNL     1     -11.015  13.551  69.291  1.00  0.00    -0.177 NA 
HETATM   20  C   UNL     1     -10.624  14.867  68.765  1.00  0.00    -0.247 C  
HETATM   21  C   UNL     1     -11.879  15.764  68.684  1.00  0.00    -0.275 C  
HETATM   22  N   UNL     1     -12.580  15.904  69.973  1.00  0.00    -0.572 NA 
HETATM   23  C   UNL     1     -12.915  14.564  70.517  1.00  0.00    -0.249 C  
HETATM   24  H   UNL     1     -13.402  16.502  69.898  1.00  0.00     0.000 HD 
HETATM   25  C   UNL     1     -11.691  13.603  70.597  1.00  0.00    -0.024 C  
HETATM   26  C   UNL     1     -13.543  14.764  71.896  1.00  0.00    -0.492 C  
ENDBRANCH  14  19
ENDBRANCH   2   3
TORSDOF 2
ENDMDL
MODEL      119
REMARK 921   NORMALIZED FREE ENERGY PREDICTED BY IDOCK:   -3.71 KCAL/MOL
REMARK 922        TOTAL FREE ENERGY PREDICTED BY IDOCK:   -4.68 KCAL/MOL
REMARK 923 INTER-LIGAND FREE ENERGY PREDICTED BY IDOCK:   -4.44 KCAL/MOL
REMARK 924 INTRA-LIGAND FREE ENERGY PREDICTED BY IDOCK:   -0.24 KCAL/MOL
REMARK 927      BINDING AFFINITY PREDICTED BY RF-SCORE:    0.00 PKD
ROOT
HETATM    1  C   UNL     1     -12.240   8.312  72.184  1.00  0.00    -0.418 C  
HETATM    2  C   UNL     1     -10.826   8.077  72.695  1.00  0.00    -0.368 C  
ENDROOT
BRANCH   2   3
HETATM    3  N   UNL     1     -10.092   7.178  71.782  1.00  0.00    -0.184 NA 
HETATM    4  C   UNL     1     -10.060   5.813  72.044  1.00  0.00    -0.185 C  
HETATM    5  C   UNL     1      -9.366   4.882  71.377  1.00  0.00    -0.199 C  
HETATM    6  C   UNL     1      -9.455   3.468  71.791  1.00  0.00    -0.142 C  
HETATM    7  C   UNL     1      -8.542   5.357  70.255  1.00  0.00    -0.124 C  
HETATM    8  C   UNL     1      -8.554   6.803  69.933  1.00  0.00    -0.141 A  
HETATM    9  O   UNL     1      -7.873   4.557  69.603  1.00  0.00    -0.057 OA 
HETATM   10  O   UNL     1     -10.143   3.085  72.728  1.00  0.00    -0.136 OA 
HETATM   11  O   UNL     1      -8.713   2.616  71.052  1.00  0.00    -0.061 OA 
HETATM   12  C   UNL     1      -7.794   7.233  68.843  1.00  0.00    -0.118 A  
HETATM   13  C   UNL     1      -7.832   8.568  68.467  1.00  0.00    -0.108 A  
HETATM   14  C   UNL     1      -8.604   9.518  69.152  1.00  0.00    -0.140 A  
HETATM   15  F   UNL     1      -7.092   8.929  67.407  1.00  0.00    -0.074 F  
HETATM   16  F   UNL     1     -10.050   9.955  70.957  1.00  0.00    -0.326 F  
HETATM   17  C   UNL     1      -9.307   9.053  70.292  1.00  0.00    -0.198 A  
HETATM   18  C   UNL     1      -9.329   7.698  70.704  1.00  0.00    -0.163 A  
BRANCH  14  19
HETATM   19  N   UNL     1      -8.764  10.816  68.689  1.00  0.00    -0.145 NA 
HETATM   20  C   UNL     1      -7.712  11.823  68.882  1.00  0.00    -0.041 C  
HETATM   21  C   UNL     1      -7.595  12.673  67.598  1.00  0.00    -0.152 C  
HETATM   22  N   UNL     1      -8.864  13.311  67.202  1.00  0.00    -0.216 NA 
HETATM   23  C   UNL     1      -9.928  12.286  67.069  1.00  0.00    -0.211 C  
HETATM   24  H   UNL     1      -8.763  13.870  66.355  1.00  0.00     0.000 HD 
HETATM   25  C   UNL     1     -10.075  11.377  68.327  1.00  0.00    -0.196 C  
HETATM   26  C   UNL     1     -11.238  13.009  66.763  1.00  0.00    -0.333 C  
ENDBRANCH  14  19
ENDBRANCH   2   3
TORSDOF 2
ENDMDL
MODEL      120
REMARK 921   NORMALIZED FREE ENERGY PREDICTED BY IDOCK:   -3.64 KCAL/MOL
REMARK 922        TOTAL FREE ENERGY PREDICTED BY IDOCK:   -4.61 KCAL/MOL
REMARK 923 INTER-LIGAND FREE ENERGY PREDICTED BY IDOCK:   -4.19 KCAL/MOL
REMARK 924 INTRA-LIGAND FREE ENERGY PREDICTED BY IDOCK:   -0.42 KCAL/MOL
REMARK 927      BINDING AFFINITY PREDICTED BY RF-SCORE:    0.00 PKD
ROOT
HETATM    1  C   UNL     1     -11.399  12.068  67.323  1.00  0.00    -0.394 C  
HETATM    2  C   UNL     1     -10.586  11.019  68.067  1.00  0.00    -0.204 C  
ENDROOT
BRANCH   2   3
HETATM    3  N   UNL     1      -9.871  10.150  67.112  1.00  0.00    -0.179 NA 
HETATM    4  C   UNL     1      -9.804  10.514  65.772  1.00  0.00    -0.237 C  
HETATM    5  C   UNL     1      -9.283   9.796  64.769  1.00  0.00    -0.319 C  
HETATM    6  C   UNL     1      -9.290  10.345  63.398  1.00  0.00    -0.300 C  
HETATM    7  C   UNL     1      -8.733   8.479  65.122  1.00  0.00    -0.120 C  
HETATM    8  C   UNL     1      -8.773   8.054  66.540  1.00  0.00    -0.161 A  
HETATM    9  O   UNL     1      -8.246   7.763  64.248  1.00  0.00    -0.121 OA 
HETATM   10  O   UNL     1      -9.753  11.442  63.117  1.00  0.00    -0.345 OA 
HETATM   11  O   UNL     1      -8.743   9.537  62.465  1.00  0.00    -0.192 OA 
HETATM   12  C   UNL     1      -8.215   6.815  66.864  1.00  0.00    -0.113 A  
HETATM   13  C   UNL     1      -8.172   6.411  68.190  1.00  0.00    -0.116 A  
HETATM   14  C   UNL     1      -8.681   7.200  69.232  1.00  0.00    -0.136 A  
HETATM   15  F   UNL     1      -7.617   5.217  68.451  1.00  0.00    -0.074 F  
HETATM   16  F   UNL     1      -9.792   9.183  69.843  1.00  0.00    -0.165 F  
HETATM   17  C   UNL     1      -9.298   8.419  68.853  1.00  0.00    -0.147 A  
HETATM   18  C   UNL     1      -9.345   8.895  67.520  1.00  0.00    -0.136 A  
BRANCH  14  19
HETATM   19  N   UNL     1      -8.503   6.870  70.567  1.00  0.00    -0.136 NA 
HETATM   20  C   UNL     1      -9.371   5.884  71.226  1.00  0.00    -0.156 C  
HETATM   21  C   UNL     1      -8.507   4.997  72.148  1.00  0.00    -0.125 C  
HETATM   22  N   UNL     1      -7.738   5.765  73.144  1.00  0.00    -0.099 NA 
HETATM   23  C   UNL     1      -6.912   6.794  72.465  1.00  0.00    -0.064 C  
HETATM   24  H   UNL     1      -7.178   5.160  73.744  1.00  0.00     0.000 HD 
HETATM   25  C   UNL     1      -7.726   7.704  71.498  1.00  0.00    -0.085 C  
HETATM   26  C   UNL     1      -6.221   7.625  73.545  1.00  0.00    -0.062 C  
ENDBRANCH  14  19
ENDBRANCH   2   3
TORSDOF 2
ENDMDL
MODEL      121
REMARK 921   NORMALIZED FREE ENERGY PREDICTED BY IDOCK:   -3.62 KCAL/MOL
REMARK 922        TOTAL FREE ENERGY PREDICTED BY IDOCK:   -4.58 KCAL/MOL
REMARK 923 INTER-LIGAND FREE ENERGY PREDICTED BY IDOCK:   -4.71 KCAL/MOL
REMARK 924 INTRA-LIGAND FREE ENERGY PREDICTED BY IDOCK:    0.13 KCAL/MOL
REMARK 927      BINDING AFFINITY PREDICTED BY RF-SCORE:    0.00 PKD
ROOT
HETATM    1  C   UNL     1      -8.134   7.830  65.794  1.00  0.00    -0.125 C  
HETATM    2  C   UNL     1      -9.315   7.326  66.612  1.00  0.00    -0.171 C  
ENDROOT
BRANCH   2   3
HETATM    3  N   UNL     1      -8.856   6.830  67.924  1.00  0.00    -0.119 NA 
HETATM    4  C   UNL     1      -7.896   5.825  67.979  1.00  0.00    -0.100 C  
HETATM    5  C   UNL     1      -7.447   5.201  69.076  1.00  0.00    -0.069 C  
HETATM    6  C   UNL     1      -6.414   4.155  68.949  1.00  0.00    -0.040 C  
HETATM    7  C   UNL     1      -8.041   5.617  70.356  1.00  0.00    -0.105 C  
HETATM    8  C   UNL     1      -9.061   6.691  70.345  1.00  0.00    -0.152 A  
HETATM    9  O   UNL     1      -7.681   5.079  71.402  1.00  0.00    -0.093 OA 
HETATM   10  O   UNL     1      -5.929   3.817  67.878  1.00  0.00    -0.026 OA 
HETATM   11  O   UNL     1      -6.037   3.591  70.116  1.00  0.00    -0.021 OA 
HETATM   12  C   UNL     1      -9.589   7.098  71.573  1.00  0.00    -0.161 A  
HETATM   13  C   UNL     1     -10.495   8.147  71.612  1.00  0.00    -0.228 A  
HETATM   14  C   UNL     1     -10.915   8.819  70.455  1.00  0.00    -0.239 A  
HETATM   15  F   UNL     1     -10.966   8.508  72.817  1.00  0.00    -0.406 F  
HETATM   16  F   UNL     1     -10.804   8.967  68.109  1.00  0.00    -0.251 F  
HETATM   17  C   UNL     1     -10.406   8.332  69.225  1.00  0.00    -0.218 A  
HETATM   18  C   UNL     1      -9.458   7.285  69.127  1.00  0.00    -0.148 A  
BRANCH  14  19
HETATM   19  N   UNL     1     -11.699   9.963  70.506  1.00  0.00    -0.286 NA 
HETATM   20  C   UNL     1     -12.947   9.991  71.281  1.00  0.00    -0.400 C  
HETATM   21  C   UNL     1     -13.055  11.354  72.000  1.00  0.00    -0.318 C  
HETATM   22  N   UNL     1     -12.983  12.506  71.083  1.00  0.00    -0.219 NA 
HETATM   23  C   UNL     1     -11.746  12.429  70.267  1.00  0.00    -0.123 C  
HETATM   24  H   UNL     1     -13.060  13.394  71.577  1.00  0.00     0.000 HD 
HETATM   25  C   UNL     1     -11.567  11.063  69.538  1.00  0.00    -0.313 C  
HETATM   26  C   UNL     1     -11.773  13.582  69.267  1.00  0.00    -0.382 C  
ENDBRANCH  14  19
ENDBRANCH   2   3
TORSDOF 2
ENDMDL
MODEL      122
REMARK 921   NORMALIZED FREE ENERGY PREDICTED BY IDOCK:   -3.59 KCAL/MOL
REMARK 922        TOTAL FREE ENERGY PREDICTED BY IDOCK:   -4.54 KCAL/MOL
REMARK 923 INTER-LIGAND FREE ENERGY PREDICTED BY IDOCK:   -3.92 KCAL/MOL
REMARK 924 INTRA-LIGAND FREE ENERGY PREDICTED BY IDOCK:   -0.62 KCAL/MOL
REMARK 927      BINDING AFFINITY PREDICTED BY RF-SCORE:    0.00 PKD
ROOT
HETATM    1  C   UNL     1      -9.201   9.970  63.214  1.00  0.00    -0.317 C  
HETATM    2  C   UNL     1      -9.721  10.189  64.627  1.00  0.00    -0.309 C  
ENDROOT
BRANCH   2   3
HETATM    3  N   UNL     1      -8.721   9.745  65.617  1.00  0.00    -0.142 NA 
HETATM    4  C   UNL     1      -8.253   8.436  65.579  1.00  0.00    -0.140 C  
HETATM    5  C   UNL     1      -7.426   7.852  66.455  1.00  0.00    -0.088 C  
HETATM    6  C   UNL     1      -7.024   6.446  66.255  1.00  0.00    -0.066 C  
HETATM    7  C   UNL     1      -6.974   8.681  67.584  1.00  0.00    -0.075 C  
HETATM    8  C   UNL     1      -7.440  10.085  67.659  1.00  0.00    -0.090 A  
HETATM    9  O   UNL     1      -6.220   8.205  68.431  1.00  0.00    -0.047 OA 
HETATM   10  O   UNL     1      -7.408   5.766  65.312  1.00  0.00    -0.071 OA 
HETATM   11  O   UNL     1      -6.192   5.957  67.198  1.00  0.00    -0.031 OA 
HETATM   12  C   UNL     1      -6.974  10.868  68.718  1.00  0.00    -0.078 A  
HETATM   13  C   UNL     1      -7.332  12.206  68.787  1.00  0.00    -0.090 A  
HETATM   14  C   UNL     1      -8.161  12.811  67.830  1.00  0.00    -0.168 A  
HETATM   15  F   UNL     1      -6.851  12.919  69.817  1.00  0.00    -0.049 F  
HETATM   16  F   UNL     1      -9.463  12.533  65.889  1.00  0.00    -0.241 F  
HETATM   17  C   UNL     1      -8.666  11.965  66.810  1.00  0.00    -0.193 A  
HETATM   18  C   UNL     1      -8.311  10.601  66.674  1.00  0.00    -0.136 A  
BRANCH  14  19
HETATM   19  N   UNL     1      -8.396  14.178  67.811  1.00  0.00    -0.160 NA 
HETATM   20  C   UNL     1      -7.368  15.115  67.337  1.00  0.00    -0.205 C  
HETATM   21  C   UNL     1      -8.048  16.215  66.493  1.00  0.00    -0.296 C  
HETATM   22  N   UNL     1      -9.115  16.931  67.216  1.00  0.00    -0.216 NA 
HETATM   23  C   UNL     1     -10.112  15.963  67.737  1.00  0.00    -0.244 C  
HETATM   24  H   UNL     1      -9.547  17.654  66.642  1.00  0.00     0.000 HD 
HETATM   25  C   UNL     1      -9.481  14.812  68.576  1.00  0.00    -0.214 C  
HETATM   26  C   UNL     1     -11.133  16.744  68.563  1.00  0.00    -0.260 C  
ENDBRANCH  14  19
ENDBRANCH   2   3
TORSDOF 2
ENDMDL
MODEL      123
REMARK 921   NORMALIZED FREE ENERGY PREDICTED BY IDOCK:   -3.57 KCAL/MOL
REMARK 922        TOTAL FREE ENERGY PREDICTED BY IDOCK:   -4.52 KCAL/MOL
REMARK 923 INTER-LIGAND FREE ENERGY PREDICTED BY IDOCK:   -4.00 KCAL/MOL
REMARK 924 INTRA-LIGAND FREE ENERGY PREDICTED BY IDOCK:   -0.52 KCAL/MOL
REMARK 927      BINDING AFFINITY PREDICTED BY RF-SCORE:    0.00 PKD
ROOT
HETATM    1  C   UNL     1     -10.642   4.485  65.484  1.00  0.00    -0.218 C  
HETATM    2  C   UNL     1     -10.649   5.537  66.583  1.00  0.00    -0.299 C  
ENDROOT
BRANCH   2   3
HETATM    3  N   UNL     1      -9.282   5.756  67.094  1.00  0.00    -0.114 NA 
HETATM    4  C   UNL     1      -8.469   4.661  67.367  1.00  0.00    -0.104 C  
HETATM    5  C   UNL     1      -7.250   4.683  67.921  1.00  0.00    -0.066 C  
HETATM    6  C   UNL     1      -6.522   3.417  68.133  1.00  0.00    -0.037 C  
HETATM    7  C   UNL     1      -6.721   6.005  68.290  1.00  0.00    -0.061 C  
HETATM    8  C   UNL     1      -7.549   7.200  68.008  1.00  0.00    -0.111 A  
HETATM    9  O   UNL     1      -5.610   6.097  68.811  1.00  0.00    -0.010 OA 
HETATM   10  O   UNL     1      -6.974   2.322  67.823  1.00  0.00    -0.045 OA 
HETATM   11  O   UNL     1      -5.305   3.554  68.701  1.00  0.00    -0.011 OA 
HETATM   12  C   UNL     1      -7.017   8.451  68.332  1.00  0.00    -0.069 A  
HETATM   13  C   UNL     1      -7.731   9.598  68.023  1.00  0.00    -0.086 A  
HETATM   14  C   UNL     1      -8.986   9.554  67.398  1.00  0.00    -0.131 A  
HETATM   15  F   UNL     1      -7.173  10.776  68.345  1.00  0.00    -0.075 F  
HETATM   16  F   UNL     1     -10.722   8.211  66.549  1.00  0.00    -0.359 F  
HETATM   17  C   UNL     1      -9.519   8.265  67.146  1.00  0.00    -0.160 A  
HETATM   18  C   UNL     1      -8.823   7.061  67.414  1.00  0.00    -0.119 A  
BRANCH  14  19
HETATM   19  N   UNL     1      -9.631  10.698  66.949  1.00  0.00    -0.168 NA 
HETATM   20  C   UNL     1      -9.511  11.136  65.552  1.00  0.00    -0.221 C  
HETATM   21  C   UNL     1     -10.889  11.638  65.067  1.00  0.00    -0.288 C  
HETATM   22  N   UNL     1     -11.447  12.714  65.906  1.00  0.00    -0.343 NA 
HETATM   23  C   UNL     1     -11.506  12.274  67.322  1.00  0.00    -0.357 C  
HETATM   24  H   UNL     1     -12.354  13.032  65.567  1.00  0.00     0.000 HD 
HETATM   25  C   UNL     1     -10.149  11.730  67.861  1.00  0.00    -0.186 C  
HETATM   26  C   UNL     1     -11.991  13.457  68.158  1.00  0.00    -0.356 C  
ENDBRANCH  14  19
ENDBRANCH   2   3
TORSDOF 2
ENDMDL
MODEL      124
REMARK 921   NORMALIZED FREE ENERGY PREDICTED BY IDOCK:   -3.56 KCAL/MOL
REMARK 922        TOTAL FREE ENERGY PREDICTED BY IDOCK:   -4.51 KCAL/MOL
REMARK 923 INTER-LIGAND FREE ENERGY PREDICTED BY IDOCK:   -4.39 KCAL/MOL
REMARK 924 INTRA-LIGAND FREE ENERGY PREDICTED BY IDOCK:   -0.13 KCAL/MOL
REMARK 927      BINDING AFFINITY PREDICTED BY RF-SCORE:    0.00 PKD
ROOT
HETATM    1  C   UNL     1      -5.606  11.207  69.649  1.00  0.00    -0.052 C  
HETATM    2  C   UNL     1      -6.368  11.077  68.338  1.00  0.00    -0.052 C  
ENDROOT
BRANCH   2   3
HETATM    3  N   UNL     1      -7.751  10.629  68.590  1.00  0.00    -0.102 NA 
HETATM    4  C   UNL     1      -7.991   9.302  68.929  1.00  0.00    -0.098 C  
HETATM    5  C   UNL     1      -9.185   8.717  69.093  1.00  0.00    -0.152 C  
HETATM    6  C   UNL     1      -9.253   7.289  69.461  1.00  0.00    -0.149 C  
HETATM    7  C   UNL     1     -10.366   9.567  68.883  1.00  0.00    -0.208 C  
HETATM    8  C   UNL     1     -10.158  10.991  68.531  1.00  0.00    -0.198 A  
HETATM    9  O   UNL     1     -11.494   9.093  69.009  1.00  0.00     0.244 OA 
HETATM   10  O   UNL     1      -8.263   6.591  69.631  1.00  0.00    -0.122 OA 
HETATM   11  O   UNL     1     -10.505   6.802  69.598  1.00  0.00    -0.196 OA 
HETATM   12  C   UNL     1     -11.290  11.794  68.369  1.00  0.00    -0.328 A  
HETATM   13  C   UNL     1     -11.137  13.146  68.107  1.00  0.00    -0.255 A  
HETATM   14  C   UNL     1      -9.875  13.748  67.986  1.00  0.00    -0.239 A  
HETATM   15  F   UNL     1     -12.254  13.877  67.969  1.00  0.00    -0.386 F  
HETATM   16  F   UNL     1      -7.541  13.453  67.975  1.00  0.00    -0.097 F  
HETATM   17  C   UNL     1      -8.754  12.887  68.091  1.00  0.00    -0.190 A  
HETATM   18  C   UNL     1      -8.850  11.505  68.387  1.00  0.00    -0.163 A  
BRANCH  14  19
HETATM   19  N   UNL     1      -9.718  15.123  67.877  1.00  0.00    -0.207 NA 
HETATM   20  C   UNL     1     -10.590  16.045  68.617  1.00  0.00    -0.266 C  
HETATM   21  C   UNL     1      -9.734  17.212  69.158  1.00  0.00    -0.150 C  
HETATM   22  N   UNL     1      -8.990  17.927  68.104  1.00  0.00    -0.262 NA 
HETATM   23  C   UNL     1      -8.161  16.971  67.330  1.00  0.00    -0.176 C  
HETATM   24  H   UNL     1      -8.436  18.695  68.482  1.00  0.00     0.000 HD 
HETATM   25  C   UNL     1      -8.965  15.754  66.781  1.00  0.00    -0.260 C  
HETATM   26  C   UNL     1      -7.496  17.744  66.192  1.00  0.00    -0.322 C  
ENDBRANCH  14  19
ENDBRANCH   2   3
TORSDOF 2
ENDMDL
MODEL      125
REMARK 921   NORMALIZED FREE ENERGY PREDICTED BY IDOCK:   -3.49 KCAL/MOL
REMARK 922        TOTAL FREE ENERGY PREDICTED BY IDOCK:   -4.44 KCAL/MOL
REMARK 923 INTER-LIGAND FREE ENERGY PREDICTED BY IDOCK:   -3.99 KCAL/MOL
REMARK 924 INTRA-LIGAND FREE ENERGY PREDICTED BY IDOCK:   -0.45 KCAL/MOL
REMARK 927      BINDING AFFINITY PREDICTED BY RF-SCORE:    0.00 PKD
ROOT
HETATM    1  C   UNL     1     -10.785   4.256  64.744  1.00  0.00    -0.132 C  
HETATM    2  C   UNL     1     -10.890   4.874  66.131  1.00  0.00    -0.050 C  
ENDROOT
BRANCH   2   3
HETATM    3  N   UNL     1      -9.573   4.876  66.795  1.00  0.00    -0.147 NA 
HETATM    4  C   UNL     1      -8.717   3.793  66.623  1.00  0.00    -0.118 C  
HETATM    5  C   UNL     1      -7.538   3.596  67.227  1.00  0.00    -0.078 C  
HETATM    6  C   UNL     1      -6.754   2.385  66.919  1.00  0.00    -0.040 C  
HETATM    7  C   UNL     1      -7.109   4.630  68.181  1.00  0.00    -0.061 C  
HETATM    8  C   UNL     1      -7.985   5.807  68.388  1.00  0.00    -0.104 A  
HETATM    9  O   UNL     1      -6.041   4.509  68.778  1.00  0.00    -0.028 OA 
HETATM   10  O   UNL     1      -7.122   1.530  66.124  1.00  0.00    -0.047 OA 
HETATM   11  O   UNL     1      -5.584   2.285  67.586  1.00  0.00    -0.017 OA 
HETATM   12  C   UNL     1      -7.546   6.797  69.271  1.00  0.00    -0.096 A  
HETATM   13  C   UNL     1      -8.304   7.946  69.440  1.00  0.00    -0.132 A  
HETATM   14  C   UNL     1      -9.513   8.153  68.760  1.00  0.00    -0.148 A  
HETATM   15  F   UNL     1      -7.835   8.872  70.292  1.00  0.00    -0.072 F  
HETATM   16  F   UNL     1     -11.114   7.284  67.270  1.00  0.00    -0.356 F  
HETATM   17  C   UNL     1      -9.955   7.096  67.925  1.00  0.00    -0.154 A  
HETATM   18  C   UNL     1      -9.209   5.915  67.692  1.00  0.00    -0.104 A  
BRANCH  14  19
HETATM   19  N   UNL     1     -10.193   9.362  68.810  1.00  0.00    -0.197 NA 
HETATM   20  C   UNL     1     -10.106  10.325  67.703  1.00  0.00    -0.191 C  
HETATM   21  C   UNL     1     -11.504  10.938  67.466  1.00  0.00    -0.152 C  
HETATM   22  N   UNL     1     -12.074  11.573  68.669  1.00  0.00    -0.505 NA 
HETATM   23  C   UNL     1     -12.100  10.603  69.791  1.00  0.00    -0.272 C  
HETATM   24  H   UNL     1     -12.994  11.974  68.489  1.00  0.00     0.000 HD 
HETATM   25  C   UNL     1     -10.721   9.929  70.061  1.00  0.00    -0.292 C  
HETATM   26  C   UNL     1     -12.599  11.339  71.033  1.00  0.00    -0.495 C  
ENDBRANCH  14  19
ENDBRANCH   2   3
TORSDOF 2
ENDMDL
MODEL      126
REMARK 921   NORMALIZED FREE ENERGY PREDICTED BY IDOCK:   -3.42 KCAL/MOL
REMARK 922        TOTAL FREE ENERGY PREDICTED BY IDOCK:   -4.35 KCAL/MOL
REMARK 923 INTER-LIGAND FREE ENERGY PREDICTED BY IDOCK:   -3.75 KCAL/MOL
REMARK 924 INTRA-LIGAND FREE ENERGY PREDICTED BY IDOCK:   -0.61 KCAL/MOL
REMARK 927      BINDING AFFINITY PREDICTED BY RF-SCORE:    0.00 PKD
ROOT
HETATM    1  C   UNL     1      -5.964   6.722  65.507  1.00  0.00    -0.035 C  
HETATM    2  C   UNL     1      -7.199   6.355  66.317  1.00  0.00    -0.072 C  
ENDROOT
BRANCH   2   3
HETATM    3  N   UNL     1      -8.043   7.545  66.537  1.00  0.00    -0.116 NA 
HETATM    4  C   UNL     1      -8.303   8.406  65.476  1.00  0.00    -0.154 C  
HETATM    5  C   UNL     1      -8.963   9.571  65.528  1.00  0.00    -0.236 C  
HETATM    6  C   UNL     1      -9.153  10.358  64.295  1.00  0.00    -0.238 C  
HETATM    7  C   UNL     1      -9.455   9.986  66.851  1.00  0.00    -0.166 C  
HETATM    8  C   UNL     1      -9.210   9.094  68.008  1.00  0.00    -0.142 A  
HETATM    9  O   UNL     1     -10.062  11.049  66.973  1.00  0.00    -0.186 OA 
HETATM   10  O   UNL     1      -8.737  10.002  63.200  1.00  0.00    -0.175 OA 
HETATM   11  O   UNL     1      -9.828  11.515  64.463  1.00  0.00    -0.239 OA 
HETATM   12  C   UNL     1      -9.714   9.487  69.250  1.00  0.00    -0.180 A  
HETATM   13  C   UNL     1      -9.565   8.648  70.344  1.00  0.00    -0.173 A  
HETATM   14  C   UNL     1      -8.912   7.410  70.256  1.00  0.00    -0.147 A  
HETATM   15  F   UNL     1     -10.076   9.065  71.513  1.00  0.00    -0.313 F  
HETATM   16  F   UNL     1      -7.727   5.896  68.898  1.00  0.00    -0.084 F  
HETATM   17  C   UNL     1      -8.357   7.080  68.994  1.00  0.00    -0.126 A  
HETATM   18  C   UNL     1      -8.504   7.883  67.837  1.00  0.00    -0.126 A  
BRANCH  14  19
HETATM   19  N   UNL     1      -8.896   6.504  71.307  1.00  0.00    -0.137 NA 
HETATM   20  C   UNL     1     -10.085   5.705  71.636  1.00  0.00    -0.195 C  
HETATM   21  C   UNL     1      -9.639   4.270  71.990  1.00  0.00    -0.150 C  
HETATM   22  N   UNL     1      -8.654   4.219  73.087  1.00  0.00    -0.093 NA 
HETATM   23  C   UNL     1      -7.488   5.077  72.763  1.00  0.00    -0.095 C  
HETATM   24  H   UNL     1      -8.376   3.263  73.306  1.00  0.00     0.000 HD 
HETATM   25  C   UNL     1      -7.879   6.534  72.369  1.00  0.00    -0.101 C  
HETATM   26  C   UNL     1      -6.553   5.070  73.971  1.00  0.00    -0.069 C  
ENDBRANCH  14  19
ENDBRANCH   2   3
TORSDOF 2
ENDMDL
MODEL      127
REMARK 921   NORMALIZED FREE ENERGY PREDICTED BY IDOCK:   -3.41 KCAL/MOL
REMARK 922        TOTAL FREE ENERGY PREDICTED BY IDOCK:   -4.35 KCAL/MOL
REMARK 923 INTER-LIGAND FREE ENERGY PREDICTED BY IDOCK:   -3.82 KCAL/MOL
REMARK 924 INTRA-LIGAND FREE ENERGY PREDICTED BY IDOCK:   -0.52 KCAL/MOL
REMARK 927      BINDING AFFINITY PREDICTED BY RF-SCORE:    0.00 PKD
ROOT
HETATM    1  C   UNL     1      -6.328   6.001  72.033  1.00  0.00    -0.049 C  
HETATM    2  C   UNL     1      -6.847   5.316  70.776  1.00  0.00    -0.047 C  
ENDROOT
BRANCH   2   3
HETATM    3  N   UNL     1      -8.222   5.760  70.480  1.00  0.00    -0.116 NA 
HETATM    4  C   UNL     1      -8.979   6.361  71.480  1.00  0.00    -0.144 C  
HETATM    5  C   UNL     1     -10.264   6.730  71.404  1.00  0.00    -0.216 C  
HETATM    6  C   UNL     1     -10.911   7.366  72.569  1.00  0.00    -0.296 C  
HETATM    7  C   UNL     1     -10.950   6.459  70.131  1.00  0.00    -0.334 C  
HETATM    8  C   UNL     1     -10.180   5.829  69.034  1.00  0.00    -0.282 A  
HETATM    9  O   UNL     1     -12.134   6.764  69.996  1.00  0.00    -0.242 OA 
HETATM   10  O   UNL     1     -10.330   7.583  73.624  1.00  0.00    -0.344 OA 
HETATM   11  O   UNL     1     -12.208   7.693  72.384  1.00  0.00    -0.258 OA 
HETATM   12  C   UNL     1     -10.836   5.611  67.821  1.00  0.00    -0.176 A  
HETATM   13  C   UNL     1     -10.132   5.086  66.748  1.00  0.00    -0.239 A  
HETATM   14  C   UNL     1      -8.772   4.752  66.835  1.00  0.00    -0.107 A  
HETATM   15  F   UNL     1     -10.804   4.905  65.600  1.00  0.00    -0.294 F  
HETATM   16  F   UNL     1      -6.859   4.607  68.198  1.00  0.00    -0.049 F  
HETATM   17  C   UNL     1      -8.161   4.926  68.102  1.00  0.00    -0.089 A  
HETATM   18  C   UNL     1      -8.823   5.485  69.223  1.00  0.00    -0.106 A  
BRANCH  14  19
HETATM   19  N   UNL     1      -8.030   4.373  65.726  1.00  0.00    -0.094 NA 
HETATM   20  C   UNL     1      -7.836   2.954  65.393  1.00  0.00    -0.081 C  
HETATM   21  C   UNL     1      -7.949   2.782  63.863  1.00  0.00    -0.081 C  
HETATM   22  N   UNL     1      -7.007   3.629  63.109  1.00  0.00    -0.042 NA 
HETATM   23  C   UNL     1      -7.177   5.050  63.500  1.00  0.00    -0.049 C  
HETATM   24  H   UNL     1      -7.096   3.497  62.102  1.00  0.00     0.000 HD 
HETATM   25  C   UNL     1      -7.100   5.284  65.040  1.00  0.00    -0.062 C  
HETATM   26  C   UNL     1      -6.110   5.866  62.771  1.00  0.00    -0.025 C  
ENDBRANCH  14  19
ENDBRANCH   2   3
TORSDOF 2
ENDMDL
MODEL      128
REMARK 921   NORMALIZED FREE ENERGY PREDICTED BY IDOCK:   -3.34 KCAL/MOL
REMARK 922        TOTAL FREE ENERGY PREDICTED BY IDOCK:   -4.27 KCAL/MOL
REMARK 923 INTER-LIGAND FREE ENERGY PREDICTED BY IDOCK:   -4.03 KCAL/MOL
REMARK 924 INTRA-LIGAND FREE ENERGY PREDICTED BY IDOCK:   -0.23 KCAL/MOL
REMARK 927      BINDING AFFINITY PREDICTED BY RF-SCORE:    0.00 PKD
ROOT
HETATM    1  C   UNL     1      -9.467   3.678  71.152  1.00  0.00    -0.234 C  
HETATM    2  C   UNL     1      -9.227   4.295  69.782  1.00  0.00    -0.137 C  
ENDROOT
BRANCH   2   3
HETATM    3  N   UNL     1      -9.693   5.695  69.759  1.00  0.00    -0.157 NA 
HETATM    4  C   UNL     1     -10.227   6.258  70.913  1.00  0.00    -0.193 C  
HETATM    5  C   UNL     1     -10.779   7.473  71.034  1.00  0.00    -0.243 C  
HETATM    6  C   UNL     1     -11.293   7.913  72.345  1.00  0.00    -0.369 C  
HETATM    7  C   UNL     1     -10.834   8.292  69.814  1.00  0.00    -0.185 C  
HETATM    8  C   UNL     1     -10.266   7.736  68.563  1.00  0.00    -0.227 A  
HETATM    9  O   UNL     1     -11.335   9.415  69.851  1.00  0.00    -0.202 OA 
HETATM   10  O   UNL     1     -11.244   7.221  73.353  1.00  0.00    -0.262 OA 
HETATM   11  O   UNL     1     -11.831   9.152  72.353  1.00  0.00    -0.258 OA 
HETATM   12  C   UNL     1     -10.294   8.542  67.422  1.00  0.00    -0.356 A  
HETATM   13  C   UNL     1      -9.713   8.085  66.249  1.00  0.00    -0.126 A  
HETATM   14  C   UNL     1      -9.097   6.827  66.158  1.00  0.00    -0.109 A  
HETATM   15  F   UNL     1      -9.757   8.899  65.183  1.00  0.00    -0.190 F  
HETATM   16  F   UNL     1      -8.564   4.808  67.242  1.00  0.00    -0.106 F  
HETATM   17  C   UNL     1      -9.149   6.016  67.319  1.00  0.00    -0.111 A  
HETATM   18  C   UNL     1      -9.703   6.441  68.551  1.00  0.00    -0.132 A  
BRANCH  14  19
HETATM   19  N   UNL     1      -8.383   6.432  65.036  1.00  0.00    -0.122 NA 
HETATM   20  C   UNL     1      -7.431   7.343  64.385  1.00  0.00    -0.100 C  
HETATM   21  C   UNL     1      -6.179   6.541  63.968  1.00  0.00    -0.034 C  
HETATM   22  N   UNL     1      -6.486   5.393  63.095  1.00  0.00    -0.025 NA 
HETATM   23  C   UNL     1      -7.491   4.516  63.743  1.00  0.00    -0.055 C  
HETATM   24  H   UNL     1      -5.646   4.880  62.829  1.00  0.00     0.000 HD 
HETATM   25  C   UNL     1      -8.769   5.276  64.212  1.00  0.00    -0.029 C  
HETATM   26  C   UNL     1      -7.849   3.406  62.756  1.00  0.00    -0.070 C  
ENDBRANCH  14  19
ENDBRANCH   2   3
TORSDOF 2
ENDMDL
MODEL      129
REMARK 921   NORMALIZED FREE ENERGY PREDICTED BY IDOCK:   -3.26 KCAL/MOL
REMARK 922        TOTAL FREE ENERGY PREDICTED BY IDOCK:   -4.18 KCAL/MOL
REMARK 923 INTER-LIGAND FREE ENERGY PREDICTED BY IDOCK:   -4.50 KCAL/MOL
REMARK 924 INTRA-LIGAND FREE ENERGY PREDICTED BY IDOCK:    0.33 KCAL/MOL
REMARK 927      BINDING AFFINITY PREDICTED BY RF-SCORE:    0.00 PKD
ROOT
HETATM    1  C   UNL     1      -6.033  11.560  68.424  1.00  0.00    -0.045 C  
HETATM    2  C   UNL     1      -6.713  11.540  67.062  1.00  0.00    -0.143 C  
ENDROOT
BRANCH   2   3
HETATM    3  N   UNL     1      -8.178  11.620  67.218  1.00  0.00    -0.152 NA 
HETATM    4  C   UNL     1      -8.855  12.747  66.763  1.00  0.00    -0.159 C  
HETATM    5  C   UNL     1     -10.158  13.017  66.914  1.00  0.00    -0.243 C  
HETATM    6  C   UNL     1     -10.713  14.266  66.357  1.00  0.00    -0.297 C  
HETATM    7  C   UNL     1     -10.954  12.021  67.647  1.00  0.00    -0.238 C  
HETATM    8  C   UNL     1     -10.276  10.800  68.141  1.00  0.00    -0.194 A  
HETATM    9  O   UNL     1     -12.156  12.210  67.829  1.00  0.00    -0.508 OA 
HETATM   10  O   UNL     1     -10.040  15.089  65.751  1.00  0.00    -0.295 OA 
HETATM   11  O   UNL     1     -12.035  14.439  66.569  1.00  0.00    -0.404 OA 
HETATM   12  C   UNL     1     -11.053   9.848  68.805  1.00  0.00    -0.179 A  
HETATM   13  C   UNL     1     -10.470   8.661  69.223  1.00  0.00    -0.217 A  
HETATM   14  C   UNL     1      -9.113   8.378  69.012  1.00  0.00    -0.147 A  
HETATM   15  F   UNL     1     -11.261   7.774  69.847  1.00  0.00    -0.250 F  
HETATM   16  F   UNL     1      -7.043   9.137  68.189  1.00  0.00    -0.073 F  
HETATM   17  C   UNL     1      -8.346   9.398  68.394  1.00  0.00    -0.119 A  
HETATM   18  C   UNL     1      -8.893  10.615  67.922  1.00  0.00    -0.131 A  
BRANCH  14  19
HETATM   19  N   UNL     1      -8.564   7.134  69.290  1.00  0.00    -0.136 NA 
HETATM   20  C   UNL     1      -8.019   6.827  70.619  1.00  0.00    -0.110 C  
HETATM   21  C   UNL     1      -8.419   5.385  71.000  1.00  0.00    -0.124 C  
HETATM   22  N   UNL     1      -7.987   4.379  70.013  1.00  0.00    -0.059 NA 
HETATM   23  C   UNL     1      -8.498   4.737  68.667  1.00  0.00    -0.085 C  
HETATM   24  H   UNL     1      -8.259   3.435  70.286  1.00  0.00     0.000 HD 
HETATM   25  C   UNL     1      -8.148   6.194  68.237  1.00  0.00    -0.111 C  
HETATM   26  C   UNL     1      -7.936   3.724  67.670  1.00  0.00    -0.085 C  
ENDBRANCH  14  19
ENDBRANCH   2   3
TORSDOF 2
ENDMDL
MODEL      130
REMARK 921   NORMALIZED FREE ENERGY PREDICTED BY IDOCK:   -3.26 KCAL/MOL
REMARK 922        TOTAL FREE ENERGY PREDICTED BY IDOCK:   -4.18 KCAL/MOL
REMARK 923 INTER-LIGAND FREE ENERGY PREDICTED BY IDOCK:   -4.31 KCAL/MOL
REMARK 924 INTRA-LIGAND FREE ENERGY PREDICTED BY IDOCK:    0.13 KCAL/MOL
REMARK 927      BINDING AFFINITY PREDICTED BY RF-SCORE:    0.00 PKD
ROOT
HETATM    1  C   UNL     1      -7.331   6.673  66.108  1.00  0.00    -0.076 C  
HETATM    2  C   UNL     1      -7.509   7.972  66.882  1.00  0.00    -0.091 C  
ENDROOT
BRANCH   2   3
HETATM    3  N   UNL     1      -8.289   7.735  68.112  1.00  0.00    -0.124 NA 
HETATM    4  C   UNL     1      -8.296   6.468  68.685  1.00  0.00    -0.122 C  
HETATM    5  C   UNL     1      -9.022   6.065  69.736  1.00  0.00    -0.135 C  
HETATM    6  C   UNL     1      -8.899   4.676  70.218  1.00  0.00    -0.083 C  
HETATM    7  C   UNL     1      -9.914   7.067  70.340  1.00  0.00    -0.179 C  
HETATM    8  C   UNL     1      -9.931   8.433  69.767  1.00  0.00    -0.191 A  
HETATM    9  O   UNL     1     -10.615   6.762  71.303  1.00  0.00    -0.216 OA 
HETATM   10  O   UNL     1      -8.155   3.850  69.706  1.00  0.00    -0.054 OA 
HETATM   11  O   UNL     1      -9.678   4.376  71.280  1.00  0.00    -0.160 OA 
HETATM   12  C   UNL     1     -10.756   9.382  70.375  1.00  0.00    -0.317 A  
HETATM   13  C   UNL     1     -10.750  10.689  69.912  1.00  0.00    -0.204 A  
HETATM   14  C   UNL     1      -9.945  11.101  68.839  1.00  0.00    -0.175 A  
HETATM   15  F   UNL     1     -11.553  11.566  70.534  1.00  0.00    -0.383 F  
HETATM   16  F   UNL     1      -8.398  10.476  67.179  1.00  0.00    -0.122 F  
HETATM   17  C   UNL     1      -9.172  10.093  68.210  1.00  0.00    -0.130 A  
HETATM   18  C   UNL     1      -9.117   8.751  68.657  1.00  0.00    -0.141 A  
BRANCH  14  19
HETATM   19  N   UNL     1      -9.821  12.434  68.475  1.00  0.00    -0.191 NA 
HETATM   20  C   UNL     1     -11.007  13.257  68.201  1.00  0.00    -0.255 C  
HETATM   21  C   UNL     1     -10.789  14.662  68.804  1.00  0.00    -0.255 C  
HETATM   22  N   UNL     1      -9.567  15.325  68.313  1.00  0.00    -0.203 NA 
HETATM   23  C   UNL     1      -8.389  14.455  68.545  1.00  0.00    -0.157 C  
HETATM   24  H   UNL     1      -9.445  16.251  68.721  1.00  0.00     0.000 HD 
HETATM   25  C   UNL     1      -8.561  13.012  67.981  1.00  0.00    -0.186 C  
HETATM   26  C   UNL     1      -7.172  15.141  67.925  1.00  0.00    -0.158 C  
ENDBRANCH  14  19
ENDBRANCH   2   3
TORSDOF 2
ENDMDL
MODEL      131
REMARK 921   NORMALIZED FREE ENERGY PREDICTED BY IDOCK:   -3.24 KCAL/MOL
REMARK 922        TOTAL FREE ENERGY PREDICTED BY IDOCK:   -4.15 KCAL/MOL
REMARK 923 INTER-LIGAND FREE ENERGY PREDICTED BY IDOCK:   -4.12 KCAL/MOL
REMARK 924 INTRA-LIGAND FREE ENERGY PREDICTED BY IDOCK:   -0.03 KCAL/MOL
REMARK 927      BINDING AFFINITY PREDICTED BY RF-SCORE:    0.00 PKD
ROOT
HETATM    1  C   UNL     1      -5.771   7.641  69.416  1.00  0.00    -0.023 C  
HETATM    2  C   UNL     1      -6.961   6.785  69.009  1.00  0.00    -0.082 C  
ENDROOT
BRANCH   2   3
HETATM    3  N   UNL     1      -7.451   7.187  67.676  1.00  0.00    -0.099 NA 
HETATM    4  C   UNL     1      -6.878   6.628  66.539  1.00  0.00    -0.061 C  
HETATM    5  C   UNL     1      -7.137   6.953  65.265  1.00  0.00    -0.067 C  
HETATM    6  C   UNL     1      -6.437   6.248  64.175  1.00  0.00    -0.030 C  
HETATM    7  C   UNL     1      -8.125   8.022  65.049  1.00  0.00    -0.145 C  
HETATM    8  C   UNL     1      -8.768   8.638  66.232  1.00  0.00    -0.165 A  
HETATM    9  O   UNL     1      -8.405   8.376  63.905  1.00  0.00    -0.147 OA 
HETATM   10  O   UNL     1      -5.615   5.361  64.368  1.00  0.00    -0.016 OA 
HETATM   11  O   UNL     1      -6.771   6.656  62.932  1.00  0.00    -0.041 OA 
HETATM   12  C   UNL     1      -9.730   9.627  66.009  1.00  0.00    -0.331 A  
HETATM   13  C   UNL     1     -10.404  10.180  67.086  1.00  0.00    -0.238 A  
HETATM   14  C   UNL     1     -10.151   9.791  68.410  1.00  0.00    -0.166 A  
HETATM   15  F   UNL     1     -11.325  11.119  66.819  1.00  0.00    -0.340 F  
HETATM   16  F   UNL     1      -8.869   8.454  69.862  1.00  0.00    -0.130 F  
HETATM   17  C   UNL     1      -9.122   8.834  68.598  1.00  0.00    -0.141 A  
HETATM   18  C   UNL     1      -8.422   8.214  67.534  1.00  0.00    -0.126 A  
BRANCH  14  19
HETATM   19  N   UNL     1     -10.927  10.229  69.473  1.00  0.00    -0.241 NA 
HETATM   20  C   UNL     1     -11.046  11.660  69.784  1.00  0.00    -0.044 C  
HETATM   21  C   UNL     1     -12.510  11.966  70.168  1.00  0.00    -0.077 C  
HETATM   22  N   UNL     1     -13.004  11.145  71.289  1.00  0.00    -0.390 NA 
HETATM   23  C   UNL     1     -12.821   9.705  70.981  1.00  0.00    -0.262 C  
HETATM   24  H   UNL     1     -13.970  11.366  71.528  1.00  0.00     0.000 HD 
HETATM   25  C   UNL     1     -11.366   9.339  70.559  1.00  0.00    -0.258 C  
HETATM   26  C   UNL     1     -13.249   8.907  72.212  1.00  0.00    -0.498 C  
ENDBRANCH  14  19
ENDBRANCH   2   3
TORSDOF 2
ENDMDL
MODEL      132
REMARK 921   NORMALIZED FREE ENERGY PREDICTED BY IDOCK:   -3.20 KCAL/MOL
REMARK 922        TOTAL FREE ENERGY PREDICTED BY IDOCK:   -4.11 KCAL/MOL
REMARK 923 INTER-LIGAND FREE ENERGY PREDICTED BY IDOCK:   -3.76 KCAL/MOL
REMARK 924 INTRA-LIGAND FREE ENERGY PREDICTED BY IDOCK:   -0.35 KCAL/MOL
REMARK 927      BINDING AFFINITY PREDICTED BY RF-SCORE:    0.00 PKD
ROOT
HETATM    1  C   UNL     1      -8.571   8.902  71.890  1.00  0.00    -0.060 C  
HETATM    2  C   UNL     1      -7.737   9.246  70.665  1.00  0.00    -0.151 C  
ENDROOT
BRANCH   2   3
HETATM    3  N   UNL     1      -8.606   9.448  69.490  1.00  0.00    -0.146 NA 
HETATM    4  C   UNL     1      -8.984  10.737  69.130  1.00  0.00    -0.087 C  
HETATM    5  C   UNL     1      -9.838  11.084  68.159  1.00  0.00    -0.185 C  
HETATM    6  C   UNL     1     -10.119  12.511  67.909  1.00  0.00    -0.214 C  
HETATM    7  C   UNL     1     -10.451   9.982  67.401  1.00  0.00    -0.260 C  
HETATM    8  C   UNL     1     -10.070   8.592  67.743  1.00  0.00    -0.266 A  
HETATM    9  O   UNL     1     -11.251  10.228  66.500  1.00  0.00     0.082 OA 
HETATM   10  O   UNL     1      -9.605  13.418  68.549  1.00  0.00    -0.212 OA 
HETATM   11  O   UNL     1     -10.997  12.746  66.911  1.00  0.00    -0.250 OA 
HETATM   12  C   UNL     1     -10.633   7.559  66.990  1.00  0.00    -0.409 A  
HETATM   13  C   UNL     1     -10.251   6.249  67.234  1.00  0.00    -0.191 A  
HETATM   14  C   UNL     1      -9.317   5.912  68.225  1.00  0.00    -0.116 A  
HETATM   15  F   UNL     1     -10.813   5.293  66.477  1.00  0.00    -0.316 F  
HETATM   16  F   UNL     1      -7.925   6.672  69.964  1.00  0.00    -0.105 F  
HETATM   17  C   UNL     1      -8.819   6.983  69.010  1.00  0.00    -0.134 A  
HETATM   18  C   UNL     1      -9.152   8.341  68.787  1.00  0.00    -0.144 A  
BRANCH  14  19
HETATM   19  N   UNL     1      -8.819   4.625  68.368  1.00  0.00    -0.102 NA 
HETATM   20  C   UNL     1      -9.300   3.742  69.440  1.00  0.00    -0.175 C  
HETATM   21  C   UNL     1      -9.459   2.314  68.874  1.00  0.00    -0.100 C  
HETATM   22  N   UNL     1      -8.221   1.782  68.275  1.00  0.00    -0.056 NA 
HETATM   23  C   UNL     1      -7.718   2.715  67.236  1.00  0.00    -0.069 C  
HETATM   24  H   UNL     1      -8.347   0.838  67.912  1.00  0.00     0.000 HD 
HETATM   25  C   UNL     1      -7.564   4.182  67.741  1.00  0.00    -0.068 C  
HETATM   26  C   UNL     1      -6.386   2.171  66.725  1.00  0.00    -0.024 C  
ENDBRANCH  14  19
ENDBRANCH   2   3
TORSDOF 2
ENDMDL
MODEL      133
REMARK 921   NORMALIZED FREE ENERGY PREDICTED BY IDOCK:   -3.19 KCAL/MOL
REMARK 922        TOTAL FREE ENERGY PREDICTED BY IDOCK:   -4.10 KCAL/MOL
REMARK 923 INTER-LIGAND FREE ENERGY PREDICTED BY IDOCK:   -3.49 KCAL/MOL
REMARK 924 INTRA-LIGAND FREE ENERGY PREDICTED BY IDOCK:   -0.61 KCAL/MOL
REMARK 927      BINDING AFFINITY PREDICTED BY RF-SCORE:    0.00 PKD
ROOT
HETATM    1  C   UNL     1     -10.624   9.341  71.409  1.00  0.00    -0.417 C  
HETATM    2  C   UNL     1     -11.030   9.219  69.947  1.00  0.00    -0.213 C  
ENDROOT
BRANCH   2   3
HETATM    3  N   UNL     1     -10.003   9.820  69.076  1.00  0.00    -0.175 NA 
HETATM    4  C   UNL     1     -10.003  11.195  68.864  1.00  0.00    -0.175 C  
HETATM    5  C   UNL     1      -9.207  11.881  68.033  1.00  0.00    -0.190 C  
HETATM    6  C   UNL     1      -9.342  13.348  67.939  1.00  0.00    -0.216 C  
HETATM    7  C   UNL     1      -8.239  11.094  67.255  1.00  0.00    -0.136 C  
HETATM    8  C   UNL     1      -8.196   9.627  67.456  1.00  0.00    -0.114 A  
HETATM    9  O   UNL     1      -7.483  11.659  66.466  1.00  0.00    -0.086 OA 
HETATM   10  O   UNL     1     -10.153  13.991  68.591  1.00  0.00    -0.230 OA 
HETATM   11  O   UNL     1      -8.493  13.937  67.070  1.00  0.00    -0.199 OA 
HETATM   12  C   UNL     1      -7.247   8.899  66.735  1.00  0.00    -0.082 A  
HETATM   13  C   UNL     1      -7.129   7.534  66.945  1.00  0.00    -0.084 A  
HETATM   14  C   UNL     1      -7.941   6.842  67.856  1.00  0.00    -0.114 A  
HETATM   15  F   UNL     1      -6.195   6.880  66.235  1.00  0.00    -0.038 F  
HETATM   16  F   UNL     1      -9.721   6.954  69.392  1.00  0.00    -0.155 F  
HETATM   17  C   UNL     1      -8.935   7.607  68.518  1.00  0.00    -0.129 A  
HETATM   18  C   UNL     1      -9.082   9.007  68.364  1.00  0.00    -0.133 A  
BRANCH  14  19
HETATM   19  N   UNL     1      -7.724   5.511  68.180  1.00  0.00    -0.084 NA 
HETATM   20  C   UNL     1      -6.757   5.133  69.220  1.00  0.00    -0.052 C  
HETATM   21  C   UNL     1      -7.351   3.978  70.056  1.00  0.00    -0.045 C  
HETATM   22  N   UNL     1      -7.733   2.807  69.245  1.00  0.00    -0.046 NA 
HETATM   23  C   UNL     1      -8.663   3.218  68.165  1.00  0.00    -0.105 C  
HETATM   24  H   UNL     1      -8.119   2.056  69.817  1.00  0.00     0.000 HD 
HETATM   25  C   UNL     1      -8.129   4.401  67.303  1.00  0.00    -0.101 C  
HETATM   26  C   UNL     1      -8.941   1.992  67.297  1.00  0.00    -0.166 C  
ENDBRANCH  14  19
ENDBRANCH   2   3
TORSDOF 2
ENDMDL
MODEL      134
REMARK 921   NORMALIZED FREE ENERGY PREDICTED BY IDOCK:   -3.18 KCAL/MOL
REMARK 922        TOTAL FREE ENERGY PREDICTED BY IDOCK:   -4.08 KCAL/MOL
REMARK 923 INTER-LIGAND FREE ENERGY PREDICTED BY IDOCK:   -3.58 KCAL/MOL
REMARK 924 INTRA-LIGAND FREE ENERGY PREDICTED BY IDOCK:   -0.51 KCAL/MOL
REMARK 927      BINDING AFFINITY PREDICTED BY RF-SCORE:    0.00 PKD
ROOT
HETATM    1  C   UNL     1     -11.528  11.602  67.829  1.00  0.00    -0.373 C  
HETATM    2  C   UNL     1     -10.661  11.267  69.034  1.00  0.00    -0.208 C  
ENDROOT
BRANCH   2   3
HETATM    3  N   UNL     1      -9.250  11.121  68.627  1.00  0.00    -0.178 NA 
HETATM    4  C   UNL     1      -8.506  12.254  68.315  1.00  0.00    -0.173 C  
HETATM    5  C   UNL     1      -7.254  12.288  67.840  1.00  0.00    -0.106 C  
HETATM    6  C   UNL     1      -6.611  13.589  67.570  1.00  0.00    -0.117 C  
HETATM    7  C   UNL     1      -6.602  10.989  67.615  1.00  0.00    -0.065 C  
HETATM    8  C   UNL     1      -7.354   9.755  67.944  1.00  0.00    -0.085 A  
HETATM    9  O   UNL     1      -5.456  10.946  67.173  1.00  0.00    -0.041 OA 
HETATM   10  O   UNL     1      -7.165  14.664  67.759  1.00  0.00    -0.140 OA 
HETATM   11  O   UNL     1      -5.352  13.507  67.091  1.00  0.00    -0.291 OA 
HETATM   12  C   UNL     1      -6.708   8.531  67.757  1.00  0.00    -0.066 A  
HETATM   13  C   UNL     1      -7.352   7.357  68.117  1.00  0.00    -0.100 A  
HETATM   14  C   UNL     1      -8.647   7.347  68.658  1.00  0.00    -0.129 A  
HETATM   15  F   UNL     1      -6.686   6.207  67.927  1.00  0.00    -0.053 F  
HETATM   16  F   UNL     1     -10.533   8.607  69.284  1.00  0.00    -0.208 F  
HETATM   17  C   UNL     1      -9.291   8.605  68.769  1.00  0.00    -0.142 A  
HETATM   18  C   UNL     1      -8.672   9.837  68.445  1.00  0.00    -0.120 A  
BRANCH  14  19
HETATM   19  N   UNL     1      -9.232   6.193  69.159  1.00  0.00    -0.127 NA 
HETATM   20  C   UNL     1      -9.918   5.245  68.270  1.00  0.00    -0.156 C  
HETATM   21  C   UNL     1      -9.572   3.807  68.714  1.00  0.00    -0.102 C  
HETATM   22  N   UNL     1      -9.903   3.536  70.125  1.00  0.00    -0.076 NA 
HETATM   23  C   UNL     1      -9.249   4.537  71.002  1.00  0.00    -0.140 C  
HETATM   24  H   UNL     1      -9.670   2.581  70.395  1.00  0.00     0.000 HD 
HETATM   25  C   UNL     1      -9.540   6.011  70.586  1.00  0.00    -0.173 C  
HETATM   26  C   UNL     1      -9.709   4.274  72.435  1.00  0.00    -0.207 C  
ENDBRANCH  14  19
ENDBRANCH   2   3
TORSDOF 2
ENDMDL
MODEL      135
REMARK 921   NORMALIZED FREE ENERGY PREDICTED BY IDOCK:   -3.08 KCAL/MOL
REMARK 922        TOTAL FREE ENERGY PREDICTED BY IDOCK:   -3.98 KCAL/MOL
REMARK 923 INTER-LIGAND FREE ENERGY PREDICTED BY IDOCK:   -4.58 KCAL/MOL
REMARK 924 INTRA-LIGAND FREE ENERGY PREDICTED BY IDOCK:    0.59 KCAL/MOL
REMARK 927      BINDING AFFINITY PREDICTED BY RF-SCORE:    0.00 PKD
ROOT
HETATM    1  C   UNL     1     -11.998  11.573  68.565  1.00  0.00    -0.293 C  
HETATM    2  C   UNL     1     -11.089  11.448  67.351  1.00  0.00    -0.289 C  
ENDROOT
BRANCH   2   3
HETATM    3  N   UNL     1      -9.687  11.273  67.775  1.00  0.00    -0.171 NA 
HETATM    4  C   UNL     1      -9.253  10.025  68.210  1.00  0.00    -0.129 C  
HETATM    5  C   UNL     1      -8.050   9.723  68.715  1.00  0.00    -0.102 C  
HETATM    6  C   UNL     1      -7.757   8.335  69.122  1.00  0.00    -0.097 C  
HETATM    7  C   UNL     1      -7.091  10.832  68.831  1.00  0.00    -0.082 C  
HETATM    8  C   UNL     1      -7.506  12.177  68.370  1.00  0.00    -0.114 A  
HETATM    9  O   UNL     1      -5.970  10.626  69.295  1.00  0.00    -0.040 OA 
HETATM   10  O   UNL     1      -8.565   7.421  69.022  1.00  0.00    -0.132 OA 
HETATM   11  O   UNL     1      -6.517   8.143  69.620  1.00  0.00    -0.036 OA 
HETATM   12  C   UNL     1      -6.571  13.211  68.455  1.00  0.00    -0.088 A  
HETATM   13  C   UNL     1      -6.898  14.469  67.972  1.00  0.00    -0.145 A  
HETATM   14  C   UNL     1      -8.148  14.752  67.402  1.00  0.00    -0.198 A  
HETATM   15  F   UNL     1      -5.962  15.426  68.067  1.00  0.00    -0.102 F  
HETATM   16  F   UNL     1     -10.293  13.953  66.854  1.00  0.00    -0.256 F  
HETATM   17  C   UNL     1      -9.090  13.692  67.396  1.00  0.00    -0.222 A  
HETATM   18  C   UNL     1      -8.803  12.382  67.848  1.00  0.00    -0.180 A  
BRANCH  14  19
HETATM   19  N   UNL     1      -8.423  15.961  66.781  1.00  0.00    -0.235 NA 
HETATM   20  C   UNL     1      -9.436  16.055  65.720  1.00  0.00    -0.247 C  
HETATM   21  C   UNL     1     -10.239  17.360  65.913  1.00  0.00    -0.256 C  
HETATM   22  N   UNL     1      -9.394  18.568  65.937  1.00  0.00    -0.445 NA 
HETATM   23  C   UNL     1      -8.341  18.430  66.973  1.00  0.00    -0.252 C  
HETATM   24  H   UNL     1      -9.944  19.417  66.061  1.00  0.00     0.000 HD 
HETATM   25  C   UNL     1      -7.513  17.116  66.847  1.00  0.00    -0.204 C  
HETATM   26  C   UNL     1      -7.434  19.657  66.883  1.00  0.00    -0.258 C  
ENDBRANCH  14  19
ENDBRANCH   2   3
TORSDOF 2
ENDMDL
MODEL      136
REMARK 921   NORMALIZED FREE ENERGY PREDICTED BY IDOCK:   -2.92 KCAL/MOL
REMARK 922        TOTAL FREE ENERGY PREDICTED BY IDOCK:   -3.80 KCAL/MOL
REMARK 923 INTER-LIGAND FREE ENERGY PREDICTED BY IDOCK:   -4.43 KCAL/MOL
REMARK 924 INTRA-LIGAND FREE ENERGY PREDICTED BY IDOCK:    0.63 KCAL/MOL
REMARK 927      BINDING AFFINITY PREDICTED BY RF-SCORE:    0.00 PKD
ROOT
HETATM    1  C   UNL     1      -9.196  10.121  70.075  1.00  0.00    -0.042 C  
HETATM    2  C   UNL     1     -10.484  10.094  69.264  1.00  0.00    -0.225 C  
ENDROOT
BRANCH   2   3
HETATM    3  N   UNL     1     -10.262  10.676  67.926  1.00  0.00    -0.171 NA 
HETATM    4  C   UNL     1     -10.649  11.988  67.677  1.00  0.00    -0.210 C  
HETATM    5  C   UNL     1     -10.608  12.629  66.502  1.00  0.00    -0.272 C  
HETATM    6  C   UNL     1     -11.055  14.033  66.421  1.00  0.00    -0.316 C  
HETATM    7  C   UNL     1     -10.109  11.859  65.352  1.00  0.00    -0.253 C  
HETATM    8  C   UNL     1      -9.675  10.460  65.574  1.00  0.00    -0.307 A  
HETATM    9  O   UNL     1     -10.052  12.384  64.241  1.00  0.00    -0.315 OA 
HETATM   10  O   UNL     1     -11.470  14.663  67.385  1.00  0.00    -0.341 OA 
HETATM   11  O   UNL     1     -10.974  14.580  65.189  1.00  0.00    -0.334 OA 
HETATM   12  C   UNL     1      -9.171   9.755  64.478  1.00  0.00    -0.310 A  
HETATM   13  C   UNL     1      -8.692   8.466  64.658  1.00  0.00     0.064 A  
HETATM   14  C   UNL     1      -8.701   7.830  65.908  1.00  0.00    -0.149 A  
HETATM   15  F   UNL     1      -8.209   7.833  63.577  1.00  0.00    -0.142 F  
HETATM   16  F   UNL     1      -9.296   7.956  68.182  1.00  0.00    -0.141 F  
HETATM   17  C   UNL     1      -9.281   8.556  66.979  1.00  0.00    -0.152 A  
HETATM   18  C   UNL     1      -9.759   9.884  66.860  1.00  0.00    -0.186 A  
BRANCH  14  19
HETATM   19  N   UNL     1      -8.084   6.606  66.121  1.00  0.00    -0.113 NA 
HETATM   20  C   UNL     1      -7.263   6.369  67.316  1.00  0.00    -0.078 C  
HETATM   21  C   UNL     1      -7.548   4.946  67.843  1.00  0.00    -0.083 C  
HETATM   22  N   UNL     1      -7.320   3.894  66.835  1.00  0.00    -0.071 NA 
HETATM   23  C   UNL     1      -8.112   4.180  65.614  1.00  0.00    -0.101 C  
HETATM   24  H   UNL     1      -7.510   2.963  67.205  1.00  0.00     0.000 HD 
HETATM   25  C   UNL     1      -7.887   5.616  65.050  1.00  0.00    -0.101 C  
HETATM   26  C   UNL     1      -7.759   3.123  64.570  1.00  0.00    -0.077 C  
ENDBRANCH  14  19
ENDBRANCH   2   3
TORSDOF 2
ENDMDL
MODEL      137
REMARK 921   NORMALIZED FREE ENERGY PREDICTED BY IDOCK:   -2.56 KCAL/MOL
REMARK 922        TOTAL FREE ENERGY PREDICTED BY IDOCK:   -3.40 KCAL/MOL
REMARK 923 INTER-LIGAND FREE ENERGY PREDICTED BY IDOCK:   -2.83 KCAL/MOL
REMARK 924 INTRA-LIGAND FREE ENERGY PREDICTED BY IDOCK:   -0.57 KCAL/MOL
REMARK 927      BINDING AFFINITY PREDICTED BY RF-SCORE:    0.00 PKD
ROOT
HETATM    1  C   UNL     1      -7.400   3.011  70.554  1.00  0.00    -0.037 C  
HETATM    2  C   UNL     1      -8.673   3.790  70.253  1.00  0.00    -0.076 C  
ENDROOT
BRANCH   2   3
HETATM    3  N   UNL     1      -8.461   5.231  70.485  1.00  0.00    -0.117 NA 
HETATM    4  C   UNL     1      -8.551   5.738  71.777  1.00  0.00    -0.131 C  
HETATM    5  C   UNL     1      -8.483   7.025  72.142  1.00  0.00    -0.116 C  
HETATM    6  C   UNL     1      -8.592   7.385  73.569  1.00  0.00    -0.161 C  
HETATM    7  C   UNL     1      -8.303   8.005  71.061  1.00  0.00    -0.116 C  
HETATM    8  C   UNL     1      -8.191   7.509  69.669  1.00  0.00    -0.129 A  
HETATM    9  O   UNL     1      -8.240   9.205  71.324  1.00  0.00    -0.290 OA 
HETATM   10  O   UNL     1      -8.744   6.560  74.461  1.00  0.00    -0.139 OA 
HETATM   11  O   UNL     1      -8.513   8.709  73.825  1.00  0.00    -0.333 OA 
HETATM   12  C   UNL     1      -7.985   8.450  68.658  1.00  0.00    -0.121 A  
HETATM   13  C   UNL     1      -7.808   8.021  67.351  1.00  0.00    -0.117 A  
HETATM   14  C   UNL     1      -7.836   6.664  66.997  1.00  0.00    -0.108 A  
HETATM   15  F   UNL     1      -7.604   8.963  66.417  1.00  0.00    -0.087 F  
HETATM   16  F   UNL     1      -8.144   4.444  67.715  1.00  0.00    -0.092 F  
HETATM   17  C   UNL     1      -8.113   5.747  68.043  1.00  0.00    -0.104 A  
HETATM   18  C   UNL     1      -8.273   6.125  69.398  1.00  0.00    -0.113 A  
BRANCH  14  19
HETATM   19  N   UNL     1      -7.507   6.223  65.724  1.00  0.00    -0.080 NA 
HETATM   20  C   UNL     1      -6.152   6.410  65.184  1.00  0.00    -0.030 C  
HETATM   21  C   UNL     1      -5.745   5.136  64.412  1.00  0.00    -0.017 C  
HETATM   22  N   UNL     1      -6.690   4.776  63.339  1.00  0.00    -0.037 NA 
HETATM   23  C   UNL     1      -8.061   4.650  63.891  1.00  0.00    -0.101 C  
HETATM   24  H   UNL     1      -6.400   3.936  62.840  1.00  0.00     0.000 HD 
HETATM   25  C   UNL     1      -8.519   5.897  64.707  1.00  0.00    -0.054 C  
HETATM   26  C   UNL     1      -9.011   4.382  62.726  1.00  0.00    -0.123 C  
ENDBRANCH  14  19
ENDBRANCH   2   3
TORSDOF 2
ENDMDL
MODEL      138
REMARK 921   NORMALIZED FREE ENERGY PREDICTED BY IDOCK:   -2.26 KCAL/MOL
REMARK 922        TOTAL FREE ENERGY PREDICTED BY IDOCK:   -3.07 KCAL/MOL
REMARK 923 INTER-LIGAND FREE ENERGY PREDICTED BY IDOCK:   -4.00 KCAL/MOL
REMARK 924 INTRA-LIGAND FREE ENERGY PREDICTED BY IDOCK:    0.93 KCAL/MOL
REMARK 927      BINDING AFFINITY PREDICTED BY RF-SCORE:    0.00 PKD
ROOT
HETATM    1  C   UNL     1     -11.151   9.204  68.004  1.00  0.00     0.110 C  
HETATM    2  C   UNL     1     -10.290   9.684  66.845  1.00  0.00    -0.238 C  
ENDROOT
BRANCH   2   3
HETATM    3  N   UNL     1     -10.100  11.146  66.916  1.00  0.00    -0.208 NA 
HETATM    4  C   UNL     1     -10.916  11.981  66.160  1.00  0.00    -0.302 C  
HETATM    5  C   UNL     1     -10.813  13.310  66.037  1.00  0.00    -0.284 C  
HETATM    6  C   UNL     1     -11.776  14.042  65.192  1.00  0.00    -0.350 C  
HETATM    7  C   UNL     1      -9.714  13.953  66.773  1.00  0.00    -0.279 C  
HETATM    8  C   UNL     1      -8.826  13.104  67.600  1.00  0.00    -0.191 A  
HETATM    9  O   UNL     1      -9.555  15.171  66.699  1.00  0.00    -0.228 OA 
HETATM   10  O   UNL     1     -12.686  13.495  64.583  1.00  0.00    -0.641 OA 
HETATM   11  O   UNL     1     -11.578  15.376  65.137  1.00  0.00    -0.252 OA 
HETATM   12  C   UNL     1      -7.808  13.734  68.320  1.00  0.00    -0.144 A  
HETATM   13  C   UNL     1      -6.999  12.984  69.159  1.00  0.00    -0.020 A  
HETATM   14  C   UNL     1      -7.155  11.598  69.309  1.00  0.00    -0.055 A  
HETATM   15  F   UNL     1      -6.042  13.637  69.837  1.00  0.00    -0.109 F  
HETATM   16  F   UNL     1      -8.313   9.659  68.645  1.00  0.00    -0.106 F  
HETATM   17  C   UNL     1      -8.155  10.988  68.511  1.00  0.00    -0.140 A  
HETATM   18  C   UNL     1      -9.029  11.707  67.660  1.00  0.00    -0.166 A  
BRANCH  14  19
HETATM   19  N   UNL     1      -6.451  10.871  70.259  1.00  0.00    -0.235 NA 
HETATM   20  C   UNL     1      -5.185  11.373  70.810  1.00  0.00    -0.123 C  
HETATM   21  C   UNL     1      -5.149  11.077  72.325  1.00  0.00     0.200 C  
HETATM   22  N   UNL     1      -5.329   9.649  72.645  1.00  0.00    -0.228 NA 
HETATM   23  C   UNL     1      -6.582   9.145  72.031  1.00  0.00     0.136 C  
HETATM   24  H   UNL     1      -5.298   9.475  73.649  1.00  0.00     0.000 HD 
HETATM   25  C   UNL     1      -6.689   9.440  70.504  1.00  0.00    -0.087 C  
HETATM   26  C   UNL     1      -6.665   7.644  72.303  1.00  0.00    -0.057 C  
ENDBRANCH  14  19
ENDBRANCH   2   3
TORSDOF 2
ENDMDL
MODEL      139
REMARK 921   NORMALIZED FREE ENERGY PREDICTED BY IDOCK:   -2.21 KCAL/MOL
REMARK 922        TOTAL FREE ENERGY PREDICTED BY IDOCK:   -3.00 KCAL/MOL
REMARK 923 INTER-LIGAND FREE ENERGY PREDICTED BY IDOCK:   -3.28 KCAL/MOL
REMARK 924 INTRA-LIGAND FREE ENERGY PREDICTED BY IDOCK:    0.27 KCAL/MOL
REMARK 927      BINDING AFFINITY PREDICTED BY RF-SCORE:    0.00 PKD
ROOT
HETATM    1  C   UNL     1      -5.546  10.288  68.139  1.00  0.00    -0.037 C  
HETATM    2  C   UNL     1      -6.237   8.940  67.990  1.00  0.00    -0.051 C  
ENDROOT
BRANCH   2   3
HETATM    3  N   UNL     1      -7.703   9.108  68.009  1.00  0.00    -0.092 NA 
HETATM    4  C   UNL     1      -8.289  10.093  67.221  1.00  0.00    -0.121 C  
HETATM    5  C   UNL     1      -9.583  10.438  67.196  1.00  0.00    -0.192 C  
HETATM    6  C   UNL     1     -10.036  11.508  66.286  1.00  0.00    -0.220 C  
HETATM    7  C   UNL     1     -10.475   9.704  68.106  1.00  0.00    -0.222 C  
HETATM    8  C   UNL     1      -9.895   8.639  68.957  1.00  0.00    -0.184 A  
HETATM    9  O   UNL     1     -11.674   9.975  68.141  1.00  0.00    -0.096 OA 
HETATM   10  O   UNL     1      -9.283  12.113  65.534  1.00  0.00    -0.067 OA 
HETATM   11  O   UNL     1     -11.358  11.776  66.345  1.00  0.00    -0.329 OA 
HETATM   12  C   UNL     1     -10.761   7.928  69.791  1.00  0.00    -0.233 A  
HETATM   13  C   UNL     1     -10.269   6.879  70.552  1.00  0.00    -0.192 A  
HETATM   14  C   UNL     1      -8.918   6.503  70.527  1.00  0.00    -0.152 A  
HETATM   15  F   UNL     1     -11.143   6.220  71.329  1.00  0.00    -0.286 F  
HETATM   16  F   UNL     1      -6.763   6.942  69.688  1.00  0.00    -0.043 F  
HETATM   17  C   UNL     1      -8.061   7.292  69.719  1.00  0.00    -0.128 A  
HETATM   18  C   UNL     1      -8.512   8.355  68.899  1.00  0.00    -0.124 A  
BRANCH  14  19
HETATM   19  N   UNL     1      -8.454   5.363  71.166  1.00  0.00    -0.123 NA 
HETATM   20  C   UNL     1      -8.856   5.051  72.545  1.00  0.00    -0.123 C  
HETATM   21  C   UNL     1      -9.119   3.533  72.655  1.00  0.00    -0.099 C  
HETATM   22  N   UNL     1      -7.966   2.709  72.248  1.00  0.00    -0.054 NA 
HETATM   23  C   UNL     1      -7.538   3.078  70.876  1.00  0.00    -0.036 C  
HETATM   24  H   UNL     1      -8.161   1.712  72.332  1.00  0.00     0.000 HD 
HETATM   25  C   UNL     1      -7.283   4.605  70.695  1.00  0.00    -0.048 C  
HETATM   26  C   UNL     1      -6.282   2.273  70.547  1.00  0.00    -0.023 C  
ENDBRANCH  14  19
ENDBRANCH   2   3
TORSDOF 2
ENDMDL
MODEL      140
REMARK 921   NORMALIZED FREE ENERGY PREDICTED BY IDOCK:   -2.16 KCAL/MOL
REMARK 922        TOTAL FREE ENERGY PREDICTED BY IDOCK:   -2.95 KCAL/MOL
REMARK 923 INTER-LIGAND FREE ENERGY PREDICTED BY IDOCK:   -2.65 KCAL/MOL
REMARK 924 INTRA-LIGAND FREE ENERGY PREDICTED BY IDOCK:   -0.30 KCAL/MOL
REMARK 927      BINDING AFFINITY PREDICTED BY RF-SCORE:    0.00 PKD
ROOT
HETATM    1  C   UNL     1      -7.589   3.221  66.419  1.00  0.00    -0.077 C  
HETATM    2  C   UNL     1      -7.814   4.704  66.677  1.00  0.00    -0.099 C  
ENDROOT
BRANCH   2   3
HETATM    3  N   UNL     1      -7.567   5.023  68.096  1.00  0.00    -0.079 NA 
HETATM    4  C   UNL     1      -7.115   4.026  68.954  1.00  0.00    -0.050 C  
HETATM    5  C   UNL     1      -6.937   4.124  70.278  1.00  0.00    -0.038 C  
HETATM    6  C   UNL     1      -6.440   2.959  71.036  1.00  0.00    -0.023 C  
HETATM    7  C   UNL     1      -7.265   5.421  70.889  1.00  0.00    -0.073 C  
HETATM    8  C   UNL     1      -7.740   6.515  70.011  1.00  0.00    -0.102 A  
HETATM    9  O   UNL     1      -7.132   5.578  72.102  1.00  0.00    -0.081 OA 
HETATM   10  O   UNL     1      -6.173   1.884  70.516  1.00  0.00    -0.022 OA 
HETATM   11  O   UNL     1      -6.301   3.168  72.362  1.00  0.00    -0.013 OA 
HETATM   12  C   UNL     1      -8.014   7.751  70.603  1.00  0.00    -0.098 A  
HETATM   13  C   UNL     1      -8.396   8.820  69.806  1.00  0.00    -0.127 A  
HETATM   14  C   UNL     1      -8.530   8.708  68.414  1.00  0.00    -0.131 A  
HETATM   15  F   UNL     1      -8.637   9.989  70.420  1.00  0.00    -0.209 F  
HETATM   16  F   UNL     1      -8.435   7.301  66.530  1.00  0.00    -0.108 F  
HETATM   17  C   UNL     1      -8.308   7.421  67.863  1.00  0.00    -0.119 A  
HETATM   18  C   UNL     1      -7.888   6.302  68.623  1.00  0.00    -0.102 A  
BRANCH  14  19
HETATM   19  N   UNL     1      -8.761   9.808  67.601  1.00  0.00    -0.125 NA 
HETATM   20  C   UNL     1      -7.964  11.034  67.743  1.00  0.00    -0.115 C  
HETATM   21  C   UNL     1      -7.647  11.587  66.336  1.00  0.00     0.027 C  
HETATM   22  N   UNL     1      -8.851  11.837  65.522  1.00  0.00    -0.401 NA 
HETATM   23  C   UNL     1      -9.673  10.604  65.439  1.00  0.00    -0.252 C  
HETATM   24  H   UNL     1      -8.620  12.205  64.600  1.00  0.00     0.000 HD 
HETATM   25  C   UNL     1     -10.002   9.982  66.830  1.00  0.00    -0.209 C  
HETATM   26  C   UNL     1     -10.952  10.946  64.678  1.00  0.00    -0.027 C  
ENDBRANCH  14  19
ENDBRANCH   2   3
TORSDOF 2
ENDMDL
MODEL      141
REMARK 921   NORMALIZED FREE ENERGY PREDICTED BY IDOCK:   -2.00 KCAL/MOL
REMARK 922        TOTAL FREE ENERGY PREDICTED BY IDOCK:   -2.77 KCAL/MOL
REMARK 923 INTER-LIGAND FREE ENERGY PREDICTED BY IDOCK:   -3.00 KCAL/MOL
REMARK 924 INTRA-LIGAND FREE ENERGY PREDICTED BY IDOCK:    0.23 KCAL/MOL
REMARK 927      BINDING AFFINITY PREDICTED BY RF-SCORE:    0.00 PKD
ROOT
HETATM    1  C   UNL     1     -13.236   8.901  70.197  1.00  0.00     1.625 C  
HETATM    2  C   UNL     1     -12.842  10.266  70.744  1.00  0.00    -0.344 C  
ENDROOT
BRANCH   2   3
HETATM    3  N   UNL     1     -11.676  10.797  70.013  1.00  0.00    -0.305 NA 
HETATM    4  C   UNL     1     -11.829  11.910  69.194  1.00  0.00    -0.311 C  
HETATM    5  C   UNL     1     -10.902  12.454  68.394  1.00  0.00    -0.263 C  
HETATM    6  C   UNL     1     -11.238  13.648  67.595  1.00  0.00    -0.279 C  
HETATM    7  C   UNL     1      -9.587  11.795  68.372  1.00  0.00    -0.191 C  
HETATM    8  C   UNL     1      -9.376  10.610  69.236  1.00  0.00    -0.136 A  
HETATM    9  O   UNL     1      -8.692  12.236  67.653  1.00  0.00    -0.158 OA 
HETATM   10  O   UNL     1     -12.336  14.186  67.620  1.00  0.00    -0.273 OA 
HETATM   11  O   UNL     1     -10.232  14.110  66.822  1.00  0.00    -0.256 OA 
HETATM   12  C   UNL     1      -8.111  10.018  69.230  1.00  0.00    -0.141 A  
HETATM   13  C   UNL     1      -7.853   8.949  70.075  1.00  0.00    -0.095 A  
HETATM   14  C   UNL     1      -8.825   8.426  70.941  1.00  0.00    -0.159 A  
HETATM   15  F   UNL     1      -6.619   8.421  70.039  1.00  0.00    -0.037 F  
HETATM   16  F   UNL     1     -11.053   8.519  71.692  1.00  0.00    -0.279 F  
HETATM   17  C   UNL     1     -10.113   9.013  70.868  1.00  0.00    -0.262 A  
HETATM   18  C   UNL     1     -10.426  10.124  70.046  1.00  0.00    -0.274 A  
BRANCH  14  19
HETATM   19  N   UNL     1      -8.527   7.462  71.893  1.00  0.00    -0.106 NA 
HETATM   20  C   UNL     1      -8.230   7.838  73.282  1.00  0.00    -0.158 C  
HETATM   21  C   UNL     1      -8.906   6.821  74.228  1.00  0.00    -0.172 C  
HETATM   22  N   UNL     1      -8.507   5.426  73.967  1.00  0.00    -0.112 NA 
HETATM   23  C   UNL     1      -8.761   5.083  72.545  1.00  0.00    -0.120 C  
HETATM   24  H   UNL     1      -8.962   4.773  74.604  1.00  0.00     0.000 HD 
HETATM   25  C   UNL     1      -8.125   6.091  71.541  1.00  0.00    -0.114 C  
HETATM   26  C   UNL     1      -8.235   3.669  72.305  1.00  0.00    -0.083 C  
ENDBRANCH  14  19
ENDBRANCH   2   3
TORSDOF 2
ENDMDL
MODEL      142
REMARK 921   NORMALIZED FREE ENERGY PREDICTED BY IDOCK:   -1.85 KCAL/MOL
REMARK 922        TOTAL FREE ENERGY PREDICTED BY IDOCK:   -2.60 KCAL/MOL
REMARK 923 INTER-LIGAND FREE ENERGY PREDICTED BY IDOCK:   -2.95 KCAL/MOL
REMARK 924 INTRA-LIGAND FREE ENERGY PREDICTED BY IDOCK:    0.35 KCAL/MOL
REMARK 927      BINDING AFFINITY PREDICTED BY RF-SCORE:    0.00 PKD
ROOT
HETATM    1  C   UNL     1      -5.557  10.285  68.109  1.00  0.00    -0.037 C  
HETATM    2  C   UNL     1      -6.193   8.939  67.793  1.00  0.00    -0.055 C  
ENDROOT
BRANCH   2   3
HETATM    3  N   UNL     1      -7.634   9.103  67.519  1.00  0.00    -0.088 NA 
HETATM    4  C   UNL     1      -8.215  10.361  67.638  1.00  0.00    -0.110 C  
HETATM    5  C   UNL     1      -9.515  10.660  67.520  1.00  0.00    -0.169 C  
HETATM    6  C   UNL     1      -9.959  12.060  67.672  1.00  0.00    -0.191 C  
HETATM    7  C   UNL     1     -10.425   9.537  67.246  1.00  0.00    -0.262 C  
HETATM    8  C   UNL     1      -9.847   8.180  67.101  1.00  0.00    -0.281 A  
HETATM    9  O   UNL     1     -11.633   9.739  67.135  1.00  0.00     0.438 OA 
HETATM   10  O   UNL     1      -9.193  12.986  67.902  1.00  0.00    -0.192 OA 
HETATM   11  O   UNL     1     -11.289  12.247  67.537  1.00  0.00    -0.283 OA 
HETATM   12  C   UNL     1     -10.720   7.130  66.806  1.00  0.00    -0.259 A  
HETATM   13  C   UNL     1     -10.211   5.858  66.595  1.00  0.00    -0.205 A  
HETATM   14  C   UNL     1      -8.839   5.576  66.676  1.00  0.00    -0.117 A  
HETATM   15  F   UNL     1     -11.089   4.885  66.305  1.00  0.00    -0.290 F  
HETATM   16  F   UNL     1      -6.680   6.396  67.125  1.00  0.00    -0.051 F  
HETATM   17  C   UNL     1      -7.996   6.655  67.043  1.00  0.00    -0.109 A  
HETATM   18  C   UNL     1      -8.456   7.979  67.241  1.00  0.00    -0.125 A  
BRANCH  14  19
HETATM   19  N   UNL     1      -8.314   4.343  66.316  1.00  0.00    -0.112 NA 
HETATM   20  C   UNL     1      -8.958   3.093  66.741  1.00  0.00    -0.158 C  
HETATM   21  C   UNL     1      -8.919   2.089  65.568  1.00  0.00    -0.116 C  
HETATM   22  N   UNL     1      -7.557   1.831  65.065  1.00  0.00    -0.062 NA 
HETATM   23  C   UNL     1      -6.902   3.110  64.696  1.00  0.00    -0.041 C  
HETATM   24  H   UNL     1      -7.555   1.164  64.294  1.00  0.00     0.000 HD 
HETATM   25  C   UNL     1      -6.934   4.175  65.833  1.00  0.00    -0.066 C  
HETATM   26  C   UNL     1      -5.465   2.796  64.283  1.00  0.00    -0.009 C  
ENDBRANCH  14  19
ENDBRANCH   2   3
TORSDOF 2
ENDMDL
MODEL      143
REMARK 921   NORMALIZED FREE ENERGY PREDICTED BY IDOCK:   -0.97 KCAL/MOL
REMARK 922        TOTAL FREE ENERGY PREDICTED BY IDOCK:   -1.62 KCAL/MOL
REMARK 923 INTER-LIGAND FREE ENERGY PREDICTED BY IDOCK:   -2.15 KCAL/MOL
REMARK 924 INTRA-LIGAND FREE ENERGY PREDICTED BY IDOCK:    0.53 KCAL/MOL
REMARK 927      BINDING AFFINITY PREDICTED BY RF-SCORE:    0.00 PKD
ROOT
HETATM    1  C   UNL     1      -9.513   5.271  65.972  1.00  0.00    -0.169 C  
HETATM    2  C   UNL     1      -9.206   6.384  66.963  1.00  0.00    -0.129 C  
ENDROOT
BRANCH   2   3
HETATM    3  N   UNL     1      -8.955   5.823  68.305  1.00  0.00    -0.115 NA 
HETATM    4  C   UNL     1      -9.237   4.484  68.551  1.00  0.00    -0.133 C  
HETATM    5  C   UNL     1      -9.159   3.849  69.728  1.00  0.00    -0.188 C  
HETATM    6  C   UNL     1      -9.491   2.414  69.807  1.00  0.00    -0.051 C  
HETATM    7  C   UNL     1      -8.741   4.659  70.883  1.00  0.00    -0.110 C  
HETATM    8  C   UNL     1      -8.421   6.088  70.665  1.00  0.00    -0.133 A  
HETATM    9  O   UNL     1      -8.656   4.141  71.996  1.00  0.00    -0.102 OA 
HETATM   10  O   UNL     1      -9.840   1.751  68.838  1.00  0.00    -0.038 OA 
HETATM   11  O   UNL     1      -9.381   1.876  71.040  1.00  0.00    -0.102 OA 
HETATM   12  C   UNL     1      -7.991   6.834  71.765  1.00  0.00    -0.101 A  
HETATM   13  C   UNL     1      -7.617   8.158  71.589  1.00  0.00    -0.087 A  
HETATM   14  C   UNL     1      -7.661   8.790  70.338  1.00  0.00    -0.082 A  
HETATM   15  F   UNL     1      -7.202   8.829  72.675  1.00  0.00    -0.116 F  
HETATM   16  F   UNL     1      -8.213   8.613  68.057  1.00  0.00    -0.110 F  
HETATM   17  C   UNL     1      -8.165   8.017  69.261  1.00  0.00    -0.127 A  
HETATM   18  C   UNL     1      -8.534   6.655  69.376  1.00  0.00    -0.131 A  
BRANCH  14  19
HETATM   19  N   UNL     1      -7.144  10.060  70.131  1.00  0.00    -0.142 NA 
HETATM   20  C   UNL     1      -6.310  10.713  71.149  1.00  0.00     0.486 C  
HETATM   21  C   UNL     1      -5.148  11.448  70.445  1.00  0.00    -0.089 C  
HETATM   22  N   UNL     1      -5.600  12.423  69.435  1.00  0.00    -0.074 NA 
HETATM   23  C   UNL     1      -6.488  11.758  68.450  1.00  0.00    -0.053 C  
HETATM   24  H   UNL     1      -4.818  12.898  68.986  1.00  0.00     0.000 HD 
HETATM   25  C   UNL     1      -7.667  10.976  69.104  1.00  0.00    -0.102 C  
HETATM   26  C   UNL     1      -7.009  12.830  67.494  1.00  0.00    -0.149 C  
ENDBRANCH  14  19
ENDBRANCH   2   3
TORSDOF 2
ENDMDL
MODEL      144
REMARK 921   NORMALIZED FREE ENERGY PREDICTED BY IDOCK:   -0.79 KCAL/MOL
REMARK 922        TOTAL FREE ENERGY PREDICTED BY IDOCK:   -1.41 KCAL/MOL
REMARK 923 INTER-LIGAND FREE ENERGY PREDICTED BY IDOCK:   -2.04 KCAL/MOL
REMARK 924 INTRA-LIGAND FREE ENERGY PREDICTED BY IDOCK:    0.63 KCAL/MOL
REMARK 927      BINDING AFFINITY PREDICTED BY RF-SCORE:    0.00 PKD
ROOT
HETATM    1  C   UNL     1      -9.517   5.259  65.966  1.00  0.00    -0.169 C  
HETATM    2  C   UNL     1      -9.090   6.578  66.595  1.00  0.00    -0.147 C  
ENDROOT
BRANCH   2   3
HETATM    3  N   UNL     1      -8.316   6.333  67.827  1.00  0.00    -0.117 NA 
HETATM    4  C   UNL     1      -8.167   5.033  68.296  1.00  0.00    -0.089 C  
HETATM    5  C   UNL     1      -7.583   4.652  69.440  1.00  0.00    -0.055 C  
HETATM    6  C   UNL     1      -7.507   3.218  69.779  1.00  0.00    -0.044 C  
HETATM    7  C   UNL     1      -7.052   5.726  70.294  1.00  0.00    -0.070 C  
HETATM    8  C   UNL     1      -7.180   7.126  69.828  1.00  0.00    -0.079 A  
HETATM    9  O   UNL     1      -6.511   5.448  71.362  1.00  0.00    -0.033 OA 
HETATM   10  O   UNL     1      -7.954   2.334  69.061  1.00  0.00    -0.048 OA 
HETATM   11  O   UNL     1      -6.901   2.948  70.955  1.00  0.00    -0.031 OA 
HETATM   12  C   UNL     1      -6.639   8.131  70.634  1.00  0.00    -0.037 A  
HETATM   13  C   UNL     1      -6.678   9.448  70.202  1.00  0.00    -0.066 A  
HETATM   14  C   UNL     1      -7.252   9.819  68.977  1.00  0.00    -0.076 A  
HETATM   15  F   UNL     1      -6.137  10.376  71.008  1.00  0.00    -0.098 F  
HETATM   16  F   UNL     1      -8.403   9.122  67.046  1.00  0.00    -0.114 F  
HETATM   17  C   UNL     1      -7.848   8.778  68.221  1.00  0.00    -0.101 A  
HETATM   18  C   UNL     1      -7.813   7.414  68.599  1.00  0.00    -0.122 A  
BRANCH  14  19
HETATM   19  N   UNL     1      -7.156  11.108  68.474  1.00  0.00    -0.074 NA 
HETATM   20  C   UNL     1      -7.148  11.356  67.025  1.00  0.00    -0.138 C  
HETATM   21  C   UNL     1      -8.004  12.608  66.730  1.00  0.00     0.126 C  
HETATM   22  N   UNL     1      -7.561  13.805  67.468  1.00  0.00    -0.190 NA 
HETATM   23  C   UNL     1      -7.518  13.518  68.923  1.00  0.00    -0.017 C  
HETATM   24  H   UNL     1      -8.136  14.620  67.256  1.00  0.00     0.000 HD 
HETATM   25  C   UNL     1      -6.690  12.247  69.282  1.00  0.00    -0.075 C  
HETATM   26  C   UNL     1      -6.955  14.751  69.627  1.00  0.00    -0.172 C  
ENDBRANCH  14  19
ENDBRANCH   2   3
TORSDOF 2
ENDMDL
MODEL      145
REMARK 921   NORMALIZED FREE ENERGY PREDICTED BY IDOCK:   -0.70 KCAL/MOL
REMARK 922        TOTAL FREE ENERGY PREDICTED BY IDOCK:   -1.31 KCAL/MOL
REMARK 923 INTER-LIGAND FREE ENERGY PREDICTED BY IDOCK:   -0.72 KCAL/MOL
REMARK 924 INTRA-LIGAND FREE ENERGY PREDICTED BY IDOCK:   -0.59 KCAL/MOL
REMARK 927      BINDING AFFINITY PREDICTED BY RF-SCORE:    0.00 PKD
ROOT
HETATM    1  C   UNL     1      -6.400  11.978  67.901  1.00  0.00    -0.073 C  
HETATM    2  C   UNL     1      -7.320  10.886  67.374  1.00  0.00    -0.099 C  
ENDROOT
BRANCH   2   3
HETATM    3  N   UNL     1      -8.549  10.812  68.187  1.00  0.00    -0.125 NA 
HETATM    4  C   UNL     1      -9.076  11.974  68.739  1.00  0.00     0.083 C  
HETATM    5  C   UNL     1     -10.120  12.066  69.574  1.00  0.00     0.723 C  
HETATM    6  C   UNL     1     -10.550  13.391  70.060  1.00  0.00     1.091 C  
HETATM    7  C   UNL     1     -10.769  10.802  69.954  1.00  0.00    -0.144 C  
HETATM    8  C   UNL     1     -10.246   9.540  69.381  1.00  0.00    -0.215 A  
HETATM    9  O   UNL     1     -11.728  10.813  70.724  1.00  0.00    -0.328 OA 
HETATM   10  O   UNL     1     -10.001  14.436  69.738  1.00  0.00     0.200 OA 
HETATM   11  O   UNL     1     -11.609  13.368  70.898  1.00  0.00     0.133 OA 
HETATM   12  C   UNL     1     -10.896   8.352  69.724  1.00  0.00    -0.184 A  
HETATM   13  C   UNL     1     -10.481   7.157  69.156  1.00  0.00    -0.211 A  
HETATM   14  C   UNL     1      -9.415   7.090  68.246  1.00  0.00    -0.128 A  
HETATM   15  F   UNL     1     -11.143   6.045  69.510  1.00  0.00    -0.358 F  
HETATM   16  F   UNL     1      -7.717   8.255  67.107  1.00  0.00    -0.091 F  
HETATM   17  C   UNL     1      -8.741   8.308  67.976  1.00  0.00    -0.135 A  
HETATM   18  C   UNL     1      -9.139   9.560  68.504  1.00  0.00    -0.131 A  
BRANCH  14  19
HETATM   19  N   UNL     1      -9.098   5.926  67.562  1.00  0.00    -0.107 NA 
HETATM   20  C   UNL     1      -9.847   5.524  66.363  1.00  0.00    -0.167 C  
HETATM   21  C   UNL     1      -8.855   4.966  65.320  1.00  0.00    -0.152 C  
HETATM   22  N   UNL     1      -8.042   3.846  65.828  1.00  0.00    -0.097 NA 
HETATM   23  C   UNL     1      -7.339   4.251  67.070  1.00  0.00    -0.073 C  
HETATM   24  H   UNL     1      -7.397   3.490  65.123  1.00  0.00     0.000 HD 
HETATM   25  C   UNL     1      -8.287   4.850  68.153  1.00  0.00    -0.099 C  
HETATM   26  C   UNL     1      -6.599   3.028  67.609  1.00  0.00    -0.037 C  
ENDBRANCH  14  19
ENDBRANCH   2   3
TORSDOF 2
ENDMDL
MODEL      146
REMARK 921   NORMALIZED FREE ENERGY PREDICTED BY IDOCK:    1.52 KCAL/MOL
REMARK 922        TOTAL FREE ENERGY PREDICTED BY IDOCK:    1.16 KCAL/MOL
REMARK 923 INTER-LIGAND FREE ENERGY PREDICTED BY IDOCK:    1.70 KCAL/MOL
REMARK 924 INTRA-LIGAND FREE ENERGY PREDICTED BY IDOCK:   -0.55 KCAL/MOL
REMARK 927      BINDING AFFINITY PREDICTED BY RF-SCORE:    0.00 PKD
ROOT
HETATM    1  C   UNL     1     -11.958   9.497  67.021  1.00  0.00     4.372 C  
HETATM    2  C   UNL     1     -10.853   9.969  66.087  1.00  0.00     0.221 C  
ENDROOT
BRANCH   2   3
HETATM    3  N   UNL     1     -10.046  11.021  66.735  1.00  0.00    -0.213 NA 
HETATM    4  C   UNL     1     -10.447  12.349  66.637  1.00  0.00    -0.229 C  
HETATM    5  C   UNL     1      -9.782  13.424  67.081  1.00  0.00    -0.237 C  
HETATM    6  C   UNL     1     -10.362  14.769  66.897  1.00  0.00    -0.267 C  
HETATM    7  C   UNL     1      -8.486  13.172  67.730  1.00  0.00    -0.185 C  
HETATM    8  C   UNL     1      -8.025  11.771  67.865  1.00  0.00    -0.141 A  
HETATM    9  O   UNL     1      -7.819  14.115  68.154  1.00  0.00    -0.120 OA 
HETATM   10  O   UNL     1     -11.441  14.966  66.353  1.00  0.00    -0.344 OA 
HETATM   11  O   UNL     1      -9.608  15.779  67.378  1.00  0.00    -0.215 OA 
HETATM   12  C   UNL     1      -6.809  11.546  68.516  1.00  0.00    -0.074 A  
HETATM   13  C   UNL     1      -6.375  10.246  68.723  1.00  0.00    -0.047 A  
HETATM   14  C   UNL     1      -7.111   9.132  68.292  1.00  0.00    -0.077 A  
HETATM   15  F   UNL     1      -5.206  10.082  69.361  1.00  0.00    -0.035 F  
HETATM   16  F   UNL     1      -9.018   8.345  67.159  1.00  0.00    -0.129 F  
HETATM   17  C   UNL     1      -8.306   9.405  67.578  1.00  0.00    -0.122 A  
HETATM   18  C   UNL     1      -8.811  10.710  67.363  1.00  0.00    -0.132 A  
BRANCH  14  19
HETATM   19  N   UNL     1      -6.758   7.834  68.631  1.00  0.00    -0.056 NA 
HETATM   20  C   UNL     1      -6.842   7.366  70.022  1.00  0.00    -0.055 C  
HETATM   21  C   UNL     1      -7.394   5.923  70.029  1.00  0.00    -0.074 C  
HETATM   22  N   UNL     1      -6.599   4.990  69.209  1.00  0.00    -0.045 NA 
HETATM   23  C   UNL     1      -6.476   5.508  67.824  1.00  0.00    -0.048 C  
HETATM   24  H   UNL     1      -6.979   4.044  69.231  1.00  0.00     0.000 HD 
HETATM   25  C   UNL     1      -5.949   6.973  67.754  1.00  0.00    -0.029 C  
HETATM   26  C   UNL     1      -5.561   4.561  67.051  1.00  0.00    -0.014 C  
ENDBRANCH  14  19
ENDBRANCH   2   3
TORSDOF 2
ENDMDL
MODEL      147
REMARK 921   NORMALIZED FREE ENERGY PREDICTED BY IDOCK:    3.13 KCAL/MOL
REMARK 922        TOTAL FREE ENERGY PREDICTED BY IDOCK:    2.96 KCAL/MOL
REMARK 923 INTER-LIGAND FREE ENERGY PREDICTED BY IDOCK:    3.51 KCAL/MOL
REMARK 924 INTRA-LIGAND FREE ENERGY PREDICTED BY IDOCK:   -0.55 KCAL/MOL
REMARK 927      BINDING AFFINITY PREDICTED BY RF-SCORE:    0.00 PKD
ROOT
HETATM    1  C   UNL     1      -7.581  10.454  67.422  1.00  0.00    -0.094 C  
HETATM    2  C   UNL     1      -7.502  11.289  66.152  1.00  0.00     0.045 C  
ENDROOT
BRANCH   2   3
HETATM    3  N   UNL     1      -8.729  12.093  65.988  1.00  0.00     0.079 NA 
HETATM    4  C   UNL     1      -9.849  11.521  65.396  1.00  0.00    -0.235 C  
HETATM    5  C   UNL     1     -10.999  12.136  65.088  1.00  0.00    -0.355 C  
HETATM    6  C   UNL     1     -12.093  11.367  64.464  1.00  0.00     0.416 C  
HETATM    7  C   UNL     1     -11.078  13.571  65.401  1.00  0.00    -0.293 C  
HETATM    8  C   UNL     1      -9.912  14.220  66.042  1.00  0.00    -0.337 A  
HETATM    9  O   UNL     1     -12.102  14.200  65.137  1.00  0.00    -0.377 OA 
HETATM   10  O   UNL     1     -12.014  10.173  64.207  1.00  0.00     4.157 OA 
HETATM   11  O   UNL     1     -13.204  12.086  64.193  1.00  0.00    -0.712 OA 
HETATM   12  C   UNL     1     -10.017  15.575  66.365  1.00  0.00    -0.300 A  
HETATM   13  C   UNL     1      -8.973  16.202  67.027  1.00  0.00    -0.211 A  
HETATM   14  C   UNL     1      -7.797  15.527  67.383  1.00  0.00    -0.186 A  
HETATM   15  F   UNL     1      -9.126  17.503  67.324  1.00  0.00    -0.229 F  
HETATM   16  F   UNL     1      -6.579  13.514  67.313  1.00  0.00    -0.182 F  
HETATM   17  C   UNL     1      -7.703  14.171  66.979  1.00  0.00     0.159 A  
HETATM   18  C   UNL     1      -8.748  13.472  66.327  1.00  0.00     0.402 A  
BRANCH  14  19
HETATM   19  N   UNL     1      -6.820  16.108  68.178  1.00  0.00    -0.121 NA 
HETATM   20  C   UNL     1      -5.657  16.778  67.579  1.00  0.00    -0.143 C  
HETATM   21  C   UNL     1      -5.355  18.064  68.380  1.00  0.00    -0.157 C  
HETATM   22  N   UNL     1      -5.134  17.817  69.817  1.00  0.00    -0.181 NA 
HETATM   23  C   UNL     1      -6.292  17.089  70.391  1.00  0.00     0.580 C  
HETATM   24  H   UNL     1      -4.934  18.678  70.326  1.00  0.00     0.000 HD 
HETATM   25  C   UNL     1      -6.663  15.794  69.607  1.00  0.00    -0.176 C  
HETATM   26  C   UNL     1      -5.967  16.769  71.849  1.00  0.00     1.958 C  
ENDBRANCH  14  19
ENDBRANCH   2   3
TORSDOF 2
ENDMDL
MODEL      148
REMARK 921   NORMALIZED FREE ENERGY PREDICTED BY IDOCK:    5.50 KCAL/MOL
REMARK 922        TOTAL FREE ENERGY PREDICTED BY IDOCK:    5.61 KCAL/MOL
REMARK 923 INTER-LIGAND FREE ENERGY PREDICTED BY IDOCK:    1.62 KCAL/MOL
REMARK 924 INTRA-LIGAND FREE ENERGY PREDICTED BY IDOCK:    3.99 KCAL/MOL
REMARK 927      BINDING AFFINITY PREDICTED BY RF-SCORE:    0.00 PKD
ROOT
HETATM    1  C   UNL     1      -6.257  12.351  71.283  1.00  0.00     1.413 C  
HETATM    2  C   UNL     1      -5.812  13.767  71.623  1.00  0.00    -0.033 C  
ENDROOT
BRANCH   2   3
HETATM    3  N   UNL     1      -6.453  14.739  70.717  1.00  0.00     0.007 NA 
HETATM    4  C   UNL     1      -6.102  16.082  70.793  1.00  0.00     0.405 C  
HETATM    5  C   UNL     1      -6.653  17.097  70.116  1.00  0.00     0.525 C  
HETATM    6  C   UNL     1      -6.147  18.469  70.317  1.00  0.00    -0.013 C  
HETATM    7  C   UNL     1      -7.755  16.755  69.204  1.00  0.00    -0.165 C  
HETATM    8  C   UNL     1      -8.157  15.334  69.083  1.00  0.00    -0.228 A  
HETATM    9  O   UNL     1      -8.313  17.640  68.557  1.00  0.00    -0.281 OA 
HETATM   10  O   UNL     1      -5.231  18.741  71.081  1.00  0.00    -0.265 OA 
HETATM   11  O   UNL     1      -6.777  19.415  69.587  1.00  0.00    -0.300 OA 
HETATM   12  C   UNL     1      -9.181  15.022  68.186  1.00  0.00    -0.183 A  
HETATM   13  C   UNL     1      -9.540  13.697  67.994  1.00  0.00    -0.216 A  
HETATM   14  C   UNL     1      -8.915  12.644  68.678  1.00  0.00     0.050 A  
HETATM   15  F   UNL     1     -10.523  13.447  67.114  1.00  0.00    -0.243 F  
HETATM   16  F   UNL     1      -7.324  12.008  70.291  1.00  0.00     0.615 F  
HETATM   17  C   UNL     1      -7.928  13.009  69.627  1.00  0.00     1.362 A  
HETATM   18  C   UNL     1      -7.501  14.342  69.844  1.00  0.00     0.350 A  
BRANCH  14  19
HETATM   19  N   UNL     1      -9.165  11.313  68.377  1.00  0.00    -0.173 NA 
HETATM   20  C   UNL     1      -8.696  10.722  67.116  1.00  0.00    -0.131 C  
HETATM   21  C   UNL     1      -8.170   9.297  67.399  1.00  0.00    -0.117 C  
HETATM   22  N   UNL     1      -9.167   8.425  68.046  1.00  0.00    -0.137 NA 
HETATM   23  C   UNL     1      -9.672   9.064  69.286  1.00  0.00    -0.168 C  
HETATM   24  H   UNL     1      -8.800   7.490  68.220  1.00  0.00     0.000 HD 
HETATM   25  C   UNL     1     -10.192  10.517  69.069  1.00  0.00    -0.216 C  
HETATM   26  C   UNL     1     -10.772   8.171  69.857  1.00  0.00    -0.241 C  
ENDBRANCH  14  19
ENDBRANCH   2   3
TORSDOF 2
ENDMDL
MODEL      149
REMARK 921   NORMALIZED FREE ENERGY PREDICTED BY IDOCK:    8.07 KCAL/MOL
REMARK 922        TOTAL FREE ENERGY PREDICTED BY IDOCK:    8.48 KCAL/MOL
REMARK 923 INTER-LIGAND FREE ENERGY PREDICTED BY IDOCK:    6.74 KCAL/MOL
REMARK 924 INTRA-LIGAND FREE ENERGY PREDICTED BY IDOCK:    1.74 KCAL/MOL
REMARK 927      BINDING AFFINITY PREDICTED BY RF-SCORE:    0.00 PKD
ROOT
HETATM    1  C   UNL     1     -11.023   6.711  66.357  1.00  0.00     0.371 C  
HETATM    2  C   UNL     1     -12.064   7.502  67.136  1.00  0.00     4.421 C  
ENDROOT
BRANCH   2   3
HETATM    3  N   UNL     1     -11.408   8.395  68.110  1.00  0.00     0.677 NA 
HETATM    4  C   UNL     1     -11.804   9.726  68.196  1.00  0.00     1.427 C  
HETATM    5  C   UNL     1     -11.250  10.683  68.951  1.00  0.00    -0.333 C  
HETATM    6  C   UNL     1     -11.808  12.049  68.923  1.00  0.00    -0.299 C  
HETATM    7  C   UNL     1     -10.094  10.286  69.769  1.00  0.00    -0.203 C  
HETATM    8  C   UNL     1      -9.643   8.875  69.717  1.00  0.00    -0.175 A  
HETATM    9  O   UNL     1      -9.531  11.117  70.480  1.00  0.00     1.953 OA 
HETATM   10  O   UNL     1     -12.770  12.368  68.237  1.00  0.00     0.518 OA 
HETATM   11  O   UNL     1     -11.171  12.934  69.719  1.00  0.00    -0.099 OA 
HETATM   12  C   UNL     1      -8.566   8.507  70.526  1.00  0.00    -0.155 A  
HETATM   13  C   UNL     1      -8.157   7.182  70.558  1.00  0.00    -0.113 A  
HETATM   14  C   UNL     1      -8.783   6.186  69.794  1.00  0.00    -0.135 A  
HETATM   15  F   UNL     1      -7.124   6.876  71.358  1.00  0.00    -0.068 F  
HETATM   16  F   UNL     1     -10.434   5.668  68.199  1.00  0.00    -0.203 F  
HETATM   17  C   UNL     1      -9.828   6.614  68.937  1.00  0.00    -0.139 A  
HETATM   18  C   UNL     1     -10.306   7.946  68.885  1.00  0.00    -0.213 A  
BRANCH  14  19
HETATM   19  N   UNL     1      -8.478   4.840  69.939  1.00  0.00    -0.074 NA 
HETATM   20  C   UNL     1      -8.317   4.240  71.270  1.00  0.00    -0.082 C  
HETATM   21  C   UNL     1      -8.975   2.842  71.269  1.00  0.00    -0.097 C  
HETATM   22  N   UNL     1      -8.444   1.948  70.224  1.00  0.00    -0.042 NA 
HETATM   23  C   UNL     1      -8.562   2.595  68.894  1.00  0.00    -0.074 C  
HETATM   24  H   UNL     1      -8.889   1.031  70.244  1.00  0.00     0.000 HD 
HETATM   25  C   UNL     1      -7.939   4.022  68.841  1.00  0.00    -0.067 C  
HETATM   26  C   UNL     1      -7.905   1.674  67.868  1.00  0.00    -0.058 C  
ENDBRANCH  14  19
ENDBRANCH   2   3
TORSDOF 2
ENDMDL
MODEL      150
REMARK 921   NORMALIZED FREE ENERGY PREDICTED BY IDOCK:    8.92 KCAL/MOL
REMARK 922        TOTAL FREE ENERGY PREDICTED BY IDOCK:    9.43 KCAL/MOL
REMARK 923 INTER-LIGAND FREE ENERGY PREDICTED BY IDOCK:    9.23 KCAL/MOL
REMARK 924 INTRA-LIGAND FREE ENERGY PREDICTED BY IDOCK:    0.20 KCAL/MOL
REMARK 927      BINDING AFFINITY PREDICTED BY RF-SCORE:    0.00 PKD
ROOT
HETATM    1  C   UNL     1      -6.059  16.398  70.042  1.00  0.00    -0.151 C  
HETATM    2  C   UNL     1      -6.610  15.107  69.455  1.00  0.00    -0.151 C  
ENDROOT
BRANCH   2   3
HETATM    3  N   UNL     1      -8.086  15.136  69.442  1.00  0.00    -0.214 NA 
HETATM    4  C   UNL     1      -8.758  16.085  70.205  1.00  0.00     1.063 C  
HETATM    5  C   UNL     1     -10.083  16.184  70.379  1.00  0.00     0.521 C  
HETATM    6  C   UNL     1     -10.629  17.265  71.222  1.00  0.00     2.231 C  
HETATM    7  C   UNL     1     -10.911  15.176  69.699  1.00  0.00    -0.286 C  
HETATM    8  C   UNL     1     -10.237  14.152  68.868  1.00  0.00    -0.181 A  
HETATM    9  O   UNL     1     -12.134  15.204  69.823  1.00  0.00    -0.310 OA 
HETATM   10  O   UNL     1      -9.929  18.097  71.784  1.00  0.00     4.683 OA 
HETATM   11  O   UNL     1     -11.974  17.270  71.332  1.00  0.00     1.512 OA 
HETATM   12  C   UNL     1     -11.040  13.224  68.201  1.00  0.00    -0.286 A  
HETATM   13  C   UNL     1     -10.452  12.292  67.359  1.00  0.00    -0.210 A  
HETATM   14  C   UNL     1      -9.066  12.236  67.154  1.00  0.00    -0.193 A  
HETATM   15  F   UNL     1     -11.267  11.428  66.734  1.00  0.00    -0.320 F  
HETATM   16  F   UNL     1      -6.952  13.107  67.712  1.00  0.00    -0.086 F  
HETATM   17  C   UNL     1      -8.282  13.153  67.900  1.00  0.00    -0.162 A  
HETATM   18  C   UNL     1      -8.829  14.144  68.751  1.00  0.00    -0.061 A  
BRANCH  14  19
HETATM   19  N   UNL     1      -8.491  11.410  66.199  1.00  0.00    -0.148 NA 
HETATM   20  C   UNL     1      -7.507  11.931  65.241  1.00  0.00     2.148 C  
HETATM   21  C   UNL     1      -6.383  10.886  65.063  1.00  0.00     0.250 C  
HETATM   22  N   UNL     1      -6.878   9.564  64.637  1.00  0.00    -0.096 NA 
HETATM   23  C   UNL     1      -7.913   9.080  65.584  1.00  0.00    -0.104 C  
HETATM   24  H   UNL     1      -6.121   8.892  64.522  1.00  0.00     0.000 HD 
HETATM   25  C   UNL     1      -9.061  10.106  65.827  1.00  0.00    -0.171 C  
HETATM   26  C   UNL     1      -8.463   7.763  65.041  1.00  0.00    -0.052 C  
ENDBRANCH  14  19
ENDBRANCH   2   3
TORSDOF 2
ENDMDL
MODEL      151
REMARK 921   NORMALIZED FREE ENERGY PREDICTED BY IDOCK:   10.87 KCAL/MOL
REMARK 922        TOTAL FREE ENERGY PREDICTED BY IDOCK:   11.60 KCAL/MOL
REMARK 923 INTER-LIGAND FREE ENERGY PREDICTED BY IDOCK:   12.08 KCAL/MOL
REMARK 924 INTRA-LIGAND FREE ENERGY PREDICTED BY IDOCK:   -0.48 KCAL/MOL
REMARK 927      BINDING AFFINITY PREDICTED BY RF-SCORE:    0.00 PKD
ROOT
HETATM    1  C   UNL     1      -6.810   5.967  65.770  1.00  0.00    -0.056 C  
HETATM    2  C   UNL     1      -6.993   6.910  66.950  1.00  0.00    -0.070 C  
ENDROOT
BRANCH   2   3
HETATM    3  N   UNL     1      -8.386   7.393  67.012  1.00  0.00    -0.120 NA 
HETATM    4  C   UNL     1      -9.430   6.504  66.779  1.00  0.00    -0.158 C  
HETATM    5  C   UNL     1     -10.734   6.797  66.703  1.00  0.00    -0.187 C  
HETATM    6  C   UNL     1     -11.712   5.720  66.455  1.00  0.00     1.628 C  
HETATM    7  C   UNL     1     -11.099   8.212  66.873  1.00  0.00     0.654 C  
HETATM    8  C   UNL     1     -10.020   9.193  67.133  1.00  0.00    -0.280 A  
HETATM    9  O   UNL     1     -12.278   8.554  66.806  1.00  0.00     5.377 OA 
HETATM   10  O   UNL     1     -11.395   4.546  66.313  1.00  0.00     1.001 OA 
HETATM   11  O   UNL     1     -12.997   6.128  66.393  1.00  0.00     5.915 OA 
HETATM   12  C   UNL     1     -10.386  10.527  67.327  1.00  0.00    -0.275 A  
HETATM   13  C   UNL     1      -9.414  11.464  67.640  1.00  0.00    -0.162 A  
HETATM   14  C   UNL     1      -8.058  11.126  67.762  1.00  0.00    -0.117 A  
HETATM   15  F   UNL     1      -9.817  12.731  67.826  1.00  0.00    -0.198 F  
HETATM   16  F   UNL     1      -6.423   9.440  67.606  1.00  0.00    -0.059 F  
HETATM   17  C   UNL     1      -7.720   9.775  67.493  1.00  0.00    -0.095 A  
HETATM   18  C   UNL     1      -8.673   8.771  67.198  1.00  0.00    -0.120 A  
BRANCH  14  19
HETATM   19  N   UNL     1      -7.108  12.026  68.224  1.00  0.00    -0.079 NA 
HETATM   20  C   UNL     1      -6.451  12.969  67.309  1.00  0.00     0.026 C  
HETATM   21  C   UNL     1      -6.322  14.337  68.013  1.00  0.00    -0.153 C  
HETATM   22  N   UNL     1      -5.601  14.267  69.297  1.00  0.00    -0.081 NA 
HETATM   23  C   UNL     1      -6.244  13.268  70.186  1.00  0.00    -0.050 C  
HETATM   24  H   UNL     1      -5.525  15.181  69.742  1.00  0.00     0.000 HD 
HETATM   25  C   UNL     1      -6.428  11.871  69.520  1.00  0.00    -0.113 C  
HETATM   26  C   UNL     1      -5.401  13.161  71.455  1.00  0.00    -0.143 C  
ENDBRANCH  14  19
ENDBRANCH   2   3
TORSDOF 2
ENDMDL
MODEL      152
REMARK 921   NORMALIZED FREE ENERGY PREDICTED BY IDOCK:   20.53 KCAL/MOL
REMARK 922        TOTAL FREE ENERGY PREDICTED BY IDOCK:   22.39 KCAL/MOL
REMARK 923 INTER-LIGAND FREE ENERGY PREDICTED BY IDOCK:   19.43 KCAL/MOL
REMARK 924 INTRA-LIGAND FREE ENERGY PREDICTED BY IDOCK:    2.97 KCAL/MOL
REMARK 927      BINDING AFFINITY PREDICTED BY RF-SCORE:    0.00 PKD
ROOT
HETATM    1  C   UNL     1     -12.494  14.355  74.305  1.00  0.00     1.070 C  
HETATM    2  C   UNL     1     -11.503  15.406  73.826  1.00  0.00     0.498 C  
ENDROOT
BRANCH   2   3
HETATM    3  N   UNL     1     -11.516  15.492  72.353  1.00  0.00    -0.424 NA 
HETATM    4  C   UNL     1     -11.317  16.723  71.737  1.00  0.00     0.423 C  
HETATM    5  C   UNL     1     -11.395  16.987  70.426  1.00  0.00     0.773 C  
HETATM    6  C   UNL     1     -11.144  18.359  69.942  1.00  0.00     2.687 C  
HETATM    7  C   UNL     1     -11.738  15.858  69.548  1.00  0.00    -0.326 C  
HETATM    8  C   UNL     1     -11.949  14.526  70.161  1.00  0.00    -0.377 A  
HETATM    9  O   UNL     1     -11.834  16.032  68.335  1.00  0.00    -0.304 OA 
HETATM   10  O   UNL     1     -10.862  19.291  70.683  1.00  0.00     1.774 OA 
HETATM   11  O   UNL     1     -11.252  18.514  68.606  1.00  0.00     0.790 OA 
HETATM   12  C   UNL     1     -12.239  13.457  69.310  1.00  0.00    -0.222 A  
HETATM   13  C   UNL     1     -12.376  12.182  69.837  1.00  0.00    -0.060 A  
HETATM   14  C   UNL     1     -12.243  11.919  71.209  1.00  0.00     0.055 A  
HETATM   15  F   UNL     1     -12.645  11.187  68.977  1.00  0.00    -0.312 F  
HETATM   16  F   UNL     1     -11.887  12.801  73.361  1.00  0.00     3.314 F  
HETATM   17  C   UNL     1     -12.015  13.041  72.045  1.00  0.00     1.635 A  
HETATM   18  C   UNL     1     -11.837  14.359  71.559  1.00  0.00    -0.128 A  
BRANCH  14  19
HETATM   19  N   UNL     1     -12.228  10.628  71.717  1.00  0.00    -0.143 NA 
HETATM   20  C   UNL     1     -11.115  10.159  72.555  1.00  0.00     3.631 C  
HETATM   21  C   UNL     1     -11.687   9.305  73.709  1.00  0.00     6.409 C  
HETATM   22  N   UNL     1     -12.507   8.171  73.245  1.00  0.00    -0.142 NA 
HETATM   23  C   UNL     1     -13.589   8.658  72.354  1.00  0.00    -0.343 C  
HETATM   24  H   UNL     1     -12.871   7.620  74.021  1.00  0.00     0.000 HD 
HETATM   25  C   UNL     1     -13.076   9.551  71.184  1.00  0.00    -0.265 C  
HETATM   26  C   UNL     1     -14.340   7.439  71.821  1.00  0.00    -0.586 C  
ENDBRANCH  14  19
ENDBRANCH   2   3
TORSDOF 2
ENDMDL
MODEL      153
REMARK 921   NORMALIZED FREE ENERGY PREDICTED BY IDOCK:   22.74 KCAL/MOL
REMARK 922        TOTAL FREE ENERGY PREDICTED BY IDOCK:   24.87 KCAL/MOL
REMARK 923 INTER-LIGAND FREE ENERGY PREDICTED BY IDOCK:   25.09 KCAL/MOL
REMARK 924 INTRA-LIGAND FREE ENERGY PREDICTED BY IDOCK:   -0.23 KCAL/MOL
REMARK 927      BINDING AFFINITY PREDICTED BY RF-SCORE:    0.00 PKD
ROOT
HETATM    1  C   UNL     1      -7.562  10.442  67.559  1.00  0.00    -0.094 C  
HETATM    2  C   UNL     1      -7.877  11.732  66.815  1.00  0.00    -0.103 C  
ENDROOT
BRANCH   2   3
HETATM    3  N   UNL     1      -9.204  12.242  67.212  1.00  0.00    -0.179 NA 
HETATM    4  C   UNL     1     -10.335  11.823  66.520  1.00  0.00    -0.223 C  
HETATM    5  C   UNL     1     -11.589  12.260  66.689  1.00  0.00    -0.438 C  
HETATM    6  C   UNL     1     -12.676  11.695  65.867  1.00  0.00     3.006 C  
HETATM    7  C   UNL     1     -11.788  13.303  67.707  1.00  0.00    -0.353 C  
HETATM    8  C   UNL     1     -10.613  13.774  68.476  1.00  0.00    -0.261 A  
HETATM    9  O   UNL     1     -12.914  13.757  67.908  1.00  0.00     1.035 OA 
HETATM   10  O   UNL     1     -12.497  10.829  65.021  1.00  0.00     2.249 OA 
HETATM   11  O   UNL     1     -13.899  12.210  66.117  1.00  0.00     5.368 OA 
HETATM   12  C   UNL     1     -10.825  14.739  69.463  1.00  0.00    -0.268 A  
HETATM   13  C   UNL     1      -9.762  15.156  70.250  1.00  0.00     0.342 A  
HETATM   14  C   UNL     1      -8.465  14.648  70.088  1.00  0.00     0.981 A  
HETATM   15  F   UNL     1     -10.019  16.078  71.192  1.00  0.00     0.696 F  
HETATM   16  F   UNL     1      -7.039  13.229  68.867  1.00  0.00    -0.095 F  
HETATM   17  C   UNL     1      -8.279  13.720  69.033  1.00  0.00     0.199 A  
HETATM   18  C   UNL     1      -9.332  13.238  68.217  1.00  0.00    -0.205 A  
BRANCH  14  19
HETATM   19  N   UNL     1      -7.437  14.947  70.971  1.00  0.00     1.359 NA 
HETATM   20  C   UNL     1      -6.840  16.290  71.011  1.00  0.00     2.448 C  
HETATM   21  C   UNL     1      -6.583  16.676  72.484  1.00  0.00     5.745 C  
HETATM   22  N   UNL     1      -5.737  15.706  73.203  1.00  0.00     1.108 NA 
HETATM   23  C   UNL     1      -6.324  14.348  73.102  1.00  0.00     1.166 C  
HETATM   24  H   UNL     1      -5.578  15.983  74.172  1.00  0.00     0.000 HD 
HETATM   25  C   UNL     1      -6.632  13.911  71.638  1.00  0.00     1.572 C  
HETATM   26  C   UNL     1      -5.359  13.371  73.771  1.00  0.00     0.037 C  
ENDBRANCH  14  19
ENDBRANCH   2   3
TORSDOF 2
ENDMDL
MODEL      154
REMARK 921   NORMALIZED FREE ENERGY PREDICTED BY IDOCK:   24.69 KCAL/MOL
REMARK 922        TOTAL FREE ENERGY PREDICTED BY IDOCK:   27.04 KCAL/MOL
REMARK 923 INTER-LIGAND FREE ENERGY PREDICTED BY IDOCK:   26.34 KCAL/MOL
REMARK 924 INTRA-LIGAND FREE ENERGY PREDICTED BY IDOCK:    0.70 KCAL/MOL
REMARK 927      BINDING AFFINITY PREDICTED BY RF-SCORE:    0.00 PKD
ROOT
HETATM    1  C   UNL     1     -11.739  15.151  70.019  1.00  0.00    -0.341 C  
HETATM    2  C   UNL     1     -11.558  13.900  69.172  1.00  0.00    -0.313 C  
ENDROOT
BRANCH   2   3
HETATM    3  N   UNL     1     -10.126  13.576  69.032  1.00  0.00     0.001 NA 
HETATM    4  C   UNL     1      -9.268  13.784  70.106  1.00  0.00     2.753 C  
HETATM    5  C   UNL     1      -7.937  13.635  70.113  1.00  0.00     2.108 C  
HETATM    6  C   UNL     1      -7.180  13.895  71.353  1.00  0.00     3.276 C  
HETATM    7  C   UNL     1      -7.317  13.218  68.846  1.00  0.00    -0.023 C  
HETATM    8  C   UNL     1      -8.194  12.975  67.678  1.00  0.00    -0.171 A  
HETATM    9  O   UNL     1      -6.098  13.070  68.779  1.00  0.00    -0.068 OA 
HETATM   10  O   UNL     1      -7.707  14.244  72.401  1.00  0.00     3.690 OA 
HETATM   11  O   UNL     1      -5.846  13.717  71.247  1.00  0.00    -0.220 OA 
HETATM   12  C   UNL     1      -7.594  12.544  66.492  1.00  0.00     0.558 A  
HETATM   13  C   UNL     1      -8.387  12.241  65.396  1.00  0.00     1.460 A  
HETATM   14  C   UNL     1      -9.784  12.358  65.425  1.00  0.00    -0.113 A  
HETATM   15  F   UNL     1      -7.763  11.822  64.283  1.00  0.00     1.270 F  
HETATM   16  F   UNL     1     -11.686  12.979  66.664  1.00  0.00    -0.337 F  
HETATM   17  C   UNL     1     -10.348  12.861  66.625  1.00  0.00    -0.251 A  
HETATM   18  C   UNL     1      -9.591  13.159  67.784  1.00  0.00    -0.208 A  
BRANCH  14  19
HETATM   19  N   UNL     1     -10.587  11.911  64.386  1.00  0.00    -0.296 NA 
HETATM   20  C   UNL     1     -10.053  11.766  63.025  1.00  0.00    -0.227 C  
HETATM   21  C   UNL     1     -10.619  10.470  62.404  1.00  0.00     1.378 C  
HETATM   22  N   UNL     1     -12.093  10.421  62.396  1.00  0.00     2.100 NA 
HETATM   23  C   UNL     1     -12.616  10.628  63.769  1.00  0.00     4.041 C  
HETATM   24  H   UNL     1     -12.444   9.560  61.978  1.00  0.00     0.000 HD 
HETATM   25  C   UNL     1     -12.057  11.909  64.459  1.00  0.00    -0.172 C  
HETATM   26  C   UNL     1     -14.140  10.674  63.686  1.00  0.00     6.448 C  
ENDBRANCH  14  19
ENDBRANCH   2   3
TORSDOF 2
ENDMDL
MODEL      155
REMARK 921   NORMALIZED FREE ENERGY PREDICTED BY IDOCK:   26.39 KCAL/MOL
REMARK 922        TOTAL FREE ENERGY PREDICTED BY IDOCK:   28.94 KCAL/MOL
REMARK 923 INTER-LIGAND FREE ENERGY PREDICTED BY IDOCK:   27.62 KCAL/MOL
REMARK 924 INTRA-LIGAND FREE ENERGY PREDICTED BY IDOCK:    1.32 KCAL/MOL
REMARK 927      BINDING AFFINITY PREDICTED BY RF-SCORE:    0.00 PKD
ROOT
HETATM    1  C   UNL     1      -8.961   8.549  68.561  1.00  0.00    -0.139 C  
HETATM    2  C   UNL     1      -9.830   8.076  69.718  1.00  0.00    -0.183 C  
ENDROOT
BRANCH   2   3
HETATM    3  N   UNL     1      -9.015   7.899  70.934  1.00  0.00    -0.141 NA 
HETATM    4  C   UNL     1      -8.966   6.654  71.551  1.00  0.00    -0.139 C  
HETATM    5  C   UNL     1      -8.358   6.351  72.705  1.00  0.00    -0.118 C  
HETATM    6  C   UNL     1      -8.401   4.966  73.212  1.00  0.00    -0.104 C  
HETATM    7  C   UNL     1      -7.679   7.457  73.398  1.00  0.00    -0.096 C  
HETATM    8  C   UNL     1      -7.697   8.799  72.772  1.00  0.00     0.150 A  
HETATM    9  O   UNL     1      -7.107   7.251  74.468  1.00  0.00    -0.102 OA 
HETATM   10  O   UNL     1      -8.971   4.054  72.627  1.00  0.00    -0.107 OA 
HETATM   11  O   UNL     1      -7.759   4.774  74.384  1.00  0.00    -0.091 OA 
HETATM   12  C   UNL     1      -7.017   9.831  73.425  1.00  0.00     1.948 A  
HETATM   13  C   UNL     1      -6.953  11.085  72.839  1.00  0.00     6.956 A  
HETATM   14  C   UNL     1      -7.557  11.368  71.605  1.00  0.00     7.949 A  
HETATM   15  F   UNL     1      -6.280  12.040  73.501  1.00  0.00     2.110 F  
HETATM   16  F   UNL     1      -8.876  10.572  69.826  1.00  0.00    -0.164 F  
HETATM   17  C   UNL     1      -8.291  10.312  71.008  1.00  0.00     2.124 A  
HETATM   18  C   UNL     1      -8.367   9.005  71.546  1.00  0.00     0.000 A  
BRANCH  14  19
HETATM   19  N   UNL     1      -7.365  12.573  70.944  1.00  0.00     3.421 NA 
HETATM   20  C   UNL     1      -6.091  13.298  71.048  1.00  0.00     0.275 C  
HETATM   21  C   UNL     1      -5.732  13.874  69.661  1.00  0.00    -0.098 C  
HETATM   22  N   UNL     1      -6.784  14.742  69.099  1.00  0.00    -0.114 NA 
HETATM   23  C   UNL     1      -8.075  14.013  69.057  1.00  0.00     0.087 C  
HETATM   24  H   UNL     1      -6.525  15.114  68.186  1.00  0.00     0.000 HD 
HETATM   25  C   UNL     1      -8.478  13.383  70.425  1.00  0.00     4.382 C  
HETATM   26  C   UNL     1      -9.146  14.987  68.569  1.00  0.00    -0.188 C  
ENDBRANCH  14  19
ENDBRANCH   2   3
TORSDOF 2
ENDMDL
MODEL      156
REMARK 921   NORMALIZED FREE ENERGY PREDICTED BY IDOCK:   39.56 KCAL/MOL
REMARK 922        TOTAL FREE ENERGY PREDICTED BY IDOCK:   43.65 KCAL/MOL
REMARK 923 INTER-LIGAND FREE ENERGY PREDICTED BY IDOCK:   38.46 KCAL/MOL
REMARK 924 INTRA-LIGAND FREE ENERGY PREDICTED BY IDOCK:    5.19 KCAL/MOL
REMARK 927      BINDING AFFINITY PREDICTED BY RF-SCORE:    0.00 PKD
ROOT
HETATM    1  C   UNL     1     -11.774  13.315  72.103  1.00  0.00     2.389 C  
HETATM    2  C   UNL     1     -11.893  14.303  70.952  1.00  0.00    -0.255 C  
ENDROOT
BRANCH   2   3
HETATM    3  N   UNL     1     -10.814  14.082  69.970  1.00  0.00     0.177 NA 
HETATM    4  C   UNL     1     -10.621  15.002  68.945  1.00  0.00    -0.242 C  
HETATM    5  C   UNL     1      -9.758  14.901  67.926  1.00  0.00    -0.206 C  
HETATM    6  C   UNL     1      -9.680  15.983  66.925  1.00  0.00    -0.235 C  
HETATM    7  C   UNL     1      -8.937  13.681  67.881  1.00  0.00    -0.195 C  
HETATM    8  C   UNL     1      -9.102  12.678  68.958  1.00  0.00     0.496 A  
HETATM    9  O   UNL     1      -8.129  13.519  66.967  1.00  0.00    -0.123 OA 
HETATM   10  O   UNL     1     -10.371  16.992  66.972  1.00  0.00    -0.305 OA 
HETATM   11  O   UNL     1      -8.781  15.776  65.940  1.00  0.00    -0.260 OA 
HETATM   12  C   UNL     1      -8.289  11.543  68.919  1.00  0.00    -0.005 A  
HETATM   13  C   UNL     1      -8.366  10.613  69.945  1.00  0.00     0.380 A  
HETATM   14  C   UNL     1      -9.243  10.763  71.030  1.00  0.00     4.246 A  
HETATM   15  F   UNL     1      -7.557   9.544  69.868  1.00  0.00    -0.071 F  
HETATM   16  F   UNL     1     -10.943  12.048  72.029  1.00  0.00     4.150 F  
HETATM   17  C   UNL     1     -10.096  11.895  70.996  1.00  0.00     6.788 A  
HETATM   18  C   UNL     1     -10.042  12.890  69.991  1.00  0.00     2.327 A  
BRANCH  14  19
HETATM   19  N   UNL     1      -9.213   9.918  72.130  1.00  0.00     2.457 NA 
HETATM   20  C   UNL     1      -9.912  10.270  73.374  1.00  0.00    11.464 C  
HETATM   21  C   UNL     1     -10.582   9.001  73.944  1.00  0.00     5.806 C  
HETATM   22  N   UNL     1      -9.636   7.893  74.171  1.00  0.00    -0.157 NA 
HETATM   23  C   UNL     1      -8.898   7.591  72.920  1.00  0.00    -0.143 C  
HETATM   24  H   UNL     1     -10.098   7.067  74.551  1.00  0.00     0.000 HD 
HETATM   25  C   UNL     1      -8.221   8.841  72.280  1.00  0.00     0.076 C  
HETATM   26  C   UNL     1      -7.862   6.513  73.236  1.00  0.00    -0.096 C  
ENDBRANCH  14  19
ENDBRANCH   2   3
TORSDOF 2
ENDMDL
MODEL      157
REMARK 921   NORMALIZED FREE ENERGY PREDICTED BY IDOCK:   89.08 KCAL/MOL
REMARK 922        TOTAL FREE ENERGY PREDICTED BY IDOCK:   98.96 KCAL/MOL
REMARK 923 INTER-LIGAND FREE ENERGY PREDICTED BY IDOCK:   95.27 KCAL/MOL
REMARK 924 INTRA-LIGAND FREE ENERGY PREDICTED BY IDOCK:    3.69 KCAL/MOL
REMARK 927      BINDING AFFINITY PREDICTED BY RF-SCORE:    0.00 PKD
ROOT
HETATM    1  C   UNL     1     -10.857  12.159  67.142  1.00  0.00    -0.286 C  
HETATM    2  C   UNL     1     -10.651  13.652  66.929  1.00  0.00    -0.271 C  
ENDROOT
BRANCH   2   3
HETATM    3  N   UNL     1      -9.417  13.895  66.157  1.00  0.00    -0.221 NA 
HETATM    4  C   UNL     1      -9.282  15.077  65.435  1.00  0.00     0.539 C  
HETATM    5  C   UNL     1      -8.278  15.406  64.613  1.00  0.00     8.442 C  
HETATM    6  C   UNL     1      -8.293  16.714  63.929  1.00  0.00    13.973 C  
HETATM    7  C   UNL     1      -7.210  14.407  64.448  1.00  0.00    18.833 C  
HETATM    8  C   UNL     1      -7.308  13.138  65.206  1.00  0.00     7.306 A  
HETATM    9  O   UNL     1      -6.262  14.641  63.701  1.00  0.00    20.853 OA 
HETATM   10  O   UNL     1      -9.189  17.536  64.073  1.00  0.00     7.383 OA 
HETATM   11  O   UNL     1      -7.235  16.941  63.122  1.00  0.00    14.195 OA 
HETATM   12  C   UNL     1      -6.269  12.215  65.066  1.00  0.00     4.708 A  
HETATM   13  C   UNL     1      -6.289  11.046  65.810  1.00  0.00     0.029 A  
HETATM   14  C   UNL     1      -7.328  10.742  66.702  1.00  0.00    -0.134 A  
HETATM   15  F   UNL     1      -5.263  10.195  65.647  1.00  0.00    -0.039 F  
HETATM   16  F   UNL     1      -9.397  11.392  67.616  1.00  0.00    -0.152 F  
HETATM   17  C   UNL     1      -8.395  11.674  66.765  1.00  0.00    -0.171 A  
HETATM   18  C   UNL     1      -8.413  12.896  66.052  1.00  0.00     0.919 A  
BRANCH  14  19
HETATM   19  N   UNL     1      -7.275   9.651  67.558  1.00  0.00    -0.089 NA 
HETATM   20  C   UNL     1      -5.996   9.189  68.116  1.00  0.00    -0.045 C  
HETATM   21  C   UNL     1      -6.212   8.799  69.595  1.00  0.00    -0.036 C  
HETATM   22  N   UNL     1      -7.263   7.782  69.784  1.00  0.00    -0.066 NA 
HETATM   23  C   UNL     1      -8.530   8.241  69.162  1.00  0.00    -0.127 C  
HETATM   24  H   UNL     1      -7.386   7.537  70.766  1.00  0.00     0.000 HD 
HETATM   25  C   UNL     1      -8.370   8.675  67.674  1.00  0.00    -0.121 C  
HETATM   26  C   UNL     1      -9.550   7.111  69.294  1.00  0.00    -0.155 C  
ENDBRANCH  14  19
ENDBRANCH   2   3
TORSDOF 2
ENDMDL
