MODEL        1
REMARK 921   NORMALIZED FREE ENERGY PREDICTED BY IDOCK:   -8.71 KCAL/MOL
REMARK 922        TOTAL FREE ENERGY PREDICTED BY IDOCK:  -16.91 KCAL/MOL
REMARK 923 INTER-LIGAND FREE ENERGY PREDICTED BY IDOCK:  -13.81 KCAL/MOL
REMARK 924 INTRA-LIGAND FREE ENERGY PREDICTED BY IDOCK:   -3.10 KCAL/MOL
REMARK 927      BINDING AFFINITY PREDICTED BY RF-SCORE:    0.00 PKD
ROOT
HETATM    1  F   UNL     1     -11.328  13.646  70.677  1.00  0.00    -0.142 F  
HETATM    2  C   UNL     1     -12.426  14.311  71.100  1.00  0.00    -0.362 C  
HETATM    3  C   UNL     1     -12.904  15.365  70.089  1.00  0.00    -0.158 C  
HETATM    4  F   UNL     1     -12.146  14.856  72.303  1.00  0.00    -0.369 F  
HETATM    5  F   UNL     1     -13.397  13.385  71.297  1.00  0.00    -0.372 F  
ENDROOT
BRANCH   3   6
HETATM    6  N   UNL     1     -12.093  15.522  68.881  1.00  0.00    -0.595 N  
HETATM    7  C   UNL     1     -10.962  16.316  68.882  1.00  0.00    -0.334 C  
HETATM    8  H   UNL     1     -12.367  15.039  68.025  1.00  0.00     0.000 HD 
HETATM    9  O   UNL     1     -10.649  16.959  69.885  1.00  0.00    -0.220 OA 
BRANCH   7  10
HETATM   10  C   UNL     1     -10.135  16.339  67.572  1.00  0.00    -0.258 C  
HETATM   11  C   UNL     1      -8.707  15.812  67.783  1.00  0.00    -0.173 A  
HETATM   12  C   UNL     1      -8.918  20.177  66.123  1.00  0.00    -0.273 A  
HETATM   13  C   UNL     1      -8.307  14.539  68.165  1.00  0.00    -0.147 A  
HETATM   14  C   UNL     1      -8.473  18.004  67.017  1.00  0.00    -0.247 A  
HETATM   15  C   UNL     1      -6.940  14.259  68.187  1.00  0.00    -0.130 A  
HETATM   16  C   UNL     1     -10.299  19.949  66.229  1.00  0.00    -0.608 A  
HETATM   17  C   UNL     1      -6.001  15.244  67.839  1.00  0.00    -0.166 A  
HETATM   18  C   UNL     1      -7.994  19.206  66.524  1.00  0.00    -0.296 A  
HETATM   19  C   UNL     1      -9.864  17.777  67.111  1.00  0.00    -0.311 A  
HETATM   20  C   UNL     1      -6.411  16.528  67.464  1.00  0.00    -0.181 A  
HETATM   21  C   UNL     1     -10.786  18.743  66.731  1.00  0.00    -0.381 A  
HETATM   22  C   UNL     1      -7.767  16.808  67.432  1.00  0.00    -0.192 A  
BRANCH  10  23
HETATM   23  C   UNL     1     -10.862  15.537  66.461  1.00  0.00    -0.284 C  
BRANCH  23  24
HETATM   24  C   UNL     1      -9.948  14.924  65.384  1.00  0.00    -0.367 C  
BRANCH  24  25
HETATM   25  C   UNL     1     -10.606  13.692  64.761  1.00  0.00    -0.436 C  
BRANCH  25  26
HETATM   26  C   UNL     1     -10.112  12.374  65.371  1.00  0.00    -0.269 C  
BRANCH  26  27
HETATM   27  N   UNL     1     -11.145  11.592  66.069  1.00  0.00    -0.295 NA 
HETATM   28  C   UNL     1     -10.218  11.044  68.832  1.00  0.00    -0.203 C  
HETATM   29  C   UNL     1     -10.715  12.425  68.394  1.00  0.00    -0.254 C  
HETATM   30  C   UNL     1      -9.724  10.227  67.631  1.00  0.00    -0.189 C  
HETATM   31  C   UNL     1     -10.722  10.246  66.471  1.00  0.00    -0.078 C  
HETATM   32  C   UNL     1     -11.688  12.325  67.221  1.00  0.00    -0.324 C  
BRANCH  28  33
HETATM   33  N   UNL     1     -11.238  10.322  69.586  1.00  0.00    -0.255 N  
HETATM   34  O   UNL     1      -9.772   9.429  71.121  1.00  0.00    -0.270 OA 
HETATM   35  C   UNL     1     -10.907   9.536  70.676  1.00  0.00    -0.306 C  
HETATM   36  H   UNL     1     -12.216  10.399  69.303  1.00  0.00     0.000 HD 
BRANCH  35  37
HETATM   37  C   UNL     1     -12.025   8.755  71.258  1.00  0.00    -0.353 A  
HETATM   38  C   UNL     1     -12.257   7.390  70.970  1.00  0.00    -0.315 A  
HETATM   39  C   UNL     1     -13.465   6.852  71.470  1.00  0.00    -0.290 A  
HETATM   40  C   UNL     1     -12.942   9.510  72.026  1.00  0.00    -0.514 A  
HETATM   41  C   UNL     1     -14.117   8.941  72.496  1.00  0.00    -0.441 A  
HETATM   42  C   UNL     1     -14.388   7.613  72.205  1.00  0.00    -0.243 A  
BRANCH  38  43
HETATM   43  C   UNL     1     -11.342   6.499  70.189  1.00  0.00    -0.463 A  
HETATM   44  C   UNL     1     -10.443   5.613  70.804  1.00  0.00    -0.335 A  
HETATM   45  C   UNL     1      -9.601   4.819  68.656  1.00  0.00    -0.223 A  
HETATM   46  C   UNL     1      -9.576   4.799  70.056  1.00  0.00    -0.260 A  
HETATM   47  C   UNL     1      -8.651   3.983  67.836  1.00  0.00    -0.097 C  
HETATM   48  C   UNL     1     -10.527   5.655  68.026  1.00  0.00    -0.264 A  
HETATM   49  C   UNL     1     -11.370   6.484  68.779  1.00  0.00    -0.237 A  
HETATM   50  F   UNL     1      -7.772   3.257  68.582  1.00  0.00    -0.054 F  
HETATM   51  F   UNL     1      -7.888   4.736  66.992  1.00  0.00    -0.094 F  
HETATM   52  F   UNL     1      -9.298   3.082  67.043  1.00  0.00    -0.179 F  
ENDBRANCH  38  43
ENDBRANCH  35  37
ENDBRANCH  28  33
ENDBRANCH  26  27
ENDBRANCH  25  26
ENDBRANCH  24  25
ENDBRANCH  23  24
ENDBRANCH  10  23
ENDBRANCH   7  10
ENDBRANCH   3   6
TORSDOF 10
ENDMDL
MODEL        2
REMARK 921   NORMALIZED FREE ENERGY PREDICTED BY IDOCK:   -8.65 KCAL/MOL
REMARK 922        TOTAL FREE ENERGY PREDICTED BY IDOCK:  -16.81 KCAL/MOL
REMARK 923 INTER-LIGAND FREE ENERGY PREDICTED BY IDOCK:  -13.34 KCAL/MOL
REMARK 924 INTRA-LIGAND FREE ENERGY PREDICTED BY IDOCK:   -3.46 KCAL/MOL
REMARK 927      BINDING AFFINITY PREDICTED BY RF-SCORE:    0.00 PKD
ROOT
HETATM    1  F   UNL     1      -9.236  19.177  68.306  1.00  0.00    -0.316 F  
HETATM    2  C   UNL     1      -9.382  19.768  67.099  1.00  0.00    -0.351 C  
HETATM    3  C   UNL     1      -9.942  18.810  66.036  1.00  0.00    -0.255 C  
HETATM    4  F   UNL     1      -8.185  20.280  66.738  1.00  0.00    -0.317 F  
HETATM    5  F   UNL     1     -10.229  20.814  67.272  1.00  0.00    -0.546 F  
ENDROOT
BRANCH   3   6
HETATM    6  N   UNL     1     -10.176  17.430  66.462  1.00  0.00    -0.323 N  
HETATM    7  C   UNL     1      -9.168  16.487  66.402  1.00  0.00    -0.295 C  
HETATM    8  H   UNL     1     -11.097  17.161  66.809  1.00  0.00     0.000 HD 
HETATM    9  O   UNL     1      -8.069  16.773  65.927  1.00  0.00    -0.416 OA 
BRANCH   7  10
HETATM   10  C   UNL     1      -9.506  15.081  66.961  1.00  0.00    -0.240 C  
HETATM   11  C   UNL     1     -10.480  14.319  66.050  1.00  0.00    -0.306 A  
HETATM   12  C   UNL     1     -12.021  14.932  70.421  1.00  0.00    -0.368 A  
HETATM   13  C   UNL     1     -10.283  13.894  64.743  1.00  0.00    -0.353 A  
HETATM   14  C   UNL     1     -11.552  14.509  68.113  1.00  0.00    -0.359 A  
HETATM   15  C   UNL     1     -11.278  13.118  64.148  1.00  0.00    -0.433 A  
HETATM   16  C   UNL     1     -10.797  15.607  70.556  1.00  0.00    -0.347 A  
HETATM   17  C   UNL     1     -12.447  12.786  64.853  1.00  0.00    -0.563 A  
HETATM   18  C   UNL     1     -12.410  14.385  69.193  1.00  0.00    -0.156 A  
HETATM   19  C   UNL     1     -10.318  15.180  68.260  1.00  0.00    -0.231 A  
HETATM   20  C   UNL     1     -12.643  13.226  66.167  1.00  0.00    -0.208 A  
HETATM   21  C   UNL     1      -9.934  15.741  69.470  1.00  0.00    -0.283 A  
HETATM   22  C   UNL     1     -11.655  13.989  66.765  1.00  0.00    -0.406 A  
BRANCH  10  23
HETATM   23  C   UNL     1      -8.208  14.264  67.189  1.00  0.00    -0.184 C  
BRANCH  23  24
HETATM   24  C   UNL     1      -8.345  12.742  67.007  1.00  0.00    -0.123 C  
BRANCH  24  25
HETATM   25  C   UNL     1      -8.505  12.053  68.362  1.00  0.00    -0.147 C  
BRANCH  25  26
HETATM   26  C   UNL     1      -8.343  10.530  68.284  1.00  0.00    -0.122 C  
BRANCH  26  27
HETATM   27  N   UNL     1      -8.995   9.784  69.372  1.00  0.00    -0.176 NA 
HETATM   28  C   UNL     1      -8.038   6.978  69.307  1.00  0.00    -0.120 C  
HETATM   29  C   UNL     1      -7.165   8.129  69.818  1.00  0.00    -0.064 C  
HETATM   30  C   UNL     1      -9.126   7.488  68.355  1.00  0.00    -0.133 C  
HETATM   31  C   UNL     1      -9.872   8.696  68.925  1.00  0.00    -0.179 C  
HETATM   32  C   UNL     1      -8.013   9.284  70.345  1.00  0.00    -0.156 C  
BRANCH  28  33
HETATM   33  N   UNL     1      -8.610   6.211  70.410  1.00  0.00    -0.132 N  
HETATM   34  O   UNL     1      -9.272   4.431  69.107  1.00  0.00    -0.116 OA 
HETATM   35  C   UNL     1      -9.216   4.985  70.196  1.00  0.00    -0.135 C  
HETATM   36  H   UNL     1      -8.561   6.586  71.357  1.00  0.00     0.000 HD 
BRANCH  35  37
HETATM   37  C   UNL     1      -9.873   4.386  71.383  1.00  0.00    -0.262 A  
HETATM   38  C   UNL     1     -10.760   5.095  72.226  1.00  0.00    -0.266 A  
HETATM   39  C   UNL     1     -11.153   4.426  73.408  1.00  0.00    -0.394 A  
HETATM   40  C   UNL     1      -9.442   3.079  71.705  1.00  0.00    -0.209 A  
HETATM   41  C   UNL     1      -9.853   2.460  72.877  1.00  0.00    -0.180 A  
HETATM   42  C   UNL     1     -10.698   3.140  73.739  1.00  0.00    -0.292 A  
BRANCH  38  43
HETATM   43  C   UNL     1     -11.293   6.470  71.966  1.00  0.00    -0.326 A  
HETATM   44  C   UNL     1     -12.426   6.703  71.170  1.00  0.00    -0.255 A  
HETATM   45  C   UNL     1     -12.275   9.117  71.487  1.00  0.00    -0.422 A  
HETATM   46  C   UNL     1     -12.901   8.001  70.919  1.00  0.00     0.105 A  
HETATM   47  C   UNL     1     -12.745  10.521  71.196  1.00  0.00    -0.418 C  
HETATM   48  C   UNL     1     -11.178   8.902  72.325  1.00  0.00    -0.269 A  
HETATM   49  C   UNL     1     -10.694   7.605  72.550  1.00  0.00    -0.350 A  
HETATM   50  F   UNL     1     -13.789  10.582  70.324  1.00  0.00     0.026 F  
HETATM   51  F   UNL     1     -11.763  11.299  70.656  1.00  0.00    -0.394 F  
HETATM   52  F   UNL     1     -13.159  11.176  72.318  1.00  0.00    -0.581 F  
ENDBRANCH  38  43
ENDBRANCH  35  37
ENDBRANCH  28  33
ENDBRANCH  26  27
ENDBRANCH  25  26
ENDBRANCH  24  25
ENDBRANCH  23  24
ENDBRANCH  10  23
ENDBRANCH   7  10
ENDBRANCH   3   6
TORSDOF 10
ENDMDL
MODEL        3
REMARK 921   NORMALIZED FREE ENERGY PREDICTED BY IDOCK:   -8.62 KCAL/MOL
REMARK 922        TOTAL FREE ENERGY PREDICTED BY IDOCK:  -16.77 KCAL/MOL
REMARK 923 INTER-LIGAND FREE ENERGY PREDICTED BY IDOCK:  -13.11 KCAL/MOL
REMARK 924 INTRA-LIGAND FREE ENERGY PREDICTED BY IDOCK:   -3.66 KCAL/MOL
REMARK 927      BINDING AFFINITY PREDICTED BY RF-SCORE:    0.00 PKD
ROOT
HETATM    1  F   UNL     1     -12.286  13.625  71.546  1.00  0.00    -0.386 F  
HETATM    2  C   UNL     1     -12.830  14.580  72.332  1.00  0.00    -0.360 C  
HETATM    3  C   UNL     1     -12.284  15.982  72.020  1.00  0.00    -0.506 C  
HETATM    4  F   UNL     1     -12.620  14.230  73.620  1.00  0.00    -0.516 F  
HETATM    5  F   UNL     1     -14.170  14.548  72.123  1.00  0.00    -0.467 F  
ENDROOT
BRANCH   3   6
HETATM    6  N   UNL     1     -11.251  16.064  70.987  1.00  0.00    -0.349 N  
HETATM    7  C   UNL     1     -11.587  16.073  69.647  1.00  0.00    -0.299 C  
HETATM    8  H   UNL     1     -10.270  16.114  71.261  1.00  0.00     0.000 HD 
HETATM    9  O   UNL     1     -12.760  15.948  69.293  1.00  0.00     0.143 OA 
BRANCH   7  10
HETATM   10  C   UNL     1     -10.417  16.249  68.646  1.00  0.00    -0.282 C  
HETATM   11  C   UNL     1     -10.343  17.681  68.093  1.00  0.00    -0.386 A  
HETATM   12  C   UNL     1     -10.853  14.383  64.819  1.00  0.00    -0.415 A  
HETATM   13  C   UNL     1     -10.097  18.859  68.786  1.00  0.00    -0.415 A  
HETATM   14  C   UNL     1     -10.653  16.297  66.241  1.00  0.00    -0.256 A  
HETATM   15  C   UNL     1      -9.968  20.038  68.051  1.00  0.00    -0.550 A  
HETATM   16  C   UNL     1     -10.866  13.539  65.940  1.00  0.00    -0.279 A  
HETATM   17  C   UNL     1     -10.091  20.027  66.651  1.00  0.00    -0.607 A  
HETATM   18  C   UNL     1     -10.754  15.772  64.963  1.00  0.00    -0.443 A  
HETATM   19  C   UNL     1     -10.656  15.440  67.364  1.00  0.00    -0.289 A  
HETATM   20  C   UNL     1     -10.347  18.838  65.961  1.00  0.00    -0.467 A  
HETATM   21  C   UNL     1     -10.772  14.064  67.228  1.00  0.00    -0.278 A  
HETATM   22  C   UNL     1     -10.468  17.664  66.685  1.00  0.00    -0.286 A  
BRANCH  10  23
HETATM   23  C   UNL     1      -9.074  15.841  69.307  1.00  0.00    -0.263 C  
BRANCH  23  24
HETATM   24  C   UNL     1      -7.807  16.316  68.574  1.00  0.00    -0.192 C  
BRANCH  24  25
HETATM   25  C   UNL     1      -6.718  15.244  68.637  1.00  0.00    -0.101 C  
BRANCH  25  26
HETATM   26  C   UNL     1      -7.110  13.948  67.916  1.00  0.00    -0.163 C  
BRANCH  26  27
HETATM   27  N   UNL     1      -6.900  12.719  68.698  1.00  0.00    -0.093 NA 
HETATM   28  C   UNL     1      -7.536  10.382  66.986  1.00  0.00    -0.097 C  
HETATM   29  C   UNL     1      -6.252  11.200  66.812  1.00  0.00    -0.122 C  
HETATM   30  C   UNL     1      -8.630  11.209  67.673  1.00  0.00    -0.126 C  
HETATM   31  C   UNL     1      -8.113  11.925  68.923  1.00  0.00     0.067 C  
HETATM   32  C   UNL     1      -5.841  11.884  68.114  1.00  0.00    -0.051 C  
BRANCH  28  33
HETATM   33  N   UNL     1      -7.282   9.134  67.701  1.00  0.00    -0.083 N  
HETATM   34  O   UNL     1      -9.158   8.055  66.911  1.00  0.00    -0.139 OA 
HETATM   35  C   UNL     1      -8.157   8.065  67.615  1.00  0.00    -0.124 C  
HETATM   36  H   UNL     1      -6.443   9.049  68.274  1.00  0.00     0.000 HD 
BRANCH  35  37
HETATM   37  C   UNL     1      -7.844   6.917  68.500  1.00  0.00    -0.118 A  
HETATM   38  C   UNL     1      -8.490   6.684  69.736  1.00  0.00    -0.132 A  
HETATM   39  C   UNL     1      -7.946   5.648  70.530  1.00  0.00    -0.104 A  
HETATM   40  C   UNL     1      -6.742   6.132  68.088  1.00  0.00    -0.064 A  
HETATM   41  C   UNL     1      -6.240   5.125  68.900  1.00  0.00    -0.030 A  
HETATM   42  C   UNL     1      -6.833   4.892  70.131  1.00  0.00    -0.044 A  
BRANCH  38  43
HETATM   43  C   UNL     1      -9.674   7.440  70.253  1.00  0.00    -0.172 A  
HETATM   44  C   UNL     1      -9.619   8.807  70.571  1.00  0.00    -0.226 A  
HETATM   45  C   UNL     1     -11.962   8.847  71.249  1.00  0.00    -0.365 A  
HETATM   46  C   UNL     1     -10.734   9.497  71.074  1.00  0.00    -0.411 A  
HETATM   47  C   UNL     1     -13.160   9.559  71.827  1.00  0.00    -0.418 C  
HETATM   48  C   UNL     1     -12.051   7.499  70.888  1.00  0.00    -0.254 A  
HETATM   49  C   UNL     1     -10.927   6.811  70.410  1.00  0.00    -0.330 A  
HETATM   50  F   UNL     1     -12.913  10.851  72.181  1.00  0.00    -0.549 F  
HETATM   51  F   UNL     1     -13.637   8.951  72.951  1.00  0.00    -0.450 F  
HETATM   52  F   UNL     1     -14.210   9.605  70.959  1.00  0.00    -0.266 F  
ENDBRANCH  38  43
ENDBRANCH  35  37
ENDBRANCH  28  33
ENDBRANCH  26  27
ENDBRANCH  25  26
ENDBRANCH  24  25
ENDBRANCH  23  24
ENDBRANCH  10  23
ENDBRANCH   7  10
ENDBRANCH   3   6
TORSDOF 10
ENDMDL
MODEL        4
REMARK 921   NORMALIZED FREE ENERGY PREDICTED BY IDOCK:   -8.61 KCAL/MOL
REMARK 922        TOTAL FREE ENERGY PREDICTED BY IDOCK:  -16.74 KCAL/MOL
REMARK 923 INTER-LIGAND FREE ENERGY PREDICTED BY IDOCK:  -13.66 KCAL/MOL
REMARK 924 INTRA-LIGAND FREE ENERGY PREDICTED BY IDOCK:   -3.08 KCAL/MOL
REMARK 927      BINDING AFFINITY PREDICTED BY RF-SCORE:    0.00 PKD
ROOT
HETATM    1  F   UNL     1     -11.589  15.427  72.538  1.00  0.00    -0.454 F  
HETATM    2  C   UNL     1     -12.919  15.204  72.451  1.00  0.00    -0.362 C  
HETATM    3  C   UNL     1     -13.393  15.017  71.001  1.00  0.00    -0.419 C  
HETATM    4  F   UNL     1     -13.556  16.225  73.063  1.00  0.00    -0.586 F  
HETATM    5  F   UNL     1     -13.179  14.083  73.170  1.00  0.00    -0.585 F  
ENDROOT
BRANCH   3   6
HETATM    6  N   UNL     1     -12.374  15.158  69.961  1.00  0.00    -0.464 N  
HETATM    7  C   UNL     1     -11.664  14.062  69.509  1.00  0.00    -0.313 C  
HETATM    8  H   UNL     1     -12.185  16.078  69.564  1.00  0.00     0.000 HD 
HETATM    9  O   UNL     1     -11.829  12.954  70.019  1.00  0.00    -0.326 OA 
BRANCH   7  10
HETATM   10  C   UNL     1     -10.673  14.317  68.345  1.00  0.00    -0.257 C  
HETATM   11  C   UNL     1     -10.381  15.813  68.154  1.00  0.00    -0.242 A  
HETATM   12  C   UNL     1     -12.155  13.705  64.377  1.00  0.00    -0.470 A  
HETATM   13  C   UNL     1      -9.768  16.690  69.039  1.00  0.00    -0.260 A  
HETATM   14  C   UNL     1     -11.300  15.079  66.139  1.00  0.00    -0.270 A  
HETATM   15  C   UNL     1      -9.510  17.990  68.601  1.00  0.00    -0.317 A  
HETATM   16  C   UNL     1     -12.162  12.593  65.234  1.00  0.00    -0.532 A  
HETATM   17  C   UNL     1      -9.869  18.395  67.305  1.00  0.00    -0.327 A  
HETATM   18  C   UNL     1     -11.730  14.960  64.828  1.00  0.00    -0.402 A  
HETATM   19  C   UNL     1     -11.299  13.953  66.992  1.00  0.00    -0.343 A  
HETATM   20  C   UNL     1     -10.495  17.508  66.422  1.00  0.00    -0.277 A  
HETATM   21  C   UNL     1     -11.736  12.710  66.556  1.00  0.00    -0.463 A  
HETATM   22  C   UNL     1     -10.745  16.215  66.848  1.00  0.00    -0.247 A  
BRANCH  10  23
HETATM   23  C   UNL     1      -9.360  13.521  68.570  1.00  0.00    -0.108 C  
BRANCH  23  24
HETATM   24  C   UNL     1      -8.252  13.770  67.532  1.00  0.00    -0.194 C  
BRANCH  24  25
HETATM   25  C   UNL     1      -7.359  12.536  67.396  1.00  0.00    -0.147 C  
BRANCH  25  26
HETATM   26  C   UNL     1      -8.153  11.228  67.293  1.00  0.00    -0.140 C  
BRANCH  26  27
HETATM   27  N   UNL     1      -7.996  10.319  68.439  1.00  0.00    -0.104 NA 
HETATM   28  C   UNL     1      -8.723   7.574  67.583  1.00  0.00    -0.122 C  
HETATM   29  C   UNL     1      -7.406   8.239  67.169  1.00  0.00    -0.088 C  
HETATM   30  C   UNL     1      -9.784   8.622  67.942  1.00  0.00    -0.192 C  
HETATM   31  C   UNL     1      -9.241   9.690  68.894  1.00  0.00    -0.147 C  
HETATM   32  C   UNL     1      -6.971   9.298  68.179  1.00  0.00    -0.076 C  
BRANCH  28  33
HETATM   33  N   UNL     1      -8.522   6.622  68.672  1.00  0.00    -0.122 N  
HETATM   34  O   UNL     1      -9.713   4.917  67.683  1.00  0.00    -0.144 OA 
HETATM   35  C   UNL     1      -9.076   5.355  68.632  1.00  0.00    -0.115 C  
HETATM   36  H   UNL     1      -7.962   6.898  69.479  1.00  0.00     0.000 HD 
BRANCH  35  37
HETATM   37  C   UNL     1      -8.905   4.548  69.864  1.00  0.00    -0.129 A  
HETATM   38  C   UNL     1      -9.501   4.878  71.103  1.00  0.00    -0.216 A  
HETATM   39  C   UNL     1      -9.090   4.102  72.211  1.00  0.00    -0.148 A  
HETATM   40  C   UNL     1      -7.980   3.484  69.755  1.00  0.00    -0.056 A  
HETATM   41  C   UNL     1      -7.604   2.748  70.869  1.00  0.00    -0.036 A  
HETATM   42  C   UNL     1      -8.148   3.067  72.104  1.00  0.00    -0.055 A  
BRANCH  38  43
HETATM   43  C   UNL     1     -10.505   5.967  71.321  1.00  0.00    -0.283 A  
HETATM   44  C   UNL     1     -11.638   6.124  70.506  1.00  0.00    -0.261 A  
HETATM   45  C   UNL     1     -12.397   8.071  71.766  1.00  0.00    -0.352 A  
HETATM   46  C   UNL     1     -12.560   7.164  70.711  1.00  0.00    -0.182 A  
HETATM   47  C   UNL     1     -13.354   9.218  71.978  1.00  0.00    -0.450 C  
HETATM   48  C   UNL     1     -11.304   7.899  72.620  1.00  0.00    -0.468 A  
HETATM   49  C   UNL     1     -10.374   6.874  72.393  1.00  0.00    -0.226 A  
HETATM   50  F   UNL     1     -14.340   9.293  71.042  1.00  0.00    -0.334 F  
HETATM   51  F   UNL     1     -12.728  10.430  71.956  1.00  0.00    -0.480 F  
HETATM   52  F   UNL     1     -13.989   9.154  73.183  1.00  0.00    -0.365 F  
ENDBRANCH  38  43
ENDBRANCH  35  37
ENDBRANCH  28  33
ENDBRANCH  26  27
ENDBRANCH  25  26
ENDBRANCH  24  25
ENDBRANCH  23  24
ENDBRANCH  10  23
ENDBRANCH   7  10
ENDBRANCH   3   6
TORSDOF 10
ENDMDL
MODEL        5
REMARK 921   NORMALIZED FREE ENERGY PREDICTED BY IDOCK:   -8.53 KCAL/MOL
REMARK 922        TOTAL FREE ENERGY PREDICTED BY IDOCK:  -16.62 KCAL/MOL
REMARK 923 INTER-LIGAND FREE ENERGY PREDICTED BY IDOCK:  -12.22 KCAL/MOL
REMARK 924 INTRA-LIGAND FREE ENERGY PREDICTED BY IDOCK:   -4.40 KCAL/MOL
REMARK 927      BINDING AFFINITY PREDICTED BY RF-SCORE:    0.00 PKD
ROOT
HETATM    1  F   UNL     1     -11.576   9.195  70.300  1.00  0.00    -0.269 F  
HETATM    2  C   UNL     1     -12.381   9.871  71.150  1.00  0.00    -0.370 C  
HETATM    3  C   UNL     1     -12.374  11.386  70.890  1.00  0.00    -0.381 C  
HETATM    4  F   UNL     1     -12.000   9.573  72.411  1.00  0.00    -0.342 F  
HETATM    5  F   UNL     1     -13.634   9.378  70.984  1.00  0.00    -0.374 F  
ENDROOT
BRANCH   3   6
HETATM    6  N   UNL     1     -11.486  11.860  69.829  1.00  0.00    -0.462 N  
HETATM    7  C   UNL     1     -11.647  13.116  69.274  1.00  0.00    -0.314 C  
HETATM    8  H   UNL     1     -10.737  11.255  69.493  1.00  0.00     0.000 HD 
HETATM    9  O   UNL     1     -12.584  13.837  69.619  1.00  0.00    -0.217 OA 
BRANCH   7  10
HETATM   10  C   UNL     1     -10.595  13.543  68.220  1.00  0.00    -0.259 C  
HETATM   11  C   UNL     1     -10.374  15.063  68.211  1.00  0.00    -0.236 A  
HETATM   12  C   UNL     1     -11.772  13.302  64.112  1.00  0.00    -0.470 A  
HETATM   13  C   UNL     1      -9.872  15.866  69.226  1.00  0.00    -0.259 A  
HETATM   14  C   UNL     1     -11.114  14.513  66.067  1.00  0.00    -0.329 A  
HETATM   15  C   UNL     1      -9.657  17.217  68.950  1.00  0.00    -0.237 A  
HETATM   16  C   UNL     1     -11.774  12.103  64.843  1.00  0.00    -0.373 A  
HETATM   17  C   UNL     1      -9.950  17.745  67.681  1.00  0.00    -0.322 A  
HETATM   18  C   UNL     1     -11.448  14.519  64.724  1.00  0.00    -0.408 A  
HETATM   19  C   UNL     1     -11.108  13.301  66.794  1.00  0.00    -0.313 A  
HETATM   20  C   UNL     1     -10.465  16.931  66.665  1.00  0.00    -0.257 A  
HETATM   21  C   UNL     1     -11.446  12.094  66.198  1.00  0.00    -0.429 A  
HETATM   22  C   UNL     1     -10.672  15.589  66.932  1.00  0.00    -0.317 A  
BRANCH  10  23
HETATM   23  C   UNL     1      -9.259  12.791  68.454  1.00  0.00    -0.136 C  
BRANCH  23  24
HETATM   24  C   UNL     1      -8.009  13.468  67.865  1.00  0.00    -0.162 C  
BRANCH  24  25
HETATM   25  C   UNL     1      -6.933  12.427  67.554  1.00  0.00    -0.142 C  
BRANCH  25  26
HETATM   26  C   UNL     1      -7.279  11.548  66.346  1.00  0.00     0.064 C  
BRANCH  26  27
HETATM   27  N   UNL     1      -7.041  10.109  66.542  1.00  0.00    -0.099 NA 
HETATM   28  C   UNL     1      -9.568   8.647  66.027  1.00  0.00    -0.195 C  
HETATM   29  C   UNL     1      -8.720   9.239  64.897  1.00  0.00    -0.224 C  
HETATM   30  C   UNL     1      -9.301   9.365  67.355  1.00  0.00    -0.151 C  
HETATM   31  C   UNL     1      -7.805   9.509  67.642  1.00  0.00    -0.102 C  
HETATM   32  C   UNL     1      -7.252   9.354  65.299  1.00  0.00    -0.096 C  
BRANCH  28  33
HETATM   33  N   UNL     1      -9.366   7.206  66.148  1.00  0.00    -0.360 N  
HETATM   34  O   UNL     1     -11.471   6.767  66.974  1.00  0.00    -0.209 OA 
HETATM   35  C   UNL     1     -10.356   6.380  66.651  1.00  0.00    -0.155 C  
HETATM   36  H   UNL     1      -8.477   6.800  65.855  1.00  0.00     0.000 HD 
BRANCH  35  37
HETATM   37  C   UNL     1      -9.962   4.963  66.845  1.00  0.00    -0.244 A  
HETATM   38  C   UNL     1      -9.546   4.431  68.087  1.00  0.00    -0.200 A  
HETATM   39  C   UNL     1      -9.039   3.112  68.053  1.00  0.00    -0.218 A  
HETATM   40  C   UNL     1      -9.896   4.197  65.659  1.00  0.00    -0.207 A  
HETATM   41  C   UNL     1      -9.390   2.905  65.672  1.00  0.00    -0.071 A  
HETATM   42  C   UNL     1      -8.946   2.365  66.869  1.00  0.00    -0.150 A  
BRANCH  38  43
HETATM   43  C   UNL     1      -9.596   5.149  69.401  1.00  0.00    -0.225 A  
HETATM   44  C   UNL     1     -10.773   5.255  70.159  1.00  0.00    -0.217 A  
HETATM   45  C   UNL     1      -9.652   6.539  71.903  1.00  0.00    -0.156 A  
HETATM   46  C   UNL     1     -10.809   5.949  71.380  1.00  0.00    -0.332 A  
HETATM   47  C   UNL     1      -9.678   7.325  73.192  1.00  0.00    -0.209 C  
HETATM   48  C   UNL     1      -8.459   6.400  71.189  1.00  0.00    -0.124 A  
HETATM   49  C   UNL     1      -8.437   5.727  69.959  1.00  0.00    -0.124 A  
HETATM   50  F   UNL     1     -10.916   7.422  73.752  1.00  0.00    -0.398 F  
HETATM   51  F   UNL     1      -9.242   8.607  73.030  1.00  0.00    -0.299 F  
HETATM   52  F   UNL     1      -8.877   6.781  74.152  1.00  0.00    -0.140 F  
ENDBRANCH  38  43
ENDBRANCH  35  37
ENDBRANCH  28  33
ENDBRANCH  26  27
ENDBRANCH  25  26
ENDBRANCH  24  25
ENDBRANCH  23  24
ENDBRANCH  10  23
ENDBRANCH   7  10
ENDBRANCH   3   6
TORSDOF 10
ENDMDL
MODEL        6
REMARK 921   NORMALIZED FREE ENERGY PREDICTED BY IDOCK:   -8.46 KCAL/MOL
REMARK 922        TOTAL FREE ENERGY PREDICTED BY IDOCK:  -16.51 KCAL/MOL
REMARK 923 INTER-LIGAND FREE ENERGY PREDICTED BY IDOCK:  -12.16 KCAL/MOL
REMARK 924 INTRA-LIGAND FREE ENERGY PREDICTED BY IDOCK:   -4.35 KCAL/MOL
REMARK 927      BINDING AFFINITY PREDICTED BY RF-SCORE:    0.00 PKD
ROOT
HETATM    1  F   UNL     1      -8.559  18.474  67.944  1.00  0.00    -0.269 F  
HETATM    2  C   UNL     1      -9.477  19.100  67.175  1.00  0.00    -0.314 C  
HETATM    3  C   UNL     1     -10.496  18.127  66.560  1.00  0.00    -0.341 C  
HETATM    4  F   UNL     1      -8.820  19.807  66.231  1.00  0.00    -0.336 F  
HETATM    5  F   UNL     1     -10.115  19.995  67.972  1.00  0.00    -0.475 F  
ENDROOT
BRANCH   3   6
HETATM    6  N   UNL     1     -10.293  16.707  66.847  1.00  0.00    -0.301 N  
HETATM    7  C   UNL     1     -10.888  16.111  67.944  1.00  0.00    -0.332 C  
HETATM    8  H   UNL     1      -9.705  16.148  66.230  1.00  0.00     0.000 HD 
HETATM    9  O   UNL     1     -11.549  16.781  68.739  1.00  0.00    -0.093 OA 
BRANCH   7  10
HETATM   10  C   UNL     1     -10.673  14.585  68.099  1.00  0.00    -0.240 C  
HETATM   11  C   UNL     1      -9.184  14.220  68.196  1.00  0.00    -0.202 A  
HETATM   12  C   UNL     1     -11.439  12.166  64.652  1.00  0.00    -0.388 A  
HETATM   13  C   UNL     1      -8.272  14.579  69.179  1.00  0.00    -0.017 A  
HETATM   14  C   UNL     1      -9.996  13.097  66.318  1.00  0.00    -0.285 A  
HETATM   15  C   UNL     1      -6.988  14.035  69.113  1.00  0.00    -0.103 A  
HETATM   16  C   UNL     1     -12.518  12.908  65.157  1.00  0.00    -0.561 A  
HETATM   17  C   UNL     1      -6.633  13.157  68.075  1.00  0.00    -0.124 A  
HETATM   18  C   UNL     1     -10.166  12.262  65.227  1.00  0.00    -0.305 A  
HETATM   19  C   UNL     1     -11.090  13.833  66.828  1.00  0.00    -0.316 A  
HETATM   20  C   UNL     1      -7.555  12.807  67.083  1.00  0.00    -0.050 A  
HETATM   21  C   UNL     1     -12.350  13.755  66.252  1.00  0.00    -0.479 A  
HETATM   22  C   UNL     1      -8.833  13.337  67.148  1.00  0.00    -0.223 A  
BRANCH  10  23
HETATM   23  C   UNL     1     -11.454  14.052  69.329  1.00  0.00    -0.344 C  
BRANCH  23  24
HETATM   24  C   UNL     1     -11.384  12.530  69.547  1.00  0.00    -0.240 C  
BRANCH  24  25
HETATM   25  C   UNL     1     -12.517  12.067  70.463  1.00  0.00    -0.292 C  
BRANCH  25  26
HETATM   26  C   UNL     1     -12.102  10.930  71.404  1.00  0.00    -0.138 C  
BRANCH  26  27
HETATM   27  N   UNL     1     -11.797   9.655  70.735  1.00  0.00    -0.294 NA 
HETATM   28  C   UNL     1     -11.046   7.656  72.793  1.00  0.00    -0.383 C  
HETATM   29  C   UNL     1     -12.495   8.106  72.578  1.00  0.00    -0.249 C  
HETATM   30  C   UNL     1     -10.057   8.714  72.288  1.00  0.00    -0.363 C  
HETATM   31  C   UNL     1     -10.407   9.207  70.882  1.00  0.00    -0.280 C  
HETATM   32  C   UNL     1     -12.725   8.594  71.150  1.00  0.00    -0.123 C  
BRANCH  28  33
HETATM   33  N   UNL     1     -10.794   6.354  72.181  1.00  0.00    -0.227 N  
HETATM   34  O   UNL     1      -8.940   5.877  73.461  1.00  0.00    -0.129 OA 
HETATM   35  C   UNL     1      -9.717   5.575  72.565  1.00  0.00    -0.152 C  
HETATM   36  H   UNL     1     -11.426   6.012  71.457  1.00  0.00     0.000 HD 
BRANCH  35  37
HETATM   37  C   UNL     1      -9.506   4.345  71.764  1.00  0.00    -0.206 A  
HETATM   38  C   UNL     1      -9.482   4.327  70.351  1.00  0.00    -0.245 A  
HETATM   39  C   UNL     1      -9.449   3.047  69.752  1.00  0.00    -0.184 A  
HETATM   40  C   UNL     1      -9.469   3.147  72.515  1.00  0.00    -0.171 A  
HETATM   41  C   UNL     1      -9.438   1.911  71.885  1.00  0.00    -0.177 A  
HETATM   42  C   UNL     1      -9.443   1.859  70.499  1.00  0.00    -0.168 A  
BRANCH  38  43
HETATM   43  C   UNL     1      -9.494   5.535  69.467  1.00  0.00    -0.185 A  
HETATM   44  C   UNL     1      -8.339   6.289  69.200  1.00  0.00    -0.120 A  
HETATM   45  C   UNL     1      -9.563   7.846  67.776  1.00  0.00    -0.174 A  
HETATM   46  C   UNL     1      -8.372   7.432  68.384  1.00  0.00    -0.125 A  
HETATM   47  C   UNL     1      -9.627   9.094  66.930  1.00  0.00    -0.178 C  
HETATM   48  C   UNL     1     -10.712   7.079  67.987  1.00  0.00    -0.252 A  
HETATM   49  C   UNL     1     -10.677   5.954  68.823  1.00  0.00    -0.354 A  
HETATM   50  F   UNL     1      -8.447   9.769  66.855  1.00  0.00    -0.118 F  
HETATM   51  F   UNL     1     -10.540   9.994  67.397  1.00  0.00    -0.253 F  
HETATM   52  F   UNL     1      -9.991   8.835  65.643  1.00  0.00    -0.279 F  
ENDBRANCH  38  43
ENDBRANCH  35  37
ENDBRANCH  28  33
ENDBRANCH  26  27
ENDBRANCH  25  26
ENDBRANCH  24  25
ENDBRANCH  23  24
ENDBRANCH  10  23
ENDBRANCH   7  10
ENDBRANCH   3   6
TORSDOF 10
ENDMDL
MODEL        7
REMARK 921   NORMALIZED FREE ENERGY PREDICTED BY IDOCK:   -8.38 KCAL/MOL
REMARK 922        TOTAL FREE ENERGY PREDICTED BY IDOCK:  -16.39 KCAL/MOL
REMARK 923 INTER-LIGAND FREE ENERGY PREDICTED BY IDOCK:  -12.79 KCAL/MOL
REMARK 924 INTRA-LIGAND FREE ENERGY PREDICTED BY IDOCK:   -3.59 KCAL/MOL
REMARK 927      BINDING AFFINITY PREDICTED BY RF-SCORE:    0.00 PKD
ROOT
HETATM    1  F   UNL     1     -11.445  11.734  64.925  1.00  0.00    -0.371 F  
HETATM    2  C   UNL     1     -11.977  12.490  63.939  1.00  0.00    -0.480 C  
HETATM    3  C   UNL     1     -12.074  13.975  64.321  1.00  0.00    -0.445 C  
HETATM    4  F   UNL     1     -13.181  11.971  63.619  1.00  0.00    -0.548 F  
HETATM    5  F   UNL     1     -11.176  12.343  62.853  1.00  0.00    -0.391 F  
ENDROOT
BRANCH   3   6
HETATM    6  N   UNL     1     -11.638  14.329  65.673  1.00  0.00    -0.339 N  
HETATM    7  C   UNL     1     -10.822  15.422  65.893  1.00  0.00    -0.325 C  
HETATM    8  H   UNL     1     -11.941  13.760  66.463  1.00  0.00     0.000 HD 
HETATM    9  O   UNL     1     -10.392  16.084  64.948  1.00  0.00    -0.543 OA 
BRANCH   7  10
HETATM   10  C   UNL     1     -10.496  15.751  67.372  1.00  0.00    -0.297 C  
HETATM   11  C   UNL     1     -10.093  17.221  67.559  1.00  0.00    -0.315 A  
HETATM   12  C   UNL     1      -6.852  14.151  68.947  1.00  0.00    -0.106 A  
HETATM   13  C   UNL     1     -10.860  18.358  67.341  1.00  0.00    -0.306 A  
HETATM   14  C   UNL     1      -8.265  15.962  68.280  1.00  0.00    -0.152 A  
HETATM   15  C   UNL     1     -10.313  19.595  67.686  1.00  0.00    -0.583 A  
HETATM   16  C   UNL     1      -7.805  13.226  68.493  1.00  0.00    -0.110 A  
HETATM   17  C   UNL     1      -9.020  19.681  68.231  1.00  0.00    -0.378 A  
HETATM   18  C   UNL     1      -7.074  15.529  68.835  1.00  0.00    -0.134 A  
HETATM   19  C   UNL     1      -9.225  15.025  67.835  1.00  0.00    -0.182 A  
HETATM   20  C   UNL     1      -8.250  18.531  68.440  1.00  0.00    -0.351 A  
HETATM   21  C   UNL     1      -9.003  13.658  67.926  1.00  0.00    -0.195 A  
HETATM   22  C   UNL     1      -8.792  17.302  68.107  1.00  0.00    -0.239 A  
BRANCH  10  23
HETATM   23  C   UNL     1     -11.696  15.385  68.284  1.00  0.00    -0.313 C  
BRANCH  23  24
HETATM   24  C   UNL     1     -11.376  14.422  69.441  1.00  0.00    -0.319 C  
BRANCH  24  25
HETATM   25  C   UNL     1     -12.398  13.287  69.492  1.00  0.00    -0.122 C  
BRANCH  25  26
HETATM   26  C   UNL     1     -11.957  12.120  70.385  1.00  0.00    -0.272 C  
BRANCH  26  27
HETATM   27  N   UNL     1     -12.003  10.798  69.740  1.00  0.00    -0.315 NA 
HETATM   28  C   UNL     1      -9.842   9.113  70.874  1.00  0.00    -0.291 C  
HETATM   29  C   UNL     1     -11.122   9.437  71.652  1.00  0.00    -0.409 C  
HETATM   30  C   UNL     1      -9.570  10.166  69.794  1.00  0.00    -0.213 C  
HETATM   31  C   UNL     1     -10.812  10.464  68.951  1.00  0.00    -0.236 C  
HETATM   32  C   UNL     1     -12.288   9.735  70.714  1.00  0.00    -0.236 C  
BRANCH  28  33
HETATM   33  N   UNL     1      -9.886   7.767  70.309  1.00  0.00    -0.184 N  
HETATM   34  O   UNL     1      -7.629   7.370  70.537  1.00  0.00    -0.084 OA 
HETATM   35  C   UNL     1      -8.737   7.009  70.164  1.00  0.00    -0.141 C  
HETATM   36  H   UNL     1     -10.782   7.377  70.016  1.00  0.00     0.000 HD 
BRANCH  35  37
HETATM   37  C   UNL     1      -8.913   5.721  69.451  1.00  0.00    -0.121 A  
HETATM   38  C   UNL     1      -9.085   5.620  68.051  1.00  0.00    -0.107 A  
HETATM   39  C   UNL     1      -9.415   4.335  67.562  1.00  0.00    -0.216 A  
HETATM   40  C   UNL     1      -9.038   4.589  70.289  1.00  0.00    -0.159 A  
HETATM   41  C   UNL     1      -9.364   3.346  69.767  1.00  0.00    -0.238 A  
HETATM   42  C   UNL     1      -9.569   3.220  68.402  1.00  0.00    -0.133 A  
BRANCH  38  43
HETATM   43  C   UNL     1      -8.952   6.748  67.076  1.00  0.00    -0.118 A  
HETATM   44  C   UNL     1      -7.807   6.933  66.285  1.00  0.00    -0.101 A  
HETATM   45  C   UNL     1      -8.735   8.926  65.229  1.00  0.00    -0.220 A  
HETATM   46  C   UNL     1      -7.690   8.008  65.389  1.00  0.00    -0.096 A  
HETATM   47  C   UNL     1      -8.613  10.112  64.303  1.00  0.00    -0.193 C  
HETATM   48  C   UNL     1      -9.904   8.729  65.969  1.00  0.00    -0.234 A  
HETATM   49  C   UNL     1     -10.003   7.668  66.879  1.00  0.00    -0.325 A  
HETATM   50  F   UNL     1      -7.401  10.206  63.688  1.00  0.00    -0.134 F  
HETATM   51  F   UNL     1      -8.795  11.299  64.949  1.00  0.00    -0.161 F  
HETATM   52  F   UNL     1      -9.538  10.091  63.302  1.00  0.00    -0.317 F  
ENDBRANCH  38  43
ENDBRANCH  35  37
ENDBRANCH  28  33
ENDBRANCH  26  27
ENDBRANCH  25  26
ENDBRANCH  24  25
ENDBRANCH  23  24
ENDBRANCH  10  23
ENDBRANCH   7  10
ENDBRANCH   3   6
TORSDOF 10
ENDMDL
MODEL        8
REMARK 921   NORMALIZED FREE ENERGY PREDICTED BY IDOCK:   -8.30 KCAL/MOL
REMARK 922        TOTAL FREE ENERGY PREDICTED BY IDOCK:  -16.25 KCAL/MOL
REMARK 923 INTER-LIGAND FREE ENERGY PREDICTED BY IDOCK:  -13.13 KCAL/MOL
REMARK 924 INTRA-LIGAND FREE ENERGY PREDICTED BY IDOCK:   -3.12 KCAL/MOL
REMARK 927      BINDING AFFINITY PREDICTED BY RF-SCORE:    0.00 PKD
ROOT
HETATM    1  F   UNL     1     -11.639  15.285  72.373  1.00  0.00    -0.437 F  
HETATM    2  C   UNL     1     -12.970  15.074  72.283  1.00  0.00    -0.349 C  
HETATM    3  C   UNL     1     -13.440  14.878  70.833  1.00  0.00    -0.306 C  
HETATM    4  F   UNL     1     -13.599  16.108  72.883  1.00  0.00    -0.575 F  
HETATM    5  F   UNL     1     -13.244  13.963  73.013  1.00  0.00    -0.569 F  
ENDROOT
BRANCH   3   6
HETATM    6  N   UNL     1     -12.415  14.998  69.796  1.00  0.00    -0.556 N  
HETATM    7  C   UNL     1     -11.682  13.899  69.390  1.00  0.00    -0.315 C  
HETATM    8  H   UNL     1     -12.240  15.906  69.366  1.00  0.00     0.000 HD 
HETATM    9  O   UNL     1     -11.832  12.807  69.941  1.00  0.00    -0.324 OA 
BRANCH   7  10
HETATM   10  C   UNL     1     -10.686  14.127  68.225  1.00  0.00    -0.256 C  
HETATM   11  C   UNL     1     -10.301  15.607  68.079  1.00  0.00    -0.246 A  
HETATM   12  C   UNL     1     -12.237  13.740  64.255  1.00  0.00    -0.444 A  
HETATM   13  C   UNL     1      -9.627  16.415  68.985  1.00  0.00    -0.264 A  
HETATM   14  C   UNL     1     -11.282  14.999  66.051  1.00  0.00    -0.310 A  
HETATM   15  C   UNL     1      -9.290  17.709  68.586  1.00  0.00    -0.270 A  
HETATM   16  C   UNL     1     -12.308  12.603  65.076  1.00  0.00    -0.561 A  
HETATM   17  C   UNL     1      -9.633  18.178  67.307  1.00  0.00    -0.281 A  
HETATM   18  C   UNL     1     -11.729  14.950  64.742  1.00  0.00    -0.402 A  
HETATM   19  C   UNL     1     -11.346  13.848  66.868  1.00  0.00    -0.343 A  
HETATM   20  C   UNL     1     -10.321  17.361  66.403  1.00  0.00    -0.317 A  
HETATM   21  C   UNL     1     -11.865  12.650  66.397  1.00  0.00    -0.466 A  
HETATM   22  C   UNL     1     -10.650  16.074  66.791  1.00  0.00    -0.297 A  
BRANCH  10  23
HETATM   23  C   UNL     1      -9.425  13.243  68.412  1.00  0.00    -0.172 C  
BRANCH  23  24
HETATM   24  C   UNL     1      -8.372  13.352  67.295  1.00  0.00    -0.183 C  
BRANCH  24  25
HETATM   25  C   UNL     1      -7.700  12.000  67.058  1.00  0.00    -0.129 C  
BRANCH  25  26
HETATM   26  C   UNL     1      -8.700  10.841  66.956  1.00  0.00    -0.136 C  
BRANCH  26  27
HETATM   27  N   UNL     1      -8.294   9.612  67.655  1.00  0.00    -0.121 NA 
HETATM   28  C   UNL     1     -10.468   8.808  69.505  1.00  0.00    -0.220 C  
HETATM   29  C   UNL     1     -10.572   8.620  67.988  1.00  0.00    -0.205 C  
HETATM   30  C   UNL     1      -9.468   9.916  69.858  1.00  0.00    -0.256 C  
HETATM   31  C   UNL     1      -8.143   9.759  69.108  1.00  0.00    -0.107 C  
HETATM   32  C   UNL     1      -9.194   8.493  67.343  1.00  0.00    -0.140 C  
BRANCH  28  33
HETATM   33  N   UNL     1     -10.137   7.555  70.178  1.00  0.00    -0.193 N  
HETATM   34  O   UNL     1     -12.320   6.984  70.642  1.00  0.00    -0.319 OA 
HETATM   35  C   UNL     1     -11.121   6.750  70.724  1.00  0.00    -0.276 C  
HETATM   36  H   UNL     1      -9.161   7.268  70.246  1.00  0.00     0.000 HD 
BRANCH  35  37
HETATM   37  C   UNL     1     -10.631   5.582  71.495  1.00  0.00    -0.302 A  
HETATM   38  C   UNL     1      -9.803   4.576  70.946  1.00  0.00    -0.269 A  
HETATM   39  C   UNL     1      -9.576   3.448  71.768  1.00  0.00    -0.225 A  
HETATM   40  C   UNL     1     -11.165   5.463  72.798  1.00  0.00    -0.358 A  
HETATM   41  C   UNL     1     -10.918   4.337  73.571  1.00  0.00    -0.373 A  
HETATM   42  C   UNL     1     -10.134   3.320  73.050  1.00  0.00    -0.218 A  
BRANCH  38  43
HETATM   43  C   UNL     1      -9.170   4.616  69.590  1.00  0.00    -0.186 A  
HETATM   44  C   UNL     1      -7.929   5.230  69.352  1.00  0.00    -0.088 A  
HETATM   45  C   UNL     1      -7.999   4.678  66.977  1.00  0.00    -0.102 A  
HETATM   46  C   UNL     1      -7.359   5.276  68.070  1.00  0.00    -0.072 A  
HETATM   47  C   UNL     1      -7.423   4.752  65.584  1.00  0.00    -0.081 C  
HETATM   48  C   UNL     1      -9.209   4.016  67.203  1.00  0.00    -0.185 A  
HETATM   49  C   UNL     1      -9.784   3.996  68.482  1.00  0.00    -0.134 A  
HETATM   50  F   UNL     1      -6.269   5.471  65.504  1.00  0.00    -0.029 F  
HETATM   51  F   UNL     1      -8.282   5.328  64.695  1.00  0.00    -0.107 F  
HETATM   52  F   UNL     1      -7.132   3.523  65.072  1.00  0.00    -0.058 F  
ENDBRANCH  38  43
ENDBRANCH  35  37
ENDBRANCH  28  33
ENDBRANCH  26  27
ENDBRANCH  25  26
ENDBRANCH  24  25
ENDBRANCH  23  24
ENDBRANCH  10  23
ENDBRANCH   7  10
ENDBRANCH   3   6
TORSDOF 10
ENDMDL
MODEL        9
REMARK 921   NORMALIZED FREE ENERGY PREDICTED BY IDOCK:   -8.25 KCAL/MOL
REMARK 922        TOTAL FREE ENERGY PREDICTED BY IDOCK:  -16.17 KCAL/MOL
REMARK 923 INTER-LIGAND FREE ENERGY PREDICTED BY IDOCK:  -14.22 KCAL/MOL
REMARK 924 INTRA-LIGAND FREE ENERGY PREDICTED BY IDOCK:   -1.95 KCAL/MOL
REMARK 927      BINDING AFFINITY PREDICTED BY RF-SCORE:    0.00 PKD
ROOT
HETATM    1  F   UNL     1     -11.730  16.920  72.101  1.00  0.00    -0.506 F  
HETATM    2  C   UNL     1     -12.314  15.706  72.209  1.00  0.00    -0.428 C  
HETATM    3  C   UNL     1     -11.724  14.678  71.233  1.00  0.00    -0.264 C  
HETATM    4  F   UNL     1     -13.644  15.866  72.033  1.00  0.00    -0.521 F  
HETATM    5  F   UNL     1     -12.128  15.291  73.488  1.00  0.00    -0.477 F  
ENDROOT
BRANCH   3   6
HETATM    6  N   UNL     1     -10.686  15.165  70.324  1.00  0.00    -0.455 N  
HETATM    7  C   UNL     1     -10.715  14.850  68.978  1.00  0.00    -0.247 C  
HETATM    8  H   UNL     1      -9.931  15.745  70.688  1.00  0.00     0.000 HD 
HETATM    9  O   UNL     1     -11.581  14.099  68.528  1.00  0.00    -0.278 OA 
BRANCH   7  10
HETATM   10  C   UNL     1      -9.614  15.493  68.097  1.00  0.00    -0.199 C  
HETATM   11  C   UNL     1      -8.215  15.324  68.710  1.00  0.00    -0.169 A  
HETATM   12  C   UNL     1      -9.474  19.769  67.993  1.00  0.00    -0.466 A  
HETATM   13  C   UNL     1      -7.517  14.148  68.951  1.00  0.00    -0.112 A  
HETATM   14  C   UNL     1      -8.563  17.625  68.536  1.00  0.00    -0.285 A  
HETATM   15  C   UNL     1      -6.206  14.247  69.419  1.00  0.00    -0.111 A  
HETATM   16  C   UNL     1     -10.655  19.163  67.535  1.00  0.00    -0.567 A  
HETATM   17  C   UNL     1      -5.618  15.503  69.644  1.00  0.00    -0.114 A  
HETATM   18  C   UNL     1      -8.421  19.001  68.505  1.00  0.00    -0.387 A  
HETATM   19  C   UNL     1      -9.750  17.021  68.064  1.00  0.00    -0.260 A  
HETATM   20  C   UNL     1      -6.331  16.684  69.408  1.00  0.00    -0.215 A  
HETATM   21  C   UNL     1     -10.804  17.777  67.572  1.00  0.00    -0.221 A  
HETATM   22  C   UNL     1      -7.629  16.591  68.935  1.00  0.00    -0.238 A  
BRANCH  10  23
HETATM   23  C   UNL     1      -9.663  14.909  66.661  1.00  0.00    -0.276 C  
BRANCH  23  24
HETATM   24  C   UNL     1     -10.739  15.512  65.740  1.00  0.00    -0.362 C  
BRANCH  24  25
HETATM   25  C   UNL     1     -11.496  14.406  65.005  1.00  0.00    -0.372 C  
BRANCH  25  26
HETATM   26  C   UNL     1     -10.569  13.356  64.381  1.00  0.00    -0.407 C  
BRANCH  26  27
HETATM   27  N   UNL     1     -11.063  11.972  64.460  1.00  0.00    -0.317 NA 
HETATM   28  C   UNL     1      -8.829  10.210  65.294  1.00  0.00    -0.178 C  
HETATM   29  C   UNL     1      -9.540  11.149  66.273  1.00  0.00    -0.234 C  
HETATM   30  C   UNL     1      -8.985  10.696  63.848  1.00  0.00    -0.205 C  
HETATM   31  C   UNL     1     -10.436  11.046  63.510  1.00  0.00    -0.300 C  
HETATM   32  C   UNL     1     -10.970  11.444  65.828  1.00  0.00    -0.194 C  
BRANCH  28  33
HETATM   33  N   UNL     1      -9.287   8.831  65.447  1.00  0.00    -0.443 N  
HETATM   34  O   UNL     1      -7.527   8.172  66.778  1.00  0.00    -0.087 OA 
HETATM   35  C   UNL     1      -8.557   7.907  66.173  1.00  0.00    -0.150 C  
HETATM   36  H   UNL     1     -10.162   8.545  65.009  1.00  0.00     0.000 HD 
BRANCH  35  37
HETATM   37  C   UNL     1      -9.070   6.516  66.128  1.00  0.00    -0.146 A  
HETATM   38  C   UNL     1      -9.815   5.924  67.173  1.00  0.00    -0.162 A  
HETATM   39  C   UNL     1     -10.070   4.540  67.041  1.00  0.00    -0.180 A  
HETATM   40  C   UNL     1      -8.640   5.760  65.013  1.00  0.00    -0.089 A  
HETATM   41  C   UNL     1      -8.913   4.403  64.924  1.00  0.00    -0.147 A  
HETATM   42  C   UNL     1      -9.616   3.786  65.947  1.00  0.00    -0.166 A  
BRANCH  38  43
HETATM   43  C   UNL     1     -10.336   6.639  68.382  1.00  0.00    -0.220 A  
HETATM   44  C   UNL     1     -10.399   8.039  68.463  1.00  0.00    -0.229 A  
HETATM   45  C   UNL     1     -11.329   7.966  70.718  1.00  0.00    -0.283 A  
HETATM   46  C   UNL     1     -10.870   8.694  69.613  1.00  0.00    -0.163 A  
HETATM   47  C   UNL     1     -11.800   8.650  71.977  1.00  0.00    -0.372 C  
HETATM   48  C   UNL     1     -11.323   6.571  70.635  1.00  0.00    -0.409 A  
HETATM   49  C   UNL     1     -10.827   5.924  69.494  1.00  0.00    -0.442 A  
HETATM   50  F   UNL     1     -11.702  10.008  71.935  1.00  0.00    -0.423 F  
HETATM   51  F   UNL     1     -11.096   8.261  73.078  1.00  0.00    -0.419 F  
HETATM   52  F   UNL     1     -13.106   8.381  72.261  1.00  0.00    -0.328 F  
ENDBRANCH  38  43
ENDBRANCH  35  37
ENDBRANCH  28  33
ENDBRANCH  26  27
ENDBRANCH  25  26
ENDBRANCH  24  25
ENDBRANCH  23  24
ENDBRANCH  10  23
ENDBRANCH   7  10
ENDBRANCH   3   6
TORSDOF 10
ENDMDL
MODEL       10
REMARK 921   NORMALIZED FREE ENERGY PREDICTED BY IDOCK:   -8.17 KCAL/MOL
REMARK 922        TOTAL FREE ENERGY PREDICTED BY IDOCK:  -16.05 KCAL/MOL
REMARK 923 INTER-LIGAND FREE ENERGY PREDICTED BY IDOCK:  -13.07 KCAL/MOL
REMARK 924 INTRA-LIGAND FREE ENERGY PREDICTED BY IDOCK:   -2.99 KCAL/MOL
REMARK 927      BINDING AFFINITY PREDICTED BY RF-SCORE:    0.00 PKD
ROOT
HETATM    1  F   UNL     1      -8.790  19.755  68.684  1.00  0.00    -0.371 F  
HETATM    2  C   UNL     1      -8.681  20.238  67.427  1.00  0.00    -0.341 C  
HETATM    3  C   UNL     1      -8.687  19.127  66.365  1.00  0.00    -0.328 C  
HETATM    4  F   UNL     1      -7.562  20.991  67.364  1.00  0.00    -0.388 F  
HETATM    5  F   UNL     1      -9.735  21.071  67.232  1.00  0.00    -0.609 F  
ENDROOT
BRANCH   3   6
HETATM    6  N   UNL     1      -8.755  17.753  66.862  1.00  0.00    -0.241 N  
HETATM    7  C   UNL     1      -9.824  16.935  66.549  1.00  0.00    -0.296 C  
HETATM    8  H   UNL     1      -8.002  17.393  67.448  1.00  0.00     0.000 HD 
HETATM    9  O   UNL     1     -10.775  17.369  65.897  1.00  0.00    -0.278 OA 
BRANCH   7  10
HETATM   10  C   UNL     1      -9.746  15.474  67.058  1.00  0.00    -0.230 C  
HETATM   11  C   UNL     1     -10.520  14.506  66.150  1.00  0.00    -0.303 A  
HETATM   12  C   UNL     1     -11.969  14.541  70.595  1.00  0.00    -0.387 A  
HETATM   13  C   UNL     1     -10.274  14.192  64.820  1.00  0.00    -0.311 A  
HETATM   14  C   UNL     1     -11.509  14.334  68.256  1.00  0.00    -0.334 A  
HETATM   15  C   UNL     1     -11.050  13.194  64.228  1.00  0.00    -0.426 A  
HETATM   16  C   UNL     1     -10.967  15.517  70.716  1.00  0.00    -0.360 A  
HETATM   17  C   UNL     1     -12.053  12.536  64.959  1.00  0.00    -0.504 A  
HETATM   18  C   UNL     1     -12.252  13.948  69.359  1.00  0.00    -0.338 A  
HETATM   19  C   UNL     1     -10.495  15.309  68.388  1.00  0.00    -0.236 A  
HETATM   20  C   UNL     1     -12.301  12.865  66.296  1.00  0.00    -0.199 A  
HETATM   21  C   UNL     1     -10.221  15.914  69.606  1.00  0.00    -0.280 A  
HETATM   22  C   UNL     1     -11.528  13.848  66.891  1.00  0.00    -0.370 A  
BRANCH  10  23
HETATM   23  C   UNL     1      -8.267  15.032  67.206  1.00  0.00    -0.236 C  
BRANCH  23  24
HETATM   24  C   UNL     1      -8.009  13.930  68.249  1.00  0.00    -0.148 C  
BRANCH  24  25
HETATM   25  C   UNL     1      -7.797  12.581  67.562  1.00  0.00    -0.168 C  
BRANCH  25  26
HETATM   26  C   UNL     1      -8.903  11.566  67.879  1.00  0.00    -0.152 C  
BRANCH  26  27
HETATM   27  N   UNL     1      -8.422  10.222  68.236  1.00  0.00    -0.118 NA 
HETATM   28  C   UNL     1      -9.755   8.237  66.482  1.00  0.00    -0.253 C  
HETATM   29  C   UNL     1      -8.634   9.153  65.979  1.00  0.00    -0.162 C  
HETATM   30  C   UNL     1     -10.454   8.839  67.707  1.00  0.00    -0.292 C  
HETATM   31  C   UNL     1      -9.457   9.324  68.761  1.00  0.00    -0.150 C  
HETATM   32  C   UNL     1      -7.713   9.588  67.116  1.00  0.00    -0.091 C  
BRANCH  28  33
HETATM   33  N   UNL     1      -9.261   6.890  66.757  1.00  0.00    -0.146 N  
HETATM   34  O   UNL     1     -11.281   5.847  66.386  1.00  0.00    -0.063 OA 
HETATM   35  C   UNL     1     -10.102   5.792  66.709  1.00  0.00    -0.196 C  
HETATM   36  H   UNL     1      -8.277   6.756  66.990  1.00  0.00     0.000 HD 
BRANCH  35  37
HETATM   37  C   UNL     1      -9.497   4.510  67.145  1.00  0.00    -0.182 A  
HETATM   38  C   UNL     1      -9.194   4.207  68.492  1.00  0.00    -0.200 A  
HETATM   39  C   UNL     1      -8.460   3.018  68.706  1.00  0.00    -0.096 A  
HETATM   40  C   UNL     1      -9.108   3.648  66.093  1.00  0.00    -0.155 A  
HETATM   41  C   UNL     1      -8.388   2.490  66.349  1.00  0.00    -0.093 A  
HETATM   42  C   UNL     1      -8.049   2.181  67.657  1.00  0.00    -0.068 A  
BRANCH  38  43
HETATM   43  C   UNL     1      -9.579   5.038  69.677  1.00  0.00    -0.240 A  
HETATM   44  C   UNL     1     -10.841   5.642  69.799  1.00  0.00    -0.370 A  
HETATM   45  C   UNL     1     -10.271   6.628  71.956  1.00  0.00    -0.206 A  
HETATM   46  C   UNL     1     -11.179   6.435  70.908  1.00  0.00    -0.384 A  
HETATM   47  C   UNL     1     -10.599   7.510  73.135  1.00  0.00    -0.388 C  
HETATM   48  C   UNL     1      -9.029   5.993  71.878  1.00  0.00    -0.138 A  
HETATM   49  C   UNL     1      -8.689   5.223  70.756  1.00  0.00    -0.140 A  
HETATM   50  F   UNL     1     -11.822   8.105  73.053  1.00  0.00    -0.450 F  
HETATM   51  F   UNL     1      -9.702   8.525  73.294  1.00  0.00    -0.281 F  
HETATM   52  F   UNL     1     -10.596   6.828  74.316  1.00  0.00    -0.376 F  
ENDBRANCH  38  43
ENDBRANCH  35  37
ENDBRANCH  28  33
ENDBRANCH  26  27
ENDBRANCH  25  26
ENDBRANCH  24  25
ENDBRANCH  23  24
ENDBRANCH  10  23
ENDBRANCH   7  10
ENDBRANCH   3   6
TORSDOF 10
ENDMDL
MODEL       11
REMARK 921   NORMALIZED FREE ENERGY PREDICTED BY IDOCK:   -8.17 KCAL/MOL
REMARK 922        TOTAL FREE ENERGY PREDICTED BY IDOCK:  -16.05 KCAL/MOL
REMARK 923 INTER-LIGAND FREE ENERGY PREDICTED BY IDOCK:  -12.60 KCAL/MOL
REMARK 924 INTRA-LIGAND FREE ENERGY PREDICTED BY IDOCK:   -3.45 KCAL/MOL
REMARK 927      BINDING AFFINITY PREDICTED BY RF-SCORE:    0.00 PKD
ROOT
HETATM    1  F   UNL     1     -13.894  15.520  70.707  1.00  0.00    -0.472 F  
HETATM    2  C   UNL     1     -13.268  15.143  71.844  1.00  0.00    -0.384 C  
HETATM    3  C   UNL     1     -11.798  14.761  71.610  1.00  0.00    -0.315 C  
HETATM    4  F   UNL     1     -13.972  14.129  72.392  1.00  0.00    -0.488 F  
HETATM    5  F   UNL     1     -13.342  16.191  72.702  1.00  0.00    -0.521 F  
ENDROOT
BRANCH   3   6
HETATM    6  N   UNL     1     -11.326  14.810  70.225  1.00  0.00    -0.349 N  
HETATM    7  C   UNL     1     -10.767  15.963  69.706  1.00  0.00    -0.324 C  
HETATM    8  H   UNL     1     -11.410  13.983  69.636  1.00  0.00     0.000 HD 
HETATM    9  O   UNL     1     -10.715  16.993  70.380  1.00  0.00     0.058 OA 
BRANCH   7  10
HETATM   10  C   UNL     1     -10.224  15.873  68.258  1.00  0.00    -0.227 C  
HETATM   11  C   UNL     1      -8.788  15.330  68.214  1.00  0.00    -0.171 A  
HETATM   12  C   UNL     1      -9.297  19.569  66.310  1.00  0.00    -0.431 A  
HETATM   13  C   UNL     1      -8.329  14.078  68.602  1.00  0.00    -0.104 A  
HETATM   14  C   UNL     1      -8.697  17.455  67.255  1.00  0.00    -0.232 A  
HETATM   15  C   UNL     1      -6.989  13.769  68.367  1.00  0.00    -0.103 A  
HETATM   16  C   UNL     1     -10.630  19.381  66.710  1.00  0.00    -0.574 A  
HETATM   17  C   UNL     1      -6.132  14.705  67.763  1.00  0.00    -0.136 A  
HETATM   18  C   UNL     1      -8.319  18.608  66.587  1.00  0.00    -0.297 A  
HETATM   19  C   UNL     1     -10.042  17.268  67.645  1.00  0.00    -0.313 A  
HETATM   20  C   UNL     1      -6.600  15.968  67.384  1.00  0.00    -0.224 A  
HETATM   21  C   UNL     1     -11.013  18.226  67.389  1.00  0.00    -0.132 A  
HETATM   22  C   UNL     1      -7.931  16.276  67.606  1.00  0.00    -0.160 A  
BRANCH  10  23
HETATM   23  C   UNL     1     -11.169  15.011  67.380  1.00  0.00    -0.337 C  
BRANCH  23  24
HETATM   24  C   UNL     1     -11.051  15.239  65.862  1.00  0.00    -0.287 C  
BRANCH  24  25
HETATM   25  C   UNL     1     -10.241  14.116  65.213  1.00  0.00    -0.400 C  
BRANCH  25  26
HETATM   26  C   UNL     1     -10.727  12.717  65.613  1.00  0.00    -0.273 C  
BRANCH  26  27
HETATM   27  N   UNL     1      -9.897  12.041  66.622  1.00  0.00    -0.201 NA 
HETATM   28  C   UNL     1      -9.828   9.141  66.009  1.00  0.00    -0.272 C  
HETATM   29  C   UNL     1      -9.043  10.170  65.189  1.00  0.00    -0.242 C  
HETATM   30  C   UNL     1     -11.018   9.793  66.723  1.00  0.00     0.041 C  
HETATM   31  C   UNL     1     -10.619  11.075  67.457  1.00  0.00    -0.227 C  
HETATM   32  C   UNL     1      -8.716  11.412  66.014  1.00  0.00    -0.131 C  
BRANCH  28  33
HETATM   33  N   UNL     1      -8.963   8.434  66.949  1.00  0.00    -0.140 N  
HETATM   34  O   UNL     1      -9.776   6.338  66.447  1.00  0.00    -0.160 OA 
HETATM   35  C   UNL     1      -9.039   7.061  67.105  1.00  0.00    -0.128 C  
HETATM   36  H   UNL     1      -8.289   8.963  67.502  1.00  0.00     0.000 HD 
BRANCH  35  37
HETATM   37  C   UNL     1      -8.201   6.497  68.190  1.00  0.00    -0.117 A  
HETATM   38  C   UNL     1      -8.415   6.764  69.562  1.00  0.00    -0.133 A  
HETATM   39  C   UNL     1      -7.418   6.292  70.445  1.00  0.00    -0.091 A  
HETATM   40  C   UNL     1      -7.067   5.775  67.752  1.00  0.00    -0.071 A  
HETATM   41  C   UNL     1      -6.112   5.329  68.654  1.00  0.00    -0.026 A  
HETATM   42  C   UNL     1      -6.279   5.601  70.003  1.00  0.00    -0.026 A  
BRANCH  38  43
HETATM   43  C   UNL     1      -9.590   7.499  70.130  1.00  0.00    -0.168 A  
HETATM   44  C   UNL     1      -9.549   8.868  70.438  1.00  0.00    -0.227 A  
HETATM   45  C   UNL     1     -11.857   8.862  71.226  1.00  0.00    -0.371 A  
HETATM   46  C   UNL     1     -10.654   9.537  70.990  1.00  0.00    -0.392 A  
HETATM   47  C   UNL     1     -13.042   9.553  71.856  1.00  0.00    -0.428 C  
HETATM   48  C   UNL     1     -11.935   7.511  70.877  1.00  0.00    -0.278 A  
HETATM   49  C   UNL     1     -10.820   6.844  70.351  1.00  0.00    -0.297 A  
HETATM   50  F   UNL     1     -12.807  10.852  72.191  1.00  0.00    -0.519 F  
HETATM   51  F   UNL     1     -13.452   8.942  73.005  1.00  0.00    -0.437 F  
HETATM   52  F   UNL     1     -14.133   9.571  71.039  1.00  0.00    -0.365 F  
ENDBRANCH  38  43
ENDBRANCH  35  37
ENDBRANCH  28  33
ENDBRANCH  26  27
ENDBRANCH  25  26
ENDBRANCH  24  25
ENDBRANCH  23  24
ENDBRANCH  10  23
ENDBRANCH   7  10
ENDBRANCH   3   6
TORSDOF 10
ENDMDL
MODEL       12
REMARK 921   NORMALIZED FREE ENERGY PREDICTED BY IDOCK:   -8.17 KCAL/MOL
REMARK 922        TOTAL FREE ENERGY PREDICTED BY IDOCK:  -16.05 KCAL/MOL
REMARK 923 INTER-LIGAND FREE ENERGY PREDICTED BY IDOCK:  -13.10 KCAL/MOL
REMARK 924 INTRA-LIGAND FREE ENERGY PREDICTED BY IDOCK:   -2.95 KCAL/MOL
REMARK 927      BINDING AFFINITY PREDICTED BY RF-SCORE:    0.00 PKD
ROOT
HETATM    1  F   UNL     1     -11.149  19.246  67.198  1.00  0.00    -0.545 F  
HETATM    2  C   UNL     1     -10.163  19.892  66.536  1.00  0.00    -0.491 C  
HETATM    3  C   UNL     1      -8.934  19.002  66.293  1.00  0.00    -0.279 C  
HETATM    4  F   UNL     1      -9.852  21.005  67.233  1.00  0.00    -0.622 F  
HETATM    5  F   UNL     1     -10.684  20.295  65.350  1.00  0.00    -0.503 F  
ENDROOT
BRANCH   3   6
HETATM    6  N   UNL     1      -8.991  17.648  66.844  1.00  0.00    -0.239 N  
HETATM    7  C   UNL     1      -9.766  16.671  66.249  1.00  0.00    -0.304 C  
HETATM    8  H   UNL     1      -8.452  17.422  67.680  1.00  0.00     0.000 HD 
HETATM    9  O   UNL     1     -10.476  16.938  65.278  1.00  0.00    -0.638 OA 
BRANCH   7  10
HETATM   10  C   UNL     1      -9.683  15.253  66.868  1.00  0.00    -0.243 C  
HETATM   11  C   UNL     1     -10.385  14.202  65.996  1.00  0.00    -0.316 A  
HETATM   12  C   UNL     1     -12.067  14.522  70.347  1.00  0.00    -0.389 A  
HETATM   13  C   UNL     1     -10.063  13.798  64.707  1.00  0.00    -0.259 A  
HETATM   14  C   UNL     1     -11.480  14.157  68.056  1.00  0.00    -0.342 A  
HETATM   15  C   UNL     1     -10.783  12.740  64.152  1.00  0.00    -0.441 A  
HETATM   16  C   UNL     1     -11.094  15.530  70.446  1.00  0.00    -0.357 A  
HETATM   17  C   UNL     1     -11.809  12.111  64.878  1.00  0.00    -0.366 A  
HETATM   18  C   UNL     1     -12.271  13.833  69.146  1.00  0.00    -0.289 A  
HETATM   19  C   UNL     1     -10.496  15.165  68.167  1.00  0.00    -0.245 A  
HETATM   20  C   UNL     1     -12.134  12.529  66.173  1.00  0.00    -0.357 A  
HETATM   21  C   UNL     1     -10.301  15.865  69.350  1.00  0.00    -0.265 A  
HETATM   22  C   UNL     1     -11.416  13.573  66.732  1.00  0.00    -0.374 A  
BRANCH  10  23
HETATM   23  C   UNL     1      -8.203  14.862  67.124  1.00  0.00    -0.244 C  
BRANCH  23  24
HETATM   24  C   UNL     1      -7.992  13.645  68.042  1.00  0.00    -0.154 C  
BRANCH  24  25
HETATM   25  C   UNL     1      -7.607  12.415  67.219  1.00  0.00    -0.141 C  
BRANCH  25  26
HETATM   26  C   UNL     1      -8.660  11.301  67.275  1.00  0.00    -0.143 C  
BRANCH  26  27
HETATM   27  N   UNL     1      -8.218  10.068  67.945  1.00  0.00    -0.113 NA 
HETATM   28  C   UNL     1     -10.504   8.939  69.460  1.00  0.00    -0.226 C  
HETATM   29  C   UNL     1     -10.409   8.850  67.934  1.00  0.00    -0.286 C  
HETATM   30  C   UNL     1      -9.667  10.106  70.000  1.00  0.00    -0.144 C  
HETATM   31  C   UNL     1      -8.255  10.124  69.411  1.00  0.00    -0.166 C  
HETATM   32  C   UNL     1      -8.959   8.896  67.458  1.00  0.00    -0.133 C  
BRANCH  28  33
HETATM   33  N   UNL     1     -10.131   7.677  70.094  1.00  0.00    -0.197 N  
HETATM   34  O   UNL     1     -12.282   6.861  70.215  1.00  0.00    -0.243 OA 
HETATM   35  C   UNL     1     -11.086   6.740  70.448  1.00  0.00    -0.308 C  
HETATM   36  H   UNL     1      -9.147   7.482  70.279  1.00  0.00     0.000 HD 
BRANCH  35  37
HETATM   37  C   UNL     1     -10.578   5.571  71.205  1.00  0.00    -0.304 A  
HETATM   38  C   UNL     1      -9.780   4.554  70.632  1.00  0.00    -0.282 A  
HETATM   39  C   UNL     1      -9.534   3.428  71.450  1.00  0.00    -0.224 A  
HETATM   40  C   UNL     1     -11.066   5.462  72.528  1.00  0.00    -0.310 A  
HETATM   41  C   UNL     1     -10.800   4.337  73.296  1.00  0.00    -0.323 A  
HETATM   42  C   UNL     1     -10.045   3.310  72.752  1.00  0.00    -0.230 A  
BRANCH  38  43
HETATM   43  C   UNL     1      -9.197   4.583  69.253  1.00  0.00    -0.195 A  
HETATM   44  C   UNL     1      -8.050   5.327  68.932  1.00  0.00    -0.086 A  
HETATM   45  C   UNL     1      -8.120   4.617  66.599  1.00  0.00    -0.103 A  
HETATM   46  C   UNL     1      -7.528   5.359  67.628  1.00  0.00    -0.084 A  
HETATM   47  C   UNL     1      -7.599   4.670  65.184  1.00  0.00    -0.077 C  
HETATM   48  C   UNL     1      -9.231   3.828  66.910  1.00  0.00    -0.198 A  
HETATM   49  C   UNL     1      -9.762   3.822  68.208  1.00  0.00    -0.099 A  
HETATM   50  F   UNL     1      -6.546   5.518  65.017  1.00  0.00    -0.036 F  
HETATM   51  F   UNL     1      -8.548   5.077  64.293  1.00  0.00    -0.128 F  
HETATM   52  F   UNL     1      -7.173   3.455  64.737  1.00  0.00    -0.059 F  
ENDBRANCH  38  43
ENDBRANCH  35  37
ENDBRANCH  28  33
ENDBRANCH  26  27
ENDBRANCH  25  26
ENDBRANCH  24  25
ENDBRANCH  23  24
ENDBRANCH  10  23
ENDBRANCH   7  10
ENDBRANCH   3   6
TORSDOF 10
ENDMDL
MODEL       13
REMARK 921   NORMALIZED FREE ENERGY PREDICTED BY IDOCK:   -8.11 KCAL/MOL
REMARK 922        TOTAL FREE ENERGY PREDICTED BY IDOCK:  -15.95 KCAL/MOL
REMARK 923 INTER-LIGAND FREE ENERGY PREDICTED BY IDOCK:  -11.83 KCAL/MOL
REMARK 924 INTRA-LIGAND FREE ENERGY PREDICTED BY IDOCK:   -4.12 KCAL/MOL
REMARK 927      BINDING AFFINITY PREDICTED BY RF-SCORE:    0.00 PKD
ROOT
HETATM    1  F   UNL     1     -13.458   9.994  70.703  1.00  0.00    -0.417 F  
HETATM    2  C   UNL     1     -13.442   9.168  71.773  1.00  0.00    -0.416 C  
HETATM    3  C   UNL     1     -12.025   8.696  72.133  1.00  0.00    -0.379 C  
HETATM    4  F   UNL     1     -14.270   8.133  71.513  1.00  0.00    -0.405 F  
HETATM    5  F   UNL     1     -13.979   9.857  72.811  1.00  0.00    -0.289 F  
ENDROOT
BRANCH   3   6
HETATM    6  N   UNL     1     -10.945   9.155  71.259  1.00  0.00    -0.301 N  
HETATM    7  C   UNL     1     -10.644   8.484  70.088  1.00  0.00    -0.232 C  
HETATM    8  H   UNL     1     -10.406   9.981  71.518  1.00  0.00     0.000 HD 
HETATM    9  O   UNL     1     -11.239   7.448  69.789  1.00  0.00    -0.202 OA 
BRANCH   7  10
HETATM   10  C   UNL     1      -9.539   9.110  69.201  1.00  0.00    -0.161 C  
HETATM   11  C   UNL     1     -10.115  10.102  68.179  1.00  0.00    -0.178 A  
HETATM   12  C   UNL     1      -7.732   6.557  66.280  1.00  0.00    -0.095 A  
HETATM   13  C   UNL     1     -10.780  11.298  68.420  1.00  0.00    -0.238 A  
HETATM   14  C   UNL     1      -9.051   8.444  66.929  1.00  0.00    -0.179 A  
HETATM   15  C   UNL     1     -11.119  12.092  67.324  1.00  0.00    -0.341 A  
HETATM   16  C   UNL     1      -7.599   6.174  67.625  1.00  0.00    -0.097 A  
HETATM   17  C   UNL     1     -10.802  11.685  66.017  1.00  0.00    -0.339 A  
HETATM   18  C   UNL     1      -8.467   7.693  65.923  1.00  0.00    -0.150 A  
HETATM   19  C   UNL     1      -8.904   8.059  68.281  1.00  0.00    -0.133 A  
HETATM   20  C   UNL     1     -10.141  10.474  65.781  1.00  0.00    -0.329 A  
HETATM   21  C   UNL     1      -8.192   6.924  68.640  1.00  0.00    -0.121 A  
HETATM   22  C   UNL     1      -9.794   9.687  66.866  1.00  0.00    -0.257 A  
BRANCH  10  23
HETATM   23  C   UNL     1      -8.459   9.789  70.082  1.00  0.00    -0.204 C  
BRANCH  23  24
HETATM   24  C   UNL     1      -7.073   9.937  69.429  1.00  0.00    -0.067 C  
BRANCH  24  25
HETATM   25  C   UNL     1      -6.131  10.720  70.344  1.00  0.00    -0.135 C  
BRANCH  25  26
HETATM   26  C   UNL     1      -5.503  11.940  69.658  1.00  0.00    -0.077 C  
BRANCH  26  27
HETATM   27  N   UNL     1      -6.183  13.217  69.928  1.00  0.00    -0.122 NA 
HETATM   28  C   UNL     1      -6.638  14.614  67.352  1.00  0.00     0.040 C  
HETATM   29  C   UNL     1      -7.467  13.399  67.782  1.00  0.00    -0.160 C  
HETATM   30  C   UNL     1      -5.277  14.635  68.059  1.00  0.00    -0.108 C  
HETATM   31  C   UNL     1      -5.407  14.409  69.567  1.00  0.00    -0.090 C  
HETATM   32  C   UNL     1      -7.512  13.261  69.301  1.00  0.00     0.277 C  
BRANCH  28  33
HETATM   33  N   UNL     1      -7.368  15.861  67.562  1.00  0.00    -0.153 N  
HETATM   34  O   UNL     1      -8.983  15.428  65.977  1.00  0.00    -0.310 OA 
HETATM   35  C   UNL     1      -8.490  16.173  66.814  1.00  0.00    -0.254 C  
HETATM   36  H   UNL     1      -7.045  16.515  68.275  1.00  0.00     0.000 HD 
BRANCH  35  37
HETATM   37  C   UNL     1      -9.046  17.529  67.039  1.00  0.00    -0.255 A  
HETATM   38  C   UNL     1     -10.162  17.789  67.868  1.00  0.00    -0.362 A  
HETATM   39  C   UNL     1     -10.665  19.109  67.828  1.00  0.00    -0.463 A  
HETATM   40  C   UNL     1      -8.467  18.548  66.248  1.00  0.00    -0.227 A  
HETATM   41  C   UNL     1      -8.994  19.832  66.239  1.00  0.00    -0.431 A  
HETATM   42  C   UNL     1     -10.106  20.110  67.019  1.00  0.00    -0.599 A  
BRANCH  38  43
HETATM   43  C   UNL     1     -10.833  16.789  68.758  1.00  0.00    -0.318 A  
HETATM   44  C   UNL     1     -10.797  16.880  70.159  1.00  0.00     0.150 A  
HETATM   45  C   UNL     1     -12.124  14.850  70.424  1.00  0.00    -0.386 A  
HETATM   46  C   UNL     1     -11.416  15.922  70.980  1.00  0.00    -0.461 A  
HETATM   47  C   UNL     1     -12.760  13.788  71.288  1.00  0.00    -0.371 C  
HETATM   48  C   UNL     1     -12.216  14.771  69.032  1.00  0.00    -0.180 A  
HETATM   49  C   UNL     1     -11.574  15.717  68.219  1.00  0.00    -0.326 A  
HETATM   50  F   UNL     1     -12.546  13.964  72.621  1.00  0.00    -0.331 F  
HETATM   51  F   UNL     1     -12.300  12.537  71.000  1.00  0.00    -0.443 F  
HETATM   52  F   UNL     1     -14.112  13.728  71.132  1.00  0.00    -0.202 F  
ENDBRANCH  38  43
ENDBRANCH  35  37
ENDBRANCH  28  33
ENDBRANCH  26  27
ENDBRANCH  25  26
ENDBRANCH  24  25
ENDBRANCH  23  24
ENDBRANCH  10  23
ENDBRANCH   7  10
ENDBRANCH   3   6
TORSDOF 10
ENDMDL
MODEL       14
REMARK 921   NORMALIZED FREE ENERGY PREDICTED BY IDOCK:   -8.10 KCAL/MOL
REMARK 922        TOTAL FREE ENERGY PREDICTED BY IDOCK:  -15.93 KCAL/MOL
REMARK 923 INTER-LIGAND FREE ENERGY PREDICTED BY IDOCK:  -13.68 KCAL/MOL
REMARK 924 INTRA-LIGAND FREE ENERGY PREDICTED BY IDOCK:   -2.25 KCAL/MOL
REMARK 927      BINDING AFFINITY PREDICTED BY RF-SCORE:    0.00 PKD
ROOT
HETATM    1  F   UNL     1     -12.719  13.113  64.982  1.00  0.00    -0.467 F  
HETATM    2  C   UNL     1     -12.072  12.773  63.846  1.00  0.00    -0.486 C  
HETATM    3  C   UNL     1     -10.601  13.217  63.848  1.00  0.00    -0.166 C  
HETATM    4  F   UNL     1     -12.756  13.294  62.804  1.00  0.00    -0.262 F  
HETATM    5  F   UNL     1     -12.148  11.422  63.738  1.00  0.00    -0.416 F  
ENDROOT
BRANCH   3   6
HETATM    6  N   UNL     1     -10.149  13.965  65.022  1.00  0.00    -0.579 N  
HETATM    7  C   UNL     1     -10.506  15.288  65.202  1.00  0.00    -0.411 C  
HETATM    8  H   UNL     1      -9.563  13.503  65.717  1.00  0.00     0.000 HD 
HETATM    9  O   UNL     1     -11.159  15.883  64.344  1.00  0.00    -0.486 OA 
BRANCH   7  10
HETATM   10  C   UNL     1     -10.042  15.952  66.523  1.00  0.00    -0.293 C  
HETATM   11  C   UNL     1      -9.760  17.451  66.344  1.00  0.00    -0.303 A  
HETATM   12  C   UNL     1      -6.107  14.980  67.895  1.00  0.00    -0.170 A  
HETATM   13  C   UNL     1     -10.649  18.460  65.999  1.00  0.00    -0.339 A  
HETATM   14  C   UNL     1      -7.751  16.504  67.060  1.00  0.00    -0.244 A  
HETATM   15  C   UNL     1     -10.184  19.775  66.003  1.00  0.00    -0.600 A  
HETATM   16  C   UNL     1      -7.016  13.917  67.776  1.00  0.00    -0.181 A  
HETATM   17  C   UNL     1      -8.850  20.064  66.340  1.00  0.00    -0.388 A  
HETATM   18  C   UNL     1      -6.468  16.282  67.530  1.00  0.00    -0.195 A  
HETATM   19  C   UNL     1      -8.664  15.431  66.953  1.00  0.00    -0.285 A  
HETATM   20  C   UNL     1      -7.957  19.041  66.678  1.00  0.00    -0.282 A  
HETATM   21  C   UNL     1      -8.307  14.135  67.296  1.00  0.00    -0.212 A  
HETATM   22  C   UNL     1      -8.417  17.735  66.684  1.00  0.00    -0.283 A  
BRANCH  10  23
HETATM   23  C   UNL     1     -11.089  15.716  67.643  1.00  0.00    -0.305 C  
BRANCH  23  24
HETATM   24  C   UNL     1     -11.908  14.418  67.516  1.00  0.00    -0.418 C  
BRANCH  24  25
HETATM   25  C   UNL     1     -11.949  13.678  68.853  1.00  0.00    -0.392 C  
BRANCH  25  26
HETATM   26  C   UNL     1     -10.873  12.591  68.971  1.00  0.00    -0.137 C  
BRANCH  26  27
HETATM   27  N   UNL     1     -11.296  11.253  68.528  1.00  0.00    -0.249 NA 
HETATM   28  C   UNL     1      -8.939   9.822  67.438  1.00  0.00    -0.135 C  
HETATM   29  C   UNL     1      -9.141  10.041  68.941  1.00  0.00    -0.159 C  
HETATM   30  C   UNL     1      -9.707  10.866  66.618  1.00  0.00    -0.222 C  
HETATM   31  C   UNL     1     -11.156  11.016  67.087  1.00  0.00    -0.267 C  
HETATM   32  C   UNL     1     -10.619  10.195  69.291  1.00  0.00    -0.230 C  
BRANCH  28  33
HETATM   33  N   UNL     1      -9.297   8.463  67.042  1.00  0.00    -0.151 N  
HETATM   34  O   UNL     1      -7.182   7.597  67.327  1.00  0.00    -0.085 OA 
HETATM   35  C   UNL     1      -8.351   7.454  66.996  1.00  0.00    -0.121 C  
HETATM   36  H   UNL     1     -10.264   8.253  66.794  1.00  0.00     0.000 HD 
BRANCH  35  37
HETATM   37  C   UNL     1      -8.827   6.162  66.445  1.00  0.00    -0.144 A  
HETATM   38  C   UNL     1      -9.501   5.185  67.214  1.00  0.00    -0.141 A  
HETATM   39  C   UNL     1      -9.724   3.944  66.575  1.00  0.00    -0.186 A  
HETATM   40  C   UNL     1      -8.436   5.904  65.111  1.00  0.00    -0.130 A  
HETATM   41  C   UNL     1      -8.675   4.671  64.522  1.00  0.00    -0.151 A  
HETATM   42  C   UNL     1      -9.307   3.682  65.260  1.00  0.00    -0.158 A  
BRANCH  38  43
HETATM   43  C   UNL     1      -9.977   5.365  68.622  1.00  0.00    -0.232 A  
HETATM   44  C   UNL     1      -9.317   4.793  69.722  1.00  0.00    -0.208 A  
HETATM   45  C   UNL     1     -10.927   5.726  71.300  1.00  0.00    -0.299 A  
HETATM   46  C   UNL     1      -9.789   4.955  71.035  1.00  0.00    -0.266 A  
HETATM   47  C   UNL     1     -11.472   5.878  72.698  1.00  0.00    -0.272 C  
HETATM   48  C   UNL     1     -11.566   6.348  70.224  1.00  0.00    -0.451 A  
HETATM   49  C   UNL     1     -11.104   6.161  68.913  1.00  0.00    -0.417 A  
HETATM   50  F   UNL     1     -10.780   5.177  73.638  1.00  0.00    -0.227 F  
HETATM   51  F   UNL     1     -12.767   5.460  72.801  1.00  0.00    -0.219 F  
HETATM   52  F   UNL     1     -11.469   7.173  73.123  1.00  0.00    -0.267 F  
ENDBRANCH  38  43
ENDBRANCH  35  37
ENDBRANCH  28  33
ENDBRANCH  26  27
ENDBRANCH  25  26
ENDBRANCH  24  25
ENDBRANCH  23  24
ENDBRANCH  10  23
ENDBRANCH   7  10
ENDBRANCH   3   6
TORSDOF 10
ENDMDL
MODEL       15
REMARK 921   NORMALIZED FREE ENERGY PREDICTED BY IDOCK:   -7.89 KCAL/MOL
REMARK 922        TOTAL FREE ENERGY PREDICTED BY IDOCK:  -15.60 KCAL/MOL
REMARK 923 INTER-LIGAND FREE ENERGY PREDICTED BY IDOCK:  -14.05 KCAL/MOL
REMARK 924 INTRA-LIGAND FREE ENERGY PREDICTED BY IDOCK:   -1.55 KCAL/MOL
REMARK 927      BINDING AFFINITY PREDICTED BY RF-SCORE:    0.00 PKD
ROOT
HETATM    1  F   UNL     1      -7.055  13.669  69.328  1.00  0.00    -0.110 F  
HETATM    2  C   UNL     1      -5.711  13.789  69.393  1.00  0.00    -0.090 C  
HETATM    3  C   UNL     1      -5.167  14.865  68.440  1.00  0.00    -0.111 C  
HETATM    4  F   UNL     1      -5.171  12.576  69.147  1.00  0.00    -0.065 F  
HETATM    5  F   UNL     1      -5.405  14.110  70.676  1.00  0.00    -0.099 F  
ENDROOT
BRANCH   3   6
HETATM    6  N   UNL     1      -6.151  15.540  67.593  1.00  0.00    -0.147 N  
HETATM    7  C   UNL     1      -6.659  16.777  67.941  1.00  0.00    -0.141 C  
HETATM    8  H   UNL     1      -6.465  15.091  66.733  1.00  0.00     0.000 HD 
HETATM    9  O   UNL     1      -6.342  17.308  69.007  1.00  0.00    -0.187 OA 
BRANCH   7  10
HETATM   10  C   UNL     1      -7.627  17.434  66.926  1.00  0.00    -0.253 C  
HETATM   11  C   UNL     1      -6.895  18.375  65.958  1.00  0.00    -0.308 A  
HETATM   12  C   UNL     1     -10.275  20.434  68.446  1.00  0.00    -0.212 A  
HETATM   13  C   UNL     1      -5.921  18.057  65.020  1.00  0.00     0.088 A  
HETATM   14  C   UNL     1      -8.456  19.700  67.076  1.00  0.00    -0.349 A  
HETATM   15  C   UNL     1      -5.474  19.069  64.169  1.00  0.00    -0.305 A  
HETATM   16  C   UNL     1     -10.395  19.147  68.994  1.00  0.00    -0.086 A  
HETATM   17  C   UNL     1      -5.992  20.372  64.270  1.00  0.00    -0.323 A  
HETATM   18  C   UNL     1      -9.297  20.720  67.487  1.00  0.00    -0.376 A  
HETATM   19  C   UNL     1      -8.590  18.404  67.624  1.00  0.00    -0.268 A  
HETATM   20  C   UNL     1      -6.966  20.687  65.224  1.00  0.00    -0.116 A  
HETATM   21  C   UNL     1      -9.545  18.118  68.589  1.00  0.00    -0.342 A  
HETATM   22  C   UNL     1      -7.419  19.684  66.064  1.00  0.00    -0.320 A  
BRANCH  10  23
HETATM   23  C   UNL     1      -8.416  16.347  66.150  1.00  0.00    -0.329 C  
BRANCH  23  24
HETATM   24  C   UNL     1      -9.949  16.449  66.247  1.00  0.00    -0.341 C  
BRANCH  24  25
HETATM   25  C   UNL     1     -10.606  15.821  65.018  1.00  0.00    -0.397 C  
BRANCH  25  26
HETATM   26  C   UNL     1     -10.385  14.306  64.926  1.00  0.00    -0.401 C  
BRANCH  26  27
HETATM   27  N   UNL     1     -11.281  13.500  65.770  1.00  0.00    -0.297 NA 
HETATM   28  C   UNL     1      -9.748  11.213  66.871  1.00  0.00    -0.191 C  
HETATM   29  C   UNL     1      -9.572  12.643  67.391  1.00  0.00    -0.194 C  
HETATM   30  C   UNL     1     -10.300  11.208  65.440  1.00  0.00    -0.331 C  
HETATM   31  C   UNL     1     -11.509  12.134  65.285  1.00  0.00    -0.336 C  
HETATM   32  C   UNL     1     -10.829  13.480  67.168  1.00  0.00    -0.284 C  
BRANCH  28  33
HETATM   33  N   UNL     1     -10.580  10.416  67.768  1.00  0.00    -0.230 N  
HETATM   34  O   UNL     1      -9.088  10.447  69.522  1.00  0.00    -0.183 OA 
HETATM   35  C   UNL     1     -10.148  10.074  69.037  1.00  0.00    -0.200 C  
HETATM   36  H   UNL     1     -11.499  10.105  67.452  1.00  0.00     0.000 HD 
BRANCH  35  37
HETATM   37  C   UNL     1     -11.036   9.149  69.783  1.00  0.00    -0.195 A  
HETATM   38  C   UNL     1     -12.004   9.580  70.718  1.00  0.00    -0.326 A  
HETATM   39  C   UNL     1     -12.637   8.559  71.464  1.00  0.00    -0.348 A  
HETATM   40  C   UNL     1     -10.753   7.776  69.598  1.00  0.00    -0.223 A  
HETATM   41  C   UNL     1     -11.398   6.807  70.353  1.00  0.00    -0.399 A  
HETATM   42  C   UNL     1     -12.331   7.199  71.300  1.00  0.00    -0.418 A  
BRANCH  38  43
HETATM   43  C   UNL     1     -12.393  11.003  70.973  1.00  0.00    -0.490 A  
HETATM   44  C   UNL     1     -13.200  11.384  72.057  1.00  0.00    -0.432 A  
HETATM   45  C   UNL     1     -13.122  13.737  71.418  1.00  0.00    -0.413 A  
HETATM   46  C   UNL     1     -13.572  12.722  72.270  1.00  0.00    -0.563 A  
HETATM   47  C   UNL     1     -13.544  15.173  71.605  1.00  0.00    -0.467 C  
HETATM   48  C   UNL     1     -12.275  13.385  70.364  1.00  0.00    -0.415 A  
HETATM   49  C   UNL     1     -11.928  12.044  70.143  1.00  0.00    -0.401 A  
HETATM   50  F   UNL     1     -14.411  15.361  72.639  1.00  0.00    -0.556 F  
HETATM   51  F   UNL     1     -14.165  15.683  70.503  1.00  0.00    -0.134 F  
HETATM   52  F   UNL     1     -12.489  16.001  71.849  1.00  0.00    -0.436 F  
ENDBRANCH  38  43
ENDBRANCH  35  37
ENDBRANCH  28  33
ENDBRANCH  26  27
ENDBRANCH  25  26
ENDBRANCH  24  25
ENDBRANCH  23  24
ENDBRANCH  10  23
ENDBRANCH   7  10
ENDBRANCH   3   6
TORSDOF 10
ENDMDL
MODEL       16
REMARK 921   NORMALIZED FREE ENERGY PREDICTED BY IDOCK:   -7.88 KCAL/MOL
REMARK 922        TOTAL FREE ENERGY PREDICTED BY IDOCK:  -15.59 KCAL/MOL
REMARK 923 INTER-LIGAND FREE ENERGY PREDICTED BY IDOCK:  -11.37 KCAL/MOL
REMARK 924 INTRA-LIGAND FREE ENERGY PREDICTED BY IDOCK:   -4.22 KCAL/MOL
REMARK 927      BINDING AFFINITY PREDICTED BY RF-SCORE:    0.00 PKD
ROOT
HETATM    1  F   UNL     1     -12.345  11.217  70.157  1.00  0.00    -0.334 F  
HETATM    2  C   UNL     1     -12.869  10.536  71.199  1.00  0.00    -0.416 C  
HETATM    3  C   UNL     1     -11.869   9.549  71.822  1.00  0.00    -0.360 C  
HETATM    4  F   UNL     1     -13.990   9.917  70.772  1.00  0.00    -0.327 F  
HETATM    5  F   UNL     1     -13.246  11.455  72.123  1.00  0.00    -0.585 F  
ENDROOT
BRANCH   3   6
HETATM    6  N   UNL     1     -10.557   9.459  71.179  1.00  0.00    -0.320 N  
HETATM    7  C   UNL     1     -10.274   8.450  70.278  1.00  0.00    -0.196 C  
HETATM    8  H   UNL     1      -9.842  10.152  71.399  1.00  0.00     0.000 HD 
HETATM    9  O   UNL     1     -11.100   7.566  70.048  1.00  0.00    -0.257 OA 
BRANCH   7  10
HETATM   10  C   UNL     1      -8.884   8.506  69.596  1.00  0.00    -0.137 C  
HETATM   11  C   UNL     1      -8.990   8.844  68.101  1.00  0.00    -0.137 A  
HETATM   12  C   UNL     1      -6.873   4.775  69.004  1.00  0.00    -0.051 A  
HETATM   13  C   UNL     1      -9.469  10.008  67.514  1.00  0.00    -0.169 A  
HETATM   14  C   UNL     1      -7.955   6.756  68.212  1.00  0.00    -0.111 A  
HETATM   15  C   UNL     1      -9.366  10.133  66.128  1.00  0.00    -0.217 A  
HETATM   16  C   UNL     1      -7.161   5.135  70.330  1.00  0.00    -0.054 A  
HETATM   17  C   UNL     1      -8.802   9.105  65.354  1.00  0.00    -0.236 A  
HETATM   18  C   UNL     1      -7.275   5.582  67.934  1.00  0.00    -0.072 A  
HETATM   19  C   UNL     1      -8.232   7.117  69.549  1.00  0.00    -0.132 A  
HETATM   20  C   UNL     1      -8.330   7.931  65.952  1.00  0.00    -0.134 A  
HETATM   21  C   UNL     1      -7.851   6.313  70.614  1.00  0.00    -0.107 A  
HETATM   22  C   UNL     1      -8.422   7.806  67.328  1.00  0.00    -0.118 A  
BRANCH  10  23
HETATM   23  C   UNL     1      -7.963   9.517  70.328  1.00  0.00    -0.190 C  
BRANCH  23  24
HETATM   24  C   UNL     1      -6.458   9.360  70.049  1.00  0.00    -0.057 C  
BRANCH  24  25
HETATM   25  C   UNL     1      -5.984  10.421  69.055  1.00  0.00    -0.040 C  
BRANCH  25  26
HETATM   26  C   UNL     1      -5.583  11.738  69.729  1.00  0.00    -0.091 C  
BRANCH  26  27
HETATM   27  N   UNL     1      -6.656  12.742  69.809  1.00  0.00    -0.001 NA 
HETATM   28  C   UNL     1      -6.052  14.933  67.904  1.00  0.00    -0.154 C  
HETATM   29  C   UNL     1      -6.556  13.562  67.442  1.00  0.00    -0.014 C  
HETATM   30  C   UNL     1      -5.376  14.840  69.277  1.00  0.00    -0.089 C  
HETATM   31  C   UNL     1      -6.223  14.061  70.286  1.00  0.00    -0.133 C  
HETATM   32  C   UNL     1      -7.371  12.868  68.531  1.00  0.00    -0.115 C  
BRANCH  28  33
HETATM   33  N   UNL     1      -7.123  15.926  67.901  1.00  0.00    -0.123 N  
HETATM   34  O   UNL     1      -6.526  16.872  65.888  1.00  0.00     0.014 OA 
HETATM   35  C   UNL     1      -7.247  16.848  66.876  1.00  0.00    -0.216 C  
HETATM   36  H   UNL     1      -7.793  15.939  68.670  1.00  0.00     0.000 HD 
BRANCH  35  37
HETATM   37  C   UNL     1      -8.294  17.879  67.074  1.00  0.00    -0.248 A  
HETATM   38  C   UNL     1      -9.664  17.665  66.800  1.00  0.00    -0.300 A  
HETATM   39  C   UNL     1     -10.493  18.807  66.876  1.00  0.00    -0.472 A  
HETATM   40  C   UNL     1      -7.807  19.159  67.430  1.00  0.00    -0.267 A  
HETATM   41  C   UNL     1      -8.658  20.254  67.492  1.00  0.00    -0.389 A  
HETATM   42  C   UNL     1     -10.002  20.082  67.199  1.00  0.00    -0.580 A  
BRANCH  38  43
HETATM   43  C   UNL     1     -10.282  16.350  66.439  1.00  0.00    -0.325 A  
HETATM   44  C   UNL     1     -10.497  15.331  67.381  1.00  0.00    -0.270 A  
HETATM   45  C   UNL     1     -11.459  13.845  65.703  1.00  0.00    -0.321 A  
HETATM   46  C   UNL     1     -11.060  14.096  67.021  1.00  0.00    -0.314 A  
HETATM   47  C   UNL     1     -12.027  12.510  65.288  1.00  0.00    -0.438 C  
HETATM   48  C   UNL     1     -11.302  14.866  64.761  1.00  0.00    -0.400 A  
HETATM   49  C   UNL     1     -10.716  16.087  65.123  1.00  0.00    -0.429 A  
HETATM   50  F   UNL     1     -12.074  11.595  66.296  1.00  0.00    -0.187 F  
HETATM   51  F   UNL     1     -11.307  11.925  64.289  1.00  0.00    -0.357 F  
HETATM   52  F   UNL     1     -13.301  12.608  64.815  1.00  0.00    -0.394 F  
ENDBRANCH  38  43
ENDBRANCH  35  37
ENDBRANCH  28  33
ENDBRANCH  26  27
ENDBRANCH  25  26
ENDBRANCH  24  25
ENDBRANCH  23  24
ENDBRANCH  10  23
ENDBRANCH   7  10
ENDBRANCH   3   6
TORSDOF 10
ENDMDL
MODEL       17
REMARK 921   NORMALIZED FREE ENERGY PREDICTED BY IDOCK:   -7.87 KCAL/MOL
REMARK 922        TOTAL FREE ENERGY PREDICTED BY IDOCK:  -15.58 KCAL/MOL
REMARK 923 INTER-LIGAND FREE ENERGY PREDICTED BY IDOCK:  -12.40 KCAL/MOL
REMARK 924 INTRA-LIGAND FREE ENERGY PREDICTED BY IDOCK:   -3.18 KCAL/MOL
REMARK 927      BINDING AFFINITY PREDICTED BY RF-SCORE:    0.00 PKD
ROOT
HETATM    1  F   UNL     1     -10.784   9.346  72.440  1.00  0.00    -0.186 F  
HETATM    2  C   UNL     1     -11.981   9.262  71.819  1.00  0.00    -0.385 C  
HETATM    3  C   UNL     1     -12.107   8.003  70.947  1.00  0.00    -0.152 C  
HETATM    4  F   UNL     1     -12.160  10.393  71.103  1.00  0.00    -0.376 F  
HETATM    5  F   UNL     1     -12.930   9.249  72.789  1.00  0.00    -0.453 F  
ENDROOT
BRANCH   3   6
HETATM    6  N   UNL     1     -10.929   7.138  70.880  1.00  0.00    -0.244 N  
HETATM    7  C   UNL     1     -10.822   6.020  71.686  1.00  0.00    -0.260 C  
HETATM    8  H   UNL     1     -10.176   7.362  70.230  1.00  0.00     0.000 HD 
HETATM    9  O   UNL     1     -11.688   5.766  72.524  1.00  0.00    -0.309 OA 
BRANCH   7  10
HETATM   10  C   UNL     1      -9.571   5.131  71.468  1.00  0.00    -0.208 C  
HETATM   11  C   UNL     1      -9.616   4.396  70.121  1.00  0.00    -0.263 A  
HETATM   12  C   UNL     1      -9.292   1.577  73.837  1.00  0.00    -0.075 A  
HETATM   13  C   UNL     1      -9.612   4.939  68.843  1.00  0.00    -0.224 A  
HETATM   14  C   UNL     1      -9.516   2.732  71.753  1.00  0.00    -0.206 A  
HETATM   15  C   UNL     1      -9.547   4.064  67.758  1.00  0.00    -0.204 A  
HETATM   16  C   UNL     1      -9.332   2.798  74.529  1.00  0.00    -0.107 A  
HETATM   17  C   UNL     1      -9.495   2.674  67.959  1.00  0.00    -0.205 A  
HETATM   18  C   UNL     1      -9.391   1.537  72.441  1.00  0.00    -0.120 A  
HETATM   19  C   UNL     1      -9.545   3.957  72.456  1.00  0.00    -0.188 A  
HETATM   20  C   UNL     1      -9.509   2.134  69.249  1.00  0.00    -0.128 A  
HETATM   21  C   UNL     1      -9.465   4.003  73.841  1.00  0.00    -0.116 A  
HETATM   22  C   UNL     1      -9.565   2.998  70.329  1.00  0.00    -0.160 A  
BRANCH  10  23
HETATM   23  C   UNL     1      -8.278   5.979  71.594  1.00  0.00    -0.119 C  
BRANCH  23  24
HETATM   24  C   UNL     1      -8.366   7.177  72.556  1.00  0.00    -0.120 C  
BRANCH  24  25
HETATM   25  C   UNL     1      -7.889   8.455  71.865  1.00  0.00    -0.165 C  
BRANCH  25  26
HETATM   26  C   UNL     1      -7.681   8.280  70.355  1.00  0.00    -0.084 C  
BRANCH  26  27
HETATM   27  N   UNL     1      -8.819   8.700  69.523  1.00  0.00    -0.142 NA 
HETATM   28  C   UNL     1      -7.917  10.854  67.696  1.00  0.00    -0.114 C  
HETATM   29  C   UNL     1      -7.536   9.386  67.482  1.00  0.00    -0.091 C  
HETATM   30  C   UNL     1      -8.268  11.127  69.164  1.00  0.00    -0.007 C  
HETATM   31  C   UNL     1      -9.243  10.090  69.726  1.00  0.00    -0.199 C  
HETATM   32  C   UNL     1      -8.567   8.444  68.098  1.00  0.00    -0.139 C  
BRANCH  28  33
HETATM   33  N   UNL     1      -8.998  11.262  66.804  1.00  0.00    -0.165 N  
HETATM   34  O   UNL     1      -8.411  13.489  66.767  1.00  0.00    -0.115 OA 
HETATM   35  C   UNL     1      -9.166  12.585  66.434  1.00  0.00    -0.177 C  
HETATM   36  H   UNL     1      -9.643  10.558  66.446  1.00  0.00     0.000 HD 
BRANCH  35  37
HETATM   37  C   UNL     1     -10.384  12.872  65.638  1.00  0.00    -0.295 A  
HETATM   38  C   UNL     1     -11.598  13.326  66.203  1.00  0.00    -0.385 A  
HETATM   39  C   UNL     1     -12.704  13.378  65.325  1.00  0.00    -0.481 A  
HETATM   40  C   UNL     1     -10.295  12.525  64.270  1.00  0.00    -0.396 A  
HETATM   41  C   UNL     1     -11.408  12.591  63.444  1.00  0.00    -0.489 A  
HETATM   42  C   UNL     1     -12.620  13.003  63.975  1.00  0.00    -0.289 A  
BRANCH  38  43
HETATM   43  C   UNL     1     -11.791  13.739  67.629  1.00  0.00    -0.413 A  
HETATM   44  C   UNL     1     -12.009  12.812  68.662  1.00  0.00    -0.272 A  
HETATM   45  C   UNL     1     -12.166  14.572  70.344  1.00  0.00    -0.394 A  
HETATM   46  C   UNL     1     -12.209  13.217  69.992  1.00  0.00    -0.345 A  
HETATM   47  C   UNL     1     -12.419  15.030  71.759  1.00  0.00    -0.339 C  
HETATM   48  C   UNL     1     -11.898  15.506  69.339  1.00  0.00    -0.392 A  
HETATM   49  C   UNL     1     -11.725  15.095  68.009  1.00  0.00    -0.304 A  
HETATM   50  F   UNL     1     -12.718  14.018  72.620  1.00  0.00    -0.407 F  
HETATM   51  F   UNL     1     -13.458  15.910  71.845  1.00  0.00    -0.520 F  
HETATM   52  F   UNL     1     -11.346  15.674  72.300  1.00  0.00    -0.470 F  
ENDBRANCH  38  43
ENDBRANCH  35  37
ENDBRANCH  28  33
ENDBRANCH  26  27
ENDBRANCH  25  26
ENDBRANCH  24  25
ENDBRANCH  23  24
ENDBRANCH  10  23
ENDBRANCH   7  10
ENDBRANCH   3   6
TORSDOF 10
ENDMDL
MODEL       18
REMARK 921   NORMALIZED FREE ENERGY PREDICTED BY IDOCK:   -7.79 KCAL/MOL
REMARK 922        TOTAL FREE ENERGY PREDICTED BY IDOCK:  -15.45 KCAL/MOL
REMARK 923 INTER-LIGAND FREE ENERGY PREDICTED BY IDOCK:  -11.12 KCAL/MOL
REMARK 924 INTRA-LIGAND FREE ENERGY PREDICTED BY IDOCK:   -4.33 KCAL/MOL
REMARK 927      BINDING AFFINITY PREDICTED BY RF-SCORE:    0.00 PKD
ROOT
HETATM    1  F   UNL     1      -8.117  11.156  67.371  1.00  0.00    -0.119 F  
HETATM    2  C   UNL     1      -7.199  11.645  68.234  1.00  0.00    -0.085 C  
HETATM    3  C   UNL     1      -7.639  12.971  68.874  1.00  0.00     0.047 C  
HETATM    4  F   UNL     1      -6.028  11.767  67.573  1.00  0.00    -0.053 F  
HETATM    5  F   UNL     1      -7.020  10.704  69.195  1.00  0.00    -0.057 F  
ENDROOT
BRANCH   3   6
HETATM    6  N   UNL     1      -8.922  13.515  68.427  1.00  0.00    -0.266 N  
HETATM    7  C   UNL     1      -9.377  14.735  68.891  1.00  0.00    -0.184 C  
HETATM    8  H   UNL     1      -9.489  12.986  67.765  1.00  0.00     0.000 HD 
HETATM    9  O   UNL     1      -8.741  15.360  69.740  1.00  0.00    -0.220 OA 
BRANCH   7  10
HETATM   10  C   UNL     1     -10.707  15.250  68.284  1.00  0.00    -0.254 C  
HETATM   11  C   UNL     1     -11.161  14.398  67.089  1.00  0.00    -0.337 A  
HETATM   12  C   UNL     1     -10.534  18.923  66.094  1.00  0.00    -0.521 A  
HETATM   13  C   UNL     1     -11.525  13.058  67.075  1.00  0.00    -0.381 A  
HETATM   14  C   UNL     1     -10.884  16.562  66.262  1.00  0.00    -0.037 A  
HETATM   15  C   UNL     1     -12.012  12.522  65.882  1.00  0.00    -0.472 A  
HETATM   16  C   UNL     1     -10.165  18.975  67.448  1.00  0.00    -0.473 A  
HETATM   17  C   UNL     1     -12.121  13.318  64.730  1.00  0.00    -0.456 A  
HETATM   18  C   UNL     1     -10.890  17.712  65.490  1.00  0.00     0.056 A  
HETATM   19  C   UNL     1     -10.522  16.624  67.626  1.00  0.00    -0.320 A  
HETATM   20  C   UNL     1     -11.745  14.666  64.749  1.00  0.00    -0.429 A  
HETATM   21  C   UNL     1     -10.151  17.818  68.227  1.00  0.00    -0.371 A  
HETATM   22  C   UNL     1     -11.269  15.204  65.932  1.00  0.00    -0.280 A  
BRANCH  10  23
HETATM   23  C   UNL     1     -11.810  15.310  69.373  1.00  0.00    -0.367 C  
BRANCH  23  24
HETATM   24  C   UNL     1     -11.710  14.237  70.472  1.00  0.00    -0.309 C  
BRANCH  24  25
HETATM   25  C   UNL     1     -12.756  13.144  70.251  1.00  0.00    -0.012 C  
BRANCH  25  26
HETATM   26  C   UNL     1     -12.495  11.885  71.088  1.00  0.00    -0.261 C  
BRANCH  26  27
HETATM   27  N   UNL     1     -12.546  10.623  70.334  1.00  0.00    -0.340 NA 
HETATM   28  C   UNL     1     -10.078   9.079  70.899  1.00  0.00    -0.262 C  
HETATM   29  C   UNL     1     -11.215   9.207  71.918  1.00  0.00    -0.400 C  
HETATM   30  C   UNL     1     -10.100  10.239  69.896  1.00  0.00    -0.219 C  
HETATM   31  C   UNL     1     -11.497  10.476  69.319  1.00  0.00    -0.256 C  
HETATM   32  C   UNL     1     -12.556   9.460  71.233  1.00  0.00    -0.325 C  
BRANCH  28  33
HETATM   33  N   UNL     1     -10.110   7.786  70.221  1.00  0.00    -0.194 N  
HETATM   34  O   UNL     1      -7.846   7.708  69.807  1.00  0.00    -0.105 OA 
HETATM   35  C   UNL     1      -8.962   7.217  69.698  1.00  0.00    -0.141 C  
HETATM   36  H   UNL     1     -10.998   7.291  70.131  1.00  0.00     0.000 HD 
BRANCH  35  37
HETATM   37  C   UNL     1      -9.167   5.973  68.919  1.00  0.00    -0.125 A  
HETATM   38  C   UNL     1      -9.423   5.955  67.528  1.00  0.00    -0.110 A  
HETATM   39  C   UNL     1      -9.769   4.698  66.982  1.00  0.00    -0.216 A  
HETATM   40  C   UNL     1      -9.230   4.791  69.692  1.00  0.00    -0.180 A  
HETATM   41  C   UNL     1      -9.575   3.577  69.114  1.00  0.00    -0.149 A  
HETATM   42  C   UNL     1      -9.860   3.532  67.758  1.00  0.00     0.071 A  
BRANCH  38  43
HETATM   43  C   UNL     1      -9.360   7.142  66.618  1.00  0.00    -0.207 A  
HETATM   44  C   UNL     1      -8.398   7.267  65.603  1.00  0.00    -0.142 A  
HETATM   45  C   UNL     1      -9.270   9.436  64.906  1.00  0.00    -0.246 A  
HETATM   46  C   UNL     1      -8.341   8.397  64.771  1.00  0.00    -0.151 A  
HETATM   47  C   UNL     1      -9.200  10.677  64.050  1.00  0.00    -0.239 C  
HETATM   48  C   UNL     1     -10.268   9.306  65.876  1.00  0.00    -0.054 A  
HETATM   49  C   UNL     1     -10.303   8.187  66.719  1.00  0.00    -0.361 A  
HETATM   50  F   UNL     1      -8.148  10.690  63.185  1.00  0.00    -0.154 F  
HETATM   51  F   UNL     1      -9.086  11.816  64.791  1.00  0.00    -0.078 F  
HETATM   52  F   UNL     1     -10.314  10.847  63.283  1.00  0.00    -0.370 F  
ENDBRANCH  38  43
ENDBRANCH  35  37
ENDBRANCH  28  33
ENDBRANCH  26  27
ENDBRANCH  25  26
ENDBRANCH  24  25
ENDBRANCH  23  24
ENDBRANCH  10  23
ENDBRANCH   7  10
ENDBRANCH   3   6
TORSDOF 10
ENDMDL
MODEL       19
REMARK 921   NORMALIZED FREE ENERGY PREDICTED BY IDOCK:   -7.74 KCAL/MOL
REMARK 922        TOTAL FREE ENERGY PREDICTED BY IDOCK:  -15.36 KCAL/MOL
REMARK 923 INTER-LIGAND FREE ENERGY PREDICTED BY IDOCK:  -12.52 KCAL/MOL
REMARK 924 INTRA-LIGAND FREE ENERGY PREDICTED BY IDOCK:   -2.84 KCAL/MOL
REMARK 927      BINDING AFFINITY PREDICTED BY RF-SCORE:    0.00 PKD
ROOT
HETATM    1  F   UNL     1     -11.980   9.326  72.207  1.00  0.00    -0.417 F  
HETATM    2  C   UNL     1     -13.152   8.746  71.868  1.00  0.00    -0.378 C  
HETATM    3  C   UNL     1     -13.017   7.234  71.635  1.00  0.00    -0.372 C  
HETATM    4  F   UNL     1     -13.634   9.385  70.780  1.00  0.00    -0.274 F  
HETATM    5  F   UNL     1     -14.018   8.982  72.886  1.00  0.00    -0.468 F  
ENDROOT
BRANCH   3   6
HETATM    6  N   UNL     1     -11.671   6.674  71.759  1.00  0.00    -0.303 N  
HETATM    7  C   UNL     1     -10.990   6.207  70.651  1.00  0.00    -0.311 C  
HETATM    8  H   UNL     1     -11.228   6.628  72.677  1.00  0.00     0.000 HD 
HETATM    9  O   UNL     1     -11.530   6.193  69.544  1.00  0.00    -0.429 OA 
BRANCH   7  10
HETATM   10  C   UNL     1      -9.540   5.717  70.890  1.00  0.00    -0.212 C  
HETATM   11  C   UNL     1      -9.493   4.238  71.304  1.00  0.00    -0.229 A  
HETATM   12  C   UNL     1      -7.566   7.164  74.401  1.00  0.00    -0.139 A  
HETATM   13  C   UNL     1      -9.885   3.126  70.572  1.00  0.00     0.022 A  
HETATM   14  C   UNL     1      -8.521   5.426  73.062  1.00  0.00    -0.118 A  
HETATM   15  C   UNL     1      -9.646   1.864  71.117  1.00  0.00    -0.207 A  
HETATM   16  C   UNL     1      -7.973   8.125  73.462  1.00  0.00    -0.247 A  
HETATM   17  C   UNL     1      -9.033   1.729  72.374  1.00  0.00    -0.096 A  
HETATM   18  C   UNL     1      -7.845   5.805  74.209  1.00  0.00    -0.101 A  
HETATM   19  C   UNL     1      -8.918   6.397  72.117  1.00  0.00    -0.136 A  
HETATM   20  C   UNL     1      -8.648   2.855  73.110  1.00  0.00    -0.079 A  
HETATM   21  C   UNL     1      -8.661   7.748  72.309  1.00  0.00    -0.173 A  
HETATM   22  C   UNL     1      -8.876   4.110  72.570  1.00  0.00    -0.119 A  
BRANCH  10  23
HETATM   23  C   UNL     1      -8.671   5.966  69.629  1.00  0.00    -0.128 C  
BRANCH  23  24
HETATM   24  C   UNL     1      -7.371   6.754  69.869  1.00  0.00    -0.089 C  
BRANCH  24  25
HETATM   25  C   UNL     1      -7.018   7.592  68.640  1.00  0.00    -0.075 C  
BRANCH  25  26
HETATM   26  C   UNL     1      -8.112   8.601  68.267  1.00  0.00    -0.118 C  
BRANCH  26  27
HETATM   27  N   UNL     1      -8.544   9.477  69.367  1.00  0.00    -0.147 NA 
HETATM   28  C   UNL     1     -10.276  11.613  68.256  1.00  0.00    -0.199 C  
HETATM   29  C   UNL     1     -10.761  10.169  68.424  1.00  0.00    -0.266 C  
HETATM   30  C   UNL     1      -8.747  11.675  68.163  1.00  0.00    -0.159 C  
HETATM   31  C   UNL     1      -8.067  10.861  69.266  1.00  0.00    -0.055 C  
HETATM   32  C   UNL     1     -10.004   9.448  69.536  1.00  0.00    -0.191 C  
BRANCH  28  33
HETATM   33  N   UNL     1     -10.782  12.474  69.322  1.00  0.00    -0.442 N  
HETATM   34  O   UNL     1     -12.255  13.627  67.977  1.00  0.00    -0.323 OA 
HETATM   35  C   UNL     1     -11.733  13.448  69.070  1.00  0.00    -0.323 C  
HETATM   36  H   UNL     1     -10.428  12.355  70.271  1.00  0.00     0.000 HD 
BRANCH  35  37
HETATM   37  C   UNL     1     -12.050  14.336  70.214  1.00  0.00    -0.403 A  
HETATM   38  C   UNL     1     -11.391  15.562  70.458  1.00  0.00    -0.372 A  
HETATM   39  C   UNL     1     -11.694  16.192  71.687  1.00  0.00    -0.558 A  
HETATM   40  C   UNL     1     -12.976  13.804  71.140  1.00  0.00    -0.370 A  
HETATM   41  C   UNL     1     -13.244  14.455  72.336  1.00  0.00    -0.528 A  
HETATM   42  C   UNL     1     -12.591  15.645  72.618  1.00  0.00    -0.532 A  
BRANCH  38  43
HETATM   43  C   UNL     1     -10.414  16.222  69.534  1.00  0.00    -0.299 A  
HETATM   44  C   UNL     1     -10.758  17.319  68.727  1.00  0.00    -0.247 A  
HETATM   45  C   UNL     1      -8.516  17.448  67.774  1.00  0.00    -0.223 A  
HETATM   46  C   UNL     1      -9.835  17.913  67.851  1.00  0.00    -0.309 A  
HETATM   47  C   UNL     1      -7.522  18.045  66.809  1.00  0.00    -0.214 C  
HETATM   48  C   UNL     1      -8.140  16.391  68.607  1.00  0.00    -0.218 A  
HETATM   49  C   UNL     1      -9.074  15.787  69.461  1.00  0.00    -0.202 A  
HETATM   50  F   UNL     1      -8.040  19.030  66.024  1.00  0.00    -0.296 F  
HETATM   51  F   UNL     1      -7.006  17.119  65.951  1.00  0.00    -0.267 F  
HETATM   52  F   UNL     1      -6.448  18.599  67.441  1.00  0.00    -0.185 F  
ENDBRANCH  38  43
ENDBRANCH  35  37
ENDBRANCH  28  33
ENDBRANCH  26  27
ENDBRANCH  25  26
ENDBRANCH  24  25
ENDBRANCH  23  24
ENDBRANCH  10  23
ENDBRANCH   7  10
ENDBRANCH   3   6
TORSDOF 10
ENDMDL
MODEL       20
REMARK 921   NORMALIZED FREE ENERGY PREDICTED BY IDOCK:   -7.66 KCAL/MOL
REMARK 922        TOTAL FREE ENERGY PREDICTED BY IDOCK:  -15.24 KCAL/MOL
REMARK 923 INTER-LIGAND FREE ENERGY PREDICTED BY IDOCK:  -11.34 KCAL/MOL
REMARK 924 INTRA-LIGAND FREE ENERGY PREDICTED BY IDOCK:   -3.90 KCAL/MOL
REMARK 927      BINDING AFFINITY PREDICTED BY RF-SCORE:    0.00 PKD
ROOT
HETATM    1  F   UNL     1     -11.252  19.883  67.143  1.00  0.00    -0.497 F  
HETATM    2  C   UNL     1     -10.069  20.209  66.576  1.00  0.00    -0.449 C  
HETATM    3  C   UNL     1      -9.017  19.099  66.725  1.00  0.00    -0.311 C  
HETATM    4  F   UNL     1      -9.655  21.375  67.117  1.00  0.00    -0.477 F  
HETATM    5  F   UNL     1     -10.313  20.443  65.262  1.00  0.00    -0.466 F  
ENDROOT
BRANCH   3   6
HETATM    6  N   UNL     1      -9.424  17.914  67.481  1.00  0.00    -0.256 N  
HETATM    7  C   UNL     1      -9.593  16.695  66.854  1.00  0.00    -0.249 C  
HETATM    8  H   UNL     1      -9.586  17.990  68.485  1.00  0.00     0.000 HD 
HETATM    9  O   UNL     1      -9.466  16.595  65.632  1.00  0.00    -0.511 OA 
BRANCH   7  10
HETATM   10  C   UNL     1      -9.941  15.493  67.767  1.00  0.00    -0.222 C  
HETATM   11  C   UNL     1      -8.686  14.733  68.222  1.00  0.00    -0.170 A  
HETATM   12  C   UNL     1     -11.778  12.111  65.893  1.00  0.00    -0.393 A  
HETATM   13  C   UNL     1      -7.639  15.194  69.010  1.00  0.00    -0.162 A  
HETATM   14  C   UNL     1      -9.982  13.183  67.055  1.00  0.00    -0.244 A  
HETATM   15  C   UNL     1      -6.652  14.283  69.387  1.00  0.00    -0.132 A  
HETATM   16  C   UNL     1     -12.473  13.329  65.823  1.00  0.00    -0.480 A  
HETATM   17  C   UNL     1      -6.716  12.942  68.972  1.00  0.00    -0.095 A  
HETATM   18  C   UNL     1     -10.521  12.033  66.505  1.00  0.00    -0.253 A  
HETATM   19  C   UNL     1     -10.692  14.403  66.990  1.00  0.00    -0.285 A  
HETATM   20  C   UNL     1      -7.769  12.487  68.171  1.00  0.00    -0.141 A  
HETATM   21  C   UNL     1     -11.930  14.491  66.369  1.00  0.00    -0.350 A  
HETATM   22  C   UNL     1      -8.756  13.385  67.802  1.00  0.00    -0.197 A  
BRANCH  10  23
HETATM   23  C   UNL     1     -10.775  15.966  68.987  1.00  0.00    -0.251 C  
BRANCH  23  24
HETATM   24  C   UNL     1     -11.002  14.907  70.081  1.00  0.00    -0.211 C  
BRANCH  24  25
HETATM   25  C   UNL     1     -12.472  14.880  70.503  1.00  0.00    -0.419 C  
BRANCH  25  26
HETATM   26  C   UNL     1     -13.032  13.459  70.638  1.00  0.00     0.013 C  
BRANCH  26  27
HETATM   27  N   UNL     1     -12.049  12.444  71.048  1.00  0.00    -0.098 NA 
HETATM   28  C   UNL     1     -13.245   9.756  70.678  1.00  0.00    -0.014 C  
HETATM   29  C   UNL     1     -12.762  10.607  69.499  1.00  0.00     0.276 C  
HETATM   30  C   UNL     1     -13.570  10.631  71.895  1.00  0.00    -0.200 C  
HETATM   31  C   UNL     1     -12.455  11.633  72.201  1.00  0.00     0.717 C  
HETATM   32  C   UNL     1     -11.665  11.581  69.922  1.00  0.00    -0.343 C  
BRANCH  28  33
HETATM   33  N   UNL     1     -12.282   8.711  71.013  1.00  0.00    -0.443 N  
HETATM   34  O   UNL     1     -13.803   6.984  70.912  1.00  0.00    -0.045 OA 
HETATM   35  C   UNL     1     -12.667   7.387  71.129  1.00  0.00    -0.277 C  
HETATM   36  H   UNL     1     -11.305   8.962  71.164  1.00  0.00     0.000 HD 
BRANCH  35  37
HETATM   37  C   UNL     1     -11.615   6.459  71.609  1.00  0.00    -0.363 A  
HETATM   38  C   UNL     1     -10.458   6.136  70.862  1.00  0.00    -0.282 A  
HETATM   39  C   UNL     1      -9.652   5.103  71.391  1.00  0.00    -0.215 A  
HETATM   40  C   UNL     1     -11.913   5.798  72.822  1.00  0.00    -0.070 A  
HETATM   41  C   UNL     1     -11.093   4.787  73.305  1.00  0.00    -0.411 A  
HETATM   42  C   UNL     1      -9.968   4.427  72.580  1.00  0.00    -0.217 A  
BRANCH  38  43
HETATM   43  C   UNL     1     -10.041   6.790  69.581  1.00  0.00    -0.197 A  
HETATM   44  C   UNL     1      -8.969   7.695  69.509  1.00  0.00    -0.139 A  
HETATM   45  C   UNL     1      -9.282   8.027  67.112  1.00  0.00    -0.172 A  
HETATM   46  C   UNL     1      -8.604   8.315  68.303  1.00  0.00    -0.133 A  
HETATM   47  C   UNL     1      -8.931   8.714  65.815  1.00  0.00    -0.197 C  
HETATM   48  C   UNL     1     -10.317   7.090  67.154  1.00  0.00    -0.351 A  
HETATM   49  C   UNL     1     -10.693   6.494  68.366  1.00  0.00    -0.339 A  
HETATM   50  F   UNL     1      -7.939   9.639  65.934  1.00  0.00    -0.106 F  
HETATM   51  F   UNL     1      -9.993   9.375  65.271  1.00  0.00    -0.363 F  
HETATM   52  F   UNL     1      -8.512   7.840  64.857  1.00  0.00    -0.152 F  
ENDBRANCH  38  43
ENDBRANCH  35  37
ENDBRANCH  28  33
ENDBRANCH  26  27
ENDBRANCH  25  26
ENDBRANCH  24  25
ENDBRANCH  23  24
ENDBRANCH  10  23
ENDBRANCH   7  10
ENDBRANCH   3   6
TORSDOF 10
ENDMDL
MODEL       21
REMARK 921   NORMALIZED FREE ENERGY PREDICTED BY IDOCK:   -7.57 KCAL/MOL
REMARK 922        TOTAL FREE ENERGY PREDICTED BY IDOCK:  -15.10 KCAL/MOL
REMARK 923 INTER-LIGAND FREE ENERGY PREDICTED BY IDOCK:  -11.57 KCAL/MOL
REMARK 924 INTRA-LIGAND FREE ENERGY PREDICTED BY IDOCK:   -3.53 KCAL/MOL
REMARK 927      BINDING AFFINITY PREDICTED BY RF-SCORE:    0.00 PKD
ROOT
HETATM    1  F   UNL     1      -9.372  16.461  65.718  1.00  0.00    -0.328 F  
HETATM    2  C   UNL     1      -8.285  16.656  66.496  1.00  0.00    -0.295 C  
HETATM    3  C   UNL     1      -7.866  15.386  67.253  1.00  0.00    -0.206 C  
HETATM    4  F   UNL     1      -8.550  17.680  67.335  1.00  0.00    -0.217 F  
HETATM    5  F   UNL     1      -7.281  17.059  65.677  1.00  0.00    -0.181 F  
ENDROOT
BRANCH   3   6
HETATM    6  N   UNL     1      -8.713  14.207  67.064  1.00  0.00    -0.277 N  
HETATM    7  C   UNL     1      -9.689  13.878  67.986  1.00  0.00    -0.226 C  
HETATM    8  H   UNL     1      -8.580  13.620  66.241  1.00  0.00     0.000 HD 
HETATM    9  O   UNL     1      -9.823  14.536  69.019  1.00  0.00    -0.208 OA 
BRANCH   7  10
HETATM   10  C   UNL     1     -10.581  12.660  67.639  1.00  0.00    -0.232 C  
HETATM   11  C   UNL     1      -9.766  11.362  67.531  1.00  0.00    -0.191 A  
HETATM   12  C   UNL     1     -12.130  12.474  63.653  1.00  0.00    -0.642 A  
HETATM   13  C   UNL     1      -9.044  10.714  68.524  1.00  0.00    -0.159 A  
HETATM   14  C   UNL     1     -10.765  11.664  65.444  1.00  0.00    -0.341 A  
HETATM   15  C   UNL     1      -8.468   9.481  68.217  1.00  0.00    -0.119 A  
HETATM   16  C   UNL     1     -12.505  13.583  64.427  1.00  0.00    -0.324 A  
HETATM   17  C   UNL     1      -8.611   8.920  66.937  1.00  0.00    -0.121 A  
HETATM   18  C   UNL     1     -11.249  11.509  64.156  1.00  0.00    -0.393 A  
HETATM   19  C   UNL     1     -11.156  12.778  66.221  1.00  0.00    -0.321 A  
HETATM   20  C   UNL     1      -9.333   9.583  65.939  1.00  0.00    -0.285 A  
HETATM   21  C   UNL     1     -12.014  13.748  65.722  1.00  0.00    -0.423 A  
HETATM   22  C   UNL     1      -9.914  10.803  66.240  1.00  0.00    -0.272 A  
BRANCH  10  23
HETATM   23  C   UNL     1     -11.722  12.512  68.680  1.00  0.00    -0.368 C  
BRANCH  23  24
HETATM   24  C   UNL     1     -12.058  11.067  69.088  1.00  0.00    -0.333 C  
BRANCH  24  25
HETATM   25  C   UNL     1     -12.202  10.960  70.607  1.00  0.00    -0.472 C  
BRANCH  25  26
HETATM   26  C   UNL     1     -12.244   9.510  71.105  1.00  0.00    -0.338 C  
BRANCH  26  27
HETATM   27  N   UNL     1     -11.023   8.732  70.844  1.00  0.00    -0.249 NA 
HETATM   28  C   UNL     1     -10.969   6.404  72.680  1.00  0.00    -0.253 C  
HETATM   29  C   UNL     1     -11.901   6.468  71.466  1.00  0.00    -0.386 C  
HETATM   30  C   UNL     1     -10.556   7.809  73.136  1.00  0.00    -0.415 C  
HETATM   31  C   UNL     1     -10.083   8.678  71.970  1.00  0.00    -0.331 C  
HETATM   32  C   UNL     1     -11.339   7.376  70.375  1.00  0.00    -0.249 C  
BRANCH  28  33
HETATM   33  N   UNL     1      -9.804   5.564  72.416  1.00  0.00    -0.161 N  
HETATM   34  O   UNL     1     -10.664   3.685  73.433  1.00  0.00    -0.178 OA 
HETATM   35  C   UNL     1      -9.747   4.252  72.854  1.00  0.00    -0.131 C  
HETATM   36  H   UNL     1      -9.016   5.952  71.898  1.00  0.00     0.000 HD 
BRANCH  35  37
HETATM   37  C   UNL     1      -8.451   3.565  72.636  1.00  0.00    -0.086 A  
HETATM   38  C   UNL     1      -7.914   3.298  71.355  1.00  0.00    -0.059 A  
HETATM   39  C   UNL     1      -6.762   2.481  71.329  1.00  0.00    -0.031 A  
HETATM   40  C   UNL     1      -7.841   3.061  73.807  1.00  0.00    -0.064 A  
HETATM   41  C   UNL     1      -6.710   2.261  73.735  1.00  0.00    -0.022 A  
HETATM   42  C   UNL     1      -6.176   1.957  72.493  1.00  0.00    -0.009 A  
BRANCH  38  43
HETATM   43  C   UNL     1      -8.469   3.802  70.059  1.00  0.00    -0.093 A  
HETATM   44  C   UNL     1      -9.263   3.007  69.217  1.00  0.00    -0.218 A  
HETATM   45  C   UNL     1      -9.502   4.801  67.582  1.00  0.00    -0.176 A  
HETATM   46  C   UNL     1      -9.758   3.488  67.994  1.00  0.00    -0.083 A  
HETATM   47  C   UNL     1      -9.990   5.324  66.253  1.00  0.00    -0.192 C  
HETATM   48  C   UNL     1      -8.758   5.625  68.431  1.00  0.00    -0.109 A  
HETATM   49  C   UNL     1      -8.245   5.130  69.639  1.00  0.00    -0.093 A  
HETATM   50  F   UNL     1     -10.655   4.398  65.509  1.00  0.00    -0.266 F  
HETATM   51  F   UNL     1      -8.973   5.774  65.464  1.00  0.00    -0.157 F  
HETATM   52  F   UNL     1     -10.846   6.377  66.388  1.00  0.00    -0.282 F  
ENDBRANCH  38  43
ENDBRANCH  35  37
ENDBRANCH  28  33
ENDBRANCH  26  27
ENDBRANCH  25  26
ENDBRANCH  24  25
ENDBRANCH  23  24
ENDBRANCH  10  23
ENDBRANCH   7  10
ENDBRANCH   3   6
TORSDOF 10
ENDMDL
MODEL       22
REMARK 921   NORMALIZED FREE ENERGY PREDICTED BY IDOCK:   -7.32 KCAL/MOL
REMARK 922        TOTAL FREE ENERGY PREDICTED BY IDOCK:  -14.69 KCAL/MOL
REMARK 923 INTER-LIGAND FREE ENERGY PREDICTED BY IDOCK:  -12.02 KCAL/MOL
REMARK 924 INTRA-LIGAND FREE ENERGY PREDICTED BY IDOCK:   -2.68 KCAL/MOL
REMARK 927      BINDING AFFINITY PREDICTED BY RF-SCORE:    0.00 PKD
ROOT
HETATM    1  F   UNL     1     -12.193   9.000  70.880  1.00  0.00    -0.305 F  
HETATM    2  C   UNL     1     -13.010   8.287  71.687  1.00  0.00    -0.337 C  
HETATM    3  C   UNL     1     -12.681   6.786  71.682  1.00  0.00    -0.312 C  
HETATM    4  F   UNL     1     -14.284   8.526  71.309  1.00  0.00    -0.422 F  
HETATM    5  F   UNL     1     -12.864   8.789  72.939  1.00  0.00    -0.452 F  
ENDROOT
BRANCH   3   6
HETATM    6  N   UNL     1     -11.601   6.359  70.792  1.00  0.00    -0.356 N  
HETATM    7  C   UNL     1     -10.303   6.247  71.253  1.00  0.00    -0.212 C  
HETATM    8  H   UNL     1     -11.809   6.142  69.818  1.00  0.00     0.000 HD 
HETATM    9  O   UNL     1     -10.017   6.567  72.408  1.00  0.00    -0.170 OA 
BRANCH   7  10
HETATM   10  C   UNL     1      -9.258   5.705  70.245  1.00  0.00    -0.178 C  
HETATM   11  C   UNL     1      -9.828   5.612  68.821  1.00  0.00    -0.193 A  
HETATM   12  C   UNL     1      -8.270   1.551  70.536  1.00  0.00    -0.056 A  
HETATM   13  C   UNL     1     -10.273   6.642  68.003  1.00  0.00    -0.193 A  
HETATM   14  C   UNL     1      -9.201   3.441  69.401  1.00  0.00    -0.222 A  
HETATM   15  C   UNL     1     -10.650   6.326  66.697  1.00  0.00    -0.268 A  
HETATM   16  C   UNL     1      -8.002   2.346  71.661  1.00  0.00    -0.048 A  
HETATM   17  C   UNL     1     -10.584   5.002  66.231  1.00  0.00    -0.332 A  
HETATM   18  C   UNL     1      -8.880   2.094  69.399  1.00  0.00    -0.140 A  
HETATM   19  C   UNL     1      -8.918   4.237  70.534  1.00  0.00    -0.149 A  
HETATM   20  C   UNL     1     -10.143   3.968  67.065  1.00  0.00     0.105 A  
HETATM   21  C   UNL     1      -8.330   3.701  71.671  1.00  0.00    -0.079 A  
HETATM   22  C   UNL     1      -9.760   4.277  68.359  1.00  0.00    -0.165 A  
BRANCH  10  23
HETATM   23  C   UNL     1      -7.977   6.578  70.273  1.00  0.00    -0.115 C  
BRANCH  23  24
HETATM   24  C   UNL     1      -7.083   6.477  69.024  1.00  0.00    -0.085 C  
BRANCH  24  25
HETATM   25  C   UNL     1      -6.472   7.839  68.691  1.00  0.00    -0.048 C  
BRANCH  25  26
HETATM   26  C   UNL     1      -7.520   8.887  68.295  1.00  0.00    -0.087 C  
BRANCH  26  27
HETATM   27  N   UNL     1      -7.973   9.752  69.395  1.00  0.00    -0.111 NA 
HETATM   28  C   UNL     1     -10.059  11.590  68.362  1.00  0.00    -0.204 C  
HETATM   29  C   UNL     1     -10.333  10.105  68.625  1.00  0.00    -0.208 C  
HETATM   30  C   UNL     1      -8.565  11.845  68.132  1.00  0.00    -0.165 C  
HETATM   31  C   UNL     1      -7.695  11.180  69.201  1.00  0.00    -0.076 C  
HETATM   32  C   UNL     1      -9.397   9.543  69.693  1.00  0.00    -0.200 C  
BRANCH  28  33
HETATM   33  N   UNL     1     -10.586  12.429  69.435  1.00  0.00    -0.423 N  
HETATM   34  O   UNL     1     -12.243  13.389  68.155  1.00  0.00    -0.284 OA 
HETATM   35  C   UNL     1     -11.643  13.296  69.217  1.00  0.00    -0.314 C  
HETATM   36  H   UNL     1     -10.167  12.374  70.363  1.00  0.00     0.000 HD 
BRANCH  35  37
HETATM   37  C   UNL     1     -11.981  14.183  70.356  1.00  0.00    -0.400 A  
HETATM   38  C   UNL     1     -11.428  15.472  70.534  1.00  0.00    -0.368 A  
HETATM   39  C   UNL     1     -11.723  16.105  71.763  1.00  0.00    -0.568 A  
HETATM   40  C   UNL     1     -12.800  13.593  71.346  1.00  0.00    -0.442 A  
HETATM   41  C   UNL     1     -13.064  14.251  72.539  1.00  0.00    -0.550 A  
HETATM   42  C   UNL     1     -12.512  15.504  72.756  1.00  0.00    -0.519 A  
BRANCH  38  43
HETATM   43  C   UNL     1     -10.569  16.193  69.541  1.00  0.00    -0.306 A  
HETATM   44  C   UNL     1     -11.064  17.216  68.715  1.00  0.00     0.001 A  
HETATM   45  C   UNL     1      -8.895  17.540  67.648  1.00  0.00    -0.228 A  
HETATM   46  C   UNL     1     -10.250  17.868  67.775  1.00  0.00    -0.372 A  
HETATM   47  C   UNL     1      -8.014  18.200  66.616  1.00  0.00    -0.251 C  
HETATM   48  C   UNL     1      -8.371  16.562  68.498  1.00  0.00    -0.210 A  
HETATM   49  C   UNL     1      -9.196  15.897  69.416  1.00  0.00    -0.235 A  
HETATM   50  F   UNL     1      -8.669  19.094  65.825  1.00  0.00    -0.236 F  
HETATM   51  F   UNL     1      -7.443  17.300  65.765  1.00  0.00    -0.326 F  
HETATM   52  F   UNL     1      -6.978  18.887  67.175  1.00  0.00    -0.199 F  
ENDBRANCH  38  43
ENDBRANCH  35  37
ENDBRANCH  28  33
ENDBRANCH  26  27
ENDBRANCH  25  26
ENDBRANCH  24  25
ENDBRANCH  23  24
ENDBRANCH  10  23
ENDBRANCH   7  10
ENDBRANCH   3   6
TORSDOF 10
ENDMDL
MODEL       23
REMARK 921   NORMALIZED FREE ENERGY PREDICTED BY IDOCK:   -7.30 KCAL/MOL
REMARK 922        TOTAL FREE ENERGY PREDICTED BY IDOCK:  -14.66 KCAL/MOL
REMARK 923 INTER-LIGAND FREE ENERGY PREDICTED BY IDOCK:  -12.80 KCAL/MOL
REMARK 924 INTRA-LIGAND FREE ENERGY PREDICTED BY IDOCK:   -1.87 KCAL/MOL
REMARK 927      BINDING AFFINITY PREDICTED BY RF-SCORE:    0.00 PKD
ROOT
HETATM    1  F   UNL     1      -7.267   5.529  66.754  1.00  0.00    -0.071 F  
HETATM    2  C   UNL     1      -6.195   5.963  67.452  1.00  0.00    -0.033 C  
HETATM    3  C   UNL     1      -6.512   6.189  68.939  1.00  0.00    -0.046 C  
HETATM    4  F   UNL     1      -5.736   7.085  66.857  1.00  0.00    -0.019 F  
HETATM    5  F   UNL     1      -5.231   5.018  67.322  1.00  0.00    -0.006 F  
ENDROOT
BRANCH   3   6
HETATM    6  N   UNL     1      -7.896   5.958  69.352  1.00  0.00    -0.093 N  
HETATM    7  C   UNL     1      -8.760   7.016  69.566  1.00  0.00    -0.134 C  
HETATM    8  H   UNL     1      -8.228   5.003  69.484  1.00  0.00     0.000 HD 
HETATM    9  O   UNL     1      -8.362   8.178  69.475  1.00  0.00    -0.119 OA 
BRANCH   7  10
HETATM   10  C   UNL     1     -10.224   6.649  69.916  1.00  0.00    -0.214 C  
HETATM   11  C   UNL     1     -10.972   7.823  70.566  1.00  0.00    -0.251 A  
HETATM   12  C   UNL     1     -10.810   3.959  73.192  1.00  0.00    -0.267 A  
HETATM   13  C   UNL     1     -11.278   9.060  70.014  1.00  0.00    -0.141 A  
HETATM   14  C   UNL     1     -11.016   6.092  72.130  1.00  0.00    -0.307 A  
HETATM   15  C   UNL     1     -12.066   9.935  70.762  1.00  0.00    -0.396 A  
HETATM   16  C   UNL     1     -10.072   3.475  72.100  1.00  0.00    -0.205 A  
HETATM   17  C   UNL     1     -12.528   9.572  72.039  1.00  0.00    -0.427 A  
HETATM   18  C   UNL     1     -11.282   5.276  73.217  1.00  0.00    -0.359 A  
HETATM   19  C   UNL     1     -10.282   5.596  71.030  1.00  0.00    -0.281 A  
HETATM   20  C   UNL     1     -12.208   8.327  72.592  1.00  0.00    -0.293 A  
HETATM   21  C   UNL     1      -9.796   4.296  71.008  1.00  0.00    -0.251 A  
HETATM   22  C   UNL     1     -11.433   7.452  71.850  1.00  0.00    -0.300 A  
BRANCH  10  23
HETATM   23  C   UNL     1     -10.972   6.148  68.652  1.00  0.00    -0.415 C  
BRANCH  23  24
HETATM   24  C   UNL     1     -10.304   6.496  67.310  1.00  0.00    -0.283 C  
BRANCH  24  25
HETATM   25  C   UNL     1     -10.753   7.877  66.830  1.00  0.00    -0.219 C  
BRANCH  25  26
HETATM   26  C   UNL     1      -9.714   8.572  65.942  1.00  0.00    -0.031 C  
BRANCH  26  27
HETATM   27  N   UNL     1      -9.048   9.729  66.562  1.00  0.00    -0.149 NA 
HETATM   28  C   UNL     1     -10.340  12.209  65.573  1.00  0.00    -0.263 C  
HETATM   29  C   UNL     1     -11.009  11.291  66.601  1.00  0.00    -0.326 C  
HETATM   30  C   UNL     1      -9.302  11.445  64.742  1.00  0.00    -0.118 C  
HETATM   31  C   UNL     1      -8.360  10.614  65.615  1.00  0.00    -0.162 C  
HETATM   32  C   UNL     1      -9.978  10.498  67.401  1.00  0.00    -0.179 C  
BRANCH  28  33
HETATM   33  N   UNL     1      -9.754  13.386  66.209  1.00  0.00    -0.318 N  
HETATM   34  O   UNL     1     -11.664  14.665  66.083  1.00  0.00    -0.365 OA 
HETATM   35  C   UNL     1     -10.484  14.548  66.385  1.00  0.00    -0.295 C  
HETATM   36  H   UNL     1      -8.786  13.350  66.531  1.00  0.00     0.000 HD 
BRANCH  35  37
HETATM   37  C   UNL     1      -9.722  15.703  66.917  1.00  0.00    -0.240 A  
HETATM   38  C   UNL     1      -9.889  16.214  68.225  1.00  0.00    -0.224 A  
HETATM   39  C   UNL     1      -9.213  17.424  68.504  1.00  0.00    -0.277 A  
HETATM   40  C   UNL     1      -8.900  16.359  65.972  1.00  0.00    -0.296 A  
HETATM   41  C   UNL     1      -8.255  17.546  66.289  1.00  0.00    -0.275 A  
HETATM   42  C   UNL     1      -8.423  18.089  67.553  1.00  0.00    -0.237 A  
BRANCH  38  43
HETATM   43  C   UNL     1     -10.715  15.586  69.304  1.00  0.00    -0.245 A  
HETATM   44  C   UNL     1     -11.082  14.230  69.283  1.00  0.00    -0.297 A  
HETATM   45  C   UNL     1     -12.305  14.425  71.385  1.00  0.00    -0.433 A  
HETATM   46  C   UNL     1     -11.874  13.661  70.293  1.00  0.00    -0.336 A  
HETATM   47  C   UNL     1     -13.190  13.843  72.459  1.00  0.00    -0.502 C  
HETATM   48  C   UNL     1     -11.905  15.763  71.451  1.00  0.00    -0.503 A  
HETATM   49  C   UNL     1     -11.136  16.330  70.426  1.00  0.00    -0.322 A  
HETATM   50  F   UNL     1     -13.542  12.546  72.238  1.00  0.00    -0.591 F  
HETATM   51  F   UNL     1     -14.362  14.527  72.596  1.00  0.00    -0.489 F  
HETATM   52  F   UNL     1     -12.604  13.865  73.689  1.00  0.00    -0.195 F  
ENDBRANCH  38  43
ENDBRANCH  35  37
ENDBRANCH  28  33
ENDBRANCH  26  27
ENDBRANCH  25  26
ENDBRANCH  24  25
ENDBRANCH  23  24
ENDBRANCH  10  23
ENDBRANCH   7  10
ENDBRANCH   3   6
TORSDOF 10
ENDMDL
MODEL       24
REMARK 921   NORMALIZED FREE ENERGY PREDICTED BY IDOCK:   -7.26 KCAL/MOL
REMARK 922        TOTAL FREE ENERGY PREDICTED BY IDOCK:  -14.61 KCAL/MOL
REMARK 923 INTER-LIGAND FREE ENERGY PREDICTED BY IDOCK:  -11.54 KCAL/MOL
REMARK 924 INTRA-LIGAND FREE ENERGY PREDICTED BY IDOCK:   -3.07 KCAL/MOL
REMARK 927      BINDING AFFINITY PREDICTED BY RF-SCORE:    0.00 PKD
ROOT
HETATM    1  F   UNL     1      -6.830  14.139  70.335  1.00  0.00    -0.081 F  
HETATM    2  C   UNL     1      -6.348  13.014  69.762  1.00  0.00    -0.063 C  
HETATM    3  C   UNL     1      -7.273  12.467  68.664  1.00  0.00    -0.103 C  
HETATM    4  F   UNL     1      -6.134  12.107  70.740  1.00  0.00    -0.161 F  
HETATM    5  F   UNL     1      -5.137  13.327  69.235  1.00  0.00    -0.073 F  
ENDROOT
BRANCH   3   6
HETATM    6  N   UNL     1      -8.523  13.195  68.445  1.00  0.00    -0.262 N  
HETATM    7  C   UNL     1      -8.597  14.221  67.522  1.00  0.00    -0.196 C  
HETATM    8  H   UNL     1      -9.353  12.941  68.982  1.00  0.00     0.000 HD 
HETATM    9  O   UNL     1      -7.592  14.586  66.910  1.00  0.00     0.029 OA 
BRANCH   7  10
HETATM   10  C   UNL     1      -9.992  14.861  67.314  1.00  0.00    -0.230 C  
HETATM   11  C   UNL     1      -9.921  16.394  67.268  1.00  0.00    -0.258 A  
HETATM   12  C   UNL     1     -12.704  14.701  70.621  1.00  0.00    -0.417 A  
HETATM   13  C   UNL     1      -9.271  17.199  66.341  1.00  0.00    -0.285 A  
HETATM   14  C   UNL     1     -11.322  15.874  69.060  1.00  0.00    -0.371 A  
HETATM   15  C   UNL     1      -9.437  18.581  66.441  1.00  0.00    -0.304 A  
HETATM   16  C   UNL     1     -12.268  13.472  70.100  1.00  0.00    -0.400 A  
HETATM   17  C   UNL     1     -10.233  19.136  67.457  1.00  0.00    -0.493 A  
HETATM   18  C   UNL     1     -12.226  15.912  70.108  1.00  0.00    -0.244 A  
HETATM   19  C   UNL     1     -10.896  14.634  68.533  1.00  0.00    -0.256 A  
HETATM   20  C   UNL     1     -10.878  18.320  68.393  1.00  0.00     0.118 A  
HETATM   21  C   UNL     1     -11.352  13.429  69.050  1.00  0.00    -0.335 A  
HETATM   22  C   UNL     1     -10.723  16.948  68.292  1.00  0.00    -0.377 A  
BRANCH  10  23
HETATM   23  C   UNL     1     -10.657  14.299  66.030  1.00  0.00    -0.302 C  
BRANCH  23  24
HETATM   24  C   UNL     1     -12.025  13.625  66.237  1.00  0.00    -0.461 C  
BRANCH  24  25
HETATM   25  C   UNL     1     -12.080  12.286  65.499  1.00  0.00    -0.326 C  
BRANCH  25  26
HETATM   26  C   UNL     1     -10.691  11.732  65.157  1.00  0.00    -0.291 C  
BRANCH  26  27
HETATM   27  N   UNL     1      -9.887  11.323  66.320  1.00  0.00    -0.207 NA 
HETATM   28  C   UNL     1      -9.469   8.390  66.202  1.00  0.00    -0.194 C  
HETATM   29  C   UNL     1      -8.725   9.360  65.279  1.00  0.00    -0.204 C  
HETATM   30  C   UNL     1     -10.777   9.005  66.714  1.00  0.00    -0.103 C  
HETATM   31  C   UNL     1     -10.576  10.424  67.252  1.00  0.00    -0.267 C  
HETATM   32  C   UNL     1      -8.600  10.746  65.907  1.00  0.00    -0.179 C  
BRANCH  28  33
HETATM   33  N   UNL     1      -8.621   7.943  67.304  1.00  0.00    -0.127 N  
HETATM   34  O   UNL     1      -9.466   5.802  67.366  1.00  0.00    -0.111 OA 
HETATM   35  C   UNL     1      -8.721   6.662  67.816  1.00  0.00    -0.116 C  
HETATM   36  H   UNL     1      -7.941   8.590  67.704  1.00  0.00     0.000 HD 
BRANCH  35  37
HETATM   37  C   UNL     1      -7.898   6.393  69.020  1.00  0.00    -0.110 A  
HETATM   38  C   UNL     1      -8.221   6.872  70.310  1.00  0.00    -0.129 A  
HETATM   39  C   UNL     1      -7.237   6.673  71.305  1.00  0.00    -0.078 A  
HETATM   40  C   UNL     1      -6.673   5.733  68.767  1.00  0.00    -0.064 A  
HETATM   41  C   UNL     1      -5.735   5.560  69.775  1.00  0.00    -0.016 A  
HETATM   42  C   UNL     1      -6.009   6.044  71.044  1.00  0.00    -0.030 A  
BRANCH  38  43
HETATM   43  C   UNL     1      -9.496   7.562  70.687  1.00  0.00    -0.164 A  
HETATM   44  C   UNL     1      -9.683   8.944  70.527  1.00  0.00    -0.244 A  
HETATM   45  C   UNL     1     -11.947   8.843  71.429  1.00  0.00    -0.374 A  
HETATM   46  C   UNL     1     -10.878   9.579  70.904  1.00  0.00    -0.407 A  
HETATM   47  C   UNL     1     -13.223   9.511  71.879  1.00  0.00    -0.439 C  
HETATM   48  C   UNL     1     -11.799   7.458  71.547  1.00  0.00    -0.327 A  
HETATM   49  C   UNL     1     -10.594   6.835  71.192  1.00  0.00    -0.252 A  
HETATM   50  F   UNL     1     -13.207  10.867  71.754  1.00  0.00    -0.491 F  
HETATM   51  F   UNL     1     -13.509   9.262  73.189  1.00  0.00    -0.354 F  
HETATM   52  F   UNL     1     -14.311   9.086  71.177  1.00  0.00    -0.410 F  
ENDBRANCH  38  43
ENDBRANCH  35  37
ENDBRANCH  28  33
ENDBRANCH  26  27
ENDBRANCH  25  26
ENDBRANCH  24  25
ENDBRANCH  23  24
ENDBRANCH  10  23
ENDBRANCH   7  10
ENDBRANCH   3   6
TORSDOF 10
ENDMDL
MODEL       25
REMARK 921   NORMALIZED FREE ENERGY PREDICTED BY IDOCK:   -7.25 KCAL/MOL
REMARK 922        TOTAL FREE ENERGY PREDICTED BY IDOCK:  -14.58 KCAL/MOL
REMARK 923 INTER-LIGAND FREE ENERGY PREDICTED BY IDOCK:  -12.90 KCAL/MOL
REMARK 924 INTRA-LIGAND FREE ENERGY PREDICTED BY IDOCK:   -1.68 KCAL/MOL
REMARK 927      BINDING AFFINITY PREDICTED BY RF-SCORE:    0.00 PKD
ROOT
HETATM    1  F   UNL     1      -8.296   5.649  66.243  1.00  0.00    -0.107 F  
HETATM    2  C   UNL     1      -8.820   4.460  65.873  1.00  0.00    -0.120 C  
HETATM    3  C   UNL     1      -9.253   3.605  67.074  1.00  0.00    -0.186 C  
HETATM    4  F   UNL     1      -7.911   3.825  65.102  1.00  0.00    -0.082 F  
HETATM    5  F   UNL     1      -9.892   4.729  65.086  1.00  0.00    -0.172 F  
ENDROOT
BRANCH   3   6
HETATM    6  N   UNL     1      -8.992   4.167  68.400  1.00  0.00    -0.110 N  
HETATM    7  C   UNL     1      -9.818   5.137  68.935  1.00  0.00    -0.172 C  
HETATM    8  H   UNL     1      -8.189   3.839  68.936  1.00  0.00     0.000 HD 
HETATM    9  O   UNL     1     -10.755   5.594  68.280  1.00  0.00    -0.214 OA 
BRANCH   7  10
HETATM   10  C   UNL     1      -9.495   5.595  70.380  1.00  0.00    -0.206 C  
HETATM   11  C   UNL     1      -9.939   4.560  71.425  1.00  0.00    -0.259 A  
HETATM   12  C   UNL     1     -11.865   8.785  71.969  1.00  0.00    -0.442 A  
HETATM   13  C   UNL     1      -9.482   3.260  71.597  1.00  0.00    -0.220 A  
HETATM   14  C   UNL     1     -11.106   6.517  71.928  1.00  0.00    -0.300 A  
HETATM   15  C   UNL     1      -9.958   2.537  72.691  1.00  0.00    -0.218 A  
HETATM   16  C   UNL     1     -11.110   9.069  70.819  1.00  0.00    -0.328 A  
HETATM   17  C   UNL     1     -10.879   3.110  73.585  1.00  0.00    -0.311 A  
HETATM   18  C   UNL     1     -11.873   7.502  72.527  1.00  0.00    -0.266 A  
HETATM   19  C   UNL     1     -10.340   6.812  70.778  1.00  0.00    -0.227 A  
HETATM   20  C   UNL     1     -11.342   4.417  73.399  1.00  0.00    -0.353 A  
HETATM   21  C   UNL     1     -10.342   8.078  70.209  1.00  0.00    -0.212 A  
HETATM   22  C   UNL     1     -10.866   5.142  72.320  1.00  0.00    -0.241 A  
BRANCH  10  23
HETATM   23  C   UNL     1      -7.983   5.910  70.521  1.00  0.00    -0.106 C  
BRANCH  23  24
HETATM   24  C   UNL     1      -7.288   6.392  69.235  1.00  0.00    -0.092 C  
BRANCH  24  25
HETATM   25  C   UNL     1      -6.073   7.257  69.575  1.00  0.00    -0.030 C  
BRANCH  25  26
HETATM   26  C   UNL     1      -5.928   8.477  68.657  1.00  0.00    -0.045 C  
BRANCH  26  27
HETATM   27  N   UNL     1      -7.156   8.860  67.942  1.00  0.00    -0.078 NA 
HETATM   28  C   UNL     1      -7.146  11.799  67.544  1.00  0.00    -0.113 C  
HETATM   29  C   UNL     1      -6.254  10.859  66.727  1.00  0.00    -0.093 C  
HETATM   30  C   UNL     1      -7.546  11.160  68.880  1.00  0.00    -0.133 C  
HETATM   31  C   UNL     1      -8.059   9.729  68.705  1.00  0.00    -0.105 C  
HETATM   32  C   UNL     1      -6.852   9.457  66.634  1.00  0.00    -0.080 C  
BRANCH  28  33
HETATM   33  N   UNL     1      -8.318  12.221  66.782  1.00  0.00    -0.347 N  
HETATM   34  O   UNL     1      -8.753  14.076  68.076  1.00  0.00    -0.162 OA 
HETATM   35  C   UNL     1      -9.050  13.337  67.146  1.00  0.00    -0.231 C  
HETATM   36  H   UNL     1      -8.602  11.682  65.964  1.00  0.00     0.000 HD 
BRANCH  35  37
HETATM   37  C   UNL     1     -10.290  13.566  66.366  1.00  0.00    -0.289 A  
HETATM   38  C   UNL     1     -11.537  13.880  66.953  1.00  0.00    -0.400 A  
HETATM   39  C   UNL     1     -12.646  13.889  66.078  1.00  0.00    -0.467 A  
HETATM   40  C   UNL     1     -10.175  13.310  64.980  1.00  0.00    -0.313 A  
HETATM   41  C   UNL     1     -11.292  13.329  64.156  1.00  0.00    -0.424 A  
HETATM   42  C   UNL     1     -12.533  13.604  64.708  1.00  0.00    -0.391 A  
BRANCH  38  43
HETATM   43  C   UNL     1     -11.761  14.189  68.401  1.00  0.00    -0.380 A  
HETATM   44  C   UNL     1     -11.991  13.190  69.361  1.00  0.00    -0.347 A  
HETATM   45  C   UNL     1     -12.195  14.825  71.160  1.00  0.00    -0.388 A  
HETATM   46  C   UNL     1     -12.220  13.499  70.712  1.00  0.00    -0.417 A  
HETATM   47  C   UNL     1     -12.479  15.181  72.599  1.00  0.00    -0.376 C  
HETATM   48  C   UNL     1     -11.914  15.830  70.229  1.00  0.00    -0.383 A  
HETATM   49  C   UNL     1     -11.713  15.516  68.878  1.00  0.00    -0.385 A  
HETATM   50  F   UNL     1     -12.786  14.108  73.379  1.00  0.00    -0.564 F  
HETATM   51  F   UNL     1     -13.526  16.045  72.726  1.00  0.00    -0.534 F  
HETATM   52  F   UNL     1     -11.422  15.792  73.205  1.00  0.00    -0.483 F  
ENDBRANCH  38  43
ENDBRANCH  35  37
ENDBRANCH  28  33
ENDBRANCH  26  27
ENDBRANCH  25  26
ENDBRANCH  24  25
ENDBRANCH  23  24
ENDBRANCH  10  23
ENDBRANCH   7  10
ENDBRANCH   3   6
TORSDOF 10
ENDMDL
MODEL       26
REMARK 921   NORMALIZED FREE ENERGY PREDICTED BY IDOCK:   -7.19 KCAL/MOL
REMARK 922        TOTAL FREE ENERGY PREDICTED BY IDOCK:  -14.49 KCAL/MOL
REMARK 923 INTER-LIGAND FREE ENERGY PREDICTED BY IDOCK:  -12.95 KCAL/MOL
REMARK 924 INTRA-LIGAND FREE ENERGY PREDICTED BY IDOCK:   -1.55 KCAL/MOL
REMARK 927      BINDING AFFINITY PREDICTED BY RF-SCORE:    0.00 PKD
ROOT
HETATM    1  F   UNL     1     -11.241  19.332  67.092  1.00  0.00    -0.540 F  
HETATM    2  C   UNL     1     -10.052  19.713  66.574  1.00  0.00    -0.461 C  
HETATM    3  C   UNL     1      -9.078  18.537  66.405  1.00  0.00    -0.269 C  
HETATM    4  F   UNL     1      -9.543  20.682  67.365  1.00  0.00    -0.525 F  
HETATM    5  F   UNL     1     -10.311  20.277  65.367  1.00  0.00    -0.515 F  
ENDROOT
BRANCH   3   6
HETATM    6  N   UNL     1      -9.549  17.231  66.865  1.00  0.00    -0.258 N  
HETATM    7  C   UNL     1     -10.267  16.399  66.028  1.00  0.00    -0.356 C  
HETATM    8  H   UNL     1      -9.344  16.930  67.818  1.00  0.00     0.000 HD 
HETATM    9  O   UNL     1     -10.582  16.768  64.895  1.00  0.00    -0.702 OA 
BRANCH   7  10
HETATM   10  C   UNL     1     -10.639  15.005  66.594  1.00  0.00    -0.301 C  
HETATM   11  C   UNL     1      -9.439  14.317  67.261  1.00  0.00    -0.220 A  
HETATM   12  C   UNL     1     -11.338  11.887  63.748  1.00  0.00    -0.532 A  
HETATM   13  C   UNL     1      -8.725  14.724  68.381  1.00  0.00    -0.169 A  
HETATM   14  C   UNL     1     -10.111  12.898  65.535  1.00  0.00    -0.270 A  
HETATM   15  C   UNL     1      -7.734  13.874  68.872  1.00  0.00    -0.041 A  
HETATM   16  C   UNL     1     -12.182  13.007  63.679  1.00  0.00    -0.568 A  
HETATM   17  C   UNL     1      -7.466  12.646  68.244  1.00  0.00    -0.123 A  
HETATM   18  C   UNL     1     -10.290  11.829  64.674  1.00  0.00    -0.336 A  
HETATM   19  C   UNL     1     -10.970  14.018  65.468  1.00  0.00    -0.309 A  
HETATM   20  C   UNL     1      -8.183  12.246  67.112  1.00  0.00    -0.179 A  
HETATM   21  C   UNL     1     -12.000  14.089  64.540  1.00  0.00    -0.470 A  
HETATM   22  C   UNL     1      -9.173  13.082  66.625  1.00  0.00    -0.222 A  
BRANCH  10  23
HETATM   23  C   UNL     1     -11.829  15.125  67.583  1.00  0.00    -0.134 C  
BRANCH  23  24
HETATM   24  C   UNL     1     -11.470  15.641  68.987  1.00  0.00    -0.369 C  
BRANCH  24  25
HETATM   25  C   UNL     1     -12.509  15.180  70.010  1.00  0.00    -0.316 C  
BRANCH  25  26
HETATM   26  C   UNL     1     -12.783  13.672  69.949  1.00  0.00     0.096 C  
BRANCH  26  27
HETATM   27  N   UNL     1     -11.796  12.837  70.651  1.00  0.00    -0.099 NA 
HETATM   28  C   UNL     1     -12.386   9.987  70.082  1.00  0.00    -0.000 C  
HETATM   29  C   UNL     1     -11.747  10.914  69.043  1.00  0.00    -0.391 C  
HETATM   30  C   UNL     1     -13.171  10.787  71.129  1.00  0.00    -0.266 C  
HETATM   31  C   UNL     1     -12.362  11.962  71.683  1.00  0.00     0.201 C  
HETATM   32  C   UNL     1     -10.983  12.057  69.707  1.00  0.00     0.211 C  
BRANCH  28  33
HETATM   33  N   UNL     1     -11.393   9.118  70.708  1.00  0.00    -0.269 N  
HETATM   34  O   UNL     1     -12.790   7.296  70.886  1.00  0.00    -0.259 OA 
HETATM   35  C   UNL     1     -11.704   7.825  71.087  1.00  0.00    -0.284 C  
HETATM   36  H   UNL     1     -10.450   9.473  70.868  1.00  0.00     0.000 HD 
BRANCH  35  37
HETATM   37  C   UNL     1     -10.642   7.109  71.833  1.00  0.00    -0.238 A  
HETATM   38  C   UNL     1      -9.890   6.041  71.291  1.00  0.00    -0.211 A  
HETATM   39  C   UNL     1      -9.045   5.360  72.197  1.00  0.00    -0.147 A  
HETATM   40  C   UNL     1     -10.520   7.476  73.194  1.00  0.00    -0.419 A  
HETATM   41  C   UNL     1      -9.678   6.778  74.048  1.00  0.00    -0.308 A  
HETATM   42  C   UNL     1      -8.950   5.708  73.554  1.00  0.00    -0.125 A  
BRANCH  38  43
HETATM   43  C   UNL     1      -9.928   5.589  69.864  1.00  0.00    -0.282 A  
HETATM   44  C   UNL     1      -9.698   4.256  69.487  1.00  0.00    -0.272 A  
HETATM   45  C   UNL     1     -10.002   4.767  67.122  1.00  0.00    -0.224 A  
HETATM   46  C   UNL     1      -9.717   3.852  68.142  1.00  0.00    -0.124 A  
HETATM   47  C   UNL     1      -9.987   4.363  65.668  1.00  0.00    -0.236 C  
HETATM   48  C   UNL     1     -10.286   6.088  67.481  1.00  0.00    -0.262 A  
HETATM   49  C   UNL     1     -10.239   6.489  68.824  1.00  0.00    -0.194 A  
HETATM   50  F   UNL     1      -9.644   3.061  65.463  1.00  0.00    -0.152 F  
HETATM   51  F   UNL     1      -9.107   5.099  64.930  1.00  0.00    -0.159 F  
HETATM   52  F   UNL     1     -11.199   4.527  65.067  1.00  0.00    -0.351 F  
ENDBRANCH  38  43
ENDBRANCH  35  37
ENDBRANCH  28  33
ENDBRANCH  26  27
ENDBRANCH  25  26
ENDBRANCH  24  25
ENDBRANCH  23  24
ENDBRANCH  10  23
ENDBRANCH   7  10
ENDBRANCH   3   6
TORSDOF 10
ENDMDL
MODEL       27
REMARK 921   NORMALIZED FREE ENERGY PREDICTED BY IDOCK:   -7.13 KCAL/MOL
REMARK 922        TOTAL FREE ENERGY PREDICTED BY IDOCK:  -14.40 KCAL/MOL
REMARK 923 INTER-LIGAND FREE ENERGY PREDICTED BY IDOCK:  -12.17 KCAL/MOL
REMARK 924 INTRA-LIGAND FREE ENERGY PREDICTED BY IDOCK:   -2.23 KCAL/MOL
REMARK 927      BINDING AFFINITY PREDICTED BY RF-SCORE:    0.00 PKD
ROOT
HETATM    1  F   UNL     1     -11.250  15.570  72.370  1.00  0.00    -0.485 F  
HETATM    2  C   UNL     1     -12.458  15.043  72.667  1.00  0.00    -0.364 C  
HETATM    3  C   UNL     1     -12.879  13.940  71.683  1.00  0.00    -0.349 C  
HETATM    4  F   UNL     1     -13.355  16.051  72.709  1.00  0.00    -0.504 F  
HETATM    5  F   UNL     1     -12.368  14.534  73.922  1.00  0.00    -0.536 F  
ENDROOT
BRANCH   3   6
HETATM    6  N   UNL     1     -11.961  13.671  70.576  1.00  0.00    -0.475 N  
HETATM    7  C   UNL     1     -11.876  14.532  69.498  1.00  0.00    -0.329 C  
HETATM    8  H   UNL     1     -11.375  12.836  70.600  1.00  0.00     0.000 HD 
HETATM    9  O   UNL     1     -12.620  15.510  69.418  1.00  0.00    -0.104 OA 
BRANCH   7  10
HETATM   10  C   UNL     1     -10.809  14.191  68.427  1.00  0.00    -0.266 C  
HETATM   11  C   UNL     1      -9.694  15.247  68.371  1.00  0.00    -0.213 A  
HETATM   12  C   UNL     1     -11.971  14.639  64.333  1.00  0.00    -0.454 A  
HETATM   13  C   UNL     1      -8.781  15.588  69.359  1.00  0.00    -0.258 A  
HETATM   14  C   UNL     1     -10.662  15.225  66.248  1.00  0.00    -0.315 A  
HETATM   15  C   UNL     1      -7.782  16.508  69.040  1.00  0.00    -0.228 A  
HETATM   16  C   UNL     1     -12.700  13.716  65.100  1.00  0.00    -0.443 A  
HETATM   17  C   UNL     1      -7.712  17.076  67.756  1.00  0.00    -0.181 A  
HETATM   18  C   UNL     1     -10.950  15.406  64.905  1.00  0.00    -0.453 A  
HETATM   19  C   UNL     1     -11.392  14.287  67.011  1.00  0.00    -0.354 A  
HETATM   20  C   UNL     1      -8.642  16.734  66.768  1.00  0.00    -0.264 A  
HETATM   21  C   UNL     1     -12.418  13.536  66.454  1.00  0.00    -0.349 A  
HETATM   22  C   UNL     1      -9.630  15.815  67.077  1.00  0.00    -0.236 A  
BRANCH  10  23
HETATM   23  C   UNL     1     -10.221  12.779  68.681  1.00  0.00    -0.162 C  
BRANCH  23  24
HETATM   24  C   UNL     1     -10.620  11.704  67.653  1.00  0.00    -0.237 C  
BRANCH  24  25
HETATM   25  C   UNL     1     -11.495  10.635  68.309  1.00  0.00    -0.318 C  
BRANCH  25  26
HETATM   26  C   UNL     1     -11.010  10.236  69.708  1.00  0.00    -0.289 C  
BRANCH  26  27
HETATM   27  N   UNL     1      -9.917   9.251  69.724  1.00  0.00    -0.188 NA 
HETATM   28  C   UNL     1     -10.501   7.219  71.804  1.00  0.00    -0.197 C  
HETATM   29  C   UNL     1     -11.245   7.257  70.465  1.00  0.00    -0.305 C  
HETATM   30  C   UNL     1      -9.915   8.593  72.151  1.00  0.00    -0.386 C  
HETATM   31  C   UNL     1      -9.153   9.209  70.976  1.00  0.00    -0.237 C  
HETATM   32  C   UNL     1     -10.399   7.908  69.373  1.00  0.00    -0.220 C  
BRANCH  28  33
HETATM   33  N   UNL     1      -9.474   6.181  71.816  1.00  0.00    -0.151 N  
HETATM   34  O   UNL     1     -10.767   4.619  72.907  1.00  0.00    -0.207 OA 
HETATM   35  C   UNL     1      -9.700   4.951  72.408  1.00  0.00    -0.157 C  
HETATM   36  H   UNL     1      -8.571   6.367  71.379  1.00  0.00     0.000 HD 
BRANCH  35  37
HETATM   37  C   UNL     1      -8.524   4.049  72.467  1.00  0.00    -0.100 A  
HETATM   38  C   UNL     1      -7.960   3.426  71.330  1.00  0.00    -0.059 A  
HETATM   39  C   UNL     1      -6.958   2.463  71.589  1.00  0.00    -0.031 A  
HETATM   40  C   UNL     1      -8.080   3.736  73.772  1.00  0.00    -0.087 A  
HETATM   41  C   UNL     1      -7.093   2.782  73.980  1.00  0.00    -0.037 A  
HETATM   42  C   UNL     1      -6.541   2.132  72.888  1.00  0.00    -0.018 A  
BRANCH  38  43
HETATM   43  C   UNL     1      -8.342   3.703  69.909  1.00  0.00    -0.079 A  
HETATM   44  C   UNL     1      -7.882   4.830  69.208  1.00  0.00    -0.070 A  
HETATM   45  C   UNL     1      -9.105   4.199  67.193  1.00  0.00    -0.158 A  
HETATM   46  C   UNL     1      -8.266   5.085  67.881  1.00  0.00    -0.097 A  
HETATM   47  C   UNL     1      -9.562   4.477  65.782  1.00  0.00    -0.188 C  
HETATM   48  C   UNL     1      -9.530   3.045  67.857  1.00  0.00    -0.210 A  
HETATM   49  C   UNL     1      -9.163   2.810  69.189  1.00  0.00    -0.215 A  
HETATM   50  F   UNL     1      -9.112   5.661  65.281  1.00  0.00    -0.156 F  
HETATM   51  F   UNL     1     -10.921   4.519  65.673  1.00  0.00    -0.332 F  
HETATM   52  F   UNL     1      -9.152   3.520  64.902  1.00  0.00    -0.118 F  
ENDBRANCH  38  43
ENDBRANCH  35  37
ENDBRANCH  28  33
ENDBRANCH  26  27
ENDBRANCH  25  26
ENDBRANCH  24  25
ENDBRANCH  23  24
ENDBRANCH  10  23
ENDBRANCH   7  10
ENDBRANCH   3   6
TORSDOF 10
ENDMDL
MODEL       28
REMARK 921   NORMALIZED FREE ENERGY PREDICTED BY IDOCK:   -7.10 KCAL/MOL
REMARK 922        TOTAL FREE ENERGY PREDICTED BY IDOCK:  -14.36 KCAL/MOL
REMARK 923 INTER-LIGAND FREE ENERGY PREDICTED BY IDOCK:  -10.84 KCAL/MOL
REMARK 924 INTRA-LIGAND FREE ENERGY PREDICTED BY IDOCK:   -3.52 KCAL/MOL
REMARK 927      BINDING AFFINITY PREDICTED BY RF-SCORE:    0.00 PKD
ROOT
HETATM    1  F   UNL     1      -7.349   7.115  66.223  1.00  0.00    -0.069 F  
HETATM    2  C   UNL     1      -8.572   6.945  65.673  1.00  0.00    -0.110 C  
HETATM    3  C   UNL     1      -9.509   6.113  66.562  1.00  0.00    -0.153 C  
HETATM    4  F   UNL     1      -8.407   6.390  64.453  1.00  0.00    -0.128 F  
HETATM    5  F   UNL     1      -9.093   8.183  65.482  1.00  0.00    -0.194 F  
ENDROOT
BRANCH   3   6
HETATM    6  N   UNL     1      -8.938   5.601  67.808  1.00  0.00    -0.109 N  
HETATM    7  C   UNL     1      -9.149   6.254  69.008  1.00  0.00    -0.129 C  
HETATM    8  H   UNL     1      -8.377   4.750  67.791  1.00  0.00     0.000 HD 
HETATM    9  O   UNL     1      -9.769   7.317  69.043  1.00  0.00    -0.150 OA 
BRANCH   7  10
HETATM   10  C   UNL     1      -8.570   5.573  70.274  1.00  0.00    -0.126 C  
HETATM   11  C   UNL     1      -8.929   4.081  70.340  1.00  0.00    -0.157 A  
HETATM   12  C   UNL     1     -10.395   6.575  74.013  1.00  0.00    -0.362 A  
HETATM   13  C   UNL     1      -8.559   3.066  69.467  1.00  0.00    -0.114 A  
HETATM   14  C   UNL     1      -9.840   5.043  72.261  1.00  0.00    -0.214 A  
HETATM   15  C   UNL     1      -8.917   1.757  69.793  1.00  0.00    -0.139 A  
HETATM   16  C   UNL     1      -9.806   7.627  73.293  1.00  0.00    -0.360 A  
HETATM   17  C   UNL     1      -9.638   1.482  70.967  1.00  0.00    -0.195 A  
HETATM   18  C   UNL     1     -10.421   5.274  73.496  1.00  0.00    -0.280 A  
HETATM   19  C   UNL     1      -9.240   6.105  71.547  1.00  0.00    -0.152 A  
HETATM   20  C   UNL     1     -10.016   2.510  71.837  1.00  0.00    -0.218 A  
HETATM   21  C   UNL     1      -9.226   7.400  72.046  1.00  0.00    -0.155 A  
HETATM   22  C   UNL     1      -9.655   3.810  71.523  1.00  0.00    -0.232 A  
BRANCH  10  23
HETATM   23  C   UNL     1      -7.033   5.775  70.340  1.00  0.00    -0.065 C  
BRANCH  23  24
HETATM   24  C   UNL     1      -6.453   6.762  69.311  1.00  0.00    -0.043 C  
BRANCH  24  25
HETATM   25  C   UNL     1      -6.144   8.106  69.972  1.00  0.00    -0.029 C  
BRANCH  25  26
HETATM   26  C   UNL     1      -6.006   9.254  68.965  1.00  0.00    -0.042 C  
BRANCH  26  27
HETATM   27  N   UNL     1      -7.260   9.646  68.302  1.00  0.00    -0.078 NA 
HETATM   28  C   UNL     1      -7.119  12.532  67.632  1.00  0.00    -0.139 C  
HETATM   29  C   UNL     1      -6.341  11.470  66.847  1.00  0.00    -0.146 C  
HETATM   30  C   UNL     1      -7.455  12.040  69.045  1.00  0.00     0.017 C  
HETATM   31  C   UNL     1      -8.057  10.633  69.039  1.00  0.00    -0.148 C  
HETATM   32  C   UNL     1      -7.020  10.105  66.926  1.00  0.00    -0.089 C  
BRANCH  28  33
HETATM   33  N   UNL     1      -8.317  12.955  66.914  1.00  0.00    -0.382 N  
HETATM   34  O   UNL     1      -8.454  15.017  67.931  1.00  0.00    -0.140 OA 
HETATM   35  C   UNL     1      -8.907  14.183  67.158  1.00  0.00    -0.229 C  
HETATM   36  H   UNL     1      -8.729  12.333  66.218  1.00  0.00     0.000 HD 
BRANCH  35  37
HETATM   37  C   UNL     1     -10.193  14.421  66.458  1.00  0.00    -0.276 A  
HETATM   38  C   UNL     1     -11.365  13.670  66.703  1.00  0.00    -0.343 A  
HETATM   39  C   UNL     1     -12.446  13.911  65.824  1.00  0.00    -0.530 A  
HETATM   40  C   UNL     1     -10.134  15.371  65.413  1.00  0.00    -0.394 A  
HETATM   41  C   UNL     1     -11.219  15.575  64.573  1.00  0.00    -0.327 A  
HETATM   42  C   UNL     1     -12.374  14.834  64.768  1.00  0.00    -0.303 A  
BRANCH  38  43
HETATM   43  C   UNL     1     -11.538  12.659  67.794  1.00  0.00    -0.403 A  
HETATM   44  C   UNL     1     -11.339  11.284  67.590  1.00  0.00    -0.352 A  
HETATM   45  C   UNL     1     -11.888  10.759  69.908  1.00  0.00    -0.413 A  
HETATM   46  C   UNL     1     -11.525  10.348  68.620  1.00  0.00    -0.238 A  
HETATM   47  C   UNL     1     -12.133   9.765  71.017  1.00  0.00    -0.346 C  
HETATM   48  C   UNL     1     -12.039  12.128  70.145  1.00  0.00    -0.368 A  
HETATM   49  C   UNL     1     -11.877  13.055  69.105  1.00  0.00    -0.360 A  
HETATM   50  F   UNL     1     -12.000   8.466  70.630  1.00  0.00    -0.273 F  
HETATM   51  F   UNL     1     -13.387   9.869  71.544  1.00  0.00    -0.397 F  
HETATM   52  F   UNL     1     -11.278   9.931  72.065  1.00  0.00    -0.255 F  
ENDBRANCH  38  43
ENDBRANCH  35  37
ENDBRANCH  28  33
ENDBRANCH  26  27
ENDBRANCH  25  26
ENDBRANCH  24  25
ENDBRANCH  23  24
ENDBRANCH  10  23
ENDBRANCH   7  10
ENDBRANCH   3   6
TORSDOF 10
ENDMDL
MODEL       29
REMARK 921   NORMALIZED FREE ENERGY PREDICTED BY IDOCK:   -7.10 KCAL/MOL
REMARK 922        TOTAL FREE ENERGY PREDICTED BY IDOCK:  -14.35 KCAL/MOL
REMARK 923 INTER-LIGAND FREE ENERGY PREDICTED BY IDOCK:  -10.56 KCAL/MOL
REMARK 924 INTRA-LIGAND FREE ENERGY PREDICTED BY IDOCK:   -3.79 KCAL/MOL
REMARK 927      BINDING AFFINITY PREDICTED BY RF-SCORE:    0.00 PKD
ROOT
HETATM    1  F   UNL     1      -6.309  17.898  66.840  1.00  0.00    -0.163 F  
HETATM    2  C   UNL     1      -7.137  18.839  66.333  1.00  0.00    -0.233 C  
HETATM    3  C   UNL     1      -8.612  18.409  66.369  1.00  0.00    -0.247 C  
HETATM    4  F   UNL     1      -6.725  19.125  65.079  1.00  0.00    -0.300 F  
HETATM    5  F   UNL     1      -6.963  19.960  67.077  1.00  0.00    -0.216 F  
ENDROOT
BRANCH   3   6
HETATM    6  N   UNL     1      -8.885  17.066  66.883  1.00  0.00    -0.220 N  
HETATM    7  C   UNL     1     -10.084  16.774  67.506  1.00  0.00    -0.276 C  
HETATM    8  H   UNL     1      -8.181  16.336  66.780  1.00  0.00     0.000 HD 
HETATM    9  O   UNL     1     -10.921  17.657  67.699  1.00  0.00    -0.296 OA 
BRANCH   7  10
HETATM   10  C   UNL     1     -10.297  15.300  67.932  1.00  0.00    -0.246 C  
HETATM   11  C   UNL     1      -8.968  14.583  68.210  1.00  0.00    -0.184 A  
HETATM   12  C   UNL     1     -11.573  12.576  64.887  1.00  0.00    -0.386 A  
HETATM   13  C   UNL     1      -8.026  14.865  69.191  1.00  0.00    -0.165 A  
HETATM   14  C   UNL     1      -9.990  13.387  66.487  1.00  0.00    -0.286 A  
HETATM   15  C   UNL     1      -6.937  14.003  69.323  1.00  0.00    -0.084 A  
HETATM   16  C   UNL     1     -12.427  13.654  65.170  1.00  0.00    -0.488 A  
HETATM   17  C   UNL     1      -6.799  12.887  68.479  1.00  0.00    -0.095 A  
HETATM   18  C   UNL     1     -10.342  12.440  65.540  1.00  0.00    -0.298 A  
HETATM   19  C   UNL     1     -10.859  14.463  66.774  1.00  0.00    -0.301 A  
HETATM   20  C   UNL     1      -7.747  12.615  67.487  1.00  0.00    -0.161 A  
HETATM   21  C   UNL     1     -12.072  14.614  66.118  1.00  0.00    -0.213 A  
HETATM   22  C   UNL     1      -8.834  13.463  67.358  1.00  0.00    -0.214 A  
BRANCH  10  23
HETATM   23  C   UNL     1     -11.236  15.225  69.165  1.00  0.00    -0.285 C  
BRANCH  23  24
HETATM   24  C   UNL     1     -12.152  13.989  69.222  1.00  0.00    -0.380 C  
BRANCH  24  25
HETATM   25  C   UNL     1     -11.453  12.837  69.944  1.00  0.00    -0.141 C  
BRANCH  25  26
HETATM   26  C   UNL     1     -12.433  11.838  70.571  1.00  0.00    -0.230 C  
BRANCH  26  27
HETATM   27  N   UNL     1     -12.401  10.490  69.983  1.00  0.00    -0.261 NA 
HETATM   28  C   UNL     1     -10.136   8.988  71.171  1.00  0.00    -0.295 C  
HETATM   29  C   UNL     1     -11.429   9.266  71.944  1.00  0.00    -0.382 C  
HETATM   30  C   UNL     1      -9.933  10.010  70.045  1.00  0.00    -0.273 C  
HETATM   31  C   UNL     1     -11.195  10.195  69.200  1.00  0.00    -0.183 C  
HETATM   32  C   UNL     1     -12.616   9.453  71.002  1.00  0.00    -0.220 C  
BRANCH  28  33
HETATM   33  N   UNL     1     -10.100   7.619  70.664  1.00  0.00    -0.187 N  
HETATM   34  O   UNL     1      -7.828   7.355  70.933  1.00  0.00    -0.093 OA 
HETATM   35  C   UNL     1      -8.910   6.920  70.563  1.00  0.00    -0.155 C  
HETATM   36  H   UNL     1     -10.970   7.170  70.377  1.00  0.00     0.000 HD 
BRANCH  35  37
HETATM   37  C   UNL     1      -9.007   5.595  69.904  1.00  0.00    -0.142 A  
HETATM   38  C   UNL     1      -9.104   5.424  68.504  1.00  0.00    -0.121 A  
HETATM   39  C   UNL     1      -9.366   4.108  68.060  1.00  0.00    -0.213 A  
HETATM   40  C   UNL     1      -9.137   4.499  70.788  1.00  0.00    -0.182 A  
HETATM   41  C   UNL     1      -9.395   3.223  70.309  1.00  0.00    -0.242 A  
HETATM   42  C   UNL     1      -9.525   3.028  68.943  1.00  0.00    -0.176 A  
BRANCH  38  43
HETATM   43  C   UNL     1      -8.959   6.511  67.484  1.00  0.00    -0.110 A  
HETATM   44  C   UNL     1     -10.063   7.126  66.871  1.00  0.00    -0.308 A  
HETATM   45  C   UNL     1      -8.636   8.581  65.531  1.00  0.00    -0.204 A  
HETATM   46  C   UNL     1      -9.909   8.130  65.902  1.00  0.00     0.192 A  
HETATM   47  C   UNL     1      -8.448   9.629  64.462  1.00  0.00    -0.178 C  
HETATM   48  C   UNL     1      -7.526   8.019  66.168  1.00  0.00    -0.075 A  
HETATM   49  C   UNL     1      -7.687   6.999  67.116  1.00  0.00    -0.108 A  
HETATM   50  F   UNL     1      -9.612  10.049  63.892  1.00  0.00    -0.313 F  
HETATM   51  F   UNL     1      -7.668   9.191  63.432  1.00  0.00    -0.108 F  
HETATM   52  F   UNL     1      -7.838  10.753  64.933  1.00  0.00    -0.118 F  
ENDBRANCH  38  43
ENDBRANCH  35  37
ENDBRANCH  28  33
ENDBRANCH  26  27
ENDBRANCH  25  26
ENDBRANCH  24  25
ENDBRANCH  23  24
ENDBRANCH  10  23
ENDBRANCH   7  10
ENDBRANCH   3   6
TORSDOF 10
ENDMDL
MODEL       30
REMARK 921   NORMALIZED FREE ENERGY PREDICTED BY IDOCK:   -7.10 KCAL/MOL
REMARK 922        TOTAL FREE ENERGY PREDICTED BY IDOCK:  -14.34 KCAL/MOL
REMARK 923 INTER-LIGAND FREE ENERGY PREDICTED BY IDOCK:  -11.17 KCAL/MOL
REMARK 924 INTRA-LIGAND FREE ENERGY PREDICTED BY IDOCK:   -3.17 KCAL/MOL
REMARK 927      BINDING AFFINITY PREDICTED BY RF-SCORE:    0.00 PKD
ROOT
HETATM    1  F   UNL     1     -11.891   9.524  71.337  1.00  0.00    -0.350 F  
HETATM    2  C   UNL     1     -12.889   8.638  71.552  1.00  0.00    -0.319 C  
HETATM    3  C   UNL     1     -12.610   7.268  70.914  1.00  0.00    -0.193 C  
HETATM    4  F   UNL     1     -14.037   9.184  71.095  1.00  0.00    -0.410 F  
HETATM    5  F   UNL     1     -13.016   8.506  72.896  1.00  0.00    -0.353 F  
ENDROOT
BRANCH   3   6
HETATM    6  N   UNL     1     -11.369   7.148  70.149  1.00  0.00    -0.405 N  
HETATM    7  C   UNL     1     -10.504   6.090  70.358  1.00  0.00    -0.246 C  
HETATM    8  H   UNL     1     -11.138   7.855  69.451  1.00  0.00     0.000 HD 
HETATM    9  O   UNL     1     -10.731   5.260  71.240  1.00  0.00    -0.210 OA 
BRANCH   7  10
HETATM   10  C   UNL     1      -9.265   6.019  69.431  1.00  0.00    -0.140 C  
HETATM   11  C   UNL     1      -8.960   4.581  68.987  1.00  0.00    -0.151 A  
HETATM   12  C   UNL     1      -5.449   6.676  71.254  1.00  0.00    -0.027 A  
HETATM   13  C   UNL     1      -9.745   3.732  68.217  1.00  0.00    -0.099 A  
HETATM   14  C   UNL     1      -7.060   5.314  70.125  1.00  0.00    -0.061 A  
HETATM   15  C   UNL     1      -9.209   2.499  67.846  1.00  0.00    -0.250 A  
HETATM   16  C   UNL     1      -6.374   7.730  71.324  1.00  0.00    -0.034 A  
HETATM   17  C   UNL     1      -7.915   2.128  68.250  1.00  0.00    -0.064 A  
HETATM   18  C   UNL     1      -5.790   5.456  70.659  1.00  0.00    -0.021 A  
HETATM   19  C   UNL     1      -7.982   6.383  70.190  1.00  0.00    -0.112 A  
HETATM   20  C   UNL     1      -7.133   2.984  69.033  1.00  0.00    -0.048 A  
HETATM   21  C   UNL     1      -7.656   7.589  70.794  1.00  0.00    -0.081 A  
HETATM   22  C   UNL     1      -7.657   4.213  69.396  1.00  0.00    -0.054 A  
BRANCH  10  23
HETATM   23  C   UNL     1      -9.456   6.949  68.204  1.00  0.00    -0.122 C  
BRANCH  23  24
HETATM   24  C   UNL     1      -8.283   6.973  67.207  1.00  0.00    -0.119 C  
BRANCH  24  25
HETATM   25  C   UNL     1      -7.501   8.281  67.332  1.00  0.00    -0.094 C  
BRANCH  25  26
HETATM   26  C   UNL     1      -8.350   9.521  67.025  1.00  0.00    -0.124 C  
BRANCH  26  27
HETATM   27  N   UNL     1      -8.596  10.401  68.178  1.00  0.00    -0.122 NA 
HETATM   28  C   UNL     1     -11.056  11.975  67.666  1.00  0.00    -0.264 C  
HETATM   29  C   UNL     1     -11.097  10.489  68.036  1.00  0.00    -0.361 C  
HETATM   30  C   UNL     1      -9.705  12.355  67.049  1.00  0.00    -0.211 C  
HETATM   31  C   UNL     1      -8.526  11.836  67.876  1.00  0.00    -0.154 C  
HETATM   32  C   UNL     1      -9.867  10.078  68.841  1.00  0.00    -0.184 C  
BRANCH  28  33
HETATM   33  N   UNL     1     -11.377  12.821  68.813  1.00  0.00    -0.268 N  
HETATM   34  O   UNL     1     -12.273  14.536  67.564  1.00  0.00    -0.318 OA 
HETATM   35  C   UNL     1     -11.947  14.071  68.648  1.00  0.00    -0.354 C  
HETATM   36  H   UNL     1     -11.178  12.483  69.754  1.00  0.00     0.000 HD 
BRANCH  35  37
HETATM   37  C   UNL     1     -12.090  14.872  69.888  1.00  0.00    -0.379 A  
HETATM   38  C   UNL     1     -11.302  16.010  70.178  1.00  0.00    -0.369 A  
HETATM   39  C   UNL     1     -11.448  16.545  71.478  1.00  0.00    -0.114 A  
HETATM   40  C   UNL     1     -12.985  14.336  70.842  1.00  0.00    -0.395 A  
HETATM   41  C   UNL     1     -13.096  14.893  72.108  1.00  0.00    -0.431 A  
HETATM   42  C   UNL     1     -12.315  15.991  72.434  1.00  0.00    -0.581 A  
BRANCH  38  43
HETATM   43  C   UNL     1     -10.344  16.667  69.233  1.00  0.00    -0.318 A  
HETATM   44  C   UNL     1     -10.729  17.702  68.365  1.00  0.00    -0.246 A  
HETATM   45  C   UNL     1      -8.482  17.891  67.434  1.00  0.00    -0.236 A  
HETATM   46  C   UNL     1      -9.823  18.294  67.470  1.00  0.00    -0.324 A  
HETATM   47  C   UNL     1      -7.503  18.486  66.452  1.00  0.00    -0.251 C  
HETATM   48  C   UNL     1      -8.068  16.899  68.327  1.00  0.00    -0.217 A  
HETATM   49  C   UNL     1      -8.984  16.295  69.200  1.00  0.00    -0.219 A  
HETATM   50  F   UNL     1      -8.057  19.401  65.610  1.00  0.00    -0.280 F  
HETATM   51  F   UNL     1      -6.930  17.543  65.650  1.00  0.00    -0.298 F  
HETATM   52  F   UNL     1      -6.468  19.124  67.067  1.00  0.00    -0.191 F  
ENDBRANCH  38  43
ENDBRANCH  35  37
ENDBRANCH  28  33
ENDBRANCH  26  27
ENDBRANCH  25  26
ENDBRANCH  24  25
ENDBRANCH  23  24
ENDBRANCH  10  23
ENDBRANCH   7  10
ENDBRANCH   3   6
TORSDOF 10
ENDMDL
MODEL       31
REMARK 921   NORMALIZED FREE ENERGY PREDICTED BY IDOCK:   -7.09 KCAL/MOL
REMARK 922        TOTAL FREE ENERGY PREDICTED BY IDOCK:  -14.34 KCAL/MOL
REMARK 923 INTER-LIGAND FREE ENERGY PREDICTED BY IDOCK:  -12.75 KCAL/MOL
REMARK 924 INTRA-LIGAND FREE ENERGY PREDICTED BY IDOCK:   -1.59 KCAL/MOL
REMARK 927      BINDING AFFINITY PREDICTED BY RF-SCORE:    0.00 PKD
ROOT
HETATM    1  F   UNL     1      -8.728   9.294  67.051  1.00  0.00    -0.120 F  
HETATM    2  C   UNL     1      -9.605   8.427  66.498  1.00  0.00    -0.236 C  
HETATM    3  C   UNL     1     -10.456   7.697  67.549  1.00  0.00    -0.266 C  
HETATM    4  F   UNL     1      -8.909   7.566  65.724  1.00  0.00    -0.165 F  
HETATM    5  F   UNL     1     -10.405   9.149  65.674  1.00  0.00    -0.279 F  
ENDROOT
BRANCH   3   6
HETATM    6  N   UNL     1     -10.161   8.001  68.950  1.00  0.00    -0.206 N  
HETATM    7  C   UNL     1     -10.775   7.303  69.972  1.00  0.00    -0.245 C  
HETATM    8  H   UNL     1      -9.494   8.738  69.174  1.00  0.00     0.000 HD 
HETATM    9  O   UNL     1     -11.632   6.453  69.725  1.00  0.00    -0.431 OA 
BRANCH   7  10
HETATM   10  C   UNL     1     -10.322   7.652  71.413  1.00  0.00    -0.219 C  
HETATM   11  C   UNL     1      -8.825   7.987  71.480  1.00  0.00    -0.178 A  
HETATM   12  C   UNL     1     -10.118   4.418  74.208  1.00  0.00    -0.238 A  
HETATM   13  C   UNL     1      -8.150   9.039  70.875  1.00  0.00    -0.203 A  
HETATM   14  C   UNL     1      -9.132   6.151  72.887  1.00  0.00    -0.131 A  
HETATM   15  C   UNL     1      -6.796   9.206  71.169  1.00  0.00    -0.088 A  
HETATM   16  C   UNL     1     -11.375   4.689  73.645  1.00  0.00    -0.269 A  
HETATM   17  C   UNL     1      -6.139   8.327  72.047  1.00  0.00    -0.052 A  
HETATM   18  C   UNL     1      -8.985   5.144  73.826  1.00  0.00    -0.117 A  
HETATM   19  C   UNL     1     -10.402   6.426  72.332  1.00  0.00    -0.210 A  
HETATM   20  C   UNL     1      -6.823   7.264  72.645  1.00  0.00    -0.067 A  
HETATM   21  C   UNL     1     -11.527   5.697  72.694  1.00  0.00    -0.339 A  
HETATM   22  C   UNL     1      -8.169   7.099  72.363  1.00  0.00    -0.113 A  
BRANCH  10  23
HETATM   23  C   UNL     1     -11.176   8.816  71.980  1.00  0.00    -0.443 C  
BRANCH  23  24
HETATM   24  C   UNL     1     -12.226   9.395  71.015  1.00  0.00    -0.354 C  
BRANCH  24  25
HETATM   25  C   UNL     1     -11.709  10.682  70.371  1.00  0.00    -0.446 C  
BRANCH  25  26
HETATM   26  C   UNL     1     -12.344  11.947  70.963  1.00  0.00    -0.259 C  
BRANCH  26  27
HETATM   27  N   UNL     1     -12.613  13.016  69.988  1.00  0.00    -0.006 NA 
HETATM   28  C   UNL     1     -10.551  15.125  70.296  1.00  0.00    -0.166 C  
HETATM   29  C   UNL     1     -10.252  13.778  69.630  1.00  0.00     0.593 C  
HETATM   30  C   UNL     1     -11.755  15.020  71.241  1.00  0.00    -0.397 C  
HETATM   31  C   UNL     1     -12.944  14.315  70.585  1.00  0.00    -0.257 C  
HETATM   32  C   UNL     1     -11.510  13.158  69.028  1.00  0.00    -0.296 C  
BRANCH  28  33
HETATM   33  N   UNL     1     -10.740  16.181  69.305  1.00  0.00    -0.271 N  
HETATM   34  O   UNL     1      -8.494  16.609  69.026  1.00  0.00    -0.233 OA 
HETATM   35  C   UNL     1      -9.663  16.863  68.767  1.00  0.00    -0.265 C  
HETATM   36  H   UNL     1     -11.684  16.420  69.004  1.00  0.00     0.000 HD 
BRANCH  35  37
HETATM   37  C   UNL     1     -10.011  17.999  67.880  1.00  0.00    -0.335 A  
HETATM   38  C   UNL     1     -10.359  17.849  66.518  1.00  0.00    -0.362 A  
HETATM   39  C   UNL     1     -10.487  19.047  65.779  1.00  0.00    -0.375 A  
HETATM   40  C   UNL     1      -9.835  19.279  68.456  1.00  0.00    -0.498 A  
HETATM   41  C   UNL     1      -9.970  20.430  67.692  1.00  0.00    -0.514 A  
HETATM   42  C   UNL     1     -10.281  20.314  66.346  1.00  0.00    -0.463 A  
BRANCH  38  43
HETATM   43  C   UNL     1     -10.590  16.545  65.820  1.00  0.00    -0.307 A  
HETATM   44  C   UNL     1     -11.647  16.348  64.916  1.00  0.00     0.187 A  
HETATM   45  C   UNL     1     -11.002  14.030  64.512  1.00  0.00    -0.361 A  
HETATM   46  C   UNL     1     -11.862  15.111  64.285  1.00  0.00    -0.263 A  
HETATM   47  C   UNL     1     -11.239  12.682  63.876  1.00  0.00    -0.442 C  
HETATM   48  C   UNL     1      -9.913  14.222  65.367  1.00  0.00    -0.334 A  
HETATM   49  C   UNL     1      -9.720  15.451  66.014  1.00  0.00    -0.370 A  
HETATM   50  F   UNL     1     -12.364  12.627  63.110  1.00  0.00    -0.570 F  
HETATM   51  F   UNL     1     -11.368  11.686  64.798  1.00  0.00    -0.369 F  
HETATM   52  F   UNL     1     -10.215  12.301  63.062  1.00  0.00    -0.401 F  
ENDBRANCH  38  43
ENDBRANCH  35  37
ENDBRANCH  28  33
ENDBRANCH  26  27
ENDBRANCH  25  26
ENDBRANCH  24  25
ENDBRANCH  23  24
ENDBRANCH  10  23
ENDBRANCH   7  10
ENDBRANCH   3   6
TORSDOF 10
ENDMDL
MODEL       32
REMARK 921   NORMALIZED FREE ENERGY PREDICTED BY IDOCK:   -7.06 KCAL/MOL
REMARK 922        TOTAL FREE ENERGY PREDICTED BY IDOCK:  -14.28 KCAL/MOL
REMARK 923 INTER-LIGAND FREE ENERGY PREDICTED BY IDOCK:  -11.36 KCAL/MOL
REMARK 924 INTRA-LIGAND FREE ENERGY PREDICTED BY IDOCK:   -2.92 KCAL/MOL
REMARK 927      BINDING AFFINITY PREDICTED BY RF-SCORE:    0.00 PKD
ROOT
HETATM    1  F   UNL     1     -10.982  11.383  69.549  1.00  0.00    -0.263 F  
HETATM    2  C   UNL     1     -12.093  11.314  70.315  1.00  0.00    -0.373 C  
HETATM    3  C   UNL     1     -12.043  10.156  71.324  1.00  0.00    -0.394 C  
HETATM    4  F   UNL     1     -13.161  11.222  69.493  1.00  0.00     0.048 F  
HETATM    5  F   UNL     1     -12.195  12.497  70.971  1.00  0.00    -0.443 F  
ENDROOT
BRANCH   3   6
HETATM    6  N   UNL     1     -10.860   9.298  71.271  1.00  0.00    -0.320 N  
HETATM    7  C   UNL     1     -10.973   7.947  71.002  1.00  0.00    -0.244 C  
HETATM    8  H   UNL     1      -9.938   9.702  71.436  1.00  0.00     0.000 HD 
HETATM    9  O   UNL     1     -12.081   7.426  70.864  1.00  0.00    -0.307 OA 
BRANCH   7  10
HETATM   10  C   UNL     1      -9.647   7.154  70.885  1.00  0.00    -0.167 C  
HETATM   11  C   UNL     1      -9.687   6.130  69.741  1.00  0.00    -0.187 A  
HETATM   12  C   UNL     1      -8.843   4.276  73.949  1.00  0.00    -0.096 A  
HETATM   13  C   UNL     1      -9.815   6.366  68.379  1.00  0.00    -0.141 A  
HETATM   14  C   UNL     1      -9.311   4.899  71.687  1.00  0.00    -0.192 A  
HETATM   15  C   UNL     1      -9.716   5.277  67.512  1.00  0.00    -0.167 A  
HETATM   16  C   UNL     1      -8.977   5.613  74.356  1.00  0.00    -0.122 A  
HETATM   17  C   UNL     1      -9.500   3.981  68.010  1.00  0.00    -0.220 A  
HETATM   18  C   UNL     1      -9.017   3.909  72.609  1.00  0.00    -0.121 A  
HETATM   19  C   UNL     1      -9.435   6.244  72.102  1.00  0.00    -0.155 A  
HETATM   20  C   UNL     1      -9.381   3.750  69.385  1.00  0.00    -0.245 A  
HETATM   21  C   UNL     1      -9.281   6.612  73.432  1.00  0.00    -0.148 A  
HETATM   22  C   UNL     1      -9.470   4.828  70.248  1.00  0.00    -0.243 A  
BRANCH  10  23
HETATM   23  C   UNL     1      -8.450   8.127  70.717  1.00  0.00    -0.126 C  
BRANCH  23  24
HETATM   24  C   UNL     1      -7.362   7.668  69.729  1.00  0.00    -0.081 C  
BRANCH  24  25
HETATM   25  C   UNL     1      -7.104   8.747  68.677  1.00  0.00    -0.072 C  
BRANCH  25  26
HETATM   26  C   UNL     1      -6.202   9.878  69.186  1.00  0.00    -0.044 C  
BRANCH  26  27
HETATM   27  N   UNL     1      -6.916  11.091  69.615  1.00  0.00    -0.129 NA 
HETATM   28  C   UNL     1      -6.176  13.321  67.805  1.00  0.00    -0.158 C  
HETATM   29  C   UNL     1      -7.124  12.196  67.374  1.00  0.00    -0.146 C  
HETATM   30  C   UNL     1      -5.265  12.868  68.952  1.00  0.00    -0.067 C  
HETATM   31  C   UNL     1      -6.047  12.181  70.074  1.00  0.00    -0.138 C  
HETATM   32  C   UNL     1      -7.834  11.572  68.572  1.00  0.00    -0.140 C  
BRANCH  28  33
HETATM   33  N   UNL     1      -6.910  14.534  68.152  1.00  0.00    -0.111 N  
HETATM   34  O   UNL     1      -5.615  15.938  66.865  1.00  0.00    -0.290 OA 
HETATM   35  C   UNL     1      -6.533  15.770  67.657  1.00  0.00    -0.164 C  
HETATM   36  H   UNL     1      -7.717  14.469  68.773  1.00  0.00     0.000 HD 
BRANCH  35  37
HETATM   37  C   UNL     1      -7.282  16.928  68.203  1.00  0.00    -0.171 A  
HETATM   38  C   UNL     1      -8.651  17.166  67.942  1.00  0.00    -0.214 A  
HETATM   39  C   UNL     1      -9.158  18.406  68.394  1.00  0.00    -0.340 A  
HETATM   40  C   UNL     1      -6.493  17.872  68.899  1.00  0.00    -0.228 A  
HETATM   41  C   UNL     1      -7.031  19.078  69.324  1.00  0.00    -0.302 A  
HETATM   42  C   UNL     1      -8.363  19.353  69.058  1.00  0.00    -0.258 A  
BRANCH  38  43
HETATM   43  C   UNL     1      -9.577  16.225  67.236  1.00  0.00    -0.231 A  
HETATM   44  C   UNL     1      -9.528  16.015  65.848  1.00  0.00    -0.351 A  
HETATM   45  C   UNL     1     -11.374  14.422  65.922  1.00  0.00    -0.332 A  
HETATM   46  C   UNL     1     -10.417  15.144  65.198  1.00  0.00    -0.437 A  
HETATM   47  C   UNL     1     -12.365  13.513  65.238  1.00  0.00    -0.467 C  
HETATM   48  C   UNL     1     -11.404  14.577  67.311  1.00  0.00    -0.363 A  
HETATM   49  C   UNL     1     -10.530  15.468  67.950  1.00  0.00    -0.266 A  
HETATM   50  F   UNL     1     -12.252  13.500  63.881  1.00  0.00    -0.451 F  
HETATM   51  F   UNL     1     -13.658  13.860  65.500  1.00  0.00    -0.323 F  
HETATM   52  F   UNL     1     -12.244  12.215  65.634  1.00  0.00    -0.460 F  
ENDBRANCH  38  43
ENDBRANCH  35  37
ENDBRANCH  28  33
ENDBRANCH  26  27
ENDBRANCH  25  26
ENDBRANCH  24  25
ENDBRANCH  23  24
ENDBRANCH  10  23
ENDBRANCH   7  10
ENDBRANCH   3   6
TORSDOF 10
ENDMDL
MODEL       33
REMARK 921   NORMALIZED FREE ENERGY PREDICTED BY IDOCK:   -7.06 KCAL/MOL
REMARK 922        TOTAL FREE ENERGY PREDICTED BY IDOCK:  -14.28 KCAL/MOL
REMARK 923 INTER-LIGAND FREE ENERGY PREDICTED BY IDOCK:  -11.46 KCAL/MOL
REMARK 924 INTRA-LIGAND FREE ENERGY PREDICTED BY IDOCK:   -2.82 KCAL/MOL
REMARK 927      BINDING AFFINITY PREDICTED BY RF-SCORE:    0.00 PKD
ROOT
HETATM    1  F   UNL     1      -7.302  11.925  68.904  1.00  0.00    -0.101 F  
HETATM    2  C   UNL     1      -6.239  11.664  69.697  1.00  0.00    -0.127 C  
HETATM    3  C   UNL     1      -6.253  10.230  70.249  1.00  0.00    -0.113 C  
HETATM    4  F   UNL     1      -6.218  12.586  70.683  1.00  0.00    -0.143 F  
HETATM    5  F   UNL     1      -5.128  11.859  68.944  1.00  0.00    -0.051 F  
ENDROOT
BRANCH   3   6
HETATM    6  N   UNL     1      -7.406   9.405  69.888  1.00  0.00    -0.076 N  
HETATM    7  C   UNL     1      -8.285   8.950  70.852  1.00  0.00    -0.175 C  
HETATM    8  H   UNL     1      -7.564   9.162  68.910  1.00  0.00     0.000 HD 
HETATM    9  O   UNL     1      -8.079   9.177  72.045  1.00  0.00    -0.321 OA 
BRANCH   7  10
HETATM   10  C   UNL     1      -9.516   8.158  70.344  1.00  0.00    -0.163 C  
HETATM   11  C   UNL     1     -10.821   8.647  70.990  1.00  0.00    -0.302 A  
HETATM   12  C   UNL     1      -9.906   4.117  71.698  1.00  0.00    -0.254 A  
HETATM   13  C   UNL     1     -11.420   9.896  70.885  1.00  0.00    -0.456 A  
HETATM   14  C   UNL     1     -10.626   6.395  71.570  1.00  0.00    -0.273 A  
HETATM   15  C   UNL     1     -12.670  10.077  71.477  1.00  0.00    -0.532 A  
HETATM   16  C   UNL     1      -8.756   4.428  70.956  1.00  0.00    -0.136 A  
HETATM   17  C   UNL     1     -13.297   9.024  72.165  1.00  0.00    -0.510 A  
HETATM   18  C   UNL     1     -10.847   5.104  72.016  1.00  0.00    -0.194 A  
HETATM   19  C   UNL     1      -9.471   6.699  70.815  1.00  0.00    -0.173 A  
HETATM   20  C   UNL     1     -12.684   7.771  72.275  1.00  0.00    -0.144 A  
HETATM   21  C   UNL     1      -8.525   5.729  70.511  1.00  0.00    -0.127 A  
HETATM   22  C   UNL     1     -11.447   7.584  71.682  1.00  0.00    -0.292 A  
BRANCH  10  23
HETATM   23  C   UNL     1      -9.604   8.231  68.797  1.00  0.00    -0.150 C  
BRANCH  23  24
HETATM   24  C   UNL     1     -10.739   9.109  68.241  1.00  0.00    -0.173 C  
BRANCH  24  25
HETATM   25  C   UNL     1     -10.172  10.224  67.361  1.00  0.00    -0.265 C  
BRANCH  25  26
HETATM   26  C   UNL     1     -11.258  11.038  66.649  1.00  0.00    -0.050 C  
BRANCH  26  27
HETATM   27  N   UNL     1     -11.384  12.431  67.106  1.00  0.00    -0.308 NA 
HETATM   28  C   UNL     1      -9.567  14.130  65.492  1.00  0.00    -0.018 C  
HETATM   29  C   UNL     1     -10.878  13.570  64.931  1.00  0.00    -0.371 C  
HETATM   30  C   UNL     1      -9.060  13.282  66.665  1.00  0.00    -0.181 C  
HETATM   31  C   UNL     1     -10.161  12.995  67.688  1.00  0.00    -0.217 C  
HETATM   32  C   UNL     1     -11.894  13.304  66.039  1.00  0.00    -0.395 C  
BRANCH  28  33
HETATM   33  N   UNL     1      -9.702  15.535  65.867  1.00  0.00    -0.337 N  
HETATM   34  O   UNL     1      -7.569  15.733  66.711  1.00  0.00    -0.218 OA 
HETATM   35  C   UNL     1      -8.670  16.218  66.485  1.00  0.00    -0.292 C  
HETATM   36  H   UNL     1     -10.576  16.022  65.669  1.00  0.00     0.000 HD 
BRANCH  35  37
HETATM   37  C   UNL     1      -8.997  17.593  66.932  1.00  0.00    -0.258 A  
HETATM   38  C   UNL     1      -9.962  17.884  67.923  1.00  0.00    -0.329 A  
HETATM   39  C   UNL     1     -10.273  19.252  68.098  1.00  0.00    -0.515 A  
HETATM   40  C   UNL     1      -8.370  18.623  66.194  1.00  0.00    -0.174 A  
HETATM   41  C   UNL     1      -8.705  19.954  66.398  1.00  0.00    -0.397 A  
HETATM   42  C   UNL     1      -9.670  20.269  67.342  1.00  0.00    -0.584 A  
BRANCH  38  43
HETATM   43  C   UNL     1     -10.666  16.872  68.774  1.00  0.00    -0.333 A  
HETATM   44  C   UNL     1     -10.191  16.486  70.037  1.00  0.00     0.148 A  
HETATM   45  C   UNL     1     -12.037  14.925  70.364  1.00  0.00    -0.386 A  
HETATM   46  C   UNL     1     -10.852  15.520  70.814  1.00  0.00    -0.298 A  
HETATM   47  C   UNL     1     -12.740  13.856  71.165  1.00  0.00    -0.367 C  
HETATM   48  C   UNL     1     -12.555  15.336  69.133  1.00  0.00     0.176 A  
HETATM   49  C   UNL     1     -11.875  16.282  68.352  1.00  0.00     0.111 A  
HETATM   50  F   UNL     1     -12.097  13.520  72.317  1.00  0.00     0.031 F  
HETATM   51  F   UNL     1     -12.885  12.693  70.468  1.00  0.00    -0.232 F  
HETATM   52  F   UNL     1     -13.999  14.223  71.535  1.00  0.00    -0.415 F  
ENDBRANCH  38  43
ENDBRANCH  35  37
ENDBRANCH  28  33
ENDBRANCH  26  27
ENDBRANCH  25  26
ENDBRANCH  24  25
ENDBRANCH  23  24
ENDBRANCH  10  23
ENDBRANCH   7  10
ENDBRANCH   3   6
TORSDOF 10
ENDMDL
MODEL       34
REMARK 921   NORMALIZED FREE ENERGY PREDICTED BY IDOCK:   -7.05 KCAL/MOL
REMARK 922        TOTAL FREE ENERGY PREDICTED BY IDOCK:  -14.28 KCAL/MOL
REMARK 923 INTER-LIGAND FREE ENERGY PREDICTED BY IDOCK:  -12.34 KCAL/MOL
REMARK 924 INTRA-LIGAND FREE ENERGY PREDICTED BY IDOCK:   -1.93 KCAL/MOL
REMARK 927      BINDING AFFINITY PREDICTED BY RF-SCORE:    0.00 PKD
ROOT
HETATM    1  F   UNL     1     -11.458   9.119  72.338  1.00  0.00    -0.392 F  
HETATM    2  C   UNL     1     -12.629   8.903  71.700  1.00  0.00    -0.346 C  
HETATM    3  C   UNL     1     -12.608   7.627  70.844  1.00  0.00    -0.054 C  
HETATM    4  F   UNL     1     -12.913  10.000  70.965  1.00  0.00    -0.379 F  
HETATM    5  F   UNL     1     -13.587   8.803  72.656  1.00  0.00    -0.404 F  
ENDROOT
BRANCH   3   6
HETATM    6  N   UNL     1     -11.346   6.888  70.808  1.00  0.00    -0.291 N  
HETATM    7  C   UNL     1     -11.090   5.872  71.709  1.00  0.00    -0.265 C  
HETATM    8  H   UNL     1     -10.644   7.127  70.108  1.00  0.00     0.000 HD 
HETATM    9  O   UNL     1     -11.896   5.610  72.603  1.00  0.00    -0.283 OA 
BRANCH   7  10
HETATM   10  C   UNL     1      -9.758   5.104  71.521  1.00  0.00    -0.221 C  
HETATM   11  C   UNL     1      -9.690   4.394  70.161  1.00  0.00    -0.288 A  
HETATM   12  C   UNL     1      -9.240   1.543  73.838  1.00  0.00    -0.064 A  
HETATM   13  C   UNL     1      -9.691   4.961  68.893  1.00  0.00    -0.242 A  
HETATM   14  C   UNL     1      -9.496   2.713  71.768  1.00  0.00    -0.205 A  
HETATM   15  C   UNL     1      -9.510   4.117  67.797  1.00  0.00    -0.225 A  
HETATM   16  C   UNL     1      -9.414   2.741  74.549  1.00  0.00    -0.117 A  
HETATM   17  C   UNL     1      -9.340   2.734  67.976  1.00  0.00    -0.257 A  
HETATM   18  C   UNL     1      -9.288   1.521  72.439  1.00  0.00    -0.120 A  
HETATM   19  C   UNL     1      -9.660   3.917  72.489  1.00  0.00    -0.188 A  
HETATM   20  C   UNL     1      -9.349   2.169  69.256  1.00  0.00    -0.176 A  
HETATM   21  C   UNL     1      -9.632   3.943  73.877  1.00  0.00    -0.128 A  
HETATM   22  C   UNL     1      -9.520   3.003  70.348  1.00  0.00    -0.218 A  
BRANCH  10  23
HETATM   23  C   UNL     1      -8.552   6.061  71.708  1.00  0.00    -0.134 C  
BRANCH  23  24
HETATM   24  C   UNL     1      -8.830   7.314  72.558  1.00  0.00    -0.146 C  
BRANCH  24  25
HETATM   25  C   UNL     1      -8.388   8.575  71.815  1.00  0.00    -0.221 C  
BRANCH  25  26
HETATM   26  C   UNL     1      -8.038   8.314  70.344  1.00  0.00    -0.108 C  
BRANCH  26  27
HETATM   27  N   UNL     1      -9.081   8.706  69.383  1.00  0.00    -0.148 NA 
HETATM   28  C   UNL     1      -8.020  10.875  67.662  1.00  0.00    -0.114 C  
HETATM   29  C   UNL     1      -7.585   9.415  67.501  1.00  0.00    -0.091 C  
HETATM   30  C   UNL     1      -8.545  11.143  69.078  1.00  0.00    -0.033 C  
HETATM   31  C   UNL     1      -9.556  10.087  69.529  1.00  0.00    -0.230 C  
HETATM   32  C   UNL     1      -8.660   8.452  67.999  1.00  0.00    -0.135 C  
BRANCH  28  33
HETATM   33  N   UNL     1      -8.999  11.257  66.648  1.00  0.00    -0.170 N  
HETATM   34  O   UNL     1      -8.553  13.513  66.764  1.00  0.00    -0.151 OA 
HETATM   35  C   UNL     1      -9.200  12.582  66.304  1.00  0.00    -0.132 C  
HETATM   36  H   UNL     1      -9.547  10.531  66.185  1.00  0.00     0.000 HD 
BRANCH  35  37
HETATM   37  C   UNL     1     -10.319  12.831  65.363  1.00  0.00    -0.310 A  
HETATM   38  C   UNL     1     -11.070  14.029  65.341  1.00  0.00    -0.318 A  
HETATM   39  C   UNL     1     -12.210  14.026  64.505  1.00  0.00    -0.463 A  
HETATM   40  C   UNL     1     -10.686  11.720  64.568  1.00  0.00    -0.369 A  
HETATM   41  C   UNL     1     -11.814  11.761  63.761  1.00  0.00    -0.484 A  
HETATM   42  C   UNL     1     -12.587  12.911  63.740  1.00  0.00    -0.334 A  
BRANCH  38  43
HETATM   43  C   UNL     1     -10.755  15.265  66.125  1.00  0.00    -0.322 A  
HETATM   44  C   UNL     1     -10.930  15.344  67.516  1.00  0.00    -0.315 A  
HETATM   45  C   UNL     1     -10.149  17.654  67.583  1.00  0.00    -0.339 A  
HETATM   46  C   UNL     1     -10.649  16.519  68.233  1.00  0.00    -0.326 A  
HETATM   47  C   UNL     1      -9.880  18.938  68.329  1.00  0.00    -0.374 C  
HETATM   48  C   UNL     1      -9.918  17.578  66.207  1.00  0.00    -0.316 A  
HETATM   49  C   UNL     1     -10.225  16.411  65.494  1.00  0.00    -0.296 A  
HETATM   50  F   UNL     1     -10.200  18.883  69.652  1.00  0.00    -0.266 F  
HETATM   51  F   UNL     1     -10.580  19.993  67.821  1.00  0.00    -0.514 F  
HETATM   52  F   UNL     1      -8.569  19.308  68.278  1.00  0.00    -0.322 F  
ENDBRANCH  38  43
ENDBRANCH  35  37
ENDBRANCH  28  33
ENDBRANCH  26  27
ENDBRANCH  25  26
ENDBRANCH  24  25
ENDBRANCH  23  24
ENDBRANCH  10  23
ENDBRANCH   7  10
ENDBRANCH   3   6
TORSDOF 10
ENDMDL
MODEL       35
REMARK 921   NORMALIZED FREE ENERGY PREDICTED BY IDOCK:   -6.95 KCAL/MOL
REMARK 922        TOTAL FREE ENERGY PREDICTED BY IDOCK:  -14.11 KCAL/MOL
REMARK 923 INTER-LIGAND FREE ENERGY PREDICTED BY IDOCK:  -10.13 KCAL/MOL
REMARK 924 INTRA-LIGAND FREE ENERGY PREDICTED BY IDOCK:   -3.99 KCAL/MOL
REMARK 927      BINDING AFFINITY PREDICTED BY RF-SCORE:    0.00 PKD
ROOT
HETATM    1  F   UNL     1     -10.129   8.538  70.279  1.00  0.00    -0.178 F  
HETATM    2  C   UNL     1     -11.161   9.096  70.949  1.00  0.00    -0.295 C  
HETATM    3  C   UNL     1     -11.451  10.535  70.493  1.00  0.00    -0.345 C  
HETATM    4  F   UNL     1     -10.887   9.030  72.269  1.00  0.00    -0.408 F  
HETATM    5  F   UNL     1     -12.247   8.313  70.726  1.00  0.00    -0.270 F  
ENDROOT
BRANCH   3   6
HETATM    6  N   UNL     1     -10.560  11.086  69.471  1.00  0.00    -0.409 N  
HETATM    7  C   UNL     1     -10.957  12.147  68.680  1.00  0.00    -0.245 C  
HETATM    8  H   UNL     1      -9.634  10.680  69.341  1.00  0.00     0.000 HD 
HETATM    9  O   UNL     1     -12.094  12.610  68.775  1.00  0.00    -0.269 OA 
BRANCH   7  10
HETATM   10  C   UNL     1      -9.900  12.702  67.692  1.00  0.00    -0.210 C  
HETATM   11  C   UNL     1     -10.072  14.209  67.452  1.00  0.00    -0.240 A  
HETATM   12  C   UNL     1     -10.338  11.605  63.579  1.00  0.00    -0.488 A  
HETATM   13  C   UNL     1      -9.949  15.246  68.367  1.00  0.00    -0.220 A  
HETATM   14  C   UNL     1     -10.313  13.198  65.363  1.00  0.00    -0.313 A  
HETATM   15  C   UNL     1     -10.043  16.555  67.892  1.00  0.00    -0.256 A  
HETATM   16  C   UNL     1     -10.148  10.559  64.496  1.00  0.00    -0.402 A  
HETATM   17  C   UNL     1     -10.264  16.809  66.528  1.00  0.00    -0.319 A  
HETATM   18  C   UNL     1     -10.429  12.934  64.009  1.00  0.00    -0.395 A  
HETATM   19  C   UNL     1     -10.112  12.142  66.279  1.00  0.00    -0.247 A  
HETATM   20  C   UNL     1     -10.396  15.759  65.613  1.00  0.00    -0.411 A  
HETATM   21  C   UNL     1     -10.038  10.820  65.861  1.00  0.00    -0.314 A  
HETATM   22  C   UNL     1     -10.294  14.459  66.078  1.00  0.00    -0.319 A  
BRANCH  10  23
HETATM   23  C   UNL     1      -8.468  12.381  68.197  1.00  0.00    -0.180 C  
BRANCH  23  24
HETATM   24  C   UNL     1      -7.336  13.167  67.512  1.00  0.00    -0.153 C  
BRANCH  24  25
HETATM   25  C   UNL     1      -6.174  12.237  67.163  1.00  0.00    -0.118 C  
BRANCH  25  26
HETATM   26  C   UNL     1      -6.619  10.976  66.411  1.00  0.00    -0.126 C  
BRANCH  26  27
HETATM   27  N   UNL     1      -5.926   9.742  66.814  1.00  0.00    -0.055 NA 
HETATM   28  C   UNL     1      -7.879   7.510  66.803  1.00  0.00    -0.110 C  
HETATM   29  C   UNL     1      -7.316   8.111  65.511  1.00  0.00    -0.072 C  
HETATM   30  C   UNL     1      -7.793   8.510  67.963  1.00  0.00    -0.103 C  
HETATM   31  C   UNL     1      -6.409   9.154  68.069  1.00  0.00    -0.055 C  
HETATM   32  C   UNL     1      -5.943   8.741  65.738  1.00  0.00    -0.051 C  
BRANCH  28  33
HETATM   33  N   UNL     1      -7.224   6.248  67.136  1.00  0.00    -0.073 N  
HETATM   34  O   UNL     1      -9.096   4.947  66.808  1.00  0.00    -0.116 OA 
HETATM   35  C   UNL     1      -7.921   5.053  67.134  1.00  0.00    -0.100 C  
HETATM   36  H   UNL     1      -6.232   6.248  67.375  1.00  0.00     0.000 HD 
BRANCH  35  37
HETATM   37  C   UNL     1      -7.164   3.876  67.625  1.00  0.00    -0.066 A  
HETATM   38  C   UNL     1      -7.252   3.386  68.949  1.00  0.00    -0.049 A  
HETATM   39  C   UNL     1      -6.332   2.371  69.293  1.00  0.00    -0.029 A  
HETATM   40  C   UNL     1      -6.226   3.348  66.708  1.00  0.00    -0.028 A  
HETATM   41  C   UNL     1      -5.340   2.350  67.089  1.00  0.00    -0.016 A  
HETATM   42  C   UNL     1      -5.381   1.870  68.389  1.00  0.00    -0.013 A  
BRANCH  38  43
HETATM   43  C   UNL     1      -8.222   3.860  69.987  1.00  0.00    -0.071 A  
HETATM   44  C   UNL     1      -9.154   3.004  70.597  1.00  0.00    -0.192 A  
HETATM   45  C   UNL     1     -10.067   4.809  71.961  1.00  0.00    -0.258 A  
HETATM   46  C   UNL     1     -10.070   3.469  71.555  1.00  0.00    -0.081 A  
HETATM   47  C   UNL     1     -11.070   5.336  72.957  1.00  0.00    -0.317 C  
HETATM   48  C   UNL     1      -9.113   5.664  71.404  1.00  0.00    -0.152 A  
HETATM   49  C   UNL     1      -8.218   5.199  70.430  1.00  0.00    -0.098 A  
HETATM   50  F   UNL     1     -11.971   4.404  73.377  1.00  0.00    -0.355 F  
HETATM   51  F   UNL     1     -11.809   6.368  72.458  1.00  0.00    -0.305 F  
HETATM   52  F   UNL     1     -10.481   5.819  74.088  1.00  0.00    -0.233 F  
ENDBRANCH  38  43
ENDBRANCH  35  37
ENDBRANCH  28  33
ENDBRANCH  26  27
ENDBRANCH  25  26
ENDBRANCH  24  25
ENDBRANCH  23  24
ENDBRANCH  10  23
ENDBRANCH   7  10
ENDBRANCH   3   6
TORSDOF 10
ENDMDL
MODEL       36
REMARK 921   NORMALIZED FREE ENERGY PREDICTED BY IDOCK:   -6.82 KCAL/MOL
REMARK 922        TOTAL FREE ENERGY PREDICTED BY IDOCK:  -13.91 KCAL/MOL
REMARK 923 INTER-LIGAND FREE ENERGY PREDICTED BY IDOCK:  -10.72 KCAL/MOL
REMARK 924 INTRA-LIGAND FREE ENERGY PREDICTED BY IDOCK:   -3.19 KCAL/MOL
REMARK 927      BINDING AFFINITY PREDICTED BY RF-SCORE:    0.00 PKD
ROOT
HETATM    1  F   UNL     1     -11.048   9.226  70.783  1.00  0.00    -0.258 F  
HETATM    2  C   UNL     1     -11.973   8.302  71.126  1.00  0.00    -0.265 C  
HETATM    3  C   UNL     1     -11.852   7.012  70.301  1.00  0.00    -0.194 C  
HETATM    4  F   UNL     1     -13.193   8.868  71.004  1.00  0.00    -0.270 F  
HETATM    5  F   UNL     1     -11.789   8.029  72.442  1.00  0.00    -0.334 F  
ENDROOT
BRANCH   3   6
HETATM    6  N   UNL     1     -10.819   6.997  69.264  1.00  0.00    -0.321 N  
HETATM    7  C   UNL     1     -10.207   5.816  68.887  1.00  0.00    -0.204 C  
HETATM    8  H   UNL     1     -10.547   7.870  68.813  1.00  0.00     0.000 HD 
HETATM    9  O   UNL     1     -10.474   4.761  69.463  1.00  0.00    -0.128 OA 
BRANCH   7  10
HETATM   10  C   UNL     1      -9.192   5.909  67.720  1.00  0.00    -0.108 C  
HETATM   11  C   UNL     1      -9.501   4.897  66.607  1.00  0.00    -0.153 A  
HETATM   12  C   UNL     1      -5.241   4.449  68.479  1.00  0.00    -0.007 A  
HETATM   13  C   UNL     1     -10.625   4.829  65.794  1.00  0.00    -0.262 A  
HETATM   14  C   UNL     1      -7.356   4.378  67.363  1.00  0.00    -0.069 A  
HETATM   15  C   UNL     1     -10.637   3.881  64.770  1.00  0.00    -0.133 A  
HETATM   16  C   UNL     1      -5.686   5.514  69.278  1.00  0.00    -0.012 A  
HETATM   17  C   UNL     1      -9.544   3.020  64.576  1.00  0.00    -0.150 A  
HETATM   18  C   UNL     1      -6.078   3.869  67.519  1.00  0.00    -0.028 A  
HETATM   19  C   UNL     1      -7.794   5.457  68.163  1.00  0.00    -0.092 A  
HETATM   20  C   UNL     1      -8.419   3.089  65.405  1.00  0.00    -0.100 A  
HETATM   21  C   UNL     1      -6.975   6.026  69.129  1.00  0.00    -0.064 A  
HETATM   22  C   UNL     1      -8.399   4.033  66.417  1.00  0.00    -0.105 A  
BRANCH  10  23
HETATM   23  C   UNL     1      -9.146   7.354  67.159  1.00  0.00    -0.146 C  
BRANCH  23  24
HETATM   24  C   UNL     1      -8.027   7.630  66.138  1.00  0.00    -0.110 C  
BRANCH  24  25
HETATM   25  C   UNL     1      -7.192   8.835  66.571  1.00  0.00    -0.081 C  
BRANCH  25  26
HETATM   26  C   UNL     1      -7.883  10.176  66.295  1.00  0.00    -0.113 C  
BRANCH  26  27
HETATM   27  N   UNL     1      -8.151  10.990  67.491  1.00  0.00    -0.115 NA 
HETATM   28  C   UNL     1     -10.871  12.149  67.263  1.00  0.00    -0.244 C  
HETATM   29  C   UNL     1     -10.636  10.671  67.593  1.00  0.00    -0.288 C  
HETATM   30  C   UNL     1      -9.666  12.751  66.531  1.00  0.00    -0.255 C  
HETATM   31  C   UNL     1      -8.343  12.420  67.225  1.00  0.00    -0.184 C  
HETATM   32  C   UNL     1      -9.281  10.455  68.264  1.00  0.00    -0.149 C  
BRANCH  28  33
HETATM   33  N   UNL     1     -11.208  12.916  68.459  1.00  0.00    -0.256 N  
HETATM   34  O   UNL     1     -12.336  14.577  67.331  1.00  0.00    -0.260 OA 
HETATM   35  C   UNL     1     -11.906  14.108  68.377  1.00  0.00    -0.353 C  
HETATM   36  H   UNL     1     -10.923  12.566  69.374  1.00  0.00     0.000 HD 
BRANCH  35  37
HETATM   37  C   UNL     1     -12.056  14.846  69.654  1.00  0.00    -0.334 A  
HETATM   38  C   UNL     1     -11.295  15.989  69.991  1.00  0.00    -0.353 A  
HETATM   39  C   UNL     1     -11.441  16.457  71.317  1.00  0.00    -0.261 A  
HETATM   40  C   UNL     1     -12.927  14.242  70.591  1.00  0.00    -0.318 A  
HETATM   41  C   UNL     1     -13.039  14.735  71.883  1.00  0.00    -0.419 A  
HETATM   42  C   UNL     1     -12.283  15.837  72.253  1.00  0.00    -0.555 A  
BRANCH  38  43
HETATM   43  C   UNL     1     -10.364  16.715  69.070  1.00  0.00    -0.317 A  
HETATM   44  C   UNL     1     -10.773  17.810  68.292  1.00  0.00    -0.255 A  
HETATM   45  C   UNL     1      -8.554  18.070  67.312  1.00  0.00    -0.240 A  
HETATM   46  C   UNL     1      -9.892  18.468  67.418  1.00  0.00    -0.330 A  
HETATM   47  C   UNL     1      -7.603  18.736  66.348  1.00  0.00    -0.259 C  
HETATM   48  C   UNL     1      -8.115  17.015  68.117  1.00  0.00    -0.212 A  
HETATM   49  C   UNL     1      -9.006  16.347  68.969  1.00  0.00    -0.239 A  
HETATM   50  F   UNL     1      -8.180  19.711  65.593  1.00  0.00    -0.316 F  
HETATM   51  F   UNL     1      -7.056  17.855  65.462  1.00  0.00    -0.310 F  
HETATM   52  F   UNL     1      -6.549  19.328  66.978  1.00  0.00    -0.191 F  
ENDBRANCH  38  43
ENDBRANCH  35  37
ENDBRANCH  28  33
ENDBRANCH  26  27
ENDBRANCH  25  26
ENDBRANCH  24  25
ENDBRANCH  23  24
ENDBRANCH  10  23
ENDBRANCH   7  10
ENDBRANCH   3   6
TORSDOF 10
ENDMDL
MODEL       37
REMARK 921   NORMALIZED FREE ENERGY PREDICTED BY IDOCK:   -6.80 KCAL/MOL
REMARK 922        TOTAL FREE ENERGY PREDICTED BY IDOCK:  -13.88 KCAL/MOL
REMARK 923 INTER-LIGAND FREE ENERGY PREDICTED BY IDOCK:  -10.74 KCAL/MOL
REMARK 924 INTRA-LIGAND FREE ENERGY PREDICTED BY IDOCK:   -3.13 KCAL/MOL
REMARK 927      BINDING AFFINITY PREDICTED BY RF-SCORE:    0.00 PKD
ROOT
HETATM    1  F   UNL     1     -11.173  11.563  64.772  1.00  0.00    -0.363 F  
HETATM    2  C   UNL     1     -12.257  12.165  64.234  1.00  0.00    -0.377 C  
HETATM    3  C   UNL     1     -12.798  13.303  65.113  1.00  0.00    -0.310 C  
HETATM    4  F   UNL     1     -13.190  11.216  64.005  1.00  0.00     0.245 F  
HETATM    5  F   UNL     1     -11.878  12.653  63.026  1.00  0.00    -0.523 F  
ENDROOT
BRANCH   3   6
HETATM    6  N   UNL     1     -12.112  13.524  66.387  1.00  0.00    -0.415 N  
HETATM    7  C   UNL     1     -11.087  14.444  66.491  1.00  0.00    -0.331 C  
HETATM    8  H   UNL     1     -12.395  12.991  67.209  1.00  0.00     0.000 HD 
HETATM    9  O   UNL     1     -10.686  15.052  65.497  1.00  0.00    -0.313 OA 
BRANCH   7  10
HETATM   10  C   UNL     1     -10.493  14.656  67.907  1.00  0.00    -0.242 C  
HETATM   11  C   UNL     1      -9.947  16.079  68.095  1.00  0.00    -0.228 A  
HETATM   12  C   UNL     1      -6.778  12.706  68.752  1.00  0.00    -0.093 A  
HETATM   13  C   UNL     1     -10.646  17.279  68.068  1.00  0.00    -0.394 A  
HETATM   14  C   UNL     1      -8.132  14.651  68.428  1.00  0.00    -0.147 A  
HETATM   15  C   UNL     1      -9.951  18.450  68.376  1.00  0.00    -0.406 A  
HETATM   16  C   UNL     1      -7.865  11.881  68.423  1.00  0.00    -0.141 A  
HETATM   17  C   UNL     1      -8.583  18.410  68.695  1.00  0.00    -0.315 A  
HETATM   18  C   UNL     1      -6.904  14.100  68.749  1.00  0.00    -0.101 A  
HETATM   19  C   UNL     1      -9.225  13.814  68.108  1.00  0.00    -0.199 A  
HETATM   20  C   UNL     1      -7.884  17.198  68.711  1.00  0.00    -0.258 A  
HETATM   21  C   UNL     1      -9.102  12.432  68.092  1.00  0.00    -0.200 A  
HETATM   22  C   UNL     1      -8.571  16.032  68.415  1.00  0.00    -0.185 A  
BRANCH  10  23
HETATM   23  C   UNL     1     -11.549  14.319  68.991  1.00  0.00    -0.342 C  
BRANCH  23  24
HETATM   24  C   UNL     1     -11.186  13.152  69.927  1.00  0.00     0.067 C  
BRANCH  24  25
HETATM   25  C   UNL     1     -12.126  11.969  69.697  1.00  0.00    -0.295 C  
BRANCH  25  26
HETATM   26  C   UNL     1     -12.052  10.918  70.811  1.00  0.00    -0.368 C  
BRANCH  26  27
HETATM   27  N   UNL     1     -11.883   9.533  70.342  1.00  0.00    -0.183 NA 
HETATM   28  C   UNL     1     -11.053   7.848  72.637  1.00  0.00    -0.385 C  
HETATM   29  C   UNL     1     -12.489   8.358  72.472  1.00  0.00    -0.337 C  
HETATM   30  C   UNL     1     -10.060   8.737  71.880  1.00  0.00    -0.409 C  
HETATM   31  C   UNL     1     -10.513   9.018  70.445  1.00  0.00    -0.213 C  
HETATM   32  C   UNL     1     -12.825   8.622  71.007  1.00  0.00     0.022 C  
BRANCH  28  33
HETATM   33  N   UNL     1     -10.933   6.449  72.234  1.00  0.00    -0.241 N  
HETATM   34  O   UNL     1      -9.170   5.977  73.640  1.00  0.00    -0.127 OA 
HETATM   35  C   UNL     1      -9.956   5.627  72.769  1.00  0.00    -0.173 C  
HETATM   36  H   UNL     1     -11.583   6.070  71.545  1.00  0.00     0.000 HD 
BRANCH  35  37
HETATM   37  C   UNL     1      -9.866   4.275  72.168  1.00  0.00    -0.231 A  
HETATM   38  C   UNL     1      -9.772   4.043  70.776  1.00  0.00    -0.263 A  
HETATM   39  C   UNL     1      -9.873   2.694  70.368  1.00  0.00     0.112 A  
HETATM   40  C   UNL     1     -10.022   3.207  73.081  1.00  0.00    -0.194 A  
HETATM   41  C   UNL     1     -10.118   1.896  72.636  1.00  0.00    -0.205 A  
HETATM   42  C   UNL     1     -10.059   1.639  71.275  1.00  0.00    -0.040 A  
BRANCH  38  43
HETATM   43  C   UNL     1      -9.583   5.098  69.731  1.00  0.00    -0.242 A  
HETATM   44  C   UNL     1      -8.375   5.798  69.572  1.00  0.00    -0.112 A  
HETATM   45  C   UNL     1      -9.267   7.117  67.724  1.00  0.00    -0.125 A  
HETATM   46  C   UNL     1      -8.222   6.799  68.599  1.00  0.00    -0.120 A  
HETATM   47  C   UNL     1      -9.136   8.218  66.700  1.00  0.00    -0.166 C  
HETATM   48  C   UNL     1     -10.459   6.395  67.832  1.00  0.00    -0.276 A  
HETATM   49  C   UNL     1     -10.614   5.415  68.822  1.00  0.00    -0.179 A  
HETATM   50  F   UNL     1      -7.941   8.869  66.743  1.00  0.00    -0.102 F  
HETATM   51  F   UNL     1     -10.090   9.182  66.845  1.00  0.00    -0.238 F  
HETATM   52  F   UNL     1      -9.265   7.761  65.422  1.00  0.00    -0.080 F  
ENDBRANCH  38  43
ENDBRANCH  35  37
ENDBRANCH  28  33
ENDBRANCH  26  27
ENDBRANCH  25  26
ENDBRANCH  24  25
ENDBRANCH  23  24
ENDBRANCH  10  23
ENDBRANCH   7  10
ENDBRANCH   3   6
TORSDOF 10
ENDMDL
MODEL       38
REMARK 921   NORMALIZED FREE ENERGY PREDICTED BY IDOCK:   -6.71 KCAL/MOL
REMARK 922        TOTAL FREE ENERGY PREDICTED BY IDOCK:  -13.73 KCAL/MOL
REMARK 923 INTER-LIGAND FREE ENERGY PREDICTED BY IDOCK:  -11.24 KCAL/MOL
REMARK 924 INTRA-LIGAND FREE ENERGY PREDICTED BY IDOCK:   -2.49 KCAL/MOL
REMARK 927      BINDING AFFINITY PREDICTED BY RF-SCORE:    0.00 PKD
ROOT
HETATM    1  F   UNL     1      -7.416  12.124  66.915  1.00  0.00    -0.146 F  
HETATM    2  C   UNL     1      -6.415  12.300  67.805  1.00  0.00    -0.106 C  
HETATM    3  C   UNL     1      -6.131  13.783  68.089  1.00  0.00    -0.120 C  
HETATM    4  F   UNL     1      -5.323  11.657  67.337  1.00  0.00    -0.047 F  
HETATM    5  F   UNL     1      -6.789  11.673  68.948  1.00  0.00    -0.072 F  
ENDROOT
BRANCH   3   6
HETATM    6  N   UNL     1      -6.928  14.754  67.337  1.00  0.00    -0.170 N  
HETATM    7  C   UNL     1      -6.958  16.085  67.705  1.00  0.00    -0.143 C  
HETATM    8  H   UNL     1      -7.467  14.443  66.530  1.00  0.00     0.000 HD 
HETATM    9  O   UNL     1      -6.366  16.471  68.714  1.00  0.00    -0.134 OA 
BRANCH   7  10
HETATM   10  C   UNL     1      -7.766  17.036  66.785  1.00  0.00    -0.274 C  
HETATM   11  C   UNL     1      -6.873  18.105  66.138  1.00  0.00    -0.298 A  
HETATM   12  C   UNL     1     -10.376  19.828  68.709  1.00  0.00    -0.362 A  
HETATM   13  C   UNL     1      -5.823  17.925  65.247  1.00  0.00     0.009 A  
HETATM   14  C   UNL     1      -8.465  19.271  67.383  1.00  0.00    -0.318 A  
HETATM   15  C   UNL     1      -5.222  19.061  64.703  1.00  0.00    -0.229 A  
HETATM   16  C   UNL     1     -10.636  18.466  68.927  1.00  0.00     0.190 A  
HETATM   17  C   UNL     1      -5.667  20.347  65.056  1.00  0.00    -0.237 A  
HETATM   18  C   UNL     1      -9.282  20.240  67.939  1.00  0.00    -0.328 A  
HETATM   19  C   UNL     1      -8.738  17.901  67.597  1.00  0.00    -0.242 A  
HETATM   20  C   UNL     1      -6.720  20.520  65.961  1.00  0.00    -0.270 A  
HETATM   21  C   UNL     1      -9.811  17.487  68.374  1.00  0.00    -0.325 A  
HETATM   22  C   UNL     1      -7.325  19.396  66.497  1.00  0.00    -0.251 A  
BRANCH  10  23
HETATM   23  C   UNL     1      -8.528  16.223  65.706  1.00  0.00     0.312 C  
BRANCH  23  24
HETATM   24  C   UNL     1     -10.060  16.200  65.858  1.00  0.00    -0.379 C  
BRANCH  24  25
HETATM   25  C   UNL     1     -10.661  15.046  65.054  1.00  0.00    -0.437 C  
BRANCH  25  26
HETATM   26  C   UNL     1     -10.297  13.667  65.619  1.00  0.00    -0.300 C  
BRANCH  26  27
HETATM   27  N   UNL     1     -11.361  13.021  66.403  1.00  0.00    -0.304 NA 
HETATM   28  C   UNL     1     -10.110  11.369  68.524  1.00  0.00    -0.206 C  
HETATM   29  C   UNL     1     -10.162  12.898  68.601  1.00  0.00    -0.170 C  
HETATM   30  C   UNL     1     -10.219  10.884  67.073  1.00  0.00    -0.256 C  
HETATM   31  C   UNL     1     -11.372  11.556  66.324  1.00  0.00    -0.153 C  
HETATM   32  C   UNL     1     -11.338  13.460  67.805  1.00  0.00    -0.294 C  
BRANCH  28  33
HETATM   33  N   UNL     1     -11.130  10.755  69.370  1.00  0.00    -0.248 N  
HETATM   34  O   UNL     1      -9.647   9.504  70.611  1.00  0.00    -0.258 OA 
HETATM   35  C   UNL     1     -10.796   9.832  70.345  1.00  0.00    -0.311 C  
HETATM   36  H   UNL     1     -12.108  11.013  69.239  1.00  0.00     0.000 HD 
BRANCH  35  37
HETATM   37  C   UNL     1     -11.943   9.191  71.032  1.00  0.00    -0.344 A  
HETATM   38  C   UNL     1     -12.279   7.825  70.884  1.00  0.00    -0.166 A  
HETATM   39  C   UNL     1     -13.502   7.425  71.468  1.00  0.00    -0.445 A  
HETATM   40  C   UNL     1     -12.779  10.079  71.749  1.00  0.00    -0.526 A  
HETATM   41  C   UNL     1     -13.973   9.643  72.305  1.00  0.00    -0.207 A  
HETATM   42  C   UNL     1     -14.344   8.316  72.152  1.00  0.00    -0.498 A  
BRANCH  38  43
HETATM   43  C   UNL     1     -11.455   6.801  70.167  1.00  0.00    -0.404 A  
HETATM   44  C   UNL     1     -10.740   5.798  70.842  1.00  0.00    -0.333 A  
HETATM   45  C   UNL     1      -9.882   4.867  68.757  1.00  0.00    -0.231 A  
HETATM   46  C   UNL     1      -9.955   4.857  70.155  1.00  0.00    -0.325 A  
HETATM   47  C   UNL     1      -9.012   3.892  68.003  1.00  0.00    -0.122 C  
HETATM   48  C   UNL     1     -10.628   5.825  68.064  1.00  0.00    -0.295 A  
HETATM   49  C   UNL     1     -11.389   6.777  68.758  1.00  0.00    -0.102 A  
HETATM   50  F   UNL     1      -8.304   3.052  68.807  1.00  0.00    -0.069 F  
HETATM   51  F   UNL     1      -8.091   4.516  67.214  1.00  0.00    -0.098 F  
HETATM   52  F   UNL     1      -9.730   3.089  67.167  1.00  0.00    -0.203 F  
ENDBRANCH  38  43
ENDBRANCH  35  37
ENDBRANCH  28  33
ENDBRANCH  26  27
ENDBRANCH  25  26
ENDBRANCH  24  25
ENDBRANCH  23  24
ENDBRANCH  10  23
ENDBRANCH   7  10
ENDBRANCH   3   6
TORSDOF 10
ENDMDL
MODEL       39
REMARK 921   NORMALIZED FREE ENERGY PREDICTED BY IDOCK:   -6.71 KCAL/MOL
REMARK 922        TOTAL FREE ENERGY PREDICTED BY IDOCK:  -13.73 KCAL/MOL
REMARK 923 INTER-LIGAND FREE ENERGY PREDICTED BY IDOCK:  -11.01 KCAL/MOL
REMARK 924 INTRA-LIGAND FREE ENERGY PREDICTED BY IDOCK:   -2.72 KCAL/MOL
REMARK 927      BINDING AFFINITY PREDICTED BY RF-SCORE:    0.00 PKD
ROOT
HETATM    1  F   UNL     1      -6.886  15.679  70.035  1.00  0.00    -0.173 F  
HETATM    2  C   UNL     1      -6.417  14.412  70.074  1.00  0.00    -0.146 C  
HETATM    3  C   UNL     1      -7.379  13.407  69.422  1.00  0.00     0.288 C  
HETATM    4  F   UNL     1      -6.159  14.102  71.363  1.00  0.00    -0.223 F  
HETATM    5  F   UNL     1      -5.230  14.411  69.417  1.00  0.00    -0.089 F  
ENDROOT
BRANCH   3   6
HETATM    6  N   UNL     1      -8.642  13.947  68.919  1.00  0.00    -0.364 N  
HETATM    7  C   UNL     1      -9.173  13.514  67.719  1.00  0.00    -0.213 C  
HETATM    8  H   UNL     1      -9.138  14.654  69.462  1.00  0.00     0.000 HD 
HETATM    9  O   UNL     1      -8.560  12.709  67.016  1.00  0.00    -0.194 OA 
BRANCH   7  10
HETATM   10  C   UNL     1     -10.557  14.092  67.330  1.00  0.00    -0.273 C  
HETATM   11  C   UNL     1     -11.085  13.488  66.020  1.00  0.00    -0.300 A  
HETATM   12  C   UNL     1     -10.638  18.141  65.946  1.00  0.00    -0.247 A  
HETATM   13  C   UNL     1     -11.418  12.167  65.754  1.00  0.00    -0.414 A  
HETATM   14  C   UNL     1     -10.921  15.785  65.643  1.00  0.00    -0.248 A  
HETATM   15  C   UNL     1     -11.985  11.870  64.514  1.00  0.00    -0.281 A  
HETATM   16  C   UNL     1     -10.165  17.927  67.251  1.00  0.00    -0.360 A  
HETATM   17  C   UNL     1     -12.202  12.881  63.563  1.00  0.00    -0.595 A  
HETATM   18  C   UNL     1     -11.012  17.068  65.130  1.00  0.00    -0.016 A  
HETATM   19  C   UNL     1     -10.454  15.578  66.961  1.00  0.00    -0.304 A  
HETATM   20  C   UNL     1     -11.855  14.209  63.835  1.00  0.00    -0.211 A  
HETATM   21  C   UNL     1     -10.064  16.637  67.769  1.00  0.00    -0.275 A  
HETATM   22  C   UNL     1     -11.300  14.510  65.067  1.00  0.00    -0.377 A  
BRANCH  10  23
HETATM   23  C   UNL     1     -11.573  13.885  68.484  1.00  0.00    -0.367 C  
BRANCH  23  24
HETATM   24  C   UNL     1     -11.965  12.423  68.762  1.00  0.00    -0.276 C  
BRANCH  24  25
HETATM   25  C   UNL     1     -11.803  12.098  70.248  1.00  0.00    -0.339 C  
BRANCH  25  26
HETATM   26  C   UNL     1     -12.750  10.991  70.727  1.00  0.00    -0.323 C  
BRANCH  26  27
HETATM   27  N   UNL     1     -12.403   9.639  70.262  1.00  0.00     0.053 NA 
HETATM   28  C   UNL     1     -11.510   8.034  72.591  1.00  0.00    -0.402 C  
HETATM   29  C   UNL     1     -12.983   8.382  72.353  1.00  0.00    -0.297 C  
HETATM   30  C   UNL     1     -10.584   9.036  71.891  1.00  0.00    -0.388 C  
HETATM   31  C   UNL     1     -10.991   9.279  70.436  1.00  0.00    -0.255 C  
HETATM   32  C   UNL     1     -13.270   8.621  70.872  1.00  0.00     0.246 C  
BRANCH  28  33
HETATM   33  N   UNL     1     -11.213   6.661  72.189  1.00  0.00    -0.253 N  
HETATM   34  O   UNL     1      -9.107   6.621  73.120  1.00  0.00    -0.128 OA 
HETATM   35  C   UNL     1      -9.993   6.075  72.476  1.00  0.00    -0.176 C  
HETATM   36  H   UNL     1     -11.920   6.124  71.688  1.00  0.00     0.000 HD 
BRANCH  35  37
HETATM   37  C   UNL     1      -9.781   4.730  71.889  1.00  0.00    -0.219 A  
HETATM   38  C   UNL     1      -9.671   4.493  70.499  1.00  0.00    -0.290 A  
HETATM   39  C   UNL     1      -9.650   3.135  70.106  1.00  0.00    -0.172 A  
HETATM   40  C   UNL     1      -9.836   3.662  72.814  1.00  0.00    -0.204 A  
HETATM   41  C   UNL     1      -9.813   2.343  72.383  1.00  0.00    -0.212 A  
HETATM   42  C   UNL     1      -9.736   2.078  71.025  1.00  0.00    -0.161 A  
BRANCH  38  43
HETATM   43  C   UNL     1      -9.583   5.549  69.442  1.00  0.00    -0.196 A  
HETATM   44  C   UNL     1     -10.701   5.981  68.710  1.00  0.00    -0.375 A  
HETATM   45  C   UNL     1      -9.368   7.567  67.421  1.00  0.00    -0.164 A  
HETATM   46  C   UNL     1     -10.597   6.959  67.707  1.00  0.00    -0.305 A  
HETATM   47  C   UNL     1      -9.228   8.589  66.319  1.00  0.00    -0.207 C  
HETATM   48  C   UNL     1      -8.254   7.188  68.175  1.00  0.00    -0.124 A  
HETATM   49  C   UNL     1      -8.361   6.193  69.157  1.00  0.00    -0.116 A  
HETATM   50  F   UNL     1     -10.382   8.821  65.635  1.00  0.00    -0.086 F  
HETATM   51  F   UNL     1      -8.308   8.223  65.382  1.00  0.00    -0.127 F  
HETATM   52  F   UNL     1      -8.819   9.804  66.783  1.00  0.00    -0.133 F  
ENDBRANCH  38  43
ENDBRANCH  35  37
ENDBRANCH  28  33
ENDBRANCH  26  27
ENDBRANCH  25  26
ENDBRANCH  24  25
ENDBRANCH  23  24
ENDBRANCH  10  23
ENDBRANCH   7  10
ENDBRANCH   3   6
TORSDOF 10
ENDMDL
MODEL       40
REMARK 921   NORMALIZED FREE ENERGY PREDICTED BY IDOCK:   -6.69 KCAL/MOL
REMARK 922        TOTAL FREE ENERGY PREDICTED BY IDOCK:  -13.70 KCAL/MOL
REMARK 923 INTER-LIGAND FREE ENERGY PREDICTED BY IDOCK:  -10.47 KCAL/MOL
REMARK 924 INTRA-LIGAND FREE ENERGY PREDICTED BY IDOCK:   -3.23 KCAL/MOL
REMARK 927      BINDING AFFINITY PREDICTED BY RF-SCORE:    0.00 PKD
ROOT
HETATM    1  F   UNL     1      -6.636   3.523  68.341  1.00  0.00    -0.037 F  
HETATM    2  C   UNL     1      -7.428   2.544  68.833  1.00  0.00    -0.047 C  
HETATM    3  C   UNL     1      -8.648   3.095  69.586  1.00  0.00    -0.066 C  
HETATM    4  F   UNL     1      -6.669   1.746  69.614  1.00  0.00    -0.028 F  
HETATM    5  F   UNL     1      -7.835   1.798  67.775  1.00  0.00    -0.056 F  
ENDROOT
BRANCH   3   6
HETATM    6  N   UNL     1      -8.739   4.551  69.701  1.00  0.00    -0.079 N  
HETATM    7  C   UNL     1      -9.407   5.298  68.750  1.00  0.00    -0.121 C  
HETATM    8  H   UNL     1      -8.303   5.020  70.494  1.00  0.00     0.000 HD 
HETATM    9  O   UNL     1      -9.885   4.759  67.751  1.00  0.00    -0.159 OA 
BRANCH   7  10
HETATM   10  C   UNL     1      -9.514   6.820  69.020  1.00  0.00    -0.133 C  
HETATM   11  C   UNL     1      -8.192   7.406  69.539  1.00  0.00    -0.131 A  
HETATM   12  C   UNL     1     -11.826   8.022  72.414  1.00  0.00    -0.429 A  
HETATM   13  C   UNL     1      -6.967   7.476  68.888  1.00  0.00    -0.077 A  
HETATM   14  C   UNL     1      -9.772   7.820  71.205  1.00  0.00    -0.179 A  
HETATM   15  C   UNL     1      -5.926   8.156  69.521  1.00  0.00    -0.030 A  
HETATM   16  C   UNL     1     -12.499   7.309  71.410  1.00  0.00    -0.418 A  
HETATM   17  C   UNL     1      -6.115   8.744  70.784  1.00  0.00    -0.037 A  
HETATM   18  C   UNL     1     -10.453   8.276  72.321  1.00  0.00    -0.392 A  
HETATM   19  C   UNL     1     -10.458   7.112  70.193  1.00  0.00    -0.231 A  
HETATM   20  C   UNL     1      -7.350   8.661  71.437  1.00  0.00    -0.116 A  
HETATM   21  C   UNL     1     -11.816   6.841  70.289  1.00  0.00    -0.359 A  
HETATM   22  C   UNL     1      -8.388   7.995  70.809  1.00  0.00    -0.115 A  
BRANCH  10  23
HETATM   23  C   UNL     1      -9.985   7.563  67.742  1.00  0.00    -0.214 C  
BRANCH  23  24
HETATM   24  C   UNL     1      -9.659   9.067  67.696  1.00  0.00    -0.183 C  
BRANCH  24  25
HETATM   25  C   UNL     1     -10.900   9.894  68.033  1.00  0.00    -0.294 C  
BRANCH  25  26
HETATM   26  C   UNL     1     -11.258  10.911  66.942  1.00  0.00    -0.086 C  
BRANCH  26  27
HETATM   27  N   UNL     1     -11.403  12.297  67.415  1.00  0.00    -0.303 NA 
HETATM   28  C   UNL     1      -9.661  14.048  65.774  1.00  0.00    -0.194 C  
HETATM   29  C   UNL     1     -10.973  13.465  65.238  1.00  0.00    -0.306 C  
HETATM   30  C   UNL     1      -9.109  13.202  66.927  1.00  0.00    -0.231 C  
HETATM   31  C   UNL     1     -10.179  12.882  67.973  1.00  0.00    -0.229 C  
HETATM   32  C   UNL     1     -11.957  13.167  66.368  1.00  0.00    -0.402 C  
BRANCH  28  33
HETATM   33  N   UNL     1      -9.818  15.446  66.165  1.00  0.00    -0.288 N  
HETATM   34  O   UNL     1      -7.574  15.816  66.529  1.00  0.00    -0.147 OA 
HETATM   35  C   UNL     1      -8.731  16.215  66.543  1.00  0.00    -0.302 C  
HETATM   36  H   UNL     1     -10.748  15.865  66.158  1.00  0.00     0.000 HD 
BRANCH  35  37
HETATM   37  C   UNL     1      -9.057  17.571  67.046  1.00  0.00    -0.255 A  
HETATM   38  C   UNL     1     -10.005  17.821  68.064  1.00  0.00    -0.333 A  
HETATM   39  C   UNL     1     -10.319  19.180  68.294  1.00  0.00    -0.448 A  
HETATM   40  C   UNL     1      -8.450  18.631  66.332  1.00  0.00    -0.286 A  
HETATM   41  C   UNL     1      -8.789  19.951  66.591  1.00  0.00    -0.429 A  
HETATM   42  C   UNL     1      -9.737  20.227  67.563  1.00  0.00    -0.575 A  
BRANCH  38  43
HETATM   43  C   UNL     1     -10.686  16.775  68.892  1.00  0.00    -0.333 A  
HETATM   44  C   UNL     1     -12.027  16.409  68.692  1.00  0.00     0.318 A  
HETATM   45  C   UNL     1     -11.954  14.776  70.503  1.00  0.00    -0.373 A  
HETATM   46  C   UNL     1     -12.657  15.440  69.491  1.00  0.00    -0.006 A  
HETATM   47  C   UNL     1     -12.624  13.762  71.398  1.00  0.00    -0.348 C  
HETATM   48  C   UNL     1     -10.604  15.089  70.682  1.00  0.00     0.016 A  
HETATM   49  C   UNL     1      -9.989  16.075  69.898  1.00  0.00    -0.077 A  
HETATM   50  F   UNL     1     -13.952  13.596  71.144  1.00  0.00    -0.203 F  
HETATM   51  F   UNL     1     -12.538  14.094  72.719  1.00  0.00    -0.381 F  
HETATM   52  F   UNL     1     -12.067  12.523  71.293  1.00  0.00    -0.339 F  
ENDBRANCH  38  43
ENDBRANCH  35  37
ENDBRANCH  28  33
ENDBRANCH  26  27
ENDBRANCH  25  26
ENDBRANCH  24  25
ENDBRANCH  23  24
ENDBRANCH  10  23
ENDBRANCH   7  10
ENDBRANCH   3   6
TORSDOF 10
ENDMDL
MODEL       41
REMARK 921   NORMALIZED FREE ENERGY PREDICTED BY IDOCK:   -6.65 KCAL/MOL
REMARK 922        TOTAL FREE ENERGY PREDICTED BY IDOCK:  -13.64 KCAL/MOL
REMARK 923 INTER-LIGAND FREE ENERGY PREDICTED BY IDOCK:  -10.25 KCAL/MOL
REMARK 924 INTRA-LIGAND FREE ENERGY PREDICTED BY IDOCK:   -3.39 KCAL/MOL
REMARK 927      BINDING AFFINITY PREDICTED BY RF-SCORE:    0.00 PKD
ROOT
HETATM    1  F   UNL     1      -9.912  10.408  69.969  1.00  0.00    -0.255 F  
HETATM    2  C   UNL     1     -11.081  10.717  69.366  1.00  0.00    -0.268 C  
HETATM    3  C   UNL     1     -11.071  10.404  67.862  1.00  0.00    -0.299 C  
HETATM    4  F   UNL     1     -11.345  12.019  69.610  1.00  0.00    -0.303 F  
HETATM    5  F   UNL     1     -12.047   9.991  69.983  1.00  0.00    -0.264 F  
ENDROOT
BRANCH   3   6
HETATM    6  N   UNL     1      -9.817   9.884  67.314  1.00  0.00    -0.174 N  
HETATM    7  C   UNL     1      -9.644   8.530  67.099  1.00  0.00    -0.178 C  
HETATM    8  H   UNL     1      -9.061  10.530  67.089  1.00  0.00     0.000 HD 
HETATM    9  O   UNL     1     -10.519   7.726  67.425  1.00  0.00    -0.252 OA 
BRANCH   7  10
HETATM   10  C   UNL     1      -8.310   8.103  66.436  1.00  0.00    -0.115 C  
HETATM   11  C   UNL     1      -8.165   8.672  65.016  1.00  0.00    -0.159 A  
HETATM   12  C   UNL     1      -7.969   4.007  65.245  1.00  0.00    -0.097 A  
HETATM   13  C   UNL     1      -8.084  10.002  64.626  1.00  0.00    -0.155 A  
HETATM   14  C   UNL     1      -8.087   6.352  64.785  1.00  0.00    -0.114 A  
HETATM   15  C   UNL     1      -7.844  10.277  63.279  1.00  0.00    -0.139 A  
HETATM   16  C   UNL     1      -8.174   4.254  66.612  1.00  0.00    -0.102 A  
HETATM   17  C   UNL     1      -7.699   9.235  62.349  1.00  0.00    -0.119 A  
HETATM   18  C   UNL     1      -7.931   5.057  64.320  1.00  0.00    -0.104 A  
HETATM   19  C   UNL     1      -8.283   6.594  66.164  1.00  0.00    -0.124 A  
HETATM   20  C   UNL     1      -7.792   7.897  62.748  1.00  0.00    -0.143 A  
HETATM   21  C   UNL     1      -8.339   5.555  67.083  1.00  0.00    -0.104 A  
HETATM   22  C   UNL     1      -8.021   7.619  64.085  1.00  0.00    -0.105 A  
BRANCH  10  23
HETATM   23  C   UNL     1      -7.108   8.520  67.324  1.00  0.00    -0.076 C  
BRANCH  23  24
HETATM   24  C   UNL     1      -7.319   8.351  68.840  1.00  0.00    -0.090 C  
BRANCH  24  25
HETATM   25  C   UNL     1      -6.239   9.104  69.618  1.00  0.00    -0.039 C  
BRANCH  25  26
HETATM   26  C   UNL     1      -5.932  10.488  69.032  1.00  0.00    -0.040 C  
BRANCH  26  27
HETATM   27  N   UNL     1      -6.938  11.520  69.329  1.00  0.00    -0.113 NA 
HETATM   28  C   UNL     1      -6.151  14.034  67.966  1.00  0.00    -0.141 C  
HETATM   29  C   UNL     1      -6.736  12.839  67.207  1.00  0.00    -0.089 C  
HETATM   30  C   UNL     1      -5.512  13.590  69.288  1.00  0.00    -0.076 C  
HETATM   31  C   UNL     1      -6.428  12.666  70.092  1.00  0.00     0.183 C  
HETATM   32  C   UNL     1      -7.617  11.977  68.108  1.00  0.00    -0.120 C  
BRANCH  28  33
HETATM   33  N   UNL     1      -7.154  15.074  68.181  1.00  0.00    -0.110 N  
HETATM   34  O   UNL     1      -6.399  16.444  66.490  1.00  0.00    -0.262 OA 
HETATM   35  C   UNL     1      -7.168  16.228  67.418  1.00  0.00    -0.169 C  
HETATM   36  H   UNL     1      -7.859  14.946  68.907  1.00  0.00     0.000 HD 
BRANCH  35  37
HETATM   37  C   UNL     1      -8.153  17.254  67.837  1.00  0.00    -0.210 A  
HETATM   38  C   UNL     1      -9.496  17.274  67.396  1.00  0.00    -0.245 A  
HETATM   39  C   UNL     1     -10.245  18.419  67.751  1.00  0.00    -0.407 A  
HETATM   40  C   UNL     1      -7.619  18.310  68.611  1.00  0.00    -0.311 A  
HETATM   41  C   UNL     1      -8.390  19.417  68.938  1.00  0.00    -0.335 A  
HETATM   42  C   UNL     1      -9.702  19.480  68.494  1.00  0.00    -0.503 A  
BRANCH  38  43
HETATM   43  C   UNL     1     -10.163  16.200  66.594  1.00  0.00    -0.291 A  
HETATM   44  C   UNL     1     -10.428  16.335  65.221  1.00  0.00    -0.324 A  
HETATM   45  C   UNL     1     -11.449  14.123  65.099  1.00  0.00    -0.336 A  
HETATM   46  C   UNL     1     -11.073  15.326  64.488  1.00  0.00    -0.260 A  
HETATM   47  C   UNL     1     -12.179  13.043  64.338  1.00  0.00    -0.406 C  
HETATM   48  C   UNL     1     -11.146  13.948  66.452  1.00  0.00    -0.309 A  
HETATM   49  C   UNL     1     -10.525  14.971  67.183  1.00  0.00    -0.277 A  
HETATM   50  F   UNL     1     -12.454  13.371  63.045  1.00  0.00    -0.559 F  
HETATM   51  F   UNL     1     -13.379  12.727  64.904  1.00  0.00    -0.385 F  
HETATM   52  F   UNL     1     -11.478  11.876  64.285  1.00  0.00    -0.373 F  
ENDBRANCH  38  43
ENDBRANCH  35  37
ENDBRANCH  28  33
ENDBRANCH  26  27
ENDBRANCH  25  26
ENDBRANCH  24  25
ENDBRANCH  23  24
ENDBRANCH  10  23
ENDBRANCH   7  10
ENDBRANCH   3   6
TORSDOF 10
ENDMDL
MODEL       42
REMARK 921   NORMALIZED FREE ENERGY PREDICTED BY IDOCK:   -6.62 KCAL/MOL
REMARK 922        TOTAL FREE ENERGY PREDICTED BY IDOCK:  -13.60 KCAL/MOL
REMARK 923 INTER-LIGAND FREE ENERGY PREDICTED BY IDOCK:  -10.88 KCAL/MOL
REMARK 924 INTRA-LIGAND FREE ENERGY PREDICTED BY IDOCK:   -2.72 KCAL/MOL
REMARK 927      BINDING AFFINITY PREDICTED BY RF-SCORE:    0.00 PKD
ROOT
HETATM    1  F   UNL     1      -6.263  18.958  66.204  1.00  0.00    -0.181 F  
HETATM    2  C   UNL     1      -7.102  19.946  65.821  1.00  0.00    -0.303 C  
HETATM    3  C   UNL     1      -8.580  19.569  66.005  1.00  0.00    -0.215 C  
HETATM    4  F   UNL     1      -6.816  20.263  64.540  1.00  0.00    -0.301 F  
HETATM    5  F   UNL     1      -6.803  21.032  66.578  1.00  0.00    -0.314 F  
ENDROOT
BRANCH   3   6
HETATM    6  N   UNL     1      -8.850  18.219  66.501  1.00  0.00    -0.278 N  
HETATM    7  C   UNL     1     -10.052  17.914  67.112  1.00  0.00    -0.340 C  
HETATM    8  H   UNL     1      -8.142  17.494  66.396  1.00  0.00     0.000 HD 
HETATM    9  O   UNL     1     -10.896  18.789  67.308  1.00  0.00    -0.443 OA 
BRANCH   7  10
HETATM   10  C   UNL     1     -10.261  16.434  67.519  1.00  0.00    -0.273 C  
HETATM   11  C   UNL     1      -8.949  15.767  67.959  1.00  0.00    -0.178 A  
HETATM   12  C   UNL     1     -11.064  13.656  64.363  1.00  0.00    -0.378 A  
HETATM   13  C   UNL     1      -8.142  16.087  69.043  1.00  0.00    -0.226 A  
HETATM   14  C   UNL     1      -9.713  14.530  66.134  1.00  0.00    -0.340 A  
HETATM   15  C   UNL     1      -7.046  15.266  69.310  1.00  0.00    -0.177 A  
HETATM   16  C   UNL     1     -11.984  14.702  64.535  1.00  0.00    -0.473 A  
HETATM   17  C   UNL     1      -6.767  14.154  68.496  1.00  0.00    -0.101 A  
HETATM   18  C   UNL     1      -9.916  13.568  65.159  1.00  0.00    -0.201 A  
HETATM   19  C   UNL     1     -10.649  15.573  66.309  1.00  0.00    -0.310 A  
HETATM   20  C   UNL     1      -7.579  13.844  67.400  1.00  0.00    -0.160 A  
HETATM   21  C   UNL     1     -11.780  15.677  65.511  1.00  0.00     0.330 A  
HETATM   22  C   UNL     1      -8.673  14.650  67.137  1.00  0.00    -0.242 A  
BRANCH  10  23
HETATM   23  C   UNL     1     -11.336  16.327  68.632  1.00  0.00    -0.333 C  
BRANCH  23  24
HETATM   24  C   UNL     1     -12.031  14.958  68.749  1.00  0.00    -0.284 C  
BRANCH  24  25
HETATM   25  C   UNL     1     -11.396  14.129  69.866  1.00  0.00    -0.232 C  
BRANCH  25  26
HETATM   26  C   UNL     1     -12.253  12.928  70.284  1.00  0.00    -0.289 C  
BRANCH  26  27
HETATM   27  N   UNL     1     -12.276  11.819  69.317  1.00  0.00    -0.208 NA 
HETATM   28  C   UNL     1      -9.772  10.256  69.606  1.00  0.00    -0.185 C  
HETATM   29  C   UNL     1     -10.911  10.174  70.627  1.00  0.00    -0.357 C  
HETATM   30  C   UNL     1      -9.822  11.576  68.826  1.00  0.00    -0.153 C  
HETATM   31  C   UNL     1     -11.224  11.881  68.295  1.00  0.00    -0.261 C  
HETATM   32  C   UNL     1     -12.258  10.515  69.994  1.00  0.00    -0.250 C  
BRANCH  28  33
HETATM   33  N   UNL     1      -9.775   9.104  68.708  1.00  0.00    -0.159 N  
HETATM   34  O   UNL     1      -7.483   8.967  68.535  1.00  0.00    -0.083 OA 
HETATM   35  C   UNL     1      -8.596   8.569  68.220  1.00  0.00    -0.139 C  
HETATM   36  H   UNL     1     -10.665   8.686  68.435  1.00  0.00     0.000 HD 
BRANCH  35  37
HETATM   37  C   UNL     1      -8.757   7.492  67.213  1.00  0.00    -0.121 A  
HETATM   38  C   UNL     1      -9.117   6.164  67.538  1.00  0.00    -0.109 A  
HETATM   39  C   UNL     1      -9.051   5.231  66.479  1.00  0.00    -0.129 A  
HETATM   40  C   UNL     1      -8.386   7.851  65.896  1.00  0.00    -0.134 A  
HETATM   41  C   UNL     1      -8.335   6.901  64.886  1.00  0.00    -0.022 A  
HETATM   42  C   UNL     1      -8.653   5.584  65.180  1.00  0.00    -0.141 A  
BRANCH  38  43
HETATM   43  C   UNL     1      -9.545   5.688  68.892  1.00  0.00    -0.168 A  
HETATM   44  C   UNL     1     -10.773   6.052  69.468  1.00  0.00    -0.405 A  
HETATM   45  C   UNL     1     -10.321   4.761  71.488  1.00  0.00    -0.203 A  
HETATM   46  C   UNL     1     -11.151   5.612  70.747  1.00  0.00    -0.196 A  
HETATM   47  C   UNL     1     -10.690   4.312  72.881  1.00  0.00    -0.167 C  
HETATM   48  C   UNL     1      -9.119   4.346  70.910  1.00  0.00    -0.186 A  
HETATM   49  C   UNL     1      -8.737   4.809  69.643  1.00  0.00    -0.112 A  
HETATM   50  F   UNL     1     -11.862   4.835  73.335  1.00  0.00    -0.392 F  
HETATM   51  F   UNL     1      -9.748   4.653  73.806  1.00  0.00    -0.129 F  
HETATM   52  F   UNL     1     -10.826   2.959  72.974  1.00  0.00    -0.232 F  
ENDBRANCH  38  43
ENDBRANCH  35  37
ENDBRANCH  28  33
ENDBRANCH  26  27
ENDBRANCH  25  26
ENDBRANCH  24  25
ENDBRANCH  23  24
ENDBRANCH  10  23
ENDBRANCH   7  10
ENDBRANCH   3   6
TORSDOF 10
ENDMDL
MODEL       43
REMARK 921   NORMALIZED FREE ENERGY PREDICTED BY IDOCK:   -6.60 KCAL/MOL
REMARK 922        TOTAL FREE ENERGY PREDICTED BY IDOCK:  -13.55 KCAL/MOL
REMARK 923 INTER-LIGAND FREE ENERGY PREDICTED BY IDOCK:  -11.94 KCAL/MOL
REMARK 924 INTRA-LIGAND FREE ENERGY PREDICTED BY IDOCK:   -1.62 KCAL/MOL
REMARK 927      BINDING AFFINITY PREDICTED BY RF-SCORE:    0.00 PKD
ROOT
HETATM    1  F   UNL     1     -11.466  11.289  64.986  1.00  0.00    -0.238 F  
HETATM    2  C   UNL     1     -11.365  11.822  63.748  1.00  0.00    -0.438 C  
HETATM    3  C   UNL     1     -10.553  13.126  63.730  1.00  0.00    -0.008 C  
HETATM    4  F   UNL     1     -12.614  11.998  63.266  1.00  0.00    -0.630 F  
HETATM    5  F   UNL     1     -10.763  10.891  62.965  1.00  0.00    -0.312 F  
ENDROOT
BRANCH   3   6
HETATM    6  N   UNL     1     -10.069  13.609  65.025  1.00  0.00    -0.562 N  
HETATM    7  C   UNL     1     -10.132  14.950  65.351  1.00  0.00    -0.367 C  
HETATM    8  H   UNL     1      -9.681  12.946  65.695  1.00  0.00     0.000 HD 
HETATM    9  O   UNL     1     -10.538  15.777  64.533  1.00  0.00    -0.406 OA 
BRANCH   7  10
HETATM   10  C   UNL     1      -9.672  15.333  66.781  1.00  0.00    -0.249 C  
HETATM   11  C   UNL     1      -9.503  16.851  66.944  1.00  0.00    -0.261 A  
HETATM   12  C   UNL     1      -5.633  14.382  67.828  1.00  0.00    -0.049 A  
HETATM   13  C   UNL     1     -10.474  17.840  66.852  1.00  0.00    -0.308 A  
HETATM   14  C   UNL     1      -7.409  15.924  67.391  1.00  0.00    -0.224 A  
HETATM   15  C   UNL     1     -10.103  19.152  67.148  1.00  0.00    -0.457 A  
HETATM   16  C   UNL     1      -6.468  13.307  67.485  1.00  0.00    -0.143 A  
HETATM   17  C   UNL     1      -8.783  19.459  67.519  1.00  0.00    -0.346 A  
HETATM   18  C   UNL     1      -6.098  15.701  67.776  1.00  0.00    -0.178 A  
HETATM   19  C   UNL     1      -8.247  14.836  67.057  1.00  0.00    -0.211 A  
HETATM   20  C   UNL     1      -7.808  18.458  67.600  1.00  0.00    -0.240 A  
HETATM   21  C   UNL     1      -7.787  13.527  67.090  1.00  0.00    -0.025 A  
HETATM   22  C   UNL     1      -8.173  17.153  67.316  1.00  0.00    -0.206 A  
BRANCH  10  23
HETATM   23  C   UNL     1     -10.661  14.769  67.835  1.00  0.00    -0.248 C  
BRANCH  23  24
HETATM   24  C   UNL     1     -11.971  14.194  67.269  1.00  0.00    -0.449 C  
BRANCH  24  25
HETATM   25  C   UNL     1     -11.984  12.670  67.392  1.00  0.00    -0.309 C  
BRANCH  25  26
HETATM   26  C   UNL     1     -10.909  12.135  68.347  1.00  0.00    -0.224 C  
BRANCH  26  27
HETATM   27  N   UNL     1     -11.015  10.700  68.653  1.00  0.00    -0.227 NA 
HETATM   28  C   UNL     1      -8.356   9.447  68.264  1.00  0.00    -0.119 C  
HETATM   29  C   UNL     1      -8.674  10.335  69.471  1.00  0.00    -0.155 C  
HETATM   30  C   UNL     1      -9.288   9.758  67.087  1.00  0.00    -0.169 C  
HETATM   31  C   UNL     1     -10.757   9.813  67.512  1.00  0.00    -0.264 C  
HETATM   32  C   UNL     1     -10.166  10.329  69.794  1.00  0.00    -0.220 C  
BRANCH  28  33
HETATM   33  N   UNL     1      -8.395   8.030  68.617  1.00  0.00    -0.126 N  
HETATM   34  O   UNL     1      -6.154   7.879  69.126  1.00  0.00    -0.033 OA 
HETATM   35  C   UNL     1      -7.251   7.352  69.000  1.00  0.00    -0.085 C  
HETATM   36  H   UNL     1      -9.284   7.531  68.580  1.00  0.00     0.000 HD 
BRANCH  35  37
HETATM   37  C   UNL     1      -7.415   5.891  69.194  1.00  0.00    -0.085 A  
HETATM   38  C   UNL     1      -8.503   5.312  69.887  1.00  0.00    -0.098 A  
HETATM   39  C   UNL     1      -8.409   3.923  70.132  1.00  0.00    -0.083 A  
HETATM   40  C   UNL     1      -6.323   5.107  68.756  1.00  0.00    -0.035 A  
HETATM   41  C   UNL     1      -6.271   3.745  69.019  1.00  0.00    -0.028 A  
HETATM   42  C   UNL     1      -7.308   3.153  69.722  1.00  0.00    -0.044 A  
BRANCH  38  43
HETATM   43  C   UNL     1      -9.714   6.047  70.372  1.00  0.00    -0.206 A  
HETATM   44  C   UNL     1      -9.682   6.905  71.484  1.00  0.00    -0.164 A  
HETATM   45  C   UNL     1     -12.056   7.427  71.273  1.00  0.00    -0.359 A  
HETATM   46  C   UNL     1     -10.832   7.571  71.938  1.00  0.00    -0.264 A  
HETATM   47  C   UNL     1     -13.311   8.102  71.769  1.00  0.00    -0.345 C  
HETATM   48  C   UNL     1     -12.096   6.619  70.133  1.00  0.00    -0.121 A  
HETATM   49  C   UNL     1     -10.949   5.937  69.701  1.00  0.00    -0.447 A  
HETATM   50  F   UNL     1     -13.136   8.814  72.917  1.00  0.00    -0.441 F  
HETATM   51  F   UNL     1     -14.312   7.213  72.033  1.00  0.00    -0.454 F  
HETATM   52  F   UNL     1     -13.828   8.979  70.863  1.00  0.00    -0.271 F  
ENDBRANCH  38  43
ENDBRANCH  35  37
ENDBRANCH  28  33
ENDBRANCH  26  27
ENDBRANCH  25  26
ENDBRANCH  24  25
ENDBRANCH  23  24
ENDBRANCH  10  23
ENDBRANCH   7  10
ENDBRANCH   3   6
TORSDOF 10
ENDMDL
MODEL       44
REMARK 921   NORMALIZED FREE ENERGY PREDICTED BY IDOCK:   -6.58 KCAL/MOL
REMARK 922        TOTAL FREE ENERGY PREDICTED BY IDOCK:  -13.53 KCAL/MOL
REMARK 923 INTER-LIGAND FREE ENERGY PREDICTED BY IDOCK:  -11.00 KCAL/MOL
REMARK 924 INTRA-LIGAND FREE ENERGY PREDICTED BY IDOCK:   -2.53 KCAL/MOL
REMARK 927      BINDING AFFINITY PREDICTED BY RF-SCORE:    0.00 PKD
ROOT
HETATM    1  F   UNL     1      -7.252  12.634  69.056  1.00  0.00    -0.103 F  
HETATM    2  C   UNL     1      -6.056  13.011  69.559  1.00  0.00    -0.115 C  
HETATM    3  C   UNL     1      -5.672  14.444  69.155  1.00  0.00    -0.091 C  
HETATM    4  F   UNL     1      -5.133  12.109  69.163  1.00  0.00    -0.055 F  
HETATM    5  F   UNL     1      -6.150  12.921  70.910  1.00  0.00    -0.167 F  
ENDROOT
BRANCH   3   6
HETATM    6  N   UNL     1      -6.605  15.142  68.271  1.00  0.00    -0.102 N  
HETATM    7  C   UNL     1      -6.477  16.498  68.031  1.00  0.00    -0.134 C  
HETATM    8  H   UNL     1      -7.360  14.622  67.825  1.00  0.00     0.000 HD 
HETATM    9  O   UNL     1      -5.612  17.158  68.609  1.00  0.00    -0.132 OA 
BRANCH   7  10
HETATM   10  C   UNL     1      -7.468  17.113  67.011  1.00  0.00    -0.223 C  
HETATM   11  C   UNL     1      -6.776  18.100  66.060  1.00  0.00    -0.312 A  
HETATM   12  C   UNL     1     -10.285  19.955  68.530  1.00  0.00    -0.529 A  
HETATM   13  C   UNL     1      -5.777  17.842  65.129  1.00  0.00     0.078 A  
HETATM   14  C   UNL     1      -8.416  19.330  67.173  1.00  0.00    -0.310 A  
HETATM   15  C   UNL     1      -5.375  18.884  64.293  1.00  0.00    -0.263 A  
HETATM   16  C   UNL     1     -10.343  18.658  69.065  1.00  0.00    -0.039 A  
HETATM   17  C   UNL     1      -5.962  20.157  64.399  1.00  0.00    -0.313 A  
HETATM   18  C   UNL     1      -9.314  20.301  67.583  1.00  0.00    -0.481 A  
HETATM   19  C   UNL     1      -8.487  18.025  67.708  1.00  0.00    -0.247 A  
HETATM   20  C   UNL     1      -6.960  20.411  65.346  1.00  0.00    -0.249 A  
HETATM   21  C   UNL     1      -9.437  17.679  68.660  1.00  0.00    -0.284 A  
HETATM   22  C   UNL     1      -7.369  19.378  66.172  1.00  0.00    -0.288 A  
BRANCH  10  23
HETATM   23  C   UNL     1      -8.191  15.993  66.218  1.00  0.00    -0.220 C  
BRANCH  23  24
HETATM   24  C   UNL     1      -9.716  15.926  66.411  1.00  0.00    -0.310 C  
BRANCH  24  25
HETATM   25  C   UNL     1     -10.331  14.891  65.469  1.00  0.00    -0.388 C  
BRANCH  25  26
HETATM   26  C   UNL     1     -10.967  13.708  66.209  1.00  0.00    -0.299 C  
BRANCH  26  27
HETATM   27  N   UNL     1     -10.071  13.013  67.147  1.00  0.00    -0.241 NA 
HETATM   28  C   UNL     1      -9.849  10.173  66.322  1.00  0.00    -0.229 C  
HETATM   29  C   UNL     1      -9.149  11.304  65.561  1.00  0.00    -0.184 C  
HETATM   30  C   UNL     1     -11.055  10.700  67.110  1.00  0.00    -0.267 C  
HETATM   31  C   UNL     1     -10.712  11.948  67.926  1.00  0.00    -0.204 C  
HETATM   32  C   UNL     1      -8.873  12.502  66.467  1.00  0.00    -0.087 C  
BRANCH  28  33
HETATM   33  N   UNL     1      -8.917   9.455  67.188  1.00  0.00    -0.130 N  
HETATM   34  O   UNL     1      -9.437   7.366  66.368  1.00  0.00    -0.178 OA 
HETATM   35  C   UNL     1      -8.816   8.075  67.148  1.00  0.00    -0.131 C  
HETATM   36  H   UNL     1      -8.330   9.981  67.835  1.00  0.00     0.000 HD 
BRANCH  35  37
HETATM   37  C   UNL     1      -7.933   7.474  68.177  1.00  0.00    -0.123 A  
HETATM   38  C   UNL     1      -8.285   7.365  69.542  1.00  0.00    -0.131 A  
HETATM   39  C   UNL     1      -7.258   6.930  70.410  1.00  0.00    -0.076 A  
HETATM   40  C   UNL     1      -6.636   7.137  67.724  1.00  0.00    -0.053 A  
HETATM   41  C   UNL     1      -5.657   6.715  68.613  1.00  0.00    -0.017 A  
HETATM   42  C   UNL     1      -5.963   6.626  69.962  1.00  0.00    -0.023 A  
BRANCH  38  43
HETATM   43  C   UNL     1      -9.632   7.674  70.119  1.00  0.00    -0.168 A  
HETATM   44  C   UNL     1     -10.551   6.672  70.471  1.00  0.00    -0.270 A  
HETATM   45  C   UNL     1     -12.202   8.309  71.210  1.00  0.00    -0.295 A  
HETATM   46  C   UNL     1     -11.819   6.980  70.992  1.00  0.00    -0.395 A  
HETATM   47  C   UNL     1     -13.574   8.662  71.730  1.00  0.00    -0.403 C  
HETATM   48  C   UNL     1     -11.281   9.318  70.916  1.00  0.00    -0.372 A  
HETATM   49  C   UNL     1     -10.027   9.004  70.372  1.00  0.00    -0.244 A  
HETATM   50  F   UNL     1     -14.383   7.584  71.924  1.00  0.00    -0.431 F  
HETATM   51  F   UNL     1     -14.255   9.490  70.887  1.00  0.00    -0.302 F  
HETATM   52  F   UNL     1     -13.529   9.312  72.927  1.00  0.00    -0.468 F  
ENDBRANCH  38  43
ENDBRANCH  35  37
ENDBRANCH  28  33
ENDBRANCH  26  27
ENDBRANCH  25  26
ENDBRANCH  24  25
ENDBRANCH  23  24
ENDBRANCH  10  23
ENDBRANCH   7  10
ENDBRANCH   3   6
TORSDOF 10
ENDMDL
MODEL       45
REMARK 921   NORMALIZED FREE ENERGY PREDICTED BY IDOCK:   -6.57 KCAL/MOL
REMARK 922        TOTAL FREE ENERGY PREDICTED BY IDOCK:  -13.52 KCAL/MOL
REMARK 923 INTER-LIGAND FREE ENERGY PREDICTED BY IDOCK:   -9.83 KCAL/MOL
REMARK 924 INTRA-LIGAND FREE ENERGY PREDICTED BY IDOCK:   -3.69 KCAL/MOL
REMARK 927      BINDING AFFINITY PREDICTED BY RF-SCORE:    0.00 PKD
ROOT
HETATM    1  F   UNL     1     -10.545   3.649  64.288  1.00  0.00    -0.214 F  
HETATM    2  C   UNL     1      -9.772   2.652  63.804  1.00  0.00    -0.135 C  
HETATM    3  C   UNL     1      -8.412   2.560  64.514  1.00  0.00    -0.088 C  
HETATM    4  F   UNL     1      -9.635   2.839  62.473  1.00  0.00    -0.093 F  
HETATM    5  F   UNL     1     -10.463   1.497  63.976  1.00  0.00    -0.109 F  
ENDROOT
BRANCH   3   6
HETATM    6  N   UNL     1      -8.146   3.567  65.541  1.00  0.00    -0.093 N  
HETATM    7  C   UNL     1      -7.228   4.577  65.325  1.00  0.00    -0.068 C  
HETATM    8  H   UNL     1      -8.645   3.523  66.430  1.00  0.00     0.000 HD 
HETATM    9  O   UNL     1      -6.568   4.612  64.286  1.00  0.00    -0.040 OA 
BRANCH   7  10
HETATM   10  C   UNL     1      -7.091   5.636  66.448  1.00  0.00    -0.072 C  
HETATM   11  C   UNL     1      -6.800   4.994  67.812  1.00  0.00    -0.060 A  
HETATM   12  C   UNL     1     -10.685   7.593  67.704  1.00  0.00    -0.246 A  
HETATM   13  C   UNL     1      -5.689   4.255  68.196  1.00  0.00    -0.021 A  
HETATM   14  C   UNL     1      -8.806   6.158  68.070  1.00  0.00    -0.111 A  
HETATM   15  C   UNL     1      -5.592   3.861  69.531  1.00  0.00    -0.017 A  
HETATM   16  C   UNL     1     -10.312   7.756  66.360  1.00  0.00     0.066 A  
HETATM   17  C   UNL     1      -6.597   4.199  70.454  1.00  0.00    -0.032 A  
HETATM   18  C   UNL     1      -9.936   6.785  68.567  1.00  0.00    -0.149 A  
HETATM   19  C   UNL     1      -8.431   6.334  66.719  1.00  0.00    -0.111 A  
HETATM   20  C   UNL     1      -7.719   4.935  70.057  1.00  0.00    -0.059 A  
HETATM   21  C   UNL     1      -9.179   7.120  65.853  1.00  0.00     0.003 A  
HETATM   22  C   UNL     1      -7.815   5.336  68.735  1.00  0.00    -0.083 A  
BRANCH  10  23
HETATM   23  C   UNL     1      -5.999   6.675  66.080  1.00  0.00    -0.033 C  
BRANCH  23  24
HETATM   24  C   UNL     1      -6.360   8.142  66.374  1.00  0.00    -0.050 C  
BRANCH  24  25
HETATM   25  C   UNL     1      -5.818   8.564  67.740  1.00  0.00    -0.043 C  
BRANCH  25  26
HETATM   26  C   UNL     1      -5.847  10.082  67.956  1.00  0.00    -0.038 C  
BRANCH  26  27
HETATM   27  N   UNL     1      -6.665  10.528  69.094  1.00  0.00    -0.062 NA 
HETATM   28  C   UNL     1      -9.065  11.924  68.051  1.00  0.00    -0.189 C  
HETATM   29  C   UNL     1      -8.913  10.400  67.991  1.00  0.00    -0.129 C  
HETATM   30  C   UNL     1      -7.698  12.613  68.141  1.00  0.00    -0.142 C  
HETATM   31  C   UNL     1      -6.804  11.984  69.212  1.00  0.00    -0.066 C  
HETATM   32  C   UNL     1      -7.987   9.886  69.091  1.00  0.00    -0.112 C  
BRANCH  28  33
HETATM   33  N   UNL     1      -9.942  12.331  69.144  1.00  0.00    -0.373 N  
HETATM   34  O   UNL     1     -11.889  11.660  68.112  1.00  0.00    -0.481 OA 
HETATM   35  C   UNL     1     -11.316  12.182  69.059  1.00  0.00    -0.276 C  
HETATM   36  H   UNL     1      -9.535  12.734  69.988  1.00  0.00     0.000 HD 
BRANCH  35  37
HETATM   37  C   UNL     1     -12.088  12.764  70.183  1.00  0.00    -0.370 A  
HETATM   38  C   UNL     1     -12.651  11.994  71.227  1.00  0.00    -0.357 A  
HETATM   39  C   UNL     1     -13.503  12.689  72.115  1.00  0.00    -0.561 A  
HETATM   40  C   UNL     1     -12.351  14.149  70.069  1.00  0.00    -0.403 A  
HETATM   41  C   UNL     1     -13.195  14.792  70.964  1.00  0.00    -0.435 A  
HETATM   42  C   UNL     1     -13.785  14.058  71.981  1.00  0.00    -0.569 A  
BRANCH  38  43
HETATM   43  C   UNL     1     -12.418  10.532  71.449  1.00  0.00    -0.516 A  
HETATM   44  C   UNL     1     -13.447   9.651  71.821  1.00  0.00    -0.477 A  
HETATM   45  C   UNL     1     -11.929   7.742  71.873  1.00  0.00    -0.340 A  
HETATM   46  C   UNL     1     -13.208   8.285  72.045  1.00  0.00    -0.342 A  
HETATM   47  C   UNL     1     -11.644   6.286  72.149  1.00  0.00    -0.319 C  
HETATM   48  C   UNL     1     -10.903   8.593  71.452  1.00  0.00    -0.339 A  
HETATM   49  C   UNL     1     -11.144   9.960  71.255  1.00  0.00    -0.302 A  
HETATM   50  F   UNL     1     -12.723   5.590  72.602  1.00  0.00    -0.229 F  
HETATM   51  F   UNL     1     -10.670   6.114  73.089  1.00  0.00    -0.220 F  
HETATM   52  F   UNL     1     -11.208   5.620  71.043  1.00  0.00    -0.327 F  
ENDBRANCH  38  43
ENDBRANCH  35  37
ENDBRANCH  28  33
ENDBRANCH  26  27
ENDBRANCH  25  26
ENDBRANCH  24  25
ENDBRANCH  23  24
ENDBRANCH  10  23
ENDBRANCH   7  10
ENDBRANCH   3   6
TORSDOF 10
ENDMDL
MODEL       46
REMARK 921   NORMALIZED FREE ENERGY PREDICTED BY IDOCK:   -6.56 KCAL/MOL
REMARK 922        TOTAL FREE ENERGY PREDICTED BY IDOCK:  -13.49 KCAL/MOL
REMARK 923 INTER-LIGAND FREE ENERGY PREDICTED BY IDOCK:  -10.89 KCAL/MOL
REMARK 924 INTRA-LIGAND FREE ENERGY PREDICTED BY IDOCK:   -2.60 KCAL/MOL
REMARK 927      BINDING AFFINITY PREDICTED BY RF-SCORE:    0.00 PKD
ROOT
HETATM    1  F   UNL     1      -6.309  11.998  67.546  1.00  0.00    -0.068 F  
HETATM    2  C   UNL     1      -6.365  10.896  68.327  1.00  0.00    -0.056 C  
HETATM    3  C   UNL     1      -7.681  10.796  69.114  1.00  0.00    -0.138 C  
HETATM    4  F   UNL     1      -5.288  10.906  69.142  1.00  0.00    -0.042 F  
HETATM    5  F   UNL     1      -6.234   9.824  67.505  1.00  0.00    -0.056 F  
ENDROOT
BRANCH   3   6
HETATM    6  N   UNL     1      -8.625  11.902  68.946  1.00  0.00    -0.369 N  
HETATM    7  C   UNL     1      -9.443  11.975  67.835  1.00  0.00    -0.196 C  
HETATM    8  H   UNL     1      -8.679  12.629  69.659  1.00  0.00     0.000 HD 
HETATM    9  O   UNL     1      -9.349  11.144  66.931  1.00  0.00    -0.171 OA 
BRANCH   7  10
HETATM   10  C   UNL     1     -10.462  13.142  67.806  1.00  0.00    -0.232 C  
HETATM   11  C   UNL     1     -11.143  13.278  66.436  1.00  0.00    -0.313 A  
HETATM   12  C   UNL     1      -8.855  17.109  67.830  1.00  0.00    -0.225 A  
HETATM   13  C   UNL     1     -11.972  12.368  65.793  1.00  0.00    -0.437 A  
HETATM   14  C   UNL     1     -10.054  15.307  66.811  1.00  0.00    -0.262 A  
HETATM   15  C   UNL     1     -12.567  12.757  64.592  1.00  0.00    -0.491 A  
HETATM   16  C   UNL     1      -8.554  16.297  68.935  1.00  0.00    -0.260 A  
HETATM   17  C   UNL     1     -12.325  14.031  64.051  1.00  0.00    -0.341 A  
HETATM   18  C   UNL     1      -9.603  16.615  66.755  1.00  0.00    -0.270 A  
HETATM   19  C   UNL     1      -9.756  14.499  67.931  1.00  0.00    -0.218 A  
HETATM   20  C   UNL     1     -11.482  14.939  64.700  1.00  0.00    -0.380 A  
HETATM   21  C   UNL     1      -9.000  14.978  68.992  1.00  0.00    -0.205 A  
HETATM   22  C   UNL     1     -10.895  14.561  65.896  1.00  0.00    -0.308 A  
BRANCH  10  23
HETATM   23  C   UNL     1     -11.514  12.968  68.933  1.00  0.00    -0.345 C  
BRANCH  23  24
HETATM   24  C   UNL     1     -11.930  11.516  69.228  1.00  0.00    -0.397 C  
BRANCH  24  25
HETATM   25  C   UNL     1     -11.952  11.262  70.736  1.00  0.00    -0.383 C  
BRANCH  25  26
HETATM   26  C   UNL     1     -12.521   9.886  71.105  1.00  0.00    -0.368 C  
BRANCH  26  27
HETATM   27  N   UNL     1     -11.667   8.746  70.735  1.00  0.00    -0.258 NA 
HETATM   28  C   UNL     1     -10.528   7.570  73.207  1.00  0.00    -0.371 C  
HETATM   29  C   UNL     1     -11.992   7.369  72.804  1.00  0.00    -0.017 C  
HETATM   30  C   UNL     1      -9.946   8.836  72.566  1.00  0.00    -0.122 C  
HETATM   31  C   UNL     1     -10.248   8.914  71.067  1.00  0.00    -0.254 C  
HETATM   32  C   UNL     1     -12.179   7.487  71.293  1.00  0.00    -0.329 C  
BRANCH  28  33
HETATM   33  N   UNL     1      -9.721   6.393  72.896  1.00  0.00    -0.157 N  
HETATM   34  O   UNL     1      -7.914   7.034  74.173  1.00  0.00    -0.107 OA 
HETATM   35  C   UNL     1      -8.441   6.244  73.401  1.00  0.00    -0.122 C  
HETATM   36  H   UNL     1     -10.109   5.667  72.295  1.00  0.00     0.000 HD 
BRANCH  35  37
HETATM   37  C   UNL     1      -7.690   5.071  72.891  1.00  0.00    -0.097 A  
HETATM   38  C   UNL     1      -7.785   4.600  71.562  1.00  0.00    -0.083 A  
HETATM   39  C   UNL     1      -7.142   3.370  71.296  1.00  0.00    -0.033 A  
HETATM   40  C   UNL     1      -6.966   4.357  73.873  1.00  0.00    -0.066 A  
HETATM   41  C   UNL     1      -6.349   3.152  73.569  1.00  0.00    -0.023 A  
HETATM   42  C   UNL     1      -6.449   2.648  72.281  1.00  0.00    -0.014 A  
BRANCH  38  43
HETATM   43  C   UNL     1      -8.506   5.290  70.445  1.00  0.00    -0.116 A  
HETATM   44  C   UNL     1      -9.746   4.846  69.957  1.00  0.00    -0.285 A  
HETATM   45  C   UNL     1      -9.847   6.634  68.301  1.00  0.00    -0.137 A  
HETATM   46  C   UNL     1     -10.399   5.493  68.895  1.00  0.00    -0.289 A  
HETATM   47  C   UNL     1     -10.512   7.319  67.132  1.00  0.00    -0.324 C  
HETATM   48  C   UNL     1      -8.640   7.123  68.808  1.00  0.00    -0.125 A  
HETATM   49  C   UNL     1      -7.981   6.456  69.851  1.00  0.00    -0.116 A  
HETATM   50  F   UNL     1     -11.653   6.704  66.712  1.00  0.00    -0.407 F  
HETATM   51  F   UNL     1      -9.702   7.388  66.037  1.00  0.00    -0.170 F  
HETATM   52  F   UNL     1     -10.864   8.606  67.412  1.00  0.00    -0.341 F  
ENDBRANCH  38  43
ENDBRANCH  35  37
ENDBRANCH  28  33
ENDBRANCH  26  27
ENDBRANCH  25  26
ENDBRANCH  24  25
ENDBRANCH  23  24
ENDBRANCH  10  23
ENDBRANCH   7  10
ENDBRANCH   3   6
TORSDOF 10
ENDMDL
MODEL       47
REMARK 921   NORMALIZED FREE ENERGY PREDICTED BY IDOCK:   -6.52 KCAL/MOL
REMARK 922        TOTAL FREE ENERGY PREDICTED BY IDOCK:  -13.43 KCAL/MOL
REMARK 923 INTER-LIGAND FREE ENERGY PREDICTED BY IDOCK:  -10.87 KCAL/MOL
REMARK 924 INTRA-LIGAND FREE ENERGY PREDICTED BY IDOCK:   -2.56 KCAL/MOL
REMARK 927      BINDING AFFINITY PREDICTED BY RF-SCORE:    0.00 PKD
ROOT
HETATM    1  F   UNL     1     -11.407   4.131  64.528  1.00  0.00    -0.330 F  
HETATM    2  C   UNL     1     -10.701   3.360  63.672  1.00  0.00    -0.255 C  
HETATM    3  C   UNL     1      -9.321   2.973  64.226  1.00  0.00    -0.138 C  
HETATM    4  F   UNL     1     -10.608   4.019  62.497  1.00  0.00    -0.181 F  
HETATM    5  F   UNL     1     -11.439   2.244  63.446  1.00  0.00    -0.265 F  
ENDROOT
BRANCH   3   6
HETATM    6  N   UNL     1      -8.968   3.524  65.535  1.00  0.00    -0.135 N  
HETATM    7  C   UNL     1      -7.969   4.471  65.661  1.00  0.00    -0.095 C  
HETATM    8  H   UNL     1      -9.466   3.204  66.365  1.00  0.00     0.000 HD 
HETATM    9  O   UNL     1      -7.312   4.823  64.681  1.00  0.00    -0.065 OA 
BRANCH   7  10
HETATM   10  C   UNL     1      -7.741   5.045  67.082  1.00  0.00    -0.092 C  
HETATM   11  C   UNL     1      -7.302   3.961  68.077  1.00  0.00    -0.062 A  
HETATM   12  C   UNL     1     -11.227   6.198  69.282  1.00  0.00    -0.438 A  
HETATM   13  C   UNL     1      -6.144   3.195  68.061  1.00  0.00    -0.028 A  
HETATM   14  C   UNL     1      -9.294   4.835  68.922  1.00  0.00    -0.190 A  
HETATM   15  C   UNL     1      -5.907   2.341  69.139  1.00  0.00    -0.023 A  
HETATM   16  C   UNL     1     -10.994   6.866  68.069  1.00  0.00    -0.241 A  
HETATM   17  C   UNL     1      -6.821   2.257  70.203  1.00  0.00    -0.033 A  
HETATM   18  C   UNL     1     -10.380   5.170  69.713  1.00  0.00    -0.332 A  
HETATM   19  C   UNL     1      -9.060   5.518  67.708  1.00  0.00    -0.107 A  
HETATM   20  C   UNL     1      -7.990   3.025  70.208  1.00  0.00    -0.051 A  
HETATM   21  C   UNL     1      -9.906   6.526  67.266  1.00  0.00    -0.175 A  
HETATM   22  C   UNL     1      -8.226   3.881  69.145  1.00  0.00    -0.072 A  
BRANCH  10  23
HETATM   23  C   UNL     1      -6.711   6.204  67.037  1.00  0.00    -0.061 C  
BRANCH  23  24
HETATM   24  C   UNL     1      -7.313   7.617  66.924  1.00  0.00    -0.090 C  
BRANCH  24  25
HETATM   25  C   UNL     1      -6.656   8.560  67.933  1.00  0.00    -0.061 C  
BRANCH  25  26
HETATM   26  C   UNL     1      -6.791  10.039  67.548  1.00  0.00    -0.081 C  
BRANCH  26  27
HETATM   27  N   UNL     1      -7.244  10.920  68.635  1.00  0.00    -0.082 NA 
HETATM   28  C   UNL     1     -10.117  11.532  68.229  1.00  0.00    -0.199 C  
HETATM   29  C   UNL     1      -9.633  10.168  68.734  1.00  0.00    -0.170 C  
HETATM   30  C   UNL     1      -9.013  12.257  67.450  1.00  0.00    -0.183 C  
HETATM   31  C   UNL     1      -7.679  12.252  68.199  1.00  0.00    -0.138 C  
HETATM   32  C   UNL     1      -8.288  10.280  69.447  1.00  0.00    -0.161 C  
BRANCH  28  33
HETATM   33  N   UNL     1     -10.630  12.355  69.321  1.00  0.00    -0.432 N  
HETATM   34  O   UNL     1     -12.285  13.355  68.069  1.00  0.00    -0.289 OA 
HETATM   35  C   UNL     1     -11.679  13.236  69.126  1.00  0.00    -0.329 C  
HETATM   36  H   UNL     1     -10.205  12.279  70.245  1.00  0.00     0.000 HD 
BRANCH  35  37
HETATM   37  C   UNL     1     -12.002  14.105  70.284  1.00  0.00    -0.404 A  
HETATM   38  C   UNL     1     -11.384  15.354  70.520  1.00  0.00    -0.351 A  
HETATM   39  C   UNL     1     -11.680  15.964  71.760  1.00  0.00    -0.575 A  
HETATM   40  C   UNL     1     -12.882  13.531  71.230  1.00  0.00    -0.420 A  
HETATM   41  C   UNL     1     -13.145  14.165  72.436  1.00  0.00    -0.525 A  
HETATM   42  C   UNL     1     -12.531  15.377  72.710  1.00  0.00    -0.502 A  
BRANCH  38  43
HETATM   43  C   UNL     1     -10.457  16.057  69.576  1.00  0.00    -0.286 A  
HETATM   44  C   UNL     1     -10.861  17.150  68.794  1.00  0.00    -0.211 A  
HETATM   45  C   UNL     1      -8.654  17.365  67.777  1.00  0.00    -0.227 A  
HETATM   46  C   UNL     1      -9.984  17.785  67.899  1.00  0.00    -0.322 A  
HETATM   47  C   UNL     1      -7.708  18.007  66.791  1.00  0.00    -0.225 C  
HETATM   48  C   UNL     1      -8.219  16.312  68.586  1.00  0.00    -0.214 A  
HETATM   49  C   UNL     1      -9.106  15.667  69.458  1.00  0.00    -0.240 A  
HETATM   50  F   UNL     1      -8.282  18.983  66.035  1.00  0.00    -0.297 F  
HETATM   51  F   UNL     1      -7.188  17.109  65.906  1.00  0.00    -0.303 F  
HETATM   52  F   UNL     1      -6.636  18.589  67.399  1.00  0.00    -0.188 F  
ENDBRANCH  38  43
ENDBRANCH  35  37
ENDBRANCH  28  33
ENDBRANCH  26  27
ENDBRANCH  25  26
ENDBRANCH  24  25
ENDBRANCH  23  24
ENDBRANCH  10  23
ENDBRANCH   7  10
ENDBRANCH   3   6
TORSDOF 10
ENDMDL
MODEL       48
REMARK 921   NORMALIZED FREE ENERGY PREDICTED BY IDOCK:   -6.43 KCAL/MOL
REMARK 922        TOTAL FREE ENERGY PREDICTED BY IDOCK:  -13.30 KCAL/MOL
REMARK 923 INTER-LIGAND FREE ENERGY PREDICTED BY IDOCK:  -10.05 KCAL/MOL
REMARK 924 INTRA-LIGAND FREE ENERGY PREDICTED BY IDOCK:   -3.25 KCAL/MOL
REMARK 927      BINDING AFFINITY PREDICTED BY RF-SCORE:    0.00 PKD
ROOT
HETATM    1  F   UNL     1     -10.878  10.909  65.054  1.00  0.00    -0.344 F  
HETATM    2  C   UNL     1     -11.134  11.631  63.941  1.00  0.00    -0.401 C  
HETATM    3  C   UNL     1     -10.599  13.068  64.034  1.00  0.00    -0.344 C  
HETATM    4  F   UNL     1     -12.466  11.600  63.720  1.00  0.00    -0.495 F  
HETATM    5  F   UNL     1     -10.542  10.983  62.906  1.00  0.00    -0.306 F  
ENDROOT
BRANCH   3   6
HETATM    6  N   UNL     1      -9.960  13.444  65.295  1.00  0.00    -0.505 N  
HETATM    7  C   UNL     1     -10.570  14.327  66.166  1.00  0.00    -0.293 C  
HETATM    8  H   UNL     1      -9.051  13.049  65.535  1.00  0.00     0.000 HD 
HETATM    9  O   UNL     1     -11.637  14.866  65.866  1.00  0.00    -0.324 OA 
BRANCH   7  10
HETATM   10  C   UNL     1      -9.842  14.585  67.509  1.00  0.00    -0.222 C  
HETATM   11  C   UNL     1      -9.584  16.080  67.746  1.00  0.00    -0.219 A  
HETATM   12  C   UNL     1      -5.721  13.447  67.719  1.00  0.00    -0.112 A  
HETATM   13  C   UNL     1     -10.514  17.099  67.907  1.00  0.00    -0.369 A  
HETATM   14  C   UNL     1      -7.483  15.065  67.730  1.00  0.00    -0.175 A  
HETATM   15  C   UNL     1     -10.042  18.374  68.223  1.00  0.00    -0.410 A  
HETATM   16  C   UNL     1      -6.648  12.425  67.460  1.00  0.00    -0.147 A  
HETATM   17  C   UNL     1      -8.665  18.615  68.364  1.00  0.00    -0.361 A  
HETATM   18  C   UNL     1      -6.134  14.778  67.849  1.00  0.00    -0.167 A  
HETATM   19  C   UNL     1      -8.411  14.030  67.480  1.00  0.00    -0.201 A  
HETATM   20  C   UNL     1      -7.734  17.585  68.192  1.00  0.00    -0.231 A  
HETATM   21  C   UNL     1      -8.007  12.710  67.333  1.00  0.00    -0.177 A  
HETATM   22  C   UNL     1      -8.197  16.317  67.887  1.00  0.00    -0.156 A  
BRANCH  10  23
HETATM   23  C   UNL     1     -10.643  13.967  68.685  1.00  0.00    -0.263 C  
BRANCH  23  24
HETATM   24  C   UNL     1     -11.905  13.183  68.282  1.00  0.00    -0.384 C  
BRANCH  24  25
HETATM   25  C   UNL     1     -11.594  11.691  68.164  1.00  0.00    -0.389 C  
BRANCH  25  26
HETATM   26  C   UNL     1     -11.090  11.077  69.476  1.00  0.00    -0.263 C  
BRANCH  26  27
HETATM   27  N   UNL     1      -9.819  10.342  69.365  1.00  0.00    -0.225 NA 
HETATM   28  C   UNL     1     -10.413   7.445  69.145  1.00  0.00    -0.213 C  
HETATM   29  C   UNL     1     -10.638   8.418  67.983  1.00  0.00    -0.191 C  
HETATM   30  C   UNL     1     -10.429   8.178  70.491  1.00  0.00    -0.222 C  
HETATM   31  C   UNL     1      -9.545   9.428  70.479  1.00  0.00    -0.271 C  
HETATM   32  C   UNL     1      -9.719   9.633  68.082  1.00  0.00    -0.146 C  
BRANCH  28  33
HETATM   33  N   UNL     1      -9.184   6.677  68.969  1.00  0.00    -0.132 N  
HETATM   34  O   UNL     1     -10.196   4.901  67.908  1.00  0.00    -0.123 OA 
HETATM   35  C   UNL     1      -9.194   5.427  68.374  1.00  0.00    -0.111 C  
HETATM   36  H   UNL     1      -8.299   7.070  69.291  1.00  0.00     0.000 HD 
BRANCH  35  37
HETATM   37  C   UNL     1      -7.898   4.707  68.387  1.00  0.00    -0.080 A  
HETATM   38  C   UNL     1      -6.790   5.078  67.591  1.00  0.00    -0.060 A  
HETATM   39  C   UNL     1      -5.700   4.178  67.597  1.00  0.00    -0.022 A  
HETATM   40  C   UNL     1      -7.885   3.521  69.158  1.00  0.00    -0.053 A  
HETATM   41  C   UNL     1      -6.793   2.666  69.133  1.00  0.00    -0.037 A  
HETATM   42  C   UNL     1      -5.702   2.987  68.339  1.00  0.00    -0.022 A  
BRANCH  38  43
HETATM   43  C   UNL     1      -6.694   6.319  66.760  1.00  0.00    -0.061 A  
HETATM   44  C   UNL     1      -5.784   7.350  67.043  1.00  0.00    -0.030 A  
HETATM   45  C   UNL     1      -6.551   8.683  65.149  1.00  0.00    -0.064 A  
HETATM   46  C   UNL     1      -5.721   8.518  66.265  1.00  0.00    -0.043 A  
HETATM   47  C   UNL     1      -6.528   9.947  64.325  1.00  0.00    -0.126 C  
HETATM   48  C   UNL     1      -7.427   7.645  64.820  1.00  0.00    -0.094 A  
HETATM   49  C   UNL     1      -7.502   6.493  65.616  1.00  0.00    -0.082 A  
HETATM   50  F   UNL     1      -5.665  10.891  64.791  1.00  0.00    -0.137 F  
HETATM   51  F   UNL     1      -7.748  10.554  64.266  1.00  0.00    -0.149 F  
HETATM   52  F   UNL     1      -6.167   9.720  63.030  1.00  0.00    -0.096 F  
ENDBRANCH  38  43
ENDBRANCH  35  37
ENDBRANCH  28  33
ENDBRANCH  26  27
ENDBRANCH  25  26
ENDBRANCH  24  25
ENDBRANCH  23  24
ENDBRANCH  10  23
ENDBRANCH   7  10
ENDBRANCH   3   6
TORSDOF 10
ENDMDL
MODEL       49
REMARK 921   NORMALIZED FREE ENERGY PREDICTED BY IDOCK:   -6.39 KCAL/MOL
REMARK 922        TOTAL FREE ENERGY PREDICTED BY IDOCK:  -13.23 KCAL/MOL
REMARK 923 INTER-LIGAND FREE ENERGY PREDICTED BY IDOCK:  -12.03 KCAL/MOL
REMARK 924 INTRA-LIGAND FREE ENERGY PREDICTED BY IDOCK:   -1.20 KCAL/MOL
REMARK 927      BINDING AFFINITY PREDICTED BY RF-SCORE:    0.00 PKD
ROOT
HETATM    1  F   UNL     1     -11.516  10.571  71.257  1.00  0.00    -0.387 F  
HETATM    2  C   UNL     1     -12.751  10.031  71.359  1.00  0.00    -0.415 C  
HETATM    3  C   UNL     1     -12.715   8.506  71.541  1.00  0.00    -0.313 C  
HETATM    4  F   UNL     1     -13.457  10.393  70.267  1.00  0.00    -0.316 F  
HETATM    5  F   UNL     1     -13.347  10.611  72.431  1.00  0.00    -0.522 F  
ENDROOT
BRANCH   3   6
HETATM    6  N   UNL     1     -11.392   7.880  71.524  1.00  0.00    -0.251 N  
HETATM    7  C   UNL     1     -11.084   6.894  70.605  1.00  0.00    -0.278 C  
HETATM    8  H   UNL     1     -10.687   8.175  72.199  1.00  0.00     0.000 HD 
HETATM    9  O   UNL     1     -11.940   6.477  69.823  1.00  0.00    -0.277 OA 
BRANCH   7  10
HETATM   10  C   UNL     1      -9.628   6.366  70.624  1.00  0.00    -0.186 C  
HETATM   11  C   UNL     1      -9.521   4.952  70.034  1.00  0.00    -0.234 A  
HETATM   12  C   UNL     1      -8.006   5.311  74.442  1.00  0.00    -0.102 A  
HETATM   13  C   UNL     1      -9.791   4.538  68.736  1.00  0.00    -0.180 A  
HETATM   14  C   UNL     1      -8.753   4.786  72.231  1.00  0.00    -0.125 A  
HETATM   15  C   UNL     1      -9.516   3.212  68.399  1.00  0.00    -0.211 A  
HETATM   16  C   UNL     1      -8.402   6.647  74.269  1.00  0.00    -0.151 A  
HETATM   17  C   UNL     1      -8.988   2.324  69.352  1.00  0.00    -0.163 A  
HETATM   18  C   UNL     1      -8.187   4.368  73.423  1.00  0.00    -0.095 A  
HETATM   19  C   UNL     1      -9.140   6.134  72.060  1.00  0.00    -0.143 A  
HETATM   20  C   UNL     1      -8.728   2.746  70.660  1.00  0.00    -0.128 A  
HETATM   21  C   UNL     1      -8.980   7.070  73.073  1.00  0.00    -0.154 A  
HETATM   22  C   UNL     1      -8.991   4.063  70.997  1.00  0.00    -0.163 A  
BRANCH  10  23
HETATM   23  C   UNL     1      -8.687   7.349  69.880  1.00  0.00    -0.141 C  
BRANCH  23  24
HETATM   24  C   UNL     1      -9.270   7.979  68.602  1.00  0.00    -0.143 C  
BRANCH  24  25
HETATM   25  C   UNL     1      -8.976   9.479  68.563  1.00  0.00    -0.128 C  
BRANCH  25  26
HETATM   26  C   UNL     1     -10.235  10.342  68.718  1.00  0.00    -0.192 C  
BRANCH  26  27
HETATM   27  N   UNL     1     -10.345  11.450  67.756  1.00  0.00    -0.178 NA 
HETATM   28  C   UNL     1     -10.754  13.974  69.258  1.00  0.00    -0.115 C  
HETATM   29  C   UNL     1      -9.396  13.269  69.197  1.00  0.00     0.573 C  
HETATM   30  C   UNL     1     -11.901  12.991  68.993  1.00  0.00    -0.362 C  
HETATM   31  C   UNL     1     -11.646  12.128  67.754  1.00  0.00    -0.342 C  
HETATM   32  C   UNL     1      -9.259  12.425  67.932  1.00  0.00    -0.192 C  
BRANCH  28  33
HETATM   33  N   UNL     1     -10.807  15.115  68.348  1.00  0.00    -0.246 N  
HETATM   34  O   UNL     1      -9.276  16.382  69.512  1.00  0.00    -0.137 OA 
HETATM   35  C   UNL     1     -10.061  16.257  68.582  1.00  0.00    -0.233 C  
HETATM   36  H   UNL     1     -11.405  15.069  67.523  1.00  0.00     0.000 HD 
BRANCH  35  37
HETATM   37  C   UNL     1     -10.319  17.384  67.653  1.00  0.00    -0.355 A  
HETATM   38  C   UNL     1     -10.546  17.219  66.268  1.00  0.00    -0.184 A  
HETATM   39  C   UNL     1     -10.597  18.408  65.505  1.00  0.00     0.025 A  
HETATM   40  C   UNL     1     -10.183  18.670  68.226  1.00  0.00    -0.423 A  
HETATM   41  C   UNL     1     -10.239  19.811  67.440  1.00  0.00    -0.575 A  
HETATM   42  C   UNL     1     -10.431  19.681  66.073  1.00  0.00    -0.622 A  
BRANCH  38  43
HETATM   43  C   UNL     1     -10.726  15.907  65.568  1.00  0.00    -0.386 A  
HETATM   44  C   UNL     1     -11.901  15.577  64.872  1.00  0.00    -0.028 A  
HETATM   45  C   UNL     1     -11.033  13.383  64.250  1.00  0.00    -0.391 A  
HETATM   46  C   UNL     1     -12.061  14.334  64.238  1.00  0.00    -0.467 A  
HETATM   47  C   UNL     1     -11.202  12.027  63.611  1.00  0.00    -0.450 C  
HETATM   48  C   UNL     1      -9.837  13.714  64.893  1.00  0.00    -0.039 A  
HETATM   49  C   UNL     1      -9.694  14.947  65.545  1.00  0.00    -0.275 A  
HETATM   50  F   UNL     1     -12.435  11.824  63.069  1.00  0.00    -0.605 F  
HETATM   51  F   UNL     1     -11.012  11.006  64.495  1.00  0.00    -0.398 F  
HETATM   52  F   UNL     1     -10.312  11.810  62.602  1.00  0.00    -0.226 F  
ENDBRANCH  38  43
ENDBRANCH  35  37
ENDBRANCH  28  33
ENDBRANCH  26  27
ENDBRANCH  25  26
ENDBRANCH  24  25
ENDBRANCH  23  24
ENDBRANCH  10  23
ENDBRANCH   7  10
ENDBRANCH   3   6
TORSDOF 10
ENDMDL
MODEL       50
REMARK 921   NORMALIZED FREE ENERGY PREDICTED BY IDOCK:   -6.30 KCAL/MOL
REMARK 922        TOTAL FREE ENERGY PREDICTED BY IDOCK:  -13.09 KCAL/MOL
REMARK 923 INTER-LIGAND FREE ENERGY PREDICTED BY IDOCK:  -11.04 KCAL/MOL
REMARK 924 INTRA-LIGAND FREE ENERGY PREDICTED BY IDOCK:   -2.04 KCAL/MOL
REMARK 927      BINDING AFFINITY PREDICTED BY RF-SCORE:    0.00 PKD
ROOT
HETATM    1  F   UNL     1     -13.005  12.283  70.373  1.00  0.00    -0.082 F  
HETATM    2  C   UNL     1     -12.658  11.067  70.848  1.00  0.00    -0.391 C  
HETATM    3  C   UNL     1     -11.307  10.581  70.297  1.00  0.00    -0.327 C  
HETATM    4  F   UNL     1     -13.658  10.206  70.564  1.00  0.00    -0.386 F  
HETATM    5  F   UNL     1     -12.595  11.174  72.199  1.00  0.00    -0.360 F  
ENDROOT
BRANCH   3   6
HETATM    6  N   UNL     1     -10.646  11.458  69.330  1.00  0.00    -0.424 N  
HETATM    7  C   UNL     1     -10.876  11.322  67.974  1.00  0.00    -0.218 C  
HETATM    8  H   UNL     1     -10.007  12.180  69.662  1.00  0.00     0.000 HD 
HETATM    9  O   UNL     1     -11.594  10.417  67.548  1.00  0.00    -0.343 OA 
BRANCH   7  10
HETATM   10  C   UNL     1     -10.190  12.361  67.052  1.00  0.00    -0.232 C  
HETATM   11  C   UNL     1     -10.207  13.771  67.661  1.00  0.00    -0.242 A  
HETATM   12  C   UNL     1     -12.284  13.458  63.484  1.00  0.00    -0.468 A  
HETATM   13  C   UNL     1      -9.597  14.213  68.827  1.00  0.00    -0.122 A  
HETATM   14  C   UNL     1     -11.357  13.935  65.637  1.00  0.00    -0.310 A  
HETATM   15  C   UNL     1      -9.660  15.574  69.126  1.00  0.00    -0.253 A  
HETATM   16  C   UNL     1     -11.930  12.106  63.620  1.00  0.00    -0.628 A  
HETATM   17  C   UNL     1     -10.329  16.466  68.271  1.00  0.00    -0.279 A  
HETATM   18  C   UNL     1     -12.005  14.381  64.498  1.00  0.00    -0.487 A  
HETATM   19  C   UNL     1     -10.993  12.576  65.762  1.00  0.00    -0.327 A  
HETATM   20  C   UNL     1     -10.949  16.013  67.102  1.00  0.00    -0.183 A  
HETATM   21  C   UNL     1     -11.283  11.651  64.769  1.00  0.00    -0.300 A  
HETATM   22  C   UNL     1     -10.882  14.664  66.797  1.00  0.00    -0.312 A  
BRANCH  10  23
HETATM   23  C   UNL     1      -8.740  11.917  66.724  1.00  0.00    -0.193 C  
BRANCH  23  24
HETATM   24  C   UNL     1      -8.195  10.760  67.581  1.00  0.00    -0.115 C  
BRANCH  24  25
HETATM   25  C   UNL     1      -7.719   9.612  66.690  1.00  0.00    -0.098 C  
BRANCH  25  26
HETATM   26  C   UNL     1      -8.840   8.630  66.326  1.00  0.00    -0.157 C  
BRANCH  26  27
HETATM   27  N   UNL     1      -8.707   7.292  66.924  1.00  0.00    -0.122 NA 
HETATM   28  C   UNL     1     -10.607   7.070  69.189  1.00  0.00    -0.219 C  
HETATM   29  C   UNL     1     -11.066   7.023  67.728  1.00  0.00    -0.161 C  
HETATM   30  C   UNL     1      -9.262   7.794  69.324  1.00  0.00    -0.145 C  
HETATM   31  C   UNL     1      -8.231   7.290  68.312  1.00  0.00    -0.125 C  
HETATM   32  C   UNL     1      -9.955   6.525  66.808  1.00  0.00    -0.166 C  
BRANCH  28  33
HETATM   33  N   UNL     1     -10.557   5.734  69.777  1.00  0.00    -0.289 N  
HETATM   34  O   UNL     1      -9.792   6.438  71.833  1.00  0.00    -0.160 OA 
HETATM   35  C   UNL     1     -10.115   5.534  71.073  1.00  0.00    -0.209 C  
HETATM   36  H   UNL     1     -10.854   4.933  69.221  1.00  0.00     0.000 HD 
BRANCH  35  37
HETATM   37  C   UNL     1      -9.987   4.117  71.489  1.00  0.00    -0.230 A  
HETATM   38  C   UNL     1      -9.419   3.111  70.672  1.00  0.00    -0.233 A  
HETATM   39  C   UNL     1      -9.539   1.787  71.153  1.00  0.00    -0.206 A  
HETATM   40  C   UNL     1     -10.605   3.800  72.720  1.00  0.00    -0.198 A  
HETATM   41  C   UNL     1     -10.701   2.485  73.153  1.00  0.00    -0.263 A  
HETATM   42  C   UNL     1     -10.180   1.474  72.361  1.00  0.00    -0.217 A  
BRANCH  38  43
HETATM   43  C   UNL     1      -8.724   3.343  69.366  1.00  0.00    -0.129 A  
HETATM   44  C   UNL     1      -7.385   3.757  69.286  1.00  0.00    -0.053 A  
HETATM   45  C   UNL     1      -7.435   3.783  66.847  1.00  0.00    -0.079 A  
HETATM   46  C   UNL     1      -6.753   3.990  68.053  1.00  0.00    -0.047 A  
HETATM   47  C   UNL     1      -6.788   4.067  65.514  1.00  0.00    -0.057 C  
HETATM   48  C   UNL     1      -8.752   3.320  66.906  1.00  0.00    -0.134 A  
HETATM   49  C   UNL     1      -9.384   3.115  68.141  1.00  0.00    -0.247 A  
HETATM   50  F   UNL     1      -5.523   4.562  65.610  1.00  0.00    -0.011 F  
HETATM   51  F   UNL     1      -7.488   4.977  64.777  1.00  0.00    -0.068 F  
HETATM   52  F   UNL     1      -6.694   2.955  64.731  1.00  0.00    -0.035 F  
ENDBRANCH  38  43
ENDBRANCH  35  37
ENDBRANCH  28  33
ENDBRANCH  26  27
ENDBRANCH  25  26
ENDBRANCH  24  25
ENDBRANCH  23  24
ENDBRANCH  10  23
ENDBRANCH   7  10
ENDBRANCH   3   6
TORSDOF 10
ENDMDL
MODEL       51
REMARK 921   NORMALIZED FREE ENERGY PREDICTED BY IDOCK:   -6.29 KCAL/MOL
REMARK 922        TOTAL FREE ENERGY PREDICTED BY IDOCK:  -13.07 KCAL/MOL
REMARK 923 INTER-LIGAND FREE ENERGY PREDICTED BY IDOCK:  -11.32 KCAL/MOL
REMARK 924 INTRA-LIGAND FREE ENERGY PREDICTED BY IDOCK:   -1.76 KCAL/MOL
REMARK 927      BINDING AFFINITY PREDICTED BY RF-SCORE:    0.00 PKD
ROOT
HETATM    1  F   UNL     1      -9.893  11.292  65.493  1.00  0.00    -0.220 F  
HETATM    2  C   UNL     1     -10.399  11.756  64.330  1.00  0.00    -0.314 C  
HETATM    3  C   UNL     1     -10.310  13.286  64.216  1.00  0.00    -0.294 C  
HETATM    4  F   UNL     1     -11.670  11.314  64.221  1.00  0.00    -0.293 F  
HETATM    5  F   UNL     1      -9.687  11.176  63.331  1.00  0.00    -0.235 F  
ENDROOT
BRANCH   3   6
HETATM    6  N   UNL     1      -9.757  13.993  65.371  1.00  0.00    -0.561 N  
HETATM    7  C   UNL     1      -9.894  15.363  65.499  1.00  0.00    -0.324 C  
HETATM    8  H   UNL     1      -9.264  13.468  66.093  1.00  0.00     0.000 HD 
HETATM    9  O   UNL     1     -10.429  16.025  64.609  1.00  0.00    -0.502 OA 
BRANCH   7  10
HETATM   10  C   UNL     1      -9.345  15.991  66.804  1.00  0.00    -0.260 C  
HETATM   11  C   UNL     1      -9.078  17.496  66.651  1.00  0.00    -0.287 A  
HETATM   12  C   UNL     1      -5.324  14.997  67.883  1.00  0.00    -0.108 A  
HETATM   13  C   UNL     1      -9.991  18.510  66.394  1.00  0.00    -0.399 A  
HETATM   14  C   UNL     1      -7.024  16.537  67.204  1.00  0.00    -0.230 A  
HETATM   15  C   UNL     1      -9.529  19.827  66.405  1.00  0.00    -0.496 A  
HETATM   16  C   UNL     1      -6.237  13.934  67.793  1.00  0.00    -0.155 A  
HETATM   17  C   UNL     1      -8.177  20.111  66.661  1.00  0.00    -0.328 A  
HETATM   18  C   UNL     1      -5.712  16.307  67.580  1.00  0.00    -0.168 A  
HETATM   19  C   UNL     1      -7.940  15.464  67.126  1.00  0.00    -0.251 A  
HETATM   20  C   UNL     1      -7.261  19.083  66.910  1.00  0.00    -0.221 A  
HETATM   21  C   UNL     1      -7.558  14.160  67.407  1.00  0.00    -0.179 A  
HETATM   22  C   UNL     1      -7.716  17.776  66.908  1.00  0.00    -0.242 A  
BRANCH  10  23
HETATM   23  C   UNL     1     -10.314  15.718  67.984  1.00  0.00    -0.252 C  
BRANCH  23  24
HETATM   24  C   UNL     1     -11.751  15.340  67.583  1.00  0.00    -0.181 C  
BRANCH  24  25
HETATM   25  C   UNL     1     -11.989  13.844  67.790  1.00  0.00    -0.390 C  
BRANCH  25  26
HETATM   26  C   UNL     1     -12.496  13.506  69.198  1.00  0.00     0.162 C  
BRANCH  26  27
HETATM   27  N   UNL     1     -11.558  12.725  70.020  1.00  0.00    -0.188 NA 
HETATM   28  C   UNL     1     -12.233   9.849  69.761  1.00  0.00     0.290 C  
HETATM   29  C   UNL     1     -11.533  10.630  68.644  1.00  0.00    -0.332 C  
HETATM   30  C   UNL     1     -13.017  10.788  70.685  1.00  0.00    -0.313 C  
HETATM   31  C   UNL     1     -12.183  11.993  71.128  1.00  0.00    -0.038 C  
HETATM   32  C   UNL     1     -10.748  11.817  69.197  1.00  0.00    -0.124 C  
BRANCH  28  33
HETATM   33  N   UNL     1     -11.288   9.027  70.512  1.00  0.00    -0.290 N  
HETATM   34  O   UNL     1     -12.797   7.352  70.985  1.00  0.00    -0.282 OA 
HETATM   35  C   UNL     1     -11.677   7.833  71.094  1.00  0.00    -0.284 C  
HETATM   36  H   UNL     1     -10.322   9.339  70.609  1.00  0.00     0.000 HD 
BRANCH  35  37
HETATM   37  C   UNL     1     -10.651   7.175  71.940  1.00  0.00    -0.238 A  
HETATM   38  C   UNL     1      -9.737   6.214  71.453  1.00  0.00    -0.187 A  
HETATM   39  C   UNL     1      -8.950   5.562  72.429  1.00  0.00    -0.137 A  
HETATM   40  C   UNL     1     -10.738   7.474  73.319  1.00  0.00    -0.437 A  
HETATM   41  C   UNL     1      -9.946   6.808  74.244  1.00  0.00    -0.354 A  
HETATM   42  C   UNL     1      -9.060   5.839  73.801  1.00  0.00    -0.127 A  
BRANCH  38  43
HETATM   43  C   UNL     1      -9.551   5.842  70.014  1.00  0.00    -0.200 A  
HETATM   44  C   UNL     1      -8.972   6.713  69.077  1.00  0.00    -0.130 A  
HETATM   45  C   UNL     1      -9.223   5.095  67.269  1.00  0.00    -0.119 A  
HETATM   46  C   UNL     1      -8.824   6.357  67.727  1.00  0.00    -0.112 A  
HETATM   47  C   UNL     1      -9.110   4.708  65.815  1.00  0.00    -0.139 C  
HETATM   48  C   UNL     1      -9.753   4.195  68.197  1.00  0.00    -0.152 A  
HETATM   49  C   UNL     1      -9.921   4.567  69.538  1.00  0.00    -0.235 A  
HETATM   50  F   UNL     1      -8.626   5.701  65.018  1.00  0.00    -0.142 F  
HETATM   51  F   UNL     1     -10.311   4.351  65.275  1.00  0.00    -0.219 F  
HETATM   52  F   UNL     1      -8.287   3.640  65.620  1.00  0.00    -0.101 F  
ENDBRANCH  38  43
ENDBRANCH  35  37
ENDBRANCH  28  33
ENDBRANCH  26  27
ENDBRANCH  25  26
ENDBRANCH  24  25
ENDBRANCH  23  24
ENDBRANCH  10  23
ENDBRANCH   7  10
ENDBRANCH   3   6
TORSDOF 10
ENDMDL
MODEL       52
REMARK 921   NORMALIZED FREE ENERGY PREDICTED BY IDOCK:   -6.19 KCAL/MOL
REMARK 922        TOTAL FREE ENERGY PREDICTED BY IDOCK:  -12.92 KCAL/MOL
REMARK 923 INTER-LIGAND FREE ENERGY PREDICTED BY IDOCK:  -12.26 KCAL/MOL
REMARK 924 INTRA-LIGAND FREE ENERGY PREDICTED BY IDOCK:   -0.66 KCAL/MOL
REMARK 927      BINDING AFFINITY PREDICTED BY RF-SCORE:    0.00 PKD
ROOT
HETATM    1  F   UNL     1     -10.951  15.098  72.437  1.00  0.00    -0.464 F  
HETATM    2  C   UNL     1     -12.290  15.281  72.450  1.00  0.00    -0.373 C  
HETATM    3  C   UNL     1     -12.871  15.491  71.043  1.00  0.00    -0.482 C  
HETATM    4  F   UNL     1     -12.561  16.320  73.269  1.00  0.00    -0.473 F  
HETATM    5  F   UNL     1     -12.833  14.174  73.015  1.00  0.00    -0.492 F  
ENDROOT
BRANCH   3   6
HETATM    6  N   UNL     1     -11.911  15.513  69.939  1.00  0.00    -0.339 N  
HETATM    7  C   UNL     1     -11.512  14.344  69.320  1.00  0.00    -0.285 C  
HETATM    8  H   UNL     1     -11.530  16.405  69.622  1.00  0.00     0.000 HD 
HETATM    9  O   UNL     1     -11.908  13.251  69.729  1.00  0.00    -0.308 OA 
BRANCH   7  10
HETATM   10  C   UNL     1     -10.558  14.496  68.108  1.00  0.00    -0.238 C  
HETATM   11  C   UNL     1     -10.281  15.970  67.777  1.00  0.00    -0.260 A  
HETATM   12  C   UNL     1     -12.159  13.531  64.258  1.00  0.00    -0.482 A  
HETATM   13  C   UNL     1      -9.646  16.925  68.561  1.00  0.00    -0.262 A  
HETATM   14  C   UNL     1     -11.258  15.058  65.864  1.00  0.00    -0.313 A  
HETATM   15  C   UNL     1      -9.409  18.181  68.002  1.00  0.00    -0.289 A  
HETATM   16  C   UNL     1     -12.133  12.499  65.210  1.00  0.00    -0.500 A  
HETATM   17  C   UNL     1      -9.810  18.469  66.686  1.00  0.00    -0.370 A  
HETATM   18  C   UNL     1     -11.727  14.822  64.583  1.00  0.00    -0.426 A  
HETATM   19  C   UNL     1     -11.224  14.012  66.813  1.00  0.00    -0.323 A  
HETATM   20  C   UNL     1     -10.458  17.505  65.906  1.00  0.00    -0.251 A  
HETATM   21  C   UNL     1     -11.668  12.734  66.503  1.00  0.00    -0.463 A  
HETATM   22  C   UNL     1     -10.688  16.254  66.453  1.00  0.00    -0.182 A  
BRANCH  10  23
HETATM   23  C   UNL     1      -9.235  13.728  68.362  1.00  0.00    -0.182 C  
BRANCH  23  24
HETATM   24  C   UNL     1      -9.361  12.194  68.402  1.00  0.00    -0.170 C  
BRANCH  24  25
HETATM   25  C   UNL     1      -8.448  11.555  67.354  1.00  0.00    -0.147 C  
BRANCH  25  26
HETATM   26  C   UNL     1      -7.532  10.471  67.937  1.00  0.00    -0.091 C  
BRANCH  26  27
HETATM   27  N   UNL     1      -8.076   9.105  67.875  1.00  0.00    -0.105 NA 
HETATM   28  C   UNL     1      -7.777   8.089  65.105  1.00  0.00    -0.105 C  
HETATM   29  C   UNL     1      -6.590   8.211  66.064  1.00  0.00    -0.046 C  
HETATM   30  C   UNL     1      -8.912   9.041  65.504  1.00  0.00    -0.252 C  
HETATM   31  C   UNL     1      -9.241   8.953  66.996  1.00  0.00    -0.137 C  
HETATM   32  C   UNL     1      -7.036   8.128  67.522  1.00  0.00    -0.075 C  
BRANCH  28  33
HETATM   33  N   UNL     1      -8.247   6.710  65.006  1.00  0.00    -0.203 N  
HETATM   34  O   UNL     1      -6.652   6.054  63.479  1.00  0.00    -0.032 OA 
HETATM   35  C   UNL     1      -7.639   5.802  64.157  1.00  0.00    -0.083 C  
HETATM   36  H   UNL     1      -9.038   6.410  65.576  1.00  0.00     0.000 HD 
BRANCH  35  37
HETATM   37  C   UNL     1      -8.306   4.481  64.058  1.00  0.00    -0.116 A  
HETATM   38  C   UNL     1      -9.077   3.915  65.099  1.00  0.00    -0.142 A  
HETATM   39  C   UNL     1      -9.490   2.577  64.903  1.00  0.00    -0.076 A  
HETATM   40  C   UNL     1      -8.003   3.748  62.887  1.00  0.00    -0.071 A  
HETATM   41  C   UNL     1      -8.429   2.436  62.737  1.00  0.00    -0.074 A  
HETATM   42  C   UNL     1      -9.161   1.843  63.753  1.00  0.00    -0.102 A  
BRANCH  38  43
HETATM   43  C   UNL     1      -9.472   4.611  66.365  1.00  0.00    -0.169 A  
HETATM   44  C   UNL     1      -8.725   4.506  67.550  1.00  0.00    -0.109 A  
HETATM   45  C   UNL     1     -10.267   5.952  68.767  1.00  0.00    -0.243 A  
HETATM   46  C   UNL     1      -9.121   5.149  68.734  1.00  0.00    -0.140 A  
HETATM   47  C   UNL     1     -10.731   6.618  70.039  1.00  0.00    -0.240 C  
HETATM   48  C   UNL     1     -10.994   6.112  67.584  1.00  0.00    -0.400 A  
HETATM   49  C   UNL     1     -10.607   5.446  66.412  1.00  0.00    -0.322 A  
HETATM   50  F   UNL     1      -9.957   6.333  71.123  1.00  0.00    -0.188 F  
HETATM   51  F   UNL     1     -12.000   6.257  70.384  1.00  0.00    -0.434 F  
HETATM   52  F   UNL     1     -10.748   7.978  69.942  1.00  0.00    -0.233 F  
ENDBRANCH  38  43
ENDBRANCH  35  37
ENDBRANCH  28  33
ENDBRANCH  26  27
ENDBRANCH  25  26
ENDBRANCH  24  25
ENDBRANCH  23  24
ENDBRANCH  10  23
ENDBRANCH   7  10
ENDBRANCH   3   6
TORSDOF 10
ENDMDL
MODEL       53
REMARK 921   NORMALIZED FREE ENERGY PREDICTED BY IDOCK:   -6.16 KCAL/MOL
REMARK 922        TOTAL FREE ENERGY PREDICTED BY IDOCK:  -12.86 KCAL/MOL
REMARK 923 INTER-LIGAND FREE ENERGY PREDICTED BY IDOCK:  -11.32 KCAL/MOL
REMARK 924 INTRA-LIGAND FREE ENERGY PREDICTED BY IDOCK:   -1.55 KCAL/MOL
REMARK 927      BINDING AFFINITY PREDICTED BY RF-SCORE:    0.00 PKD
ROOT
HETATM    1  F   UNL     1     -11.030   9.922  71.353  1.00  0.00    -0.411 F  
HETATM    2  C   UNL     1     -12.281   9.430  71.488  1.00  0.00    -0.369 C  
HETATM    3  C   UNL     1     -12.307   7.895  71.554  1.00  0.00    -0.315 C  
HETATM    4  F   UNL     1     -13.028   9.905  70.468  1.00  0.00    -0.306 F  
HETATM    5  F   UNL     1     -12.790   9.951  72.632  1.00  0.00    -0.359 F  
ENDROOT
BRANCH   3   6
HETATM    6  N   UNL     1     -11.019   7.215  71.413  1.00  0.00    -0.232 N  
HETATM    7  C   UNL     1     -10.760   6.401  70.327  1.00  0.00    -0.266 C  
HETATM    8  H   UNL     1     -10.302   7.344  72.127  1.00  0.00     0.000 HD 
HETATM    9  O   UNL     1     -11.633   6.180  69.487  1.00  0.00    -0.396 OA 
BRANCH   7  10
HETATM   10  C   UNL     1      -9.333   5.804  70.239  1.00  0.00    -0.185 C  
HETATM   11  C   UNL     1      -9.333   4.402  69.611  1.00  0.00    -0.228 A  
HETATM   12  C   UNL     1      -7.524   4.576  73.918  1.00  0.00    -0.081 A  
HETATM   13  C   UNL     1      -9.706   4.035  68.324  1.00  0.00    -0.133 A  
HETATM   14  C   UNL     1      -8.436   4.144  71.749  1.00  0.00    -0.111 A  
HETATM   15  C   UNL     1      -9.518   2.707  67.941  1.00  0.00    -0.186 A  
HETATM   16  C   UNL     1      -7.864   5.933  73.802  1.00  0.00    -0.099 A  
HETATM   17  C   UNL     1      -8.975   1.771  68.837  1.00  0.00    -0.150 A  
HETATM   18  C   UNL     1      -7.816   3.669  72.893  1.00  0.00    -0.066 A  
HETATM   19  C   UNL     1      -8.766   5.513  71.635  1.00  0.00    -0.137 A  
HETATM   20  C   UNL     1      -8.611   2.146  70.135  1.00  0.00    -0.098 A  
HETATM   21  C   UNL     1      -8.496   6.413  72.656  1.00  0.00    -0.122 A  
HETATM   22  C   UNL     1      -8.787   3.465  70.518  1.00  0.00    -0.145 A  
BRANCH  10  23
HETATM   23  C   UNL     1      -8.394   6.760  69.457  1.00  0.00    -0.132 C  
BRANCH  23  24
HETATM   24  C   UNL     1      -9.007   7.403  68.199  1.00  0.00    -0.129 C  
BRANCH  24  25
HETATM   25  C   UNL     1      -9.267   8.892  68.431  1.00  0.00    -0.140 C  
BRANCH  25  26
HETATM   26  C   UNL     1      -7.984   9.693  68.685  1.00  0.00    -0.089 C  
BRANCH  26  27
HETATM   27  N   UNL     1      -8.200  11.067  69.164  1.00  0.00    -0.097 NA 
HETATM   28  C   UNL     1      -8.120  12.907  66.839  1.00  0.00     0.039 C  
HETATM   29  C   UNL     1      -9.315  11.989  67.116  1.00  0.00    -0.187 C  
HETATM   30  C   UNL     1      -6.843  12.365  67.492  1.00  0.00    -0.143 C  
HETATM   31  C   UNL     1      -7.063  11.971  68.954  1.00  0.00    -0.104 C  
HETATM   32  C   UNL     1      -9.427  11.646  68.600  1.00  0.00    -0.123 C  
BRANCH  28  33
HETATM   33  N   UNL     1      -8.393  14.280  67.257  1.00  0.00    -0.202 N  
HETATM   34  O   UNL     1     -10.044  14.650  65.694  1.00  0.00    -0.323 OA 
HETATM   35  C   UNL     1      -9.338  15.055  66.608  1.00  0.00    -0.266 C  
HETATM   36  H   UNL     1      -7.876  14.675  68.042  1.00  0.00     0.000 HD 
BRANCH  35  37
HETATM   37  C   UNL     1      -9.410  16.469  67.049  1.00  0.00    -0.242 A  
HETATM   38  C   UNL     1     -10.227  16.915  68.113  1.00  0.00    -0.311 A  
HETATM   39  C   UNL     1     -10.308  18.316  68.282  1.00  0.00    -0.379 A  
HETATM   40  C   UNL     1      -8.703  17.383  66.234  1.00  0.00    -0.242 A  
HETATM   41  C   UNL     1      -8.813  18.751  66.435  1.00  0.00    -0.298 A  
HETATM   42  C   UNL     1      -9.629  19.221  67.452  1.00  0.00    -0.389 A  
BRANCH  38  43
HETATM   43  C   UNL     1     -10.997  16.032  69.046  1.00  0.00    -0.296 A  
HETATM   44  C   UNL     1     -11.467  14.763  68.671  1.00  0.00    -0.325 A  
HETATM   45  C   UNL     1     -12.473  14.379  70.860  1.00  0.00    -0.424 A  
HETATM   46  C   UNL     1     -12.205  13.956  69.552  1.00  0.00    -0.356 A  
HETATM   47  C   UNL     1     -13.300  13.545  71.808  1.00  0.00    -0.397 C  
HETATM   48  C   UNL     1     -11.969  15.616  71.269  1.00  0.00    -0.467 A  
HETATM   49  C   UNL     1     -11.255  16.428  70.375  1.00  0.00    -0.253 A  
HETATM   50  F   UNL     1     -13.768  12.390  71.259  1.00  0.00    -0.049 F  
HETATM   51  F   UNL     1     -14.398  14.210  72.267  1.00  0.00    -0.533 F  
HETATM   52  F   UNL     1     -12.604  13.173  72.919  1.00  0.00    -0.059 F  
ENDBRANCH  38  43
ENDBRANCH  35  37
ENDBRANCH  28  33
ENDBRANCH  26  27
ENDBRANCH  25  26
ENDBRANCH  24  25
ENDBRANCH  23  24
ENDBRANCH  10  23
ENDBRANCH   7  10
ENDBRANCH   3   6
TORSDOF 10
ENDMDL
MODEL       54
REMARK 921   NORMALIZED FREE ENERGY PREDICTED BY IDOCK:   -6.12 KCAL/MOL
REMARK 922        TOTAL FREE ENERGY PREDICTED BY IDOCK:  -12.80 KCAL/MOL
REMARK 923 INTER-LIGAND FREE ENERGY PREDICTED BY IDOCK:  -10.38 KCAL/MOL
REMARK 924 INTRA-LIGAND FREE ENERGY PREDICTED BY IDOCK:   -2.41 KCAL/MOL
REMARK 927      BINDING AFFINITY PREDICTED BY RF-SCORE:    0.00 PKD
ROOT
HETATM    1  F   UNL     1     -12.785  13.043  70.146  1.00  0.00    -0.222 F  
HETATM    2  C   UNL     1     -12.789  13.757  71.293  1.00  0.00    -0.357 C  
HETATM    3  C   UNL     1     -11.702  14.842  71.318  1.00  0.00    -0.331 C  
HETATM    4  F   UNL     1     -12.665  12.892  72.323  1.00  0.00    -0.306 F  
HETATM    5  F   UNL     1     -14.016  14.328  71.397  1.00  0.00    -0.413 F  
ENDROOT
BRANCH   3   6
HETATM    6  N   UNL     1     -10.817  14.903  70.154  1.00  0.00    -0.433 N  
HETATM    7  C   UNL     1     -10.373  16.116  69.662  1.00  0.00    -0.271 C  
HETATM    8  H   UNL     1     -10.525  14.039  69.699  1.00  0.00     0.000 HD 
HETATM    9  O   UNL     1     -10.764  17.174  70.155  1.00  0.00     0.007 OA 
BRANCH   7  10
HETATM   10  C   UNL     1      -9.373  16.054  68.480  1.00  0.00    -0.213 C  
HETATM   11  C   UNL     1      -7.914  16.127  68.956  1.00  0.00    -0.236 A  
HETATM   12  C   UNL     1      -9.132  19.514  65.972  1.00  0.00    -0.240 A  
HETATM   13  C   UNL     1      -7.223  15.226  69.755  1.00  0.00    -0.146 A  
HETATM   14  C   UNL     1      -8.219  17.962  67.547  1.00  0.00    -0.228 A  
HETATM   15  C   UNL     1      -5.862  15.448  69.969  1.00  0.00    -0.142 A  
HETATM   16  C   UNL     1     -10.376  18.868  66.041  1.00  0.00    -0.485 A  
HETATM   17  C   UNL     1      -5.217  16.557  69.395  1.00  0.00    -0.134 A  
HETATM   18  C   UNL     1      -8.045  19.069  66.733  1.00  0.00    -0.279 A  
HETATM   19  C   UNL     1      -9.471  17.310  67.603  1.00  0.00    -0.246 A  
HETATM   20  C   UNL     1      -5.922  17.465  68.598  1.00  0.00    -0.168 A  
HETATM   21  C   UNL     1     -10.558  17.758  66.865  1.00  0.00    -0.247 A  
HETATM   22  C   UNL     1      -7.270  17.245  68.376  1.00  0.00    -0.220 A  
BRANCH  10  23
HETATM   23  C   UNL     1      -9.615  14.777  67.633  1.00  0.00    -0.208 C  
BRANCH  23  24
HETATM   24  C   UNL     1      -8.451  14.364  66.715  1.00  0.00    -0.076 C  
BRANCH  24  25
HETATM   25  C   UNL     1      -7.842  13.043  67.186  1.00  0.00    -0.073 C  
BRANCH  25  26
HETATM   26  C   UNL     1      -8.843  11.881  67.174  1.00  0.00    -0.180 C  
BRANCH  26  27
HETATM   27  N   UNL     1      -8.267  10.567  67.499  1.00  0.00    -0.114 NA 
HETATM   28  C   UNL     1      -9.968   8.459  66.292  1.00  0.00    -0.146 C  
HETATM   29  C   UNL     1      -9.025   9.328  65.455  1.00  0.00    -0.253 C  
HETATM   30  C   UNL     1     -10.346   9.156  67.605  1.00  0.00    -0.314 C  
HETATM   31  C   UNL     1      -9.122   9.716  68.334  1.00  0.00    -0.123 C  
HETATM   32  C   UNL     1      -7.854   9.846  66.286  1.00  0.00    -0.108 C  
BRANCH  28  33
HETATM   33  N   UNL     1      -9.401   7.135  66.535  1.00  0.00    -0.172 N  
HETATM   34  O   UNL     1     -11.367   5.993  66.164  1.00  0.00     0.377 OA 
HETATM   35  C   UNL     1     -10.183   5.994  66.473  1.00  0.00    -0.143 C  
HETATM   36  H   UNL     1      -8.409   7.049  66.754  1.00  0.00     0.000 HD 
BRANCH  35  37
HETATM   37  C   UNL     1      -9.506   4.738  66.876  1.00  0.00    -0.165 A  
HETATM   38  C   UNL     1      -9.207   4.408  68.218  1.00  0.00    -0.182 A  
HETATM   39  C   UNL     1      -8.403   3.260  68.405  1.00  0.00    -0.094 A  
HETATM   40  C   UNL     1      -9.045   3.940  65.804  1.00  0.00    -0.145 A  
HETATM   41  C   UNL     1      -8.258   2.821  66.033  1.00  0.00    -0.086 A  
HETATM   42  C   UNL     1      -7.923   2.488  67.336  1.00  0.00    -0.069 A  
BRANCH  38  43
HETATM   43  C   UNL     1      -9.664   5.170  69.423  1.00  0.00    -0.248 A  
HETATM   44  C   UNL     1     -10.955   5.711  69.530  1.00  0.00    -0.266 A  
HETATM   45  C   UNL     1     -10.494   6.632  71.742  1.00  0.00    -0.233 A  
HETATM   46  C   UNL     1     -11.361   6.442  70.659  1.00  0.00    -0.419 A  
HETATM   47  C   UNL     1     -10.897   7.448  72.945  1.00  0.00    -0.354 C  
HETATM   48  C   UNL     1      -9.222   6.056  71.676  1.00  0.00    -0.153 A  
HETATM   49  C   UNL     1      -8.815   5.350  70.535  1.00  0.00    -0.148 A  
HETATM   50  F   UNL     1     -12.142   7.990  72.850  1.00  0.00    -0.374 F  
HETATM   51  F   UNL     1     -10.052   8.495  73.172  1.00  0.00    -0.298 F  
HETATM   52  F   UNL     1     -10.896   6.718  74.096  1.00  0.00    -0.305 F  
ENDBRANCH  38  43
ENDBRANCH  35  37
ENDBRANCH  28  33
ENDBRANCH  26  27
ENDBRANCH  25  26
ENDBRANCH  24  25
ENDBRANCH  23  24
ENDBRANCH  10  23
ENDBRANCH   7  10
ENDBRANCH   3   6
TORSDOF 10
ENDMDL
MODEL       55
REMARK 921   NORMALIZED FREE ENERGY PREDICTED BY IDOCK:   -6.09 KCAL/MOL
REMARK 922        TOTAL FREE ENERGY PREDICTED BY IDOCK:  -12.76 KCAL/MOL
REMARK 923 INTER-LIGAND FREE ENERGY PREDICTED BY IDOCK:  -10.17 KCAL/MOL
REMARK 924 INTRA-LIGAND FREE ENERGY PREDICTED BY IDOCK:   -2.59 KCAL/MOL
REMARK 927      BINDING AFFINITY PREDICTED BY RF-SCORE:    0.00 PKD
ROOT
HETATM    1  F   UNL     1      -9.631  11.870  65.202  1.00  0.00    -0.242 F  
HETATM    2  C   UNL     1     -10.570  12.336  64.350  1.00  0.00    -0.327 C  
HETATM    3  C   UNL     1     -10.989  13.781  64.667  1.00  0.00    -0.400 C  
HETATM    4  F   UNL     1     -11.620  11.487  64.380  1.00  0.00    -0.372 F  
HETATM    5  F   UNL     1     -10.039  12.272  63.103  1.00  0.00    -0.406 F  
ENDROOT
BRANCH   3   6
HETATM    6  N   UNL     1     -10.367  14.396  65.839  1.00  0.00    -0.301 N  
HETATM    7  C   UNL     1     -10.057  15.743  65.854  1.00  0.00    -0.356 C  
HETATM    8  H   UNL     1     -10.158  13.823  66.657  1.00  0.00     0.000 HD 
HETATM    9  O   UNL     1     -10.240  16.440  64.855  1.00  0.00    -0.509 OA 
BRANCH   7  10
HETATM   10  C   UNL     1      -9.480  16.302  67.180  1.00  0.00    -0.231 C  
HETATM   11  C   UNL     1      -9.564  17.835  67.242  1.00  0.00    -0.272 A  
HETATM   12  C   UNL     1      -5.231  16.129  67.662  1.00  0.00    -0.151 A  
HETATM   13  C   UNL     1     -10.698  18.636  67.247  1.00  0.00    -0.449 A  
HETATM   14  C   UNL     1      -7.297  17.311  67.418  1.00  0.00    -0.185 A  
HETATM   15  C   UNL     1     -10.530  20.010  67.421  1.00  0.00    -0.490 A  
HETATM   16  C   UNL     1      -5.900  14.905  67.499  1.00  0.00     0.066 A  
HETATM   17  C   UNL     1      -9.247  20.562  67.578  1.00  0.00    -0.442 A  
HETATM   18  C   UNL     1      -5.927  17.342  67.615  1.00  0.00    -0.152 A  
HETATM   19  C   UNL     1      -7.965  16.075  67.266  1.00  0.00    -0.207 A  
HETATM   20  C   UNL     1      -8.108  19.750  67.562  1.00  0.00    -0.337 A  
HETATM   21  C   UNL     1      -7.279  14.869  67.293  1.00  0.00    -0.142 A  
HETATM   22  C   UNL     1      -8.270  18.384  67.399  1.00  0.00    -0.248 A  
BRANCH  10  23
HETATM   23  C   UNL     1     -10.198  15.658  68.395  1.00  0.00    -0.222 C  
BRANCH  23  24
HETATM   24  C   UNL     1     -11.493  16.360  68.843  1.00  0.00    -0.216 C  
BRANCH  24  25
HETATM   25  C   UNL     1     -12.619  15.342  69.023  1.00  0.00     0.243 C  
BRANCH  25  26
HETATM   26  C   UNL     1     -12.876  14.984  70.493  1.00  0.00    -0.333 C  
BRANCH  26  27
HETATM   27  N   UNL     1     -11.851  14.125  71.106  1.00  0.00    -0.235 NA 
HETATM   28  C   UNL     1     -12.786  11.312  71.007  1.00  0.00    -0.359 C  
HETATM   29  C   UNL     1     -12.274  12.049  69.765  1.00  0.00    -0.226 C  
HETATM   30  C   UNL     1     -13.286  12.298  72.069  1.00  0.00    -0.508 C  
HETATM   31  C   UNL     1     -12.287  13.430  72.323  1.00  0.00     0.465 C  
HETATM   32  C   UNL     1     -11.302  13.166  70.137  1.00  0.00     0.203 C  
BRANCH  28  33
HETATM   33  N   UNL     1     -11.772  10.411  71.549  1.00  0.00    -0.168 N  
HETATM   34  O   UNL     1     -12.364   8.615  70.235  1.00  0.00     0.306 OA 
HETATM   35  C   UNL     1     -11.671   9.099  71.119  1.00  0.00    -0.313 C  
HETATM   36  H   UNL     1     -11.126  10.756  72.259  1.00  0.00     0.000 HD 
BRANCH  35  37
HETATM   37  C   UNL     1     -10.690   8.265  71.854  1.00  0.00    -0.350 A  
HETATM   38  C   UNL     1      -9.385   7.994  71.382  1.00  0.00    -0.182 A  
HETATM   39  C   UNL     1      -8.649   7.039  72.119  1.00  0.00    -0.117 A  
HETATM   40  C   UNL     1     -11.198   7.630  73.011  1.00  0.00    -0.388 A  
HETATM   41  C   UNL     1     -10.440   6.697  73.704  1.00  0.00    -0.353 A  
HETATM   42  C   UNL     1      -9.168   6.389  73.249  1.00  0.00    -0.136 A  
BRANCH  38  43
HETATM   43  C   UNL     1      -8.747   8.627  70.184  1.00  0.00    -0.144 A  
HETATM   44  C   UNL     1      -8.892   8.108  68.887  1.00  0.00    -0.141 A  
HETATM   45  C   UNL     1      -7.500   9.863  67.922  1.00  0.00    -0.089 A  
HETATM   46  C   UNL     1      -8.270   8.702  67.777  1.00  0.00    -0.118 A  
HETATM   47  C   UNL     1      -6.789  10.492  66.749  1.00  0.00    -0.103 C  
HETATM   48  C   UNL     1      -7.386  10.424  69.196  1.00  0.00    -0.102 A  
HETATM   49  C   UNL     1      -7.990   9.811  70.303  1.00  0.00    -0.185 A  
HETATM   50  F   UNL     1      -6.946   9.811  65.580  1.00  0.00    -0.085 F  
HETATM   51  F   UNL     1      -5.443  10.589  66.945  1.00  0.00    -0.039 F  
HETATM   52  F   UNL     1      -7.217  11.762  66.498  1.00  0.00    -0.119 F  
ENDBRANCH  38  43
ENDBRANCH  35  37
ENDBRANCH  28  33
ENDBRANCH  26  27
ENDBRANCH  25  26
ENDBRANCH  24  25
ENDBRANCH  23  24
ENDBRANCH  10  23
ENDBRANCH   7  10
ENDBRANCH   3   6
TORSDOF 10
ENDMDL
MODEL       56
REMARK 921   NORMALIZED FREE ENERGY PREDICTED BY IDOCK:   -6.08 KCAL/MOL
REMARK 922        TOTAL FREE ENERGY PREDICTED BY IDOCK:  -12.74 KCAL/MOL
REMARK 923 INTER-LIGAND FREE ENERGY PREDICTED BY IDOCK:  -10.93 KCAL/MOL
REMARK 924 INTRA-LIGAND FREE ENERGY PREDICTED BY IDOCK:   -1.81 KCAL/MOL
REMARK 927      BINDING AFFINITY PREDICTED BY RF-SCORE:    0.00 PKD
ROOT
HETATM    1  F   UNL     1      -9.809   9.747  71.075  1.00  0.00    -0.321 F  
HETATM    2  C   UNL     1     -11.103   9.366  70.990  1.00  0.00    -0.344 C  
HETATM    3  C   UNL     1     -11.275   8.015  70.278  1.00  0.00    -0.190 C  
HETATM    4  F   UNL     1     -11.789  10.353  70.374  1.00  0.00    -0.296 F  
HETATM    5  F   UNL     1     -11.574   9.284  72.259  1.00  0.00    -0.410 F  
ENDROOT
BRANCH   3   6
HETATM    6  N   UNL     1     -10.056   7.389  69.767  1.00  0.00    -0.189 N  
HETATM    7  C   UNL     1      -9.570   6.221  70.325  1.00  0.00    -0.164 C  
HETATM    8  H   UNL     1      -9.557   7.820  68.990  1.00  0.00     0.000 HD 
HETATM    9  O   UNL     1     -10.120   5.718  71.305  1.00  0.00    -0.187 OA 
BRANCH   7  10
HETATM   10  C   UNL     1      -8.321   5.602  69.648  1.00  0.00    -0.107 C  
HETATM   11  C   UNL     1      -8.550   5.336  68.152  1.00  0.00    -0.099 A  
HETATM   12  C   UNL     1      -7.409   1.537  70.627  1.00  0.00    -0.033 A  
HETATM   13  C   UNL     1      -8.801   6.255  67.143  1.00  0.00    -0.109 A  
HETATM   14  C   UNL     1      -8.063   3.261  69.103  1.00  0.00    -0.072 A  
HETATM   15  C   UNL     1      -8.867   5.787  65.830  1.00  0.00    -0.153 A  
HETATM   16  C   UNL     1      -7.408   2.458  71.686  1.00  0.00    -0.040 A  
HETATM   17  C   UNL     1      -8.692   4.422  65.545  1.00  0.00    -0.123 A  
HETATM   18  C   UNL     1      -7.745   1.933  69.327  1.00  0.00    -0.045 A  
HETATM   19  C   UNL     1      -8.050   4.185  70.172  1.00  0.00    -0.061 A  
HETATM   20  C   UNL     1      -8.449   3.500  66.569  1.00  0.00    -0.108 A  
HETATM   21  C   UNL     1      -7.735   3.796  71.466  1.00  0.00    -0.060 A  
HETATM   22  C   UNL     1      -8.373   3.961  67.872  1.00  0.00    -0.099 A  
BRANCH  10  23
HETATM   23  C   UNL     1      -7.083   6.511  69.865  1.00  0.00    -0.068 C  
BRANCH  23  24
HETATM   24  C   UNL     1      -7.142   7.418  71.107  1.00  0.00    -0.059 C  
BRANCH  24  25
HETATM   25  C   UNL     1      -6.198   8.611  70.945  1.00  0.00    -0.039 C  
BRANCH  25  26
HETATM   26  C   UNL     1      -6.024   9.043  69.484  1.00  0.00    -0.036 C  
BRANCH  26  27
HETATM   27  N   UNL     1      -7.280   9.314  68.766  1.00  0.00    -0.073 NA 
HETATM   28  C   UNL     1      -7.035  11.920  67.372  1.00  0.00    -0.128 C  
HETATM   29  C   UNL     1      -6.329  10.655  66.873  1.00  0.00    -0.082 C  
HETATM   30  C   UNL     1      -7.348  11.825  68.871  1.00  0.00    -0.093 C  
HETATM   31  C   UNL     1      -8.009  10.496  69.240  1.00  0.00    -0.154 C  
HETATM   32  C   UNL     1      -7.064   9.391  67.315  1.00  0.00    -0.086 C  
BRANCH  28  33
HETATM   33  N   UNL     1      -8.237  12.204  66.593  1.00  0.00    -0.375 N  
HETATM   34  O   UNL     1      -8.514  14.341  67.405  1.00  0.00    -0.179 OA 
HETATM   35  C   UNL     1      -8.900  13.414  66.706  1.00  0.00    -0.132 C  
HETATM   36  H   UNL     1      -8.595  11.496  65.952  1.00  0.00     0.000 HD 
BRANCH  35  37
HETATM   37  C   UNL     1     -10.178  13.509  65.961  1.00  0.00    -0.308 A  
HETATM   38  C   UNL     1     -11.401  13.898  66.554  1.00  0.00    -0.340 A  
HETATM   39  C   UNL     1     -12.550  13.764  65.742  1.00  0.00    -0.525 A  
HETATM   40  C   UNL     1     -10.125  13.045  64.626  1.00  0.00    -0.253 A  
HETATM   41  C   UNL     1     -11.279  12.928  63.865  1.00  0.00    -0.471 A  
HETATM   42  C   UNL     1     -12.497  13.273  64.428  1.00  0.00    -0.356 A  
BRANCH  38  43
HETATM   43  C   UNL     1     -11.562  14.424  67.947  1.00  0.00    -0.374 A  
HETATM   44  C   UNL     1     -11.364  15.775  68.273  1.00  0.00    -0.354 A  
HETATM   45  C   UNL     1     -11.871  15.385  70.627  1.00  0.00    -0.388 A  
HETATM   46  C   UNL     1     -11.499  16.248  69.589  1.00  0.00    -0.213 A  
HETATM   47  C   UNL     1     -11.982  15.864  72.054  1.00  0.00    -0.513 C  
HETATM   48  C   UNL     1     -12.125  14.047  70.313  1.00  0.00    -0.425 A  
HETATM   49  C   UNL     1     -11.963  13.577  69.002  1.00  0.00    -0.376 A  
HETATM   50  F   UNL     1     -11.656  17.176  72.220  1.00  0.00    -0.382 F  
HETATM   51  F   UNL     1     -11.170  15.170  72.902  1.00  0.00    -0.497 F  
HETATM   52  F   UNL     1     -13.242  15.727  72.556  1.00  0.00    -0.441 F  
ENDBRANCH  38  43
ENDBRANCH  35  37
ENDBRANCH  28  33
ENDBRANCH  26  27
ENDBRANCH  25  26
ENDBRANCH  24  25
ENDBRANCH  23  24
ENDBRANCH  10  23
ENDBRANCH   7  10
ENDBRANCH   3   6
TORSDOF 10
ENDMDL
MODEL       57
REMARK 921   NORMALIZED FREE ENERGY PREDICTED BY IDOCK:   -5.95 KCAL/MOL
REMARK 922        TOTAL FREE ENERGY PREDICTED BY IDOCK:  -12.54 KCAL/MOL
REMARK 923 INTER-LIGAND FREE ENERGY PREDICTED BY IDOCK:  -10.70 KCAL/MOL
REMARK 924 INTRA-LIGAND FREE ENERGY PREDICTED BY IDOCK:   -1.84 KCAL/MOL
REMARK 927      BINDING AFFINITY PREDICTED BY RF-SCORE:    0.00 PKD
ROOT
HETATM    1  F   UNL     1      -8.110  10.590  65.122  1.00  0.00    -0.149 F  
HETATM    2  C   UNL     1      -7.176  10.725  66.089  1.00  0.00    -0.126 C  
HETATM    3  C   UNL     1      -7.584  11.741  67.167  1.00  0.00    -0.155 C  
HETATM    4  F   UNL     1      -6.008  11.056  65.498  1.00  0.00    -0.131 F  
HETATM    5  F   UNL     1      -7.007   9.500  66.648  1.00  0.00    -0.080 F  
ENDROOT
BRANCH   3   6
HETATM    6  N   UNL     1      -8.859  12.429  66.963  1.00  0.00    -0.205 N  
HETATM    7  C   UNL     1      -9.260  13.448  67.806  1.00  0.00    -0.211 C  
HETATM    8  H   UNL     1      -9.461  12.152  66.188  1.00  0.00     0.000 HD 
HETATM    9  O   UNL     1      -8.580  13.755  68.786  1.00  0.00    -0.100 OA 
BRANCH   7  10
HETATM   10  C   UNL     1     -10.587  14.161  67.443  1.00  0.00    -0.279 C  
HETATM   11  C   UNL     1     -11.169  13.650  66.116  1.00  0.00    -0.309 A  
HETATM   12  C   UNL     1     -10.306  18.244  66.193  1.00  0.00    -0.414 A  
HETATM   13  C   UNL     1     -11.621  12.374  65.809  1.00  0.00    -0.449 A  
HETATM   14  C   UNL     1     -10.800  15.935  65.815  1.00  0.00    -0.260 A  
HETATM   15  C   UNL     1     -12.214  12.170  64.562  1.00  0.00    -0.404 A  
HETATM   16  C   UNL     1      -9.852  17.946  67.487  1.00  0.00    -0.309 A  
HETATM   17  C   UNL     1     -12.341  13.228  63.646  1.00  0.00    -0.456 A  
HETATM   18  C   UNL     1     -10.777  17.236  65.344  1.00  0.00    -0.074 A  
HETATM   19  C   UNL     1     -10.352  15.643  67.122  1.00  0.00    -0.285 A  
HETATM   20  C   UNL     1     -11.876  14.510  63.960  1.00  0.00    -0.178 A  
HETATM   21  C   UNL     1      -9.866  16.635  67.963  1.00  0.00    -0.245 A  
HETATM   22  C   UNL     1     -11.294  14.719  65.199  1.00  0.00    -0.379 A  
BRANCH  10  23
HETATM   23  C   UNL     1     -11.615  14.008  68.594  1.00  0.00    -0.360 C  
BRANCH  23  24
HETATM   24  C   UNL     1     -11.234  12.993  69.687  1.00  0.00    -0.080 C  
BRANCH  24  25
HETATM   25  C   UNL     1     -11.867  11.631  69.398  1.00  0.00    -0.408 C  
BRANCH  25  26
HETATM   26  C   UNL     1     -10.834  10.508  69.252  1.00  0.00    -0.243 C  
BRANCH  26  27
HETATM   27  N   UNL     1     -11.274   9.196  69.752  1.00  0.00    -0.127 NA 
HETATM   28  C   UNL     1      -9.001   7.898  71.147  1.00  0.00    -0.138 C  
HETATM   29  C   UNL     1      -9.784   9.061  71.764  1.00  0.00    -0.311 C  
HETATM   30  C   UNL     1      -9.126   7.896  69.618  1.00  0.00    -0.153 C  
HETATM   31  C   UNL     1     -10.577   8.051  69.157  1.00  0.00    -0.169 C  
HETATM   32  C   UNL     1     -11.209   9.130  71.219  1.00  0.00    -0.337 C  
BRANCH  28  33
HETATM   33  N   UNL     1      -9.408   6.617  71.717  1.00  0.00    -0.149 N  
HETATM   34  O   UNL     1      -7.303   5.684  71.661  1.00  0.00    -0.086 OA 
HETATM   35  C   UNL     1      -8.500   5.589  71.901  1.00  0.00    -0.123 C  
HETATM   36  H   UNL     1     -10.382   6.476  71.986  1.00  0.00     0.000 HD 
BRANCH  35  37
HETATM   37  C   UNL     1      -9.079   4.303  72.358  1.00  0.00    -0.141 A  
HETATM   38  C   UNL     1      -9.592   3.321  71.480  1.00  0.00    -0.234 A  
HETATM   39  C   UNL     1     -10.266   2.239  72.092  1.00  0.00    -0.189 A  
HETATM   40  C   UNL     1      -9.216   4.178  73.760  1.00  0.00    -0.095 A  
HETATM   41  C   UNL     1      -9.886   3.099  74.319  1.00  0.00    -0.156 A  
HETATM   42  C   UNL     1     -10.426   2.134  73.483  1.00  0.00    -0.215 A  
BRANCH  38  43
HETATM   43  C   UNL     1      -9.480   3.346  69.987  1.00  0.00    -0.243 A  
HETATM   44  C   UNL     1      -9.033   2.242  69.244  1.00  0.00    -0.164 A  
HETATM   45  C   UNL     1      -9.272   3.442  67.133  1.00  0.00    -0.218 A  
HETATM   46  C   UNL     1      -8.915   2.290  67.845  1.00  0.00    -0.195 A  
HETATM   47  C   UNL     1      -9.113   3.527  65.635  1.00  0.00    -0.149 C  
HETATM   48  C   UNL     1      -9.770   4.533  67.851  1.00  0.00    -0.195 A  
HETATM   49  C   UNL     1      -9.861   4.486  69.249  1.00  0.00    -0.241 A  
HETATM   50  F   UNL     1      -8.570   2.411  65.075  1.00  0.00    -0.092 F  
HETATM   51  F   UNL     1      -8.311   4.562  65.253  1.00  0.00    -0.111 F  
HETATM   52  F   UNL     1     -10.300   3.725  64.993  1.00  0.00    -0.182 F  
ENDBRANCH  38  43
ENDBRANCH  35  37
ENDBRANCH  28  33
ENDBRANCH  26  27
ENDBRANCH  25  26
ENDBRANCH  24  25
ENDBRANCH  23  24
ENDBRANCH  10  23
ENDBRANCH   7  10
ENDBRANCH   3   6
TORSDOF 10
ENDMDL
MODEL       58
REMARK 921   NORMALIZED FREE ENERGY PREDICTED BY IDOCK:   -5.90 KCAL/MOL
REMARK 922        TOTAL FREE ENERGY PREDICTED BY IDOCK:  -12.44 KCAL/MOL
REMARK 923 INTER-LIGAND FREE ENERGY PREDICTED BY IDOCK:   -9.84 KCAL/MOL
REMARK 924 INTRA-LIGAND FREE ENERGY PREDICTED BY IDOCK:   -2.61 KCAL/MOL
REMARK 927      BINDING AFFINITY PREDICTED BY RF-SCORE:    0.00 PKD
ROOT
HETATM    1  F   UNL     1      -6.002  11.513  65.788  1.00  0.00    -0.056 F  
HETATM    2  C   UNL     1      -6.272  10.290  66.296  1.00  0.00    -0.084 C  
HETATM    3  C   UNL     1      -7.463  10.303  67.266  1.00  0.00    -0.094 C  
HETATM    4  F   UNL     1      -5.148   9.825  66.883  1.00  0.00    -0.038 F  
HETATM    5  F   UNL     1      -6.540   9.476  65.244  1.00  0.00    -0.072 F  
ENDROOT
BRANCH   3   6
HETATM    6  N   UNL     1      -8.075  11.606  67.527  1.00  0.00    -0.137 N  
HETATM    7  C   UNL     1      -9.019  12.134  66.666  1.00  0.00    -0.198 C  
HETATM    8  H   UNL     1      -7.801  12.133  68.356  1.00  0.00     0.000 HD 
HETATM    9  O   UNL     1      -9.317  11.545  65.626  1.00  0.00    -0.224 OA 
BRANCH   7  10
HETATM   10  C   UNL     1      -9.661  13.479  67.088  1.00  0.00    -0.244 C  
HETATM   11  C   UNL     1     -10.671  13.987  66.047  1.00  0.00    -0.294 A  
HETATM   12  C   UNL     1      -7.160  16.948  66.921  1.00  0.00    -0.251 A  
HETATM   13  C   UNL     1     -11.861  13.397  65.644  1.00  0.00    -0.403 A  
HETATM   14  C   UNL     1      -9.035  15.643  66.211  1.00  0.00    -0.377 A  
HETATM   15  C   UNL     1     -12.674  14.102  64.756  1.00  0.00    -0.221 A  
HETATM   16  C   UNL     1      -6.755  15.916  67.782  1.00  0.00    -0.178 A  
HETATM   17  C   UNL     1     -12.290  15.367  64.281  1.00  0.00    -0.077 A  
HETATM   18  C   UNL     1      -8.302  16.814  66.123  1.00  0.00    -0.301 A  
HETATM   19  C   UNL     1      -8.627  14.613  67.088  1.00  0.00    -0.244 A  
HETATM   20  C   UNL     1     -11.085  15.951  64.684  1.00  0.00    -0.368 A  
HETATM   21  C   UNL     1      -7.486  14.732  67.869  1.00  0.00    -0.156 A  
HETATM   22  C   UNL     1     -10.278  15.259  65.572  1.00  0.00    -0.417 A  
BRANCH  10  23
HETATM   23  C   UNL     1     -10.325  13.346  68.484  1.00  0.00    -0.240 C  
BRANCH  23  24
HETATM   24  C   UNL     1     -11.386  12.238  68.606  1.00  0.00    -0.339 C  
BRANCH  24  25
HETATM   25  C   UNL     1     -11.052  11.302  69.769  1.00  0.00    -0.238 C  
BRANCH  25  26
HETATM   26  C   UNL     1     -12.268  10.521  70.281  1.00  0.00    -0.311 C  
BRANCH  26  27
HETATM   27  N   UNL     1     -12.130   9.058  70.223  1.00  0.00     0.162 NA 
HETATM   28  C   UNL     1     -11.239   8.082  72.878  1.00  0.00    -0.322 C  
HETATM   29  C   UNL     1     -12.674   8.552  72.618  1.00  0.00    -0.241 C  
HETATM   30  C   UNL     1     -10.263   8.697  71.868  1.00  0.00    -0.404 C  
HETATM   31  C   UNL     1     -10.763   8.566  70.427  1.00  0.00    -0.228 C  
HETATM   32  C   UNL     1     -13.058   8.393  71.149  1.00  0.00    -0.022 C  
BRANCH  28  33
HETATM   33  N   UNL     1     -11.148   6.624  72.889  1.00  0.00    -0.360 N  
HETATM   34  O   UNL     1      -9.156   6.548  74.043  1.00  0.00    -0.141 OA 
HETATM   35  C   UNL     1     -10.069   5.975  73.464  1.00  0.00    -0.201 C  
HETATM   36  H   UNL     1     -11.895   6.074  72.465  1.00  0.00     0.000 HD 
BRANCH  35  37
HETATM   37  C   UNL     1     -10.043   4.504  73.280  1.00  0.00    -0.206 A  
HETATM   38  C   UNL     1      -9.800   3.876  72.036  1.00  0.00    -0.245 A  
HETATM   39  C   UNL     1      -9.987   2.475  72.006  1.00  0.00    -0.228 A  
HETATM   40  C   UNL     1     -10.420   3.755  74.419  1.00  0.00    -0.262 A  
HETATM   41  C   UNL     1     -10.593   2.381  74.344  1.00  0.00    -0.193 A  
HETATM   42  C   UNL     1     -10.391   1.740  73.132  1.00  0.00    -0.194 A  
BRANCH  38  43
HETATM   43  C   UNL     1      -9.376   4.572  70.780  1.00  0.00    -0.218 A  
HETATM   44  C   UNL     1      -8.143   5.236  70.663  1.00  0.00    -0.108 A  
HETATM   45  C   UNL     1      -8.607   5.900  68.362  1.00  0.00    -0.113 A  
HETATM   46  C   UNL     1      -7.769   5.901  69.484  1.00  0.00    -0.097 A  
HETATM   47  C   UNL     1      -8.242   6.643  67.100  1.00  0.00    -0.113 C  
HETATM   48  C   UNL     1      -9.814   5.200  68.441  1.00  0.00    -0.211 A  
HETATM   49  C   UNL     1     -10.192   4.560  69.630  1.00  0.00    -0.019 A  
HETATM   50  F   UNL     1      -7.064   7.321  67.183  1.00  0.00    -0.075 F  
HETATM   51  F   UNL     1      -9.180   7.569  66.750  1.00  0.00    -0.137 F  
HETATM   52  F   UNL     1      -8.121   5.817  66.023  1.00  0.00    -0.100 F  
ENDBRANCH  38  43
ENDBRANCH  35  37
ENDBRANCH  28  33
ENDBRANCH  26  27
ENDBRANCH  25  26
ENDBRANCH  24  25
ENDBRANCH  23  24
ENDBRANCH  10  23
ENDBRANCH   7  10
ENDBRANCH   3   6
TORSDOF 10
ENDMDL
MODEL       59
REMARK 921   NORMALIZED FREE ENERGY PREDICTED BY IDOCK:   -5.79 KCAL/MOL
REMARK 922        TOTAL FREE ENERGY PREDICTED BY IDOCK:  -12.28 KCAL/MOL
REMARK 923 INTER-LIGAND FREE ENERGY PREDICTED BY IDOCK:   -9.92 KCAL/MOL
REMARK 924 INTRA-LIGAND FREE ENERGY PREDICTED BY IDOCK:   -2.36 KCAL/MOL
REMARK 927      BINDING AFFINITY PREDICTED BY RF-SCORE:    0.00 PKD
ROOT
HETATM    1  F   UNL     1      -8.398   9.582  65.334  1.00  0.00    -0.122 F  
HETATM    2  C   UNL     1      -7.080   9.739  65.080  1.00  0.00    -0.121 C  
HETATM    3  C   UNL     1      -6.244   8.534  65.540  1.00  0.00    -0.049 C  
HETATM    4  F   UNL     1      -6.676  10.887  65.664  1.00  0.00    -0.126 F  
HETATM    5  F   UNL     1      -6.954   9.906  63.740  1.00  0.00    -0.106 F  
ENDROOT
BRANCH   3   6
HETATM    6  N   UNL     1      -6.970   7.456  66.210  1.00  0.00    -0.067 N  
HETATM    7  C   UNL     1      -7.300   6.295  65.536  1.00  0.00    -0.080 C  
HETATM    8  H   UNL     1      -7.237   7.562  67.188  1.00  0.00     0.000 HD 
HETATM    9  O   UNL     1      -7.045   6.172  64.337  1.00  0.00    -0.049 OA 
BRANCH   7  10
HETATM   10  C   UNL     1      -7.992   5.188  66.370  1.00  0.00    -0.104 C  
HETATM   11  C   UNL     1      -6.980   4.342  67.157  1.00  0.00    -0.060 A  
HETATM   12  C   UNL     1      -9.647   1.888  64.203  1.00  0.00    -0.132 A  
HETATM   13  C   UNL     1      -6.122   4.749  68.170  1.00  0.00    -0.031 A  
HETATM   14  C   UNL     1      -8.097   2.854  65.749  1.00  0.00    -0.087 A  
HETATM   15  C   UNL     1      -5.363   3.773  68.818  1.00  0.00    -0.012 A  
HETATM   16  C   UNL     1     -10.169   3.159  63.916  1.00  0.00    -0.194 A  
HETATM   17  C   UNL     1      -5.463   2.422  68.446  1.00  0.00    -0.017 A  
HETATM   18  C   UNL     1      -8.600   1.728  65.119  1.00  0.00    -0.107 A  
HETATM   19  C   UNL     1      -8.635   4.129  65.463  1.00  0.00    -0.118 A  
HETATM   20  C   UNL     1      -6.323   2.021  67.418  1.00  0.00    -0.024 A  
HETATM   21  C   UNL     1      -9.660   4.296  64.544  1.00  0.00    -0.149 A  
HETATM   22  C   UNL     1      -7.084   2.984  66.778  1.00  0.00    -0.054 A  
BRANCH  10  23
HETATM   23  C   UNL     1      -9.051   5.809  67.319  1.00  0.00    -0.110 C  
BRANCH  23  24
HETATM   24  C   UNL     1     -10.202   6.557  66.623  1.00  0.00    -0.209 C  
BRANCH  24  25
HETATM   25  C   UNL     1     -10.484   7.883  67.329  1.00  0.00    -0.390 C  
BRANCH  25  26
HETATM   26  C   UNL     1      -9.622   8.091  68.581  1.00  0.00    -0.148 C  
BRANCH  26  27
HETATM   27  N   UNL     1      -9.444   9.496  68.981  1.00  0.00    -0.154 NA 
HETATM   28  C   UNL     1     -11.968  10.465  70.200  1.00  0.00    -0.276 C  
HETATM   29  C   UNL     1     -11.016   9.515  70.934  1.00  0.00    -0.407 C  
HETATM   30  C   UNL     1     -11.783  10.369  68.681  1.00  0.00    -0.076 C  
HETATM   31  C   UNL     1     -10.310  10.445  68.273  1.00  0.00    -0.171 C  
HETATM   32  C   UNL     1      -9.581   9.663  70.435  1.00  0.00    -0.234 C  
BRANCH  28  33
HETATM   33  N   UNL     1     -11.820  11.839  70.671  1.00  0.00    -0.469 N  
HETATM   34  O   UNL     1     -13.850  11.908  71.758  1.00  0.00     0.151 OA 
HETATM   35  C   UNL     1     -12.817  12.460  71.404  1.00  0.00    -0.260 C  
HETATM   36  H   UNL     1     -10.965  12.352  70.456  1.00  0.00     0.000 HD 
BRANCH  35  37
HETATM   37  C   UNL     1     -12.589  13.896  71.695  1.00  0.00    -0.387 A  
HETATM   38  C   UNL     1     -11.955  14.785  70.797  1.00  0.00    -0.371 A  
HETATM   39  C   UNL     1     -11.662  16.070  71.306  1.00  0.00    -0.516 A  
HETATM   40  C   UNL     1     -12.929  14.297  73.008  1.00  0.00    -0.512 A  
HETATM   41  C   UNL     1     -12.622  15.571  73.467  1.00  0.00    -0.672 A  
HETATM   42  C   UNL     1     -11.973  16.455  72.620  1.00  0.00    -0.595 A  
BRANCH  38  43
HETATM   43  C   UNL     1     -11.575  14.467  69.384  1.00  0.00    -0.349 A  
HETATM   44  C   UNL     1     -12.528  14.293  68.366  1.00  0.00     0.200 A  
HETATM   45  C   UNL     1     -10.807  13.850  66.695  1.00  0.00    -0.289 A  
HETATM   46  C   UNL     1     -12.156  13.975  67.050  1.00  0.00    -0.455 A  
HETATM   47  C   UNL     1     -10.388  13.469  65.296  1.00  0.00    -0.331 C  
HETATM   48  C   UNL     1      -9.842  14.071  67.682  1.00  0.00    -0.233 A  
HETATM   49  C   UNL     1     -10.222  14.363  69.000  1.00  0.00    -0.185 A  
HETATM   50  F   UNL     1     -11.433  13.233  64.454  1.00  0.00    -0.336 F  
HETATM   51  F   UNL     1      -9.628  12.337  65.269  1.00  0.00    -0.232 F  
HETATM   52  F   UNL     1      -9.635  14.432  64.694  1.00  0.00    -0.094 F  
ENDBRANCH  38  43
ENDBRANCH  35  37
ENDBRANCH  28  33
ENDBRANCH  26  27
ENDBRANCH  25  26
ENDBRANCH  24  25
ENDBRANCH  23  24
ENDBRANCH  10  23
ENDBRANCH   7  10
ENDBRANCH   3   6
TORSDOF 10
ENDMDL
MODEL       60
REMARK 921   NORMALIZED FREE ENERGY PREDICTED BY IDOCK:   -5.78 KCAL/MOL
REMARK 922        TOTAL FREE ENERGY PREDICTED BY IDOCK:  -12.26 KCAL/MOL
REMARK 923 INTER-LIGAND FREE ENERGY PREDICTED BY IDOCK:   -9.99 KCAL/MOL
REMARK 924 INTRA-LIGAND FREE ENERGY PREDICTED BY IDOCK:   -2.27 KCAL/MOL
REMARK 927      BINDING AFFINITY PREDICTED BY RF-SCORE:    0.00 PKD
ROOT
HETATM    1  F   UNL     1     -12.343  14.301  69.080  1.00  0.00    -0.352 F  
HETATM    2  C   UNL     1     -12.209  14.349  70.424  1.00  0.00    -0.338 C  
HETATM    3  C   UNL     1     -10.905  15.035  70.862  1.00  0.00    -0.037 C  
HETATM    4  F   UNL     1     -12.301  13.089  70.899  1.00  0.00    -0.411 F  
HETATM    5  F   UNL     1     -13.277  15.036  70.903  1.00  0.00    -0.389 F  
ENDROOT
BRANCH   3   6
HETATM    6  N   UNL     1     -10.008  15.472  69.792  1.00  0.00    -0.300 N  
HETATM    7  C   UNL     1      -9.946  16.799  69.414  1.00  0.00    -0.140 C  
HETATM    8  H   UNL     1      -9.420  14.786  69.318  1.00  0.00     0.000 HD 
HETATM    9  O   UNL     1     -10.693  17.633  69.927  1.00  0.00     0.285 OA 
BRANCH   7  10
HETATM   10  C   UNL     1      -8.899  17.158  68.329  1.00  0.00    -0.245 C  
HETATM   11  C   UNL     1      -7.654  17.827  68.931  1.00  0.00    -0.223 A  
HETATM   12  C   UNL     1      -9.859  20.412  65.720  1.00  0.00    -0.093 A  
HETATM   13  C   UNL     1      -6.735  17.291  69.824  1.00  0.00     0.100 A  
HETATM   14  C   UNL     1      -8.547  19.374  67.430  1.00  0.00    -0.333 A  
HETATM   15  C   UNL     1      -5.614  18.055  70.150  1.00  0.00    -0.244 A  
HETATM   16  C   UNL     1     -10.727  19.309  65.702  1.00  0.00    -0.335 A  
HETATM   17  C   UNL     1      -5.429  19.332  69.593  1.00  0.00    -0.223 A  
HETATM   18  C   UNL     1      -8.765  20.454  66.592  1.00  0.00    -0.247 A  
HETATM   19  C   UNL     1      -9.419  18.263  67.399  1.00  0.00    -0.266 A  
HETATM   20  C   UNL     1      -6.364  19.869  68.701  1.00  0.00    -0.317 A  
HETATM   21  C   UNL     1     -10.516  18.222  66.550  1.00  0.00    -0.378 A  
HETATM   22  C   UNL     1      -7.474  19.111  68.368  1.00  0.00    -0.342 A  
BRANCH  10  23
HETATM   23  C   UNL     1      -8.511  15.897  67.515  1.00  0.00    -0.181 C  
BRANCH  23  24
HETATM   24  C   UNL     1      -7.114  15.932  66.870  1.00  0.00    -0.131 C  
BRANCH  24  25
HETATM   25  C   UNL     1      -6.221  14.843  67.466  1.00  0.00    -0.036 C  
BRANCH  25  26
HETATM   26  C   UNL     1      -6.854  13.448  67.406  1.00  0.00    -0.066 C  
BRANCH  26  27
HETATM   27  N   UNL     1      -7.892  13.197  68.419  1.00  0.00    -0.137 NA 
HETATM   28  C   UNL     1      -8.294  10.270  68.665  1.00  0.00    -0.122 C  
HETATM   29  C   UNL     1      -7.063  10.978  69.240  1.00  0.00    -0.123 C  
HETATM   30  C   UNL     1      -8.920  11.084  67.526  1.00  0.00    -0.137 C  
HETATM   31  C   UNL     1      -9.106  12.555  67.902  1.00  0.00    -0.199 C  
HETATM   32  C   UNL     1      -7.357  12.442  69.561  1.00  0.00     0.455 C  
BRANCH  28  33
HETATM   33  N   UNL     1      -9.272   9.968  69.706  1.00  0.00    -0.310 N  
HETATM   34  O   UNL     1     -10.509   8.514  68.417  1.00  0.00    -0.212 OA 
HETATM   35  C   UNL     1     -10.336   9.114  69.469  1.00  0.00    -0.215 C  
HETATM   36  H   UNL     1      -9.169  10.394  70.627  1.00  0.00     0.000 HD 
BRANCH  35  37
HETATM   37  C   UNL     1     -11.323   9.009  70.571  1.00  0.00    -0.282 A  
HETATM   38  C   UNL     1     -11.513   7.839  71.341  1.00  0.00    -0.289 A  
HETATM   39  C   UNL     1     -12.614   7.857  72.228  1.00  0.00    -0.229 A  
HETATM   40  C   UNL     1     -12.174  10.129  70.715  1.00  0.00    -0.434 A  
HETATM   41  C   UNL     1     -13.245  10.103  71.597  1.00  0.00    -0.518 A  
HETATM   42  C   UNL     1     -13.475   8.959  72.345  1.00  0.00    -0.499 A  
BRANCH  38  43
HETATM   43  C   UNL     1     -10.657   6.612  71.282  1.00  0.00    -0.256 A  
HETATM   44  C   UNL     1     -10.829   5.617  70.306  1.00  0.00    -0.336 A  
HETATM   45  C   UNL     1      -9.003   4.275  71.210  1.00  0.00    -0.168 A  
HETATM   46  C   UNL     1     -10.030   4.461  70.277  1.00  0.00    -0.248 A  
HETATM   47  C   UNL     1      -8.162   3.022  71.221  1.00  0.00    -0.062 C  
HETATM   48  C   UNL     1      -8.782   5.279  72.157  1.00  0.00    -0.131 A  
HETATM   49  C   UNL     1      -9.600   6.417  72.195  1.00  0.00    -0.155 A  
HETATM   50  F   UNL     1      -8.523   2.109  70.277  1.00  0.00    -0.055 F  
HETATM   51  F   UNL     1      -8.220   2.365  72.415  1.00  0.00    -0.052 F  
HETATM   52  F   UNL     1      -6.841   3.278  71.006  1.00  0.00    -0.029 F  
ENDBRANCH  38  43
ENDBRANCH  35  37
ENDBRANCH  28  33
ENDBRANCH  26  27
ENDBRANCH  25  26
ENDBRANCH  24  25
ENDBRANCH  23  24
ENDBRANCH  10  23
ENDBRANCH   7  10
ENDBRANCH   3   6
TORSDOF 10
ENDMDL
MODEL       61
REMARK 921   NORMALIZED FREE ENERGY PREDICTED BY IDOCK:   -5.68 KCAL/MOL
REMARK 922        TOTAL FREE ENERGY PREDICTED BY IDOCK:  -12.09 KCAL/MOL
REMARK 923 INTER-LIGAND FREE ENERGY PREDICTED BY IDOCK:  -10.76 KCAL/MOL
REMARK 924 INTRA-LIGAND FREE ENERGY PREDICTED BY IDOCK:   -1.34 KCAL/MOL
REMARK 927      BINDING AFFINITY PREDICTED BY RF-SCORE:    0.00 PKD
ROOT
HETATM    1  F   UNL     1     -12.402  13.130  70.893  1.00  0.00    -0.405 F  
HETATM    2  C   UNL     1     -13.076  14.068  71.594  1.00  0.00    -0.359 C  
HETATM    3  C   UNL     1     -12.911  15.478  71.004  1.00  0.00    -0.482 C  
HETATM    4  F   UNL     1     -12.664  14.006  72.878  1.00  0.00    -0.423 F  
HETATM    5  F   UNL     1     -14.384  13.710  71.576  1.00  0.00    -0.282 F  
ENDROOT
BRANCH   3   6
HETATM    6  N   UNL     1     -12.033  15.597  69.839  1.00  0.00    -0.361 N  
HETATM    7  C   UNL     1     -11.048  16.565  69.788  1.00  0.00    -0.245 C  
HETATM    8  H   UNL     1     -12.149  14.956  69.055  1.00  0.00     0.000 HD 
HETATM    9  O   UNL     1     -10.932  17.390  70.695  1.00  0.00     0.589 OA 
BRANCH   7  10
HETATM   10  C   UNL     1     -10.124  16.541  68.544  1.00  0.00    -0.255 C  
HETATM   11  C   UNL     1      -8.691  16.119  68.901  1.00  0.00    -0.248 A  
HETATM   12  C   UNL     1      -9.007  20.330  66.896  1.00  0.00    -0.424 A  
HETATM   13  C   UNL     1      -8.253  14.903  69.409  1.00  0.00    -0.084 A  
HETATM   14  C   UNL     1      -8.516  18.258  67.986  1.00  0.00    -0.273 A  
HETATM   15  C   UNL     1      -6.879  14.708  69.554  1.00  0.00    -0.165 A  
HETATM   16  C   UNL     1     -10.378  20.028  66.916  1.00  0.00    -0.567 A  
HETATM   17  C   UNL     1      -5.970  15.720  69.201  1.00  0.00    -0.112 A  
HETATM   18  C   UNL     1      -8.066  19.448  67.439  1.00  0.00    -0.313 A  
HETATM   19  C   UNL     1      -9.896  17.956  67.994  1.00  0.00    -0.320 A  
HETATM   20  C   UNL     1      -6.419  16.946  68.697  1.00  0.00    -0.169 A  
HETATM   21  C   UNL     1     -10.836  18.834  67.473  1.00  0.00    -0.396 A  
HETATM   22  C   UNL     1      -7.781  17.140  68.544  1.00  0.00    -0.248 A  
BRANCH  10  23
HETATM   23  C   UNL     1     -10.717  15.618  67.448  1.00  0.00    -0.309 C  
BRANCH  23  24
HETATM   24  C   UNL     1     -10.315  15.967  66.004  1.00  0.00    -0.363 C  
BRANCH  24  25
HETATM   25  C   UNL     1     -10.836  14.907  65.032  1.00  0.00    -0.439 C  
BRANCH  25  26
HETATM   26  C   UNL     1     -10.105  13.564  65.160  1.00  0.00    -0.256 C  
BRANCH  26  27
HETATM   27  N   UNL     1     -10.766  12.582  66.033  1.00  0.00    -0.257 NA 
HETATM   28  C   UNL     1      -8.724  10.690  67.053  1.00  0.00    -0.128 C  
HETATM   29  C   UNL     1      -8.845  12.124  67.577  1.00  0.00    -0.175 C  
HETATM   30  C   UNL     1      -9.321  10.562  65.646  1.00  0.00    -0.242 C  
HETATM   31  C   UNL     1     -10.709  11.199  65.548  1.00  0.00    -0.185 C  
HETATM   32  C   UNL     1     -10.263  12.664  67.412  1.00  0.00    -0.217 C  
BRANCH  28  33
HETATM   33  N   UNL     1      -9.323   9.731  67.977  1.00  0.00    -0.128 N  
HETATM   34  O   UNL     1      -7.474   9.570  69.342  1.00  0.00    -0.077 OA 
HETATM   35  C   UNL     1      -8.612   9.225  69.051  1.00  0.00    -0.134 C  
HETATM   36  H   UNL     1     -10.286   9.428  67.828  1.00  0.00     0.000 HD 
BRANCH  35  37
HETATM   37  C   UNL     1      -9.298   8.159  69.822  1.00  0.00    -0.159 A  
HETATM   38  C   UNL     1      -9.517   6.854  69.325  1.00  0.00    -0.147 A  
HETATM   39  C   UNL     1     -10.340   6.023  70.119  1.00  0.00    -0.284 A  
HETATM   40  C   UNL     1      -9.852   8.579  71.053  1.00  0.00    -0.245 A  
HETATM   41  C   UNL     1     -10.656   7.730  71.800  1.00  0.00    -0.260 A  
HETATM   42  C   UNL     1     -10.914   6.453  71.326  1.00  0.00    -0.321 A  
BRANCH  38  43
HETATM   43  C   UNL     1      -8.959   6.305  68.048  1.00  0.00    -0.114 A  
HETATM   44  C   UNL     1      -8.216   7.088  67.150  1.00  0.00    -0.118 A  
HETATM   45  C   UNL     1      -7.918   5.218  65.612  1.00  0.00    -0.106 A  
HETATM   46  C   UNL     1      -7.717   6.563  65.947  1.00  0.00    -0.090 A  
HETATM   47  C   UNL     1      -7.426   4.645  64.306  1.00  0.00    -0.071 C  
HETATM   48  C   UNL     1      -8.610   4.410  66.518  1.00  0.00    -0.112 A  
HETATM   49  C   UNL     1      -9.128   4.948  67.705  1.00  0.00    -0.128 A  
HETATM   50  F   UNL     1      -6.816   5.558  63.500  1.00  0.00    -0.034 F  
HETATM   51  F   UNL     1      -8.433   4.107  63.560  1.00  0.00    -0.088 F  
HETATM   52  F   UNL     1      -6.521   3.641  64.482  1.00  0.00    -0.030 F  
ENDBRANCH  38  43
ENDBRANCH  35  37
ENDBRANCH  28  33
ENDBRANCH  26  27
ENDBRANCH  25  26
ENDBRANCH  24  25
ENDBRANCH  23  24
ENDBRANCH  10  23
ENDBRANCH   7  10
ENDBRANCH   3   6
TORSDOF 10
ENDMDL
MODEL       62
REMARK 921   NORMALIZED FREE ENERGY PREDICTED BY IDOCK:   -5.50 KCAL/MOL
REMARK 922        TOTAL FREE ENERGY PREDICTED BY IDOCK:  -11.81 KCAL/MOL
REMARK 923 INTER-LIGAND FREE ENERGY PREDICTED BY IDOCK:  -10.26 KCAL/MOL
REMARK 924 INTRA-LIGAND FREE ENERGY PREDICTED BY IDOCK:   -1.55 KCAL/MOL
REMARK 927      BINDING AFFINITY PREDICTED BY RF-SCORE:    0.00 PKD
ROOT
HETATM    1  F   UNL     1     -11.861  15.237  72.404  1.00  0.00    -0.392 F  
HETATM    2  C   UNL     1     -13.176  15.110  72.120  1.00  0.00    -0.376 C  
HETATM    3  C   UNL     1     -13.458  15.124  70.609  1.00  0.00    -0.200 C  
HETATM    4  F   UNL     1     -13.840  16.091  72.767  1.00  0.00    -0.602 F  
HETATM    5  F   UNL     1     -13.583  13.931  72.655  1.00  0.00    -0.522 F  
ENDROOT
BRANCH   3   6
HETATM    6  N   UNL     1     -12.302  15.321  69.734  1.00  0.00    -0.539 N  
HETATM    7  C   UNL     1     -11.788  14.276  68.990  1.00  0.00    -0.335 C  
HETATM    8  H   UNL     1     -11.870  16.242  69.672  1.00  0.00     0.000 HD 
HETATM    9  O   UNL     1     -12.253  13.140  69.099  1.00  0.00    -0.247 OA 
BRANCH   7  10
HETATM   10  C   UNL     1     -10.618  14.621  68.034  1.00  0.00    -0.240 C  
HETATM   11  C   UNL     1     -10.686  16.075  67.543  1.00  0.00    -0.314 A  
HETATM   12  C   UNL     1     -10.745  12.888  64.123  1.00  0.00    -0.443 A  
HETATM   13  C   UNL     1     -10.590  17.241  68.290  1.00  0.00    -0.383 A  
HETATM   14  C   UNL     1     -10.794  14.748  65.627  1.00  0.00    -0.344 A  
HETATM   15  C   UNL     1     -10.571  18.458  67.607  1.00  0.00    -0.437 A  
HETATM   16  C   UNL     1     -10.695  11.998  65.208  1.00  0.00    -0.331 A  
HETATM   17  C   UNL     1     -10.655  18.495  66.205  1.00  0.00    -0.377 A  
HETATM   18  C   UNL     1     -10.802  14.271  64.327  1.00  0.00     0.013 A  
HETATM   19  C   UNL     1     -10.733  13.847  66.714  1.00  0.00    -0.281 A  
HETATM   20  C   UNL     1     -10.760  17.316  65.459  1.00  0.00    -0.105 A  
HETATM   21  C   UNL     1     -10.694  12.474  66.519  1.00  0.00    -0.266 A  
HETATM   22  C   UNL     1     -10.771  16.106  66.132  1.00  0.00    -0.222 A  
BRANCH  10  23
HETATM   23  C   UNL     1      -9.257  14.331  68.720  1.00  0.00    -0.112 C  
BRANCH  23  24
HETATM   24  C   UNL     1      -8.905  12.842  68.883  1.00  0.00     0.333 C  
BRANCH  24  25
HETATM   25  C   UNL     1      -7.388  12.645  68.857  1.00  0.00    -0.016 C  
BRANCH  25  26
HETATM   26  C   UNL     1      -6.912  11.532  69.799  1.00  0.00     0.088 C  
BRANCH  26  27
HETATM   27  N   UNL     1      -6.978  10.175  69.233  1.00  0.00    -0.060 NA 
HETATM   28  C   UNL     1      -8.173   8.361  71.252  1.00  0.00    -0.134 C  
HETATM   29  C   UNL     1      -9.010   9.373  70.463  1.00  0.00    -0.303 C  
HETATM   30  C   UNL     1      -6.701   8.786  71.311  1.00  0.00    -0.078 C  
HETATM   31  C   UNL     1      -6.158   9.181  69.936  1.00  0.00    -0.038 C  
HETATM   32  C   UNL     1      -8.366   9.707  69.119  1.00  0.00    -0.130 C  
BRANCH  28  33
HETATM   33  N   UNL     1      -8.318   7.011  70.713  1.00  0.00    -0.128 N  
HETATM   34  O   UNL     1     -10.202   6.499  71.935  1.00  0.00    -0.193 OA 
HETATM   35  C   UNL     1      -9.333   6.172  71.138  1.00  0.00    -0.164 C  
HETATM   36  H   UNL     1      -7.658   6.681  70.009  1.00  0.00     0.000 HD 
BRANCH  35  37
HETATM   37  C   UNL     1      -9.274   4.788  70.608  1.00  0.00    -0.191 A  
HETATM   38  C   UNL     1      -9.178   4.481  69.232  1.00  0.00    -0.195 A  
HETATM   39  C   UNL     1      -9.313   3.115  68.894  1.00  0.00    -0.231 A  
HETATM   40  C   UNL     1      -9.464   3.773  71.575  1.00  0.00    -0.221 A  
HETATM   41  C   UNL     1      -9.593   2.444  71.199  1.00  0.00    -0.215 A  
HETATM   42  C   UNL     1      -9.532   2.114  69.854  1.00  0.00    -0.120 A  
BRANCH  38  43
HETATM   43  C   UNL     1      -8.955   5.475  68.134  1.00  0.00    -0.108 A  
HETATM   44  C   UNL     1     -10.001   6.216  67.561  1.00  0.00    -0.159 A  
HETATM   45  C   UNL     1      -8.486   7.359  66.029  1.00  0.00    -0.152 A  
HETATM   46  C   UNL     1      -9.778   7.129  66.518  1.00  0.00    -0.199 A  
HETATM   47  C   UNL     1      -8.230   8.305  64.881  1.00  0.00    -0.151 C  
HETATM   48  C   UNL     1      -7.424   6.670  66.622  1.00  0.00    -0.079 A  
HETATM   49  C   UNL     1      -7.659   5.740  67.646  1.00  0.00    -0.089 A  
HETATM   50  F   UNL     1      -9.360   8.866  64.369  1.00  0.00    -0.092 F  
HETATM   51  F   UNL     1      -7.608   7.696  63.831  1.00  0.00    -0.088 F  
HETATM   52  F   UNL     1      -7.424   9.347  65.232  1.00  0.00    -0.093 F  
ENDBRANCH  38  43
ENDBRANCH  35  37
ENDBRANCH  28  33
ENDBRANCH  26  27
ENDBRANCH  25  26
ENDBRANCH  24  25
ENDBRANCH  23  24
ENDBRANCH  10  23
ENDBRANCH   7  10
ENDBRANCH   3   6
TORSDOF 10
ENDMDL
MODEL       63
REMARK 921   NORMALIZED FREE ENERGY PREDICTED BY IDOCK:   -5.49 KCAL/MOL
REMARK 922        TOTAL FREE ENERGY PREDICTED BY IDOCK:  -11.81 KCAL/MOL
REMARK 923 INTER-LIGAND FREE ENERGY PREDICTED BY IDOCK:  -10.64 KCAL/MOL
REMARK 924 INTRA-LIGAND FREE ENERGY PREDICTED BY IDOCK:   -1.17 KCAL/MOL
REMARK 927      BINDING AFFINITY PREDICTED BY RF-SCORE:    0.00 PKD
ROOT
HETATM    1  F   UNL     1     -11.063  15.586  72.781  1.00  0.00    -0.408 F  
HETATM    2  C   UNL     1     -12.412  15.550  72.710  1.00  0.00    -0.418 C  
HETATM    3  C   UNL     1     -12.926  15.487  71.263  1.00  0.00    -0.499 C  
HETATM    4  F   UNL     1     -12.893  16.624  73.372  1.00  0.00    -0.438 F  
HETATM    5  F   UNL     1     -12.813  14.447  73.392  1.00  0.00    -0.564 F  
ENDROOT
BRANCH   3   6
HETATM    6  N   UNL     1     -11.910  15.528  70.210  1.00  0.00    -0.329 N  
HETATM    7  C   UNL     1     -11.628  14.408  69.451  1.00  0.00    -0.304 C  
HETATM    8  H   UNL     1     -11.404  16.395  70.034  1.00  0.00     0.000 HD 
HETATM    9  O   UNL     1     -12.181  13.334  69.689  1.00  0.00    -0.279 OA 
BRANCH   7  10
HETATM   10  C   UNL     1     -10.598  14.592  68.309  1.00  0.00    -0.235 C  
HETATM   11  C   UNL     1     -10.422  16.069  67.925  1.00  0.00    -0.292 A  
HETATM   12  C   UNL     1     -11.797  13.319  64.403  1.00  0.00    -0.448 A  
HETATM   13  C   UNL     1      -9.937  17.110  68.705  1.00  0.00    -0.313 A  
HETATM   14  C   UNL     1     -11.161  14.990  65.992  1.00  0.00    -0.329 A  
HETATM   15  C   UNL     1      -9.764  18.357  68.103  1.00  0.00    -0.352 A  
HETATM   16  C   UNL     1     -11.758  12.336  65.405  1.00  0.00    -0.424 A  
HETATM   17  C   UNL     1     -10.082  18.549  66.747  1.00  0.00    -0.406 A  
HETATM   18  C   UNL     1     -11.504  14.656  64.693  1.00  0.00    -0.389 A  
HETATM   19  C   UNL     1     -11.114  13.994  66.993  1.00  0.00    -0.312 A  
HETATM   20  C   UNL     1     -10.580  17.498  65.970  1.00  0.00    -0.217 A  
HETATM   21  C   UNL     1     -11.419  12.669  66.716  1.00  0.00    -0.410 A  
HETATM   22  C   UNL     1     -10.745  16.257  66.561  1.00  0.00    -0.187 A  
BRANCH  10  23
HETATM   23  C   UNL     1      -9.238  13.957  68.701  1.00  0.00    -0.094 C  
BRANCH  23  24
HETATM   24  C   UNL     1      -9.227  12.420  68.782  1.00  0.00     0.127 C  
BRANCH  24  25
HETATM   25  C   UNL     1      -8.117  11.845  67.901  1.00  0.00    -0.147 C  
BRANCH  25  26
HETATM   26  C   UNL     1      -7.182  10.893  68.658  1.00  0.00    -0.088 C  
BRANCH  26  27
HETATM   27  N   UNL     1      -7.672   9.510  68.773  1.00  0.00    -0.079 NA 
HETATM   28  C   UNL     1      -6.189   8.154  70.954  1.00  0.00    -0.033 C  
HETATM   29  C   UNL     1      -7.281   9.194  71.229  1.00  0.00    -0.058 C  
HETATM   30  C   UNL     1      -5.590   8.338  69.554  1.00  0.00    -0.030 C  
HETATM   31  C   UNL     1      -6.668   8.482  68.478  1.00  0.00    -0.060 C  
HETATM   32  C   UNL     1      -8.289   9.265  70.084  1.00  0.00    -0.178 C  
BRANCH  28  33
HETATM   33  N   UNL     1      -6.685   6.794  71.148  1.00  0.00    -0.056 N  
HETATM   34  O   UNL     1      -6.420   6.800  73.436  1.00  0.00    -0.063 OA 
HETATM   35  C   UNL     1      -6.730   6.218  72.406  1.00  0.00    -0.068 C  
HETATM   36  H   UNL     1      -7.005   6.259  70.341  1.00  0.00     0.000 HD 
BRANCH  35  37
HETATM   37  C   UNL     1      -7.125   4.789  72.435  1.00  0.00    -0.079 A  
HETATM   38  C   UNL     1      -8.055   4.216  71.537  1.00  0.00    -0.082 A  
HETATM   39  C   UNL     1      -8.447   2.888  71.819  1.00  0.00    -0.085 A  
HETATM   40  C   UNL     1      -6.607   4.051  73.524  1.00  0.00    -0.046 A  
HETATM   41  C   UNL     1      -7.021   2.748  73.765  1.00  0.00    -0.035 A  
HETATM   42  C   UNL     1      -7.954   2.169  72.920  1.00  0.00    -0.053 A  
BRANCH  38  43
HETATM   43  C   UNL     1      -8.643   4.902  70.342  1.00  0.00    -0.115 A  
HETATM   44  C   UNL     1      -8.048   4.850  69.071  1.00  0.00    -0.079 A  
HETATM   45  C   UNL     1      -9.798   6.235  68.086  1.00  0.00    -0.133 A  
HETATM   46  C   UNL     1      -8.603   5.515  67.966  1.00  0.00    -0.100 A  
HETATM   47  C   UNL     1     -10.388   6.991  66.921  1.00  0.00    -0.268 C  
HETATM   48  C   UNL     1     -10.433   6.254  69.331  1.00  0.00    -0.298 A  
HETATM   49  C   UNL     1      -9.860   5.609  70.436  1.00  0.00    -0.253 A  
HETATM   50  F   UNL     1      -9.636   6.926  65.787  1.00  0.00    -0.054 F  
HETATM   51  F   UNL     1     -10.546   8.319  67.187  1.00  0.00    -0.335 F  
HETATM   52  F   UNL     1     -11.625   6.535  66.574  1.00  0.00    -0.245 F  
ENDBRANCH  38  43
ENDBRANCH  35  37
ENDBRANCH  28  33
ENDBRANCH  26  27
ENDBRANCH  25  26
ENDBRANCH  24  25
ENDBRANCH  23  24
ENDBRANCH  10  23
ENDBRANCH   7  10
ENDBRANCH   3   6
TORSDOF 10
ENDMDL
MODEL       64
REMARK 921   NORMALIZED FREE ENERGY PREDICTED BY IDOCK:   -5.44 KCAL/MOL
REMARK 922        TOTAL FREE ENERGY PREDICTED BY IDOCK:  -11.73 KCAL/MOL
REMARK 923 INTER-LIGAND FREE ENERGY PREDICTED BY IDOCK:  -10.66 KCAL/MOL
REMARK 924 INTRA-LIGAND FREE ENERGY PREDICTED BY IDOCK:   -1.06 KCAL/MOL
REMARK 927      BINDING AFFINITY PREDICTED BY RF-SCORE:    0.00 PKD
ROOT
HETATM    1  F   UNL     1     -11.472  16.138  71.740  1.00  0.00    -0.441 F  
HETATM    2  C   UNL     1     -12.364  15.136  71.578  1.00  0.00    -0.344 C  
HETATM    3  C   UNL     1     -12.068  14.277  70.338  1.00  0.00    -0.339 C  
HETATM    4  F   UNL     1     -13.600  15.680  71.532  1.00  0.00    -0.501 F  
HETATM    5  F   UNL     1     -12.306  14.370  72.696  1.00  0.00    -0.357 F  
ENDROOT
BRANCH   3   6
HETATM    6  N   UNL     1     -10.931  14.692  69.516  1.00  0.00    -0.276 N  
HETATM    7  C   UNL     1     -11.101  15.558  68.452  1.00  0.00    -0.315 C  
HETATM    8  H   UNL     1      -9.999  14.337  69.731  1.00  0.00     0.000 HD 
HETATM    9  O   UNL     1     -12.226  15.947  68.135  1.00  0.00     0.156 OA 
BRANCH   7  10
HETATM   10  C   UNL     1      -9.815  15.995  67.707  1.00  0.00    -0.231 C  
HETATM   11  C   UNL     1      -8.554  15.770  68.555  1.00  0.00    -0.183 A  
HETATM   12  C   UNL     1      -9.202  20.203  67.219  1.00  0.00    -0.504 A  
HETATM   13  C   UNL     1      -8.032  14.570  69.020  1.00  0.00    -0.090 A  
HETATM   14  C   UNL     1      -8.622  18.059  68.108  1.00  0.00    -0.277 A  
HETATM   15  C   UNL     1      -6.806  14.601  69.685  1.00  0.00    -0.163 A  
HETATM   16  C   UNL     1     -10.357  19.659  66.633  1.00  0.00    -0.598 A  
HETATM   17  C   UNL     1      -6.128  15.816  69.883  1.00  0.00    -0.166 A  
HETATM   18  C   UNL     1      -8.330  19.405  67.968  1.00  0.00    -0.354 A  
HETATM   19  C   UNL     1      -9.779  17.516  67.506  1.00  0.00    -0.278 A  
HETATM   20  C   UNL     1      -6.665  17.023  69.421  1.00  0.00    -0.208 A  
HETATM   21  C   UNL     1     -10.658  18.305  66.777  1.00  0.00    -0.338 A  
HETATM   22  C   UNL     1      -7.877  16.995  68.752  1.00  0.00    -0.253 A  
BRANCH  10  23
HETATM   23  C   UNL     1      -9.705  15.262  66.345  1.00  0.00    -0.308 C  
BRANCH  23  24
HETATM   24  C   UNL     1     -10.894  14.352  65.987  1.00  0.00    -0.309 C  
BRANCH  24  25
HETATM   25  C   UNL     1     -10.758  12.996  66.679  1.00  0.00    -0.285 C  
BRANCH  25  26
HETATM   26  C   UNL     1      -9.316  12.473  66.698  1.00  0.00    -0.236 C  
BRANCH  26  27
HETATM   27  N   UNL     1      -9.124  11.169  66.044  1.00  0.00    -0.198 NA 
HETATM   28  C   UNL     1      -9.830   9.027  67.970  1.00  0.00    -0.166 C  
HETATM   29  C   UNL     1     -10.891   9.887  67.276  1.00  0.00    -0.268 C  
HETATM   30  C   UNL     1      -8.477   9.747  68.014  1.00  0.00    -0.118 C  
HETATM   31  C   UNL     1      -8.086  10.329  66.654  1.00  0.00    -0.119 C  
HETATM   32  C   UNL     1     -10.388  10.428  65.940  1.00  0.00    -0.190 C  
BRANCH  28  33
HETATM   33  N   UNL     1      -9.715   7.712  67.345  1.00  0.00    -0.151 N  
HETATM   34  O   UNL     1     -11.519   6.798  68.447  1.00  0.00    -0.047 OA 
HETATM   35  C   UNL     1     -10.579   6.682  67.672  1.00  0.00    -0.263 C  
HETATM   36  H   UNL     1      -8.983   7.550  66.653  1.00  0.00     0.000 HD 
BRANCH  35  37
HETATM   37  C   UNL     1     -10.258   5.367  67.065  1.00  0.00    -0.274 A  
HETATM   38  C   UNL     1      -9.419   4.408  67.676  1.00  0.00    -0.204 A  
HETATM   39  C   UNL     1      -9.080   3.290  66.880  1.00  0.00    -0.191 A  
HETATM   40  C   UNL     1     -10.742   5.187  65.748  1.00  0.00    -0.044 A  
HETATM   41  C   UNL     1     -10.383   4.074  65.002  1.00  0.00    -0.174 A  
HETATM   42  C   UNL     1      -9.537   3.130  65.562  1.00  0.00    -0.015 A  
BRANCH  38  43
HETATM   43  C   UNL     1      -8.874   4.492  69.068  1.00  0.00    -0.123 A  
HETATM   44  C   UNL     1      -7.635   5.086  69.360  1.00  0.00    -0.061 A  
HETATM   45  C   UNL     1      -7.862   4.622  71.744  1.00  0.00    -0.098 A  
HETATM   46  C   UNL     1      -7.129   5.138  70.669  1.00  0.00    -0.057 A  
HETATM   47  C   UNL     1      -7.318   4.632  73.151  1.00  0.00    -0.082 C  
HETATM   48  C   UNL     1      -9.121   4.074  71.481  1.00  0.00    -0.174 A  
HETATM   49  C   UNL     1      -9.608   4.002  70.168  1.00  0.00    -0.270 A  
HETATM   50  F   UNL     1      -6.062   5.149  73.251  1.00  0.00    -0.031 F  
HETATM   51  F   UNL     1      -7.249   3.382  73.693  1.00  0.00    -0.044 F  
HETATM   52  F   UNL     1      -8.089   5.362  74.006  1.00  0.00    -0.105 F  
ENDBRANCH  38  43
ENDBRANCH  35  37
ENDBRANCH  28  33
ENDBRANCH  26  27
ENDBRANCH  25  26
ENDBRANCH  24  25
ENDBRANCH  23  24
ENDBRANCH  10  23
ENDBRANCH   7  10
ENDBRANCH   3   6
TORSDOF 10
ENDMDL
MODEL       65
REMARK 921   NORMALIZED FREE ENERGY PREDICTED BY IDOCK:   -5.43 KCAL/MOL
REMARK 922        TOTAL FREE ENERGY PREDICTED BY IDOCK:  -11.70 KCAL/MOL
REMARK 923 INTER-LIGAND FREE ENERGY PREDICTED BY IDOCK:   -9.53 KCAL/MOL
REMARK 924 INTRA-LIGAND FREE ENERGY PREDICTED BY IDOCK:   -2.17 KCAL/MOL
REMARK 927      BINDING AFFINITY PREDICTED BY RF-SCORE:    0.00 PKD
ROOT
HETATM    1  F   UNL     1      -8.080  11.608  67.878  1.00  0.00    -0.116 F  
HETATM    2  C   UNL     1      -6.855  12.172  67.799  1.00  0.00    -0.106 C  
HETATM    3  C   UNL     1      -6.915  13.670  67.463  1.00  0.00    -0.143 C  
HETATM    4  F   UNL     1      -6.133  11.479  66.892  1.00  0.00    -0.086 F  
HETATM    5  F   UNL     1      -6.260  11.991  69.005  1.00  0.00    -0.059 F  
ENDROOT
BRANCH   3   6
HETATM    6  N   UNL     1      -8.246  14.232  67.233  1.00  0.00    -0.227 N  
HETATM    7  C   UNL     1      -8.954  14.825  68.261  1.00  0.00    -0.181 C  
HETATM    8  H   UNL     1      -8.657  14.186  66.301  1.00  0.00     0.000 HD 
HETATM    9  O   UNL     1      -8.505  14.835  69.408  1.00  0.00    -0.104 OA 
BRANCH   7  10
HETATM   10  C   UNL     1     -10.315  15.462  67.882  1.00  0.00    -0.247 C  
HETATM   11  C   UNL     1     -10.802  15.000  66.500  1.00  0.00    -0.320 A  
HETATM   12  C   UNL     1     -10.291  19.629  66.906  1.00  0.00    -0.583 A  
HETATM   13  C   UNL     1     -11.142  13.717  66.092  1.00  0.00    -0.299 A  
HETATM   14  C   UNL     1     -10.594  17.320  66.361  1.00  0.00    -0.179 A  
HETATM   15  C   UNL     1     -11.666  13.554  64.809  1.00  0.00    -0.397 A  
HETATM   16  C   UNL     1      -9.871  19.279  68.199  1.00  0.00    -0.464 A  
HETATM   17  C   UNL     1     -11.834  14.658  63.957  1.00  0.00    -0.135 A  
HETATM   18  C   UNL     1     -10.650  18.648  65.974  1.00  0.00    -0.410 A  
HETATM   19  C   UNL     1     -10.179  16.975  67.667  1.00  0.00    -0.317 A  
HETATM   20  C   UNL     1     -11.480  15.947  64.372  1.00  0.00    -0.268 A  
HETATM   21  C   UNL     1      -9.806  17.942  68.590  1.00  0.00    -0.375 A  
HETATM   22  C   UNL     1     -10.968  16.115  65.647  1.00  0.00    -0.144 A  
BRANCH  10  23
HETATM   23  C   UNL     1     -11.376  15.159  68.972  1.00  0.00    -0.307 C  
BRANCH  23  24
HETATM   24  C   UNL     1     -11.102  13.909  69.829  1.00  0.00    -0.063 C  
BRANCH  24  25
HETATM   25  C   UNL     1     -11.890  12.712  69.296  1.00  0.00    -0.358 C  
BRANCH  25  26
HETATM   26  C   UNL     1     -10.991  11.611  68.717  1.00  0.00    -0.226 C  
BRANCH  26  27
HETATM   27  N   UNL     1     -11.296  10.253  69.194  1.00  0.00    -0.215 NA 
HETATM   28  C   UNL     1      -8.774   8.696  69.301  1.00  0.00    -0.133 C  
HETATM   29  C   UNL     1      -9.115   9.776  70.333  1.00  0.00    -0.154 C  
HETATM   30  C   UNL     1      -9.532   8.927  67.988  1.00  0.00    -0.158 C  
HETATM   31  C   UNL     1     -11.022   9.190  68.220  1.00  0.00     0.046 C  
HETATM   32  C   UNL     1     -10.623   9.967  70.468  1.00  0.00    -0.293 C  
BRANCH  28  33
HETATM   33  N   UNL     1      -9.016   7.356  69.829  1.00  0.00    -0.142 N  
HETATM   34  O   UNL     1      -7.013   6.480  69.104  1.00  0.00    -0.069 OA 
HETATM   35  C   UNL     1      -8.098   6.336  69.652  1.00  0.00    -0.120 C  
HETATM   36  H   UNL     1      -9.879   7.169  70.339  1.00  0.00     0.000 HD 
BRANCH  35  37
HETATM   37  C   UNL     1      -8.537   4.999  70.119  1.00  0.00    -0.111 A  
HETATM   38  C   UNL     1      -8.972   3.972  69.251  1.00  0.00    -0.170 A  
HETATM   39  C   UNL     1      -9.521   2.828  69.875  1.00  0.00    -0.161 A  
HETATM   40  C   UNL     1      -8.625   4.859  71.524  1.00  0.00    -0.129 A  
HETATM   41  C   UNL     1      -9.172   3.719  72.095  1.00  0.00    -0.169 A  
HETATM   42  C   UNL     1      -9.635   2.706  71.269  1.00  0.00    -0.226 A  
BRANCH  38  43
HETATM   43  C   UNL     1      -8.902   4.010  67.756  1.00  0.00    -0.134 A  
HETATM   44  C   UNL     1      -7.782   3.556  67.040  1.00  0.00    -0.080 A  
HETATM   45  C   UNL     1      -8.803   4.111  64.895  1.00  0.00    -0.133 A  
HETATM   46  C   UNL     1      -7.723   3.618  65.638  1.00  0.00    -0.085 A  
HETATM   47  C   UNL     1      -8.744   4.225  63.392  1.00  0.00    -0.117 C  
HETATM   48  C   UNL     1      -9.947   4.519  65.587  1.00  0.00    -0.245 A  
HETATM   49  C   UNL     1      -9.988   4.478  66.988  1.00  0.00    -0.215 A  
HETATM   50  F   UNL     1      -7.551   3.840  62.858  1.00  0.00    -0.053 F  
HETATM   51  F   UNL     1      -8.951   5.500  62.956  1.00  0.00    -0.052 F  
HETATM   52  F   UNL     1      -9.691   3.465  62.772  1.00  0.00    -0.094 F  
ENDBRANCH  38  43
ENDBRANCH  35  37
ENDBRANCH  28  33
ENDBRANCH  26  27
ENDBRANCH  25  26
ENDBRANCH  24  25
ENDBRANCH  23  24
ENDBRANCH  10  23
ENDBRANCH   7  10
ENDBRANCH   3   6
TORSDOF 10
ENDMDL
MODEL       66
REMARK 921   NORMALIZED FREE ENERGY PREDICTED BY IDOCK:   -5.37 KCAL/MOL
REMARK 922        TOTAL FREE ENERGY PREDICTED BY IDOCK:  -11.61 KCAL/MOL
REMARK 923 INTER-LIGAND FREE ENERGY PREDICTED BY IDOCK:   -8.85 KCAL/MOL
REMARK 924 INTRA-LIGAND FREE ENERGY PREDICTED BY IDOCK:   -2.76 KCAL/MOL
REMARK 927      BINDING AFFINITY PREDICTED BY RF-SCORE:    0.00 PKD
ROOT
HETATM    1  F   UNL     1      -8.031   9.289  67.519  1.00  0.00    -0.097 F  
HETATM    2  C   UNL     1      -6.986   9.913  68.105  1.00  0.00    -0.076 C  
HETATM    3  C   UNL     1      -6.421   9.126  69.298  1.00  0.00    -0.045 C  
HETATM    4  F   UNL     1      -7.386  11.153  68.462  1.00  0.00    -0.080 F  
HETATM    5  F   UNL     1      -6.030  10.061  67.154  1.00  0.00    -0.049 F  
ENDROOT
BRANCH   3   6
HETATM    6  N   UNL     1      -7.112   7.882  69.642  1.00  0.00    -0.060 N  
HETATM    7  C   UNL     1      -6.799   6.696  69.005  1.00  0.00    -0.058 C  
HETATM    8  H   UNL     1      -7.834   7.891  70.361  1.00  0.00     0.000 HD 
HETATM    9  O   UNL     1      -5.977   6.674  68.088  1.00  0.00    -0.022 OA 
BRANCH   7  10
HETATM   10  C   UNL     1      -7.533   5.429  69.511  1.00  0.00    -0.069 C  
HETATM   11  C   UNL     1      -7.211   5.126  70.982  1.00  0.00    -0.068 A  
HETATM   12  C   UNL     1      -6.135   1.666  68.027  1.00  0.00    -0.024 A  
HETATM   13  C   UNL     1      -7.496   5.895  72.102  1.00  0.00    -0.096 A  
HETATM   14  C   UNL     1      -6.511   3.255  69.776  1.00  0.00    -0.033 A  
HETATM   15  C   UNL     1      -7.201   5.361  73.357  1.00  0.00    -0.087 A  
HETATM   16  C   UNL     1      -6.617   2.581  67.078  1.00  0.00    -0.039 A  
HETATM   17  C   UNL     1      -6.625   4.085  73.477  1.00  0.00    -0.046 A  
HETATM   18  C   UNL     1      -6.072   2.001  69.384  1.00  0.00    -0.024 A  
HETATM   19  C   UNL     1      -7.005   4.166  68.816  1.00  0.00    -0.047 A  
HETATM   20  C   UNL     1      -6.332   3.319  72.343  1.00  0.00    -0.014 A  
HETATM   21  C   UNL     1      -7.053   3.847  67.467  1.00  0.00    -0.056 A  
HETATM   22  C   UNL     1      -6.631   3.841  71.096  1.00  0.00    -0.030 A  
BRANCH  10  23
HETATM   23  C   UNL     1      -9.063   5.570  69.297  1.00  0.00    -0.132 C  
BRANCH  23  24
HETATM   24  C   UNL     1      -9.484   6.323  68.022  1.00  0.00    -0.116 C  
BRANCH  24  25
HETATM   25  C   UNL     1     -10.563   7.358  68.343  1.00  0.00    -0.192 C  
BRANCH  25  26
HETATM   26  C   UNL     1     -10.650   7.691  69.838  1.00  0.00    -0.235 C  
BRANCH  26  27
HETATM   27  N   UNL     1     -10.246   9.062  70.188  1.00  0.00    -0.188 NA 
HETATM   28  C   UNL     1     -12.686  10.700  70.584  1.00  0.00    -0.359 C  
HETATM   29  C   UNL     1     -12.220   9.664  71.612  1.00  0.00    -0.484 C  
HETATM   30  C   UNL     1     -12.140  10.379  69.188  1.00  0.00     0.047 C  
HETATM   31  C   UNL     1     -10.639  10.082  69.209  1.00  0.00    -0.227 C  
HETATM   32  C   UNL     1     -10.713   9.433  71.532  1.00  0.00    -0.297 C  
BRANCH  28  33
HETATM   33  N   UNL     1     -12.337  12.057  70.996  1.00  0.00    -0.315 N  
HETATM   34  O   UNL     1     -14.263  12.409  72.210  1.00  0.00     0.011 OA 
HETATM   35  C   UNL     1     -13.196  12.817  71.771  1.00  0.00    -0.374 C  
HETATM   36  H   UNL     1     -11.442  12.451  70.708  1.00  0.00     0.000 HD 
BRANCH  35  37
HETATM   37  C   UNL     1     -12.773  14.220  71.996  1.00  0.00    -0.404 A  
HETATM   38  C   UNL     1     -11.980  14.954  71.083  1.00  0.00    -0.389 A  
HETATM   39  C   UNL     1     -11.523  16.212  71.537  1.00  0.00    -0.412 A  
HETATM   40  C   UNL     1     -13.101  14.744  73.268  1.00  0.00    -0.550 A  
HETATM   41  C   UNL     1     -12.630  15.984  73.673  1.00  0.00    -0.706 A  
HETATM   42  C   UNL     1     -11.826  16.715  72.812  1.00  0.00    -0.303 A  
BRANCH  38  43
HETATM   43  C   UNL     1     -11.596  14.502  69.708  1.00  0.00    -0.345 A  
HETATM   44  C   UNL     1     -12.532  14.354  68.672  1.00  0.00     0.138 A  
HETATM   45  C   UNL     1     -10.820  13.624  67.095  1.00  0.00    -0.292 A  
HETATM   46  C   UNL     1     -12.158  13.909  67.393  1.00  0.00    -0.380 A  
HETATM   47  C   UNL     1     -10.404  13.106  65.740  1.00  0.00    -0.289 C  
HETATM   48  C   UNL     1      -9.866  13.816  68.098  1.00  0.00    -0.239 A  
HETATM   49  C   UNL     1     -10.251  14.236  69.379  1.00  0.00     0.061 A  
HETATM   50  F   UNL     1     -11.443  12.919  64.880  1.00  0.00    -0.317 F  
HETATM   51  F   UNL     1      -9.763  11.904  65.815  1.00  0.00    -0.228 F  
HETATM   52  F   UNL     1      -9.539  13.945  65.102  1.00  0.00    -0.213 F  
ENDBRANCH  38  43
ENDBRANCH  35  37
ENDBRANCH  28  33
ENDBRANCH  26  27
ENDBRANCH  25  26
ENDBRANCH  24  25
ENDBRANCH  23  24
ENDBRANCH  10  23
ENDBRANCH   7  10
ENDBRANCH   3   6
TORSDOF 10
ENDMDL
MODEL       67
REMARK 921   NORMALIZED FREE ENERGY PREDICTED BY IDOCK:   -5.35 KCAL/MOL
REMARK 922        TOTAL FREE ENERGY PREDICTED BY IDOCK:  -11.58 KCAL/MOL
REMARK 923 INTER-LIGAND FREE ENERGY PREDICTED BY IDOCK:   -9.28 KCAL/MOL
REMARK 924 INTRA-LIGAND FREE ENERGY PREDICTED BY IDOCK:   -2.30 KCAL/MOL
REMARK 927      BINDING AFFINITY PREDICTED BY RF-SCORE:    0.00 PKD
ROOT
HETATM    1  F   UNL     1     -10.943   4.421  64.934  1.00  0.00    -0.308 F  
HETATM    2  C   UNL     1     -10.159   3.624  64.174  1.00  0.00    -0.212 C  
HETATM    3  C   UNL     1      -8.925   3.113  64.933  1.00  0.00    -0.137 C  
HETATM    4  F   UNL     1      -9.820   4.311  63.062  1.00  0.00    -0.151 F  
HETATM    5  F   UNL     1     -10.927   2.578  63.779  1.00  0.00    -0.195 F  
ENDROOT
BRANCH   3   6
HETATM    6  N   UNL     1      -8.761   3.592  66.306  1.00  0.00    -0.118 N  
HETATM    7  C   UNL     1      -7.632   4.295  66.683  1.00  0.00    -0.085 C  
HETATM    8  H   UNL     1      -9.489   3.404  66.994  1.00  0.00     0.000 HD 
HETATM    9  O   UNL     1      -6.711   4.476  65.885  1.00  0.00    -0.050 OA 
BRANCH   7  10
HETATM   10  C   UNL     1      -7.606   4.827  68.138  1.00  0.00    -0.081 C  
HETATM   11  C   UNL     1      -7.400   3.698  69.159  1.00  0.00    -0.050 A  
HETATM   12  C   UNL     1     -11.332   6.151  69.776  1.00  0.00    -0.452 A  
HETATM   13  C   UNL     1      -6.301   2.862  69.309  1.00  0.00    -0.029 A  
HETATM   14  C   UNL     1      -9.449   4.678  69.695  1.00  0.00    -0.232 A  
HETATM   15  C   UNL     1      -6.293   1.975  70.386  1.00  0.00    -0.024 A  
HETATM   16  C   UNL     1     -10.865   6.827  68.637  1.00  0.00    -0.277 A  
HETATM   17  C   UNL     1      -7.372   1.928  71.285  1.00  0.00    -0.032 A  
HETATM   18  C   UNL     1     -10.628   5.065  70.309  1.00  0.00    -0.134 A  
HETATM   19  C   UNL     1      -8.980   5.369  68.556  1.00  0.00    -0.114 A  
HETATM   20  C   UNL     1      -8.480   2.767  71.123  1.00  0.00    -0.095 A  
HETATM   21  C   UNL     1      -9.682   6.435  68.012  1.00  0.00    -0.122 A  
HETATM   22  C   UNL     1      -8.488   3.655  70.061  1.00  0.00    -0.095 A  
BRANCH  10  23
HETATM   23  C   UNL     1      -6.517   5.920  68.294  1.00  0.00    -0.046 C  
BRANCH  23  24
HETATM   24  C   UNL     1      -6.864   7.288  67.678  1.00  0.00    -0.074 C  
BRANCH  24  25
HETATM   25  C   UNL     1      -6.304   8.420  68.540  1.00  0.00    -0.054 C  
BRANCH  25  26
HETATM   26  C   UNL     1      -6.339   9.783  67.837  1.00  0.00    -0.056 C  
BRANCH  26  27
HETATM   27  N   UNL     1      -6.995  10.855  68.602  1.00  0.00    -0.068 NA 
HETATM   28  C   UNL     1      -9.827  10.101  69.057  1.00  0.00    -0.205 C  
HETATM   29  C   UNL     1      -8.673   9.448  69.824  1.00  0.00    -0.189 C  
HETATM   30  C   UNL     1      -9.346  10.687  67.724  1.00  0.00    -0.154 C  
HETATM   31  C   UNL     1      -8.083  11.535  67.889  1.00  0.00    -0.132 C  
HETATM   32  C   UNL     1      -7.462  10.374  69.910  1.00  0.00    -0.125 C  
BRANCH  28  33
HETATM   33  N   UNL     1     -10.506  11.107  69.869  1.00  0.00    -0.386 N  
HETATM   34  O   UNL     1     -12.627  10.304  69.469  1.00  0.00    -0.005 OA 
HETATM   35  C   UNL     1     -11.885  11.132  69.980  1.00  0.00    -0.361 C  
HETATM   36  H   UNL     1      -9.952  11.806  70.365  1.00  0.00     0.000 HD 
BRANCH  35  37
HETATM   37  C   UNL     1     -12.442  12.289  70.722  1.00  0.00    -0.356 A  
HETATM   38  C   UNL     1     -12.263  13.633  70.322  1.00  0.00    -0.423 A  
HETATM   39  C   UNL     1     -12.708  14.613  71.239  1.00  0.00    -0.402 A  
HETATM   40  C   UNL     1     -13.057  11.965  71.954  1.00  0.00    -0.474 A  
HETATM   41  C   UNL     1     -13.478  12.960  72.824  1.00  0.00     0.091 A  
HETATM   42  C   UNL     1     -13.290  14.288  72.474  1.00  0.00    -0.595 A  
BRANCH  38  43
HETATM   43  C   UNL     1     -11.647  14.081  69.033  1.00  0.00    -0.345 A  
HETATM   44  C   UNL     1     -10.324  14.542  68.947  1.00  0.00    -0.237 A  
HETATM   45  C   UNL     1     -10.511  14.938  66.547  1.00  0.00    -0.297 A  
HETATM   46  C   UNL     1      -9.767  14.977  67.733  1.00  0.00    -0.215 A  
HETATM   47  C   UNL     1      -9.946  15.440  65.241  1.00  0.00    -0.270 C  
HETATM   48  C   UNL     1     -11.813  14.433  66.603  1.00  0.00    -0.417 A  
HETATM   49  C   UNL     1     -12.370  14.024  67.823  1.00  0.00    -0.040 A  
HETATM   50  F   UNL     1      -8.688  15.950  65.347  1.00  0.00    -0.073 F  
HETATM   51  F   UNL     1     -10.704  16.431  64.691  1.00  0.00    -0.365 F  
HETATM   52  F   UNL     1      -9.873  14.463  64.293  1.00  0.00    -0.011 F  
ENDBRANCH  38  43
ENDBRANCH  35  37
ENDBRANCH  28  33
ENDBRANCH  26  27
ENDBRANCH  25  26
ENDBRANCH  24  25
ENDBRANCH  23  24
ENDBRANCH  10  23
ENDBRANCH   7  10
ENDBRANCH   3   6
TORSDOF 10
ENDMDL
MODEL       68
REMARK 921   NORMALIZED FREE ENERGY PREDICTED BY IDOCK:   -5.32 KCAL/MOL
REMARK 922        TOTAL FREE ENERGY PREDICTED BY IDOCK:  -11.53 KCAL/MOL
REMARK 923 INTER-LIGAND FREE ENERGY PREDICTED BY IDOCK:   -9.47 KCAL/MOL
REMARK 924 INTRA-LIGAND FREE ENERGY PREDICTED BY IDOCK:   -2.07 KCAL/MOL
REMARK 927      BINDING AFFINITY PREDICTED BY RF-SCORE:    0.00 PKD
ROOT
HETATM    1  F   UNL     1      -7.872  11.351  67.782  1.00  0.00    -0.104 F  
HETATM    2  C   UNL     1      -6.530  11.202  67.732  1.00  0.00    -0.063 C  
HETATM    3  C   UNL     1      -6.108   9.776  67.343  1.00  0.00    -0.059 C  
HETATM    4  F   UNL     1      -6.024  11.570  68.929  1.00  0.00    -0.047 F  
HETATM    5  F   UNL     1      -6.068  12.088  66.814  1.00  0.00    -0.143 F  
ENDROOT
BRANCH   3   6
HETATM    6  N   UNL     1      -7.189   8.810  67.143  1.00  0.00    -0.079 N  
HETATM    7  C   UNL     1      -7.608   7.989  68.172  1.00  0.00    -0.109 C  
HETATM    8  H   UNL     1      -7.640   8.742  66.231  1.00  0.00     0.000 HD 
HETATM    9  O   UNL     1      -7.035   8.009  69.263  1.00  0.00    -0.054 OA 
BRANCH   7  10
HETATM   10  C   UNL     1      -8.816   7.067  67.870  1.00  0.00    -0.124 C  
HETATM   11  C   UNL     1      -9.841   7.069  69.014  1.00  0.00    -0.154 A  
HETATM   12  C   UNL     1      -8.107   2.849  67.994  1.00  0.00    -0.076 A  
HETATM   13  C   UNL     1     -10.603   8.129  69.487  1.00  0.00    -0.215 A  
HETATM   14  C   UNL     1      -9.132   4.857  68.794  1.00  0.00    -0.147 A  
HETATM   15  C   UNL     1     -11.555   7.866  70.472  1.00  0.00    -0.155 A  
HETATM   16  C   UNL     1      -7.371   3.587  67.054  1.00  0.00    -0.067 A  
HETATM   17  C   UNL     1     -11.727   6.564  70.974  1.00  0.00    -0.402 A  
HETATM   18  C   UNL     1      -8.989   3.482  68.877  1.00  0.00    -0.181 A  
HETATM   19  C   UNL     1      -8.396   5.592  67.839  1.00  0.00    -0.100 A  
HETATM   20  C   UNL     1     -10.949   5.502  70.500  1.00  0.00    -0.196 A  
HETATM   21  C   UNL     1      -7.506   4.972  66.972  1.00  0.00    -0.087 A  
HETATM   22  C   UNL     1     -10.010   5.757  69.515  1.00  0.00    -0.250 A  
BRANCH  10  23
HETATM   23  C   UNL     1      -9.483   7.474  66.530  1.00  0.00    -0.237 C  
BRANCH  23  24
HETATM   24  C   UNL     1     -10.394   8.713  66.595  1.00  0.00    -0.303 C  
BRANCH  24  25
HETATM   25  C   UNL     1     -10.019   9.712  65.500  1.00  0.00    -0.279 C  
BRANCH  25  26
HETATM   26  C   UNL     1     -11.011  10.876  65.384  1.00  0.00     0.038 C  
BRANCH  26  27
HETATM   27  N   UNL     1     -10.742  12.008  66.284  1.00  0.00    -0.257 NA 
HETATM   28  C   UNL     1     -11.679  14.502  64.982  1.00  0.00    -0.392 C  
HETATM   29  C   UNL     1     -12.647  13.481  65.587  1.00  0.00    -0.512 C  
HETATM   30  C   UNL     1     -10.341  13.847  64.617  1.00  0.00    -0.366 C  
HETATM   31  C   UNL     1      -9.787  12.991  65.758  1.00  0.00    -0.209 C  
HETATM   32  C   UNL     1     -11.985  12.672  66.700  1.00  0.00    -0.312 C  
BRANCH  28  33
HETATM   33  N   UNL     1     -11.490  15.649  65.865  1.00  0.00     0.046 N  
HETATM   34  O   UNL     1      -9.436  16.239  65.007  1.00  0.00     0.054 OA 
HETATM   35  C   UNL     1     -10.339  16.416  65.812  1.00  0.00    -0.369 C  
HETATM   36  H   UNL     1     -12.221  15.889  66.535  1.00  0.00     0.000 HD 
BRANCH  35  37
HETATM   37  C   UNL     1     -10.225  17.461  66.859  1.00  0.00    -0.322 A  
HETATM   38  C   UNL     1     -10.585  17.256  68.210  1.00  0.00    -0.383 A  
HETATM   39  C   UNL     1     -10.580  18.407  69.031  1.00  0.00     0.282 A  
HETATM   40  C   UNL     1      -9.857  18.741  66.383  1.00  0.00    -0.403 A  
HETATM   41  C   UNL     1      -9.866  19.844  67.224  1.00  0.00    -0.536 A  
HETATM   42  C   UNL     1     -10.243  19.681  68.548  1.00  0.00    -0.529 A  
BRANCH  38  43
HETATM   43  C   UNL     1     -10.967  15.942  68.818  1.00  0.00    -0.301 A  
HETATM   44  C   UNL     1     -10.047  14.896  68.998  1.00  0.00    -0.237 A  
HETATM   45  C   UNL     1     -11.743  13.439  69.974  1.00  0.00    -0.297 A  
HETATM   46  C   UNL     1     -10.427  13.662  69.550  1.00  0.00     0.305 A  
HETATM   47  C   UNL     1     -12.180  12.107  70.532  1.00  0.00    -0.304 C  
HETATM   48  C   UNL     1     -12.660  14.486  69.852  1.00  0.00    -0.226 A  
HETATM   49  C   UNL     1     -12.280  15.706  69.276  1.00  0.00    -0.167 A  
HETATM   50  F   UNL     1     -11.195  11.166  70.545  1.00  0.00    -0.330 F  
HETATM   51  F   UNL     1     -13.209  11.558  69.826  1.00  0.00     0.249 F  
HETATM   52  F   UNL     1     -12.623  12.198  71.818  1.00  0.00    -0.361 F  
ENDBRANCH  38  43
ENDBRANCH  35  37
ENDBRANCH  28  33
ENDBRANCH  26  27
ENDBRANCH  25  26
ENDBRANCH  24  25
ENDBRANCH  23  24
ENDBRANCH  10  23
ENDBRANCH   7  10
ENDBRANCH   3   6
TORSDOF 10
ENDMDL
MODEL       69
REMARK 921   NORMALIZED FREE ENERGY PREDICTED BY IDOCK:   -5.32 KCAL/MOL
REMARK 922        TOTAL FREE ENERGY PREDICTED BY IDOCK:  -11.53 KCAL/MOL
REMARK 923 INTER-LIGAND FREE ENERGY PREDICTED BY IDOCK:   -9.33 KCAL/MOL
REMARK 924 INTRA-LIGAND FREE ENERGY PREDICTED BY IDOCK:   -2.20 KCAL/MOL
REMARK 927      BINDING AFFINITY PREDICTED BY RF-SCORE:    0.00 PKD
ROOT
HETATM    1  F   UNL     1      -7.780   4.655  66.230  1.00  0.00    -0.086 F  
HETATM    2  C   UNL     1      -8.759   3.777  65.918  1.00  0.00    -0.116 C  
HETATM    3  C   UNL     1      -9.655   3.441  67.121  1.00  0.00    -0.082 C  
HETATM    4  F   UNL     1      -8.181   2.675  65.394  1.00  0.00    -0.083 F  
HETATM    5  F   UNL     1      -9.500   4.346  64.934  1.00  0.00    -0.146 F  
ENDROOT
BRANCH   3   6
HETATM    6  N   UNL     1      -9.292   4.060  68.395  1.00  0.00    -0.150 N  
HETATM    7  C   UNL     1      -9.875   5.246  68.800  1.00  0.00    -0.161 C  
HETATM    8  H   UNL     1      -8.599   3.611  68.994  1.00  0.00     0.000 HD 
HETATM    9  O   UNL     1     -10.666   5.840  68.065  1.00  0.00    -0.242 OA 
BRANCH   7  10
HETATM   10  C   UNL     1      -9.478   5.764  70.206  1.00  0.00    -0.196 C  
HETATM   11  C   UNL     1      -9.991   4.844  71.324  1.00  0.00    -0.271 A  
HETATM   12  C   UNL     1     -11.508   9.256  71.621  1.00  0.00    -0.468 A  
HETATM   13  C   UNL     1      -9.652   3.521  71.573  1.00  0.00    -0.232 A  
HETATM   14  C   UNL     1     -10.962   6.929  71.718  1.00  0.00    -0.259 A  
HETATM   15  C   UNL     1     -10.167   2.916  72.721  1.00  0.00    -0.237 A  
HETATM   16  C   UNL     1     -10.757   9.394  70.444  1.00  0.00    -0.317 A  
HETATM   17  C   UNL     1     -11.011   3.628  73.590  1.00  0.00    -0.333 A  
HETATM   18  C   UNL     1     -11.622   8.017  72.263  1.00  0.00    -0.424 A  
HETATM   19  C   UNL     1     -10.199   7.078  70.538  1.00  0.00    -0.209 A  
HETATM   20  C   UNL     1     -11.356   4.958  73.327  1.00  0.00    -0.408 A  
HETATM   21  C   UNL     1     -10.097   8.299  69.887  1.00  0.00    -0.195 A  
HETATM   22  C   UNL     1     -10.840   5.565  72.194  1.00  0.00    -0.293 A  
BRANCH  10  23
HETATM   23  C   UNL     1      -7.941   5.946  70.300  1.00  0.00    -0.106 C  
BRANCH  23  24
HETATM   24  C   UNL     1      -7.149   5.516  69.052  1.00  0.00    -0.068 C  
BRANCH  24  25
HETATM   25  C   UNL     1      -5.977   6.468  68.808  1.00  0.00    -0.022 C  
BRANCH  25  26
HETATM   26  C   UNL     1      -6.200   7.402  67.612  1.00  0.00    -0.047 C  
BRANCH  26  27
HETATM   27  N   UNL     1      -7.484   8.120  67.622  1.00  0.00    -0.093 NA 
HETATM   28  C   UNL     1      -7.675   9.760  65.159  1.00  0.00    -0.124 C  
HETATM   29  C   UNL     1      -7.848   8.238  65.144  1.00  0.00    -0.120 C  
HETATM   30  C   UNL     1      -6.861  10.214  66.377  1.00  0.00    -0.100 C  
HETATM   31  C   UNL     1      -7.365   9.582  67.676  1.00  0.00    -0.083 C  
HETATM   32  C   UNL     1      -8.335   7.716  66.494  1.00  0.00    -0.129 C  
BRANCH  28  33
HETATM   33  N   UNL     1      -8.963  10.445  65.092  1.00  0.00    -0.180 N  
HETATM   34  O   UNL     1      -8.505  11.564  63.132  1.00  0.00     0.204 OA 
HETATM   35  C   UNL     1      -9.256  11.330  64.069  1.00  0.00    -0.046 C  
HETATM   36  H   UNL     1      -9.661  10.267  65.814  1.00  0.00     0.000 HD 
BRANCH  35  37
HETATM   37  C   UNL     1     -10.543  12.054  64.205  1.00  0.00    -0.377 A  
HETATM   38  C   UNL     1     -10.787  13.036  65.193  1.00  0.00    -0.320 A  
HETATM   39  C   UNL     1     -12.121  13.494  65.290  1.00  0.00    -0.439 A  
HETATM   40  C   UNL     1     -11.576  11.594  63.357  1.00  0.00    -0.340 A  
HETATM   41  C   UNL     1     -12.873  12.071  63.488  1.00  0.00    -0.472 A  
HETATM   42  C   UNL     1     -13.150  13.012  64.466  1.00  0.00     0.064 A  
BRANCH  38  43
HETATM   43  C   UNL     1      -9.761  13.606  66.123  1.00  0.00    -0.269 A  
HETATM   44  C   UNL     1      -9.166  14.861  65.915  1.00  0.00    -0.115 A  
HETATM   45  C   UNL     1      -7.795  14.655  67.922  1.00  0.00    -0.143 A  
HETATM   46  C   UNL     1      -8.190  15.372  66.786  1.00  0.00    -0.252 A  
HETATM   47  C   UNL     1      -6.719  15.167  68.848  1.00  0.00    -0.110 C  
HETATM   48  C   UNL     1      -8.414  13.427  68.175  1.00  0.00    -0.172 A  
HETATM   49  C   UNL     1      -9.369  12.912  67.287  1.00  0.00    -0.212 A  
HETATM   50  F   UNL     1      -6.169  16.348  68.450  1.00  0.00    -0.117 F  
HETATM   51  F   UNL     1      -5.678  14.295  68.971  1.00  0.00    -0.085 F  
HETATM   52  F   UNL     1      -7.176  15.377  70.115  1.00  0.00    -0.148 F  
ENDBRANCH  38  43
ENDBRANCH  35  37
ENDBRANCH  28  33
ENDBRANCH  26  27
ENDBRANCH  25  26
ENDBRANCH  24  25
ENDBRANCH  23  24
ENDBRANCH  10  23
ENDBRANCH   7  10
ENDBRANCH   3   6
TORSDOF 10
ENDMDL
MODEL       70
REMARK 921   NORMALIZED FREE ENERGY PREDICTED BY IDOCK:   -5.27 KCAL/MOL
REMARK 922        TOTAL FREE ENERGY PREDICTED BY IDOCK:  -11.45 KCAL/MOL
REMARK 923 INTER-LIGAND FREE ENERGY PREDICTED BY IDOCK:   -8.96 KCAL/MOL
REMARK 924 INTRA-LIGAND FREE ENERGY PREDICTED BY IDOCK:   -2.49 KCAL/MOL
REMARK 927      BINDING AFFINITY PREDICTED BY RF-SCORE:    0.00 PKD
ROOT
HETATM    1  F   UNL     1      -9.298  19.151  69.221  1.00  0.00    -0.336 F  
HETATM    2  C   UNL     1      -8.064  19.199  68.671  1.00  0.00    -0.370 C  
HETATM    3  C   UNL     1      -7.702  17.909  67.920  1.00  0.00    -0.224 C  
HETATM    4  F   UNL     1      -7.180  19.478  69.654  1.00  0.00    -0.364 F  
HETATM    5  F   UNL     1      -8.055  20.252  67.815  1.00  0.00    -0.331 F  
ENDROOT
BRANCH   3   6
HETATM    6  N   UNL     1      -8.695  16.835  67.956  1.00  0.00    -0.207 N  
HETATM    7  C   UNL     1      -8.320  15.514  67.797  1.00  0.00    -0.146 C  
HETATM    8  H   UNL     1      -9.678  17.064  68.101  1.00  0.00     0.000 HD 
HETATM    9  O   UNL     1      -7.148  15.220  67.556  1.00  0.00    -0.166 OA 
BRANCH   7  10
HETATM   10  C   UNL     1      -9.444  14.457  67.940  1.00  0.00    -0.214 C  
HETATM   11  C   UNL     1     -10.321  14.376  66.682  1.00  0.00    -0.275 A  
HETATM   12  C   UNL     1     -12.664  15.408  70.594  1.00  0.00    -0.490 A  
HETATM   13  C   UNL     1      -9.952  13.999  65.397  1.00  0.00    -0.292 A  
HETATM   14  C   UNL     1     -11.758  14.959  68.426  1.00  0.00    -0.336 A  
HETATM   15  C   UNL     1     -10.953  13.896  64.430  1.00  0.00    -0.322 A  
HETATM   16  C   UNL     1     -11.380  15.336  71.157  1.00  0.00    -0.402 A  
HETATM   17  C   UNL     1     -12.292  14.175  64.751  1.00  0.00    -0.436 A  
HETATM   18  C   UNL     1     -12.860  15.227  69.220  1.00  0.00     0.454 A  
HETATM   19  C   UNL     1     -10.470  14.877  69.001  1.00  0.00    -0.247 A  
HETATM   20  C   UNL     1     -12.655  14.564  66.045  1.00  0.00    -0.112 A  
HETATM   21  C   UNL     1     -10.266  15.073  70.359  1.00  0.00     0.150 A  
HETATM   22  C   UNL     1     -11.667  14.659  67.010  1.00  0.00    -0.379 A  
BRANCH  10  23
HETATM   23  C   UNL     1      -8.840  13.070  68.283  1.00  0.00    -0.172 C  
BRANCH  23  24
HETATM   24  C   UNL     1      -9.774  11.868  68.052  1.00  0.00    -0.191 C  
BRANCH  24  25
HETATM   25  C   UNL     1      -9.861  11.008  69.313  1.00  0.00    -0.060 C  
BRANCH  25  26
HETATM   26  C   UNL     1     -10.503   9.638  69.063  1.00  0.00    -0.213 C  
BRANCH  26  27
HETATM   27  N   UNL     1      -9.634   8.487  69.356  1.00  0.00    -0.169 NA 
HETATM   28  C   UNL     1      -9.359   6.852  66.897  1.00  0.00    -0.148 C  
HETATM   29  C   UNL     1      -8.642   8.195  67.072  1.00  0.00    -0.124 C  
HETATM   30  C   UNL     1     -10.597   6.764  67.799  1.00  0.00    -0.307 C  
HETATM   31  C   UNL     1     -10.293   7.181  69.239  1.00  0.00    -0.203 C  
HETATM   32  C   UNL     1      -8.409   8.518  68.546  1.00  0.00    -0.123 C  
BRANCH  28  33
HETATM   33  N   UNL     1      -8.453   5.730  67.122  1.00  0.00    -0.108 N  
HETATM   34  O   UNL     1     -10.083   4.110  66.969  1.00  0.00    -0.150 OA 
HETATM   35  C   UNL     1      -8.918   4.427  67.165  1.00  0.00    -0.119 C  
HETATM   36  H   UNL     1      -7.457   5.909  67.249  1.00  0.00     0.000 HD 
BRANCH  35  37
HETATM   37  C   UNL     1      -7.909   3.405  67.538  1.00  0.00    -0.077 A  
HETATM   38  C   UNL     1      -7.565   3.098  68.874  1.00  0.00    -0.048 A  
HETATM   39  C   UNL     1      -6.462   2.230  69.042  1.00  0.00    -0.029 A  
HETATM   40  C   UNL     1      -7.201   2.845  66.450  1.00  0.00    -0.066 A  
HETATM   41  C   UNL     1      -6.123   1.997  66.661  1.00  0.00    -0.023 A  
HETATM   42  C   UNL     1      -5.742   1.700  67.960  1.00  0.00    -0.019 A  
BRANCH  38  43
HETATM   43  C   UNL     1      -8.264   3.617  70.092  1.00  0.00    -0.070 A  
HETATM   44  C   UNL     1      -7.725   4.634  70.897  1.00  0.00    -0.072 A  
HETATM   45  C   UNL     1      -9.629   4.575  72.421  1.00  0.00    -0.193 A  
HETATM   46  C   UNL     1      -8.384   5.096  72.048  1.00  0.00    -0.125 A  
HETATM   47  C   UNL     1     -10.334   5.028  73.676  1.00  0.00    -0.219 C  
HETATM   48  C   UNL     1     -10.206   3.599  71.604  1.00  0.00    -0.034 A  
HETATM   49  C   UNL     1      -9.531   3.125  70.470  1.00  0.00    -0.236 A  
HETATM   50  F   UNL     1      -9.632   5.944  74.400  1.00  0.00    -0.138 F  
HETATM   51  F   UNL     1     -10.592   3.997  74.531  1.00  0.00    -0.234 F  
HETATM   52  F   UNL     1     -11.542   5.604  73.418  1.00  0.00    -0.241 F  
ENDBRANCH  38  43
ENDBRANCH  35  37
ENDBRANCH  28  33
ENDBRANCH  26  27
ENDBRANCH  25  26
ENDBRANCH  24  25
ENDBRANCH  23  24
ENDBRANCH  10  23
ENDBRANCH   7  10
ENDBRANCH   3   6
TORSDOF 10
ENDMDL
MODEL       71
REMARK 921   NORMALIZED FREE ENERGY PREDICTED BY IDOCK:   -5.21 KCAL/MOL
REMARK 922        TOTAL FREE ENERGY PREDICTED BY IDOCK:  -11.35 KCAL/MOL
REMARK 923 INTER-LIGAND FREE ENERGY PREDICTED BY IDOCK:   -9.10 KCAL/MOL
REMARK 924 INTRA-LIGAND FREE ENERGY PREDICTED BY IDOCK:   -2.25 KCAL/MOL
REMARK 927      BINDING AFFINITY PREDICTED BY RF-SCORE:    0.00 PKD
ROOT
HETATM    1  F   UNL     1      -8.116  16.343  66.778  1.00  0.00    -0.187 F  
HETATM    2  C   UNL     1      -9.106  17.106  67.294  1.00  0.00    -0.222 C  
HETATM    3  C   UNL     1     -10.386  16.302  67.572  1.00  0.00    -0.288 C  
HETATM    4  F   UNL     1      -9.327  18.132  66.446  1.00  0.00    -0.278 F  
HETATM    5  F   UNL     1      -8.632  17.637  68.450  1.00  0.00    -0.249 F  
ENDROOT
BRANCH   3   6
HETATM    6  N   UNL     1     -10.360  14.888  67.199  1.00  0.00    -0.257 N  
HETATM    7  C   UNL     1      -9.960  13.922  68.102  1.00  0.00    -0.240 C  
HETATM    8  H   UNL     1     -10.642  14.611  66.259  1.00  0.00     0.000 HD 
HETATM    9  O   UNL     1      -9.555  14.239  69.221  1.00  0.00     0.001 OA 
BRANCH   7  10
HETATM   10  C   UNL     1     -10.056  12.451  67.624  1.00  0.00    -0.199 C  
HETATM   11  C   UNL     1      -8.674  11.856  67.313  1.00  0.00    -0.171 A  
HETATM   12  C   UNL     1     -11.649  11.793  63.707  1.00  0.00    -0.508 A  
HETATM   13  C   UNL     1      -7.614  11.639  68.183  1.00  0.00    -0.115 A  
HETATM   14  C   UNL     1      -9.886  11.733  65.323  1.00  0.00    -0.267 A  
HETATM   15  C   UNL     1      -6.486  10.981  67.692  1.00  0.00    -0.060 A  
HETATM   16  C   UNL     1     -12.494  12.420  64.637  1.00  0.00    -0.500 A  
HETATM   17  C   UNL     1      -6.428  10.558  66.353  1.00  0.00    -0.105 A  
HETATM   18  C   UNL     1     -10.334  11.451  64.043  1.00  0.00    -0.418 A  
HETATM   19  C   UNL     1     -10.744  12.355  66.256  1.00  0.00    -0.287 A  
HETATM   20  C   UNL     1      -7.496  10.788  65.480  1.00  0.00     0.007 A  
HETATM   21  C   UNL     1     -12.044  12.712  65.924  1.00  0.00    -0.459 A  
HETATM   22  C   UNL     1      -8.621  11.434  65.965  1.00  0.00    -0.094 A  
BRANCH  10  23
HETATM   23  C   UNL     1     -10.805  11.590  68.675  1.00  0.00    -0.253 C  
BRANCH  23  24
HETATM   24  C   UNL     1     -12.272  11.984  68.926  1.00  0.00    -0.036 C  
BRANCH  24  25
HETATM   25  C   UNL     1     -12.872  11.133  70.045  1.00  0.00    -0.006 C  
BRANCH  25  26
HETATM   26  C   UNL     1     -11.809  10.490  70.945  1.00  0.00    -0.355 C  
BRANCH  26  27
HETATM   27  N   UNL     1     -11.989   9.048  71.178  1.00  0.00    -0.293 NA 
HETATM   28  C   UNL     1      -9.317   7.774  71.358  1.00  0.00    -0.141 C  
HETATM   29  C   UNL     1      -9.892   8.633  72.489  1.00  0.00    -0.268 C  
HETATM   30  C   UNL     1      -9.961   8.128  70.011  1.00  0.00    -0.192 C  
HETATM   31  C   UNL     1     -11.487   8.190  70.099  1.00  0.00     0.006 C  
HETATM   32  C   UNL     1     -11.419   8.637  72.469  1.00  0.00    -0.217 C  
BRANCH  28  33
HETATM   33  N   UNL     1      -9.443   6.349  71.652  1.00  0.00    -0.154 N  
HETATM   34  O   UNL     1      -7.540   5.731  70.510  1.00  0.00    -0.085 OA 
HETATM   35  C   UNL     1      -8.531   5.430  71.163  1.00  0.00    -0.125 C  
HETATM   36  H   UNL     1     -10.218   6.025  72.229  1.00  0.00     0.000 HD 
BRANCH  35  37
HETATM   37  C   UNL     1      -8.860   4.008  71.425  1.00  0.00    -0.145 A  
HETATM   38  C   UNL     1      -9.098   3.060  70.403  1.00  0.00    -0.192 A  
HETATM   39  C   UNL     1      -9.571   1.799  70.831  1.00  0.00    -0.184 A  
HETATM   40  C   UNL     1      -9.061   3.686  72.787  1.00  0.00    -0.119 A  
HETATM   41  C   UNL     1      -9.528   2.435  73.163  1.00  0.00    -0.120 A  
HETATM   42  C   UNL     1      -9.799   1.493  72.182  1.00  0.00    -0.189 A  
BRANCH  38  43
HETATM   43  C   UNL     1      -8.894   3.293  68.938  1.00  0.00    -0.166 A  
HETATM   44  C   UNL     1      -9.786   4.052  68.162  1.00  0.00    -0.138 A  
HETATM   45  C   UNL     1      -8.474   3.705  66.135  1.00  0.00    -0.111 A  
HETATM   46  C   UNL     1      -9.591   4.243  66.785  1.00  0.00    -0.221 A  
HETATM   47  C   UNL     1      -8.268   3.865  64.649  1.00  0.00    -0.097 C  
HETATM   48  C   UNL     1      -7.547   2.991  66.901  1.00  0.00    -0.075 A  
HETATM   49  C   UNL     1      -7.762   2.783  68.271  1.00  0.00    -0.055 A  
HETATM   50  F   UNL     1      -9.274   4.537  64.024  1.00  0.00    -0.149 F  
HETATM   51  F   UNL     1      -8.166   2.667  64.005  1.00  0.00    -0.079 F  
HETATM   52  F   UNL     1      -7.125   4.543  64.349  1.00  0.00    -0.047 F  
ENDBRANCH  38  43
ENDBRANCH  35  37
ENDBRANCH  28  33
ENDBRANCH  26  27
ENDBRANCH  25  26
ENDBRANCH  24  25
ENDBRANCH  23  24
ENDBRANCH  10  23
ENDBRANCH   7  10
ENDBRANCH   3   6
TORSDOF 10
ENDMDL
MODEL       72
REMARK 921   NORMALIZED FREE ENERGY PREDICTED BY IDOCK:   -5.13 KCAL/MOL
REMARK 922        TOTAL FREE ENERGY PREDICTED BY IDOCK:  -11.24 KCAL/MOL
REMARK 923 INTER-LIGAND FREE ENERGY PREDICTED BY IDOCK:   -8.91 KCAL/MOL
REMARK 924 INTRA-LIGAND FREE ENERGY PREDICTED BY IDOCK:   -2.33 KCAL/MOL
REMARK 927      BINDING AFFINITY PREDICTED BY RF-SCORE:    0.00 PKD
ROOT
HETATM    1  F   UNL     1      -7.176   8.890  66.125  1.00  0.00    -0.083 F  
HETATM    2  C   UNL     1      -8.234   8.944  65.286  1.00  0.00    -0.137 C  
HETATM    3  C   UNL     1      -9.550   9.259  66.014  1.00  0.00    -0.270 C  
HETATM    4  F   UNL     1      -8.295   7.773  64.616  1.00  0.00    -0.151 F  
HETATM    5  F   UNL     1      -7.965   9.912  64.374  1.00  0.00    -0.122 F  
ENDROOT
BRANCH   3   6
HETATM    6  N   UNL     1      -9.472   9.398  67.468  1.00  0.00    -0.127 N  
HETATM    7  C   UNL     1      -9.977   8.420  68.303  1.00  0.00    -0.187 C  
HETATM    8  H   UNL     1      -9.038  10.228  67.871  1.00  0.00     0.000 HD 
HETATM    9  O   UNL     1     -10.562   7.440  67.839  1.00  0.00    -0.213 OA 
BRANCH   7  10
HETATM   10  C   UNL     1      -9.761   8.633  69.823  1.00  0.00    -0.176 C  
HETATM   11  C   UNL     1      -8.400   8.096  70.291  1.00  0.00    -0.124 A  
HETATM   12  C   UNL     1     -12.071   6.182  72.464  1.00  0.00    -0.108 A  
HETATM   13  C   UNL     1      -7.132   8.523  69.920  1.00  0.00    -0.051 A  
HETATM   14  C   UNL     1     -10.005   6.915  71.506  1.00  0.00    -0.185 A  
HETATM   15  C   UNL     1      -6.033   7.954  70.565  1.00  0.00    -0.029 A  
HETATM   16  C   UNL     1     -12.784   7.028  71.600  1.00  0.00    -0.417 A  
HETATM   17  C   UNL     1      -6.211   6.972  71.554  1.00  0.00    -0.037 A  
HETATM   18  C   UNL     1     -10.674   6.115  72.416  1.00  0.00    -0.267 A  
HETATM   19  C   UNL     1     -10.728   7.773  70.647  1.00  0.00    -0.233 A  
HETATM   20  C   UNL     1      -7.492   6.540  71.916  1.00  0.00    -0.092 A  
HETATM   21  C   UNL     1     -12.115   7.831  70.677  1.00  0.00    -0.030 A  
HETATM   22  C   UNL     1      -8.586   7.108  71.286  1.00  0.00    -0.124 A  
BRANCH  10  23
HETATM   23  C   UNL     1      -9.920  10.133  70.185  1.00  0.00    -0.154 C  
BRANCH  23  24
HETATM   24  C   UNL     1     -11.365  10.603  70.431  1.00  0.00    -0.389 C  
BRANCH  24  25
HETATM   25  C   UNL     1     -11.896  11.359  69.212  1.00  0.00    -0.417 C  
BRANCH  25  26
HETATM   26  C   UNL     1     -11.953  12.876  69.425  1.00  0.00    -0.269 C  
BRANCH  26  27
HETATM   27  N   UNL     1     -10.666  13.571  69.265  1.00  0.00    -0.078 NA 
HETATM   28  C   UNL     1     -10.903  15.511  67.035  1.00  0.00    -0.314 C  
HETATM   29  C   UNL     1     -11.542  15.757  68.406  1.00  0.00    -0.343 C  
HETATM   30  C   UNL     1     -10.677  14.014  66.790  1.00  0.00    -0.285 C  
HETATM   31  C   UNL     1     -10.000  13.330  67.979  1.00  0.00    -0.233 C  
HETATM   32  C   UNL     1     -10.798  15.013  69.512  1.00  0.00    -0.262 C  
BRANCH  28  33
HETATM   33  N   UNL     1      -9.667  16.271  66.877  1.00  0.00    -0.232 N  
HETATM   34  O   UNL     1     -10.510  18.228  67.752  1.00  0.00    -0.387 OA 
HETATM   35  C   UNL     1      -9.591  17.606  67.236  1.00  0.00    -0.271 C  
HETATM   36  H   UNL     1      -8.842  15.809  66.495  1.00  0.00     0.000 HD 
BRANCH  35  37
HETATM   37  C   UNL     1      -8.319  18.285  66.892  1.00  0.00    -0.256 A  
HETATM   38  C   UNL     1      -7.045  17.783  67.246  1.00  0.00    -0.201 A  
HETATM   39  C   UNL     1      -5.952  18.644  66.996  1.00  0.00    -0.169 A  
HETATM   40  C   UNL     1      -8.466  19.559  66.297  1.00  0.00    -0.370 A  
HETATM   41  C   UNL     1      -7.365  20.372  66.069  1.00  0.00    -0.201 A  
HETATM   42  C   UNL     1      -6.106  19.921  66.433  1.00  0.00    -0.177 A  
BRANCH  38  43
HETATM   43  C   UNL     1      -6.779  16.443  67.858  1.00  0.00    -0.150 A  
HETATM   44  C   UNL     1      -5.981  15.471  67.232  1.00  0.00     0.125 A  
HETATM   45  C   UNL     1      -6.303  13.886  69.058  1.00  0.00    -0.099 A  
HETATM   46  C   UNL     1      -5.758  14.211  67.810  1.00  0.00    -0.065 A  
HETATM   47  C   UNL     1      -6.110  12.524  69.677  1.00  0.00    -0.133 C  
HETATM   48  C   UNL     1      -7.057  14.859  69.721  1.00  0.00    -0.156 A  
HETATM   49  C   UNL     1      -7.296  16.106  69.126  1.00  0.00    -0.215 A  
HETATM   50  F   UNL     1      -5.399  11.662  68.898  1.00  0.00    -0.050 F  
HETATM   51  F   UNL     1      -7.292  11.897  69.940  1.00  0.00     0.143 F  
HETATM   52  F   UNL     1      -5.449  12.579  70.868  1.00  0.00    -0.132 F  
ENDBRANCH  38  43
ENDBRANCH  35  37
ENDBRANCH  28  33
ENDBRANCH  26  27
ENDBRANCH  25  26
ENDBRANCH  24  25
ENDBRANCH  23  24
ENDBRANCH  10  23
ENDBRANCH   7  10
ENDBRANCH   3   6
TORSDOF 10
ENDMDL
MODEL       73
REMARK 921   NORMALIZED FREE ENERGY PREDICTED BY IDOCK:   -5.10 KCAL/MOL
REMARK 922        TOTAL FREE ENERGY PREDICTED BY IDOCK:  -11.18 KCAL/MOL
REMARK 923 INTER-LIGAND FREE ENERGY PREDICTED BY IDOCK:   -8.97 KCAL/MOL
REMARK 924 INTRA-LIGAND FREE ENERGY PREDICTED BY IDOCK:   -2.21 KCAL/MOL
REMARK 927      BINDING AFFINITY PREDICTED BY RF-SCORE:    0.00 PKD
ROOT
HETATM    1  F   UNL     1     -11.702   8.932  70.216  1.00  0.00    -0.234 F  
HETATM    2  C   UNL     1     -11.660   7.647  70.632  1.00  0.00    -0.232 C  
HETATM    3  C   UNL     1     -10.618   6.813  69.870  1.00  0.00    -0.222 C  
HETATM    4  F   UNL     1     -12.903   7.131  70.518  1.00  0.00    -0.250 F  
HETATM    5  F   UNL     1     -11.357   7.670  71.954  1.00  0.00    -0.252 F  
ENDROOT
BRANCH   3   6
HETATM    6  N   UNL     1      -9.888   7.500  68.805  1.00  0.00    -0.162 N  
HETATM    7  C   UNL     1      -8.607   7.975  69.014  1.00  0.00    -0.137 C  
HETATM    8  H   UNL     1     -10.330   7.631  67.895  1.00  0.00     0.000 HD 
HETATM    9  O   UNL     1      -8.078   7.886  70.123  1.00  0.00    -0.111 OA 
BRANCH   7  10
HETATM   10  C   UNL     1      -7.899   8.609  67.790  1.00  0.00    -0.103 C  
HETATM   11  C   UNL     1      -8.811   9.596  67.045  1.00  0.00    -0.142 A  
HETATM   12  C   UNL     1      -7.244   6.067  64.409  1.00  0.00    -0.063 A  
HETATM   13  C   UNL     1      -9.352  10.787  67.511  1.00  0.00    -0.158 A  
HETATM   14  C   UNL     1      -8.255   7.945  65.493  1.00  0.00    -0.140 A  
HETATM   15  C   UNL     1     -10.068  11.578  66.612  1.00  0.00    -0.242 A  
HETATM   16  C   UNL     1      -6.634   5.686  65.615  1.00  0.00    -0.041 A  
HETATM   17  C   UNL     1     -10.239  11.172  65.277  1.00  0.00    -0.337 A  
HETATM   18  C   UNL     1      -8.066   7.197  64.343  1.00  0.00    -0.056 A  
HETATM   19  C   UNL     1      -7.630   7.562  66.701  1.00  0.00    -0.097 A  
HETATM   20  C   UNL     1      -9.698   9.966  64.818  1.00  0.00    -0.305 A  
HETATM   21  C   UNL     1      -6.828   6.432  66.778  1.00  0.00    -0.066 A  
HETATM   22  C   UNL     1      -8.980   9.182  65.704  1.00  0.00    -0.249 A  
BRANCH  10  23
HETATM   23  C   UNL     1      -6.578   9.296  68.226  1.00  0.00    -0.059 C  
BRANCH  23  24
HETATM   24  C   UNL     1      -6.726  10.733  68.756  1.00  0.00    -0.060 C  
BRANCH  24  25
HETATM   25  C   UNL     1      -5.442  11.181  69.454  1.00  0.00    -0.041 C  
BRANCH  25  26
HETATM   26  C   UNL     1      -5.157  12.678  69.285  1.00  0.00    -0.069 C  
BRANCH  26  27
HETATM   27  N   UNL     1      -6.041  13.370  68.334  1.00  0.00    -0.083 NA 
HETATM   28  C   UNL     1      -6.853  15.969  69.509  1.00  0.00    -0.193 C  
HETATM   29  C   UNL     1      -5.449  15.729  68.945  1.00  0.00    -0.103 C  
HETATM   30  C   UNL     1      -7.521  14.649  69.914  1.00  0.00     0.117 C  
HETATM   31  C   UNL     1      -7.409  13.586  68.819  1.00  0.00    -0.086 C  
HETATM   32  C   UNL     1      -5.453  14.637  67.877  1.00  0.00    -0.087 C  
BRANCH  28  33
HETATM   33  N   UNL     1      -7.683  16.723  68.573  1.00  0.00    -0.212 N  
HETATM   34  O   UNL     1      -6.935  18.793  69.250  1.00  0.00    -0.285 OA 
HETATM   35  C   UNL     1      -7.667  18.107  68.550  1.00  0.00    -0.297 C  
HETATM   36  H   UNL     1      -8.288  16.219  67.924  1.00  0.00     0.000 HD 
BRANCH  35  37
HETATM   37  C   UNL     1      -8.659  18.738  67.647  1.00  0.00    -0.293 A  
HETATM   38  C   UNL     1      -9.902  18.150  67.319  1.00  0.00    -0.316 A  
HETATM   39  C   UNL     1     -10.646  18.802  66.309  1.00  0.00    -0.429 A  
HETATM   40  C   UNL     1      -8.218  19.923  67.014  1.00  0.00    -0.356 A  
HETATM   41  C   UNL     1      -8.980  20.530  66.026  1.00  0.00     0.111 A  
HETATM   42  C   UNL     1     -10.190  19.961  65.661  1.00  0.00    -0.384 A  
BRANCH  38  43
HETATM   43  C   UNL     1     -10.470  16.913  67.945  1.00  0.00    -0.344 A  
HETATM   44  C   UNL     1     -10.500  15.676  67.281  1.00  0.00    -0.292 A  
HETATM   45  C   UNL     1     -11.575  14.575  69.175  1.00  0.00    -0.331 A  
HETATM   46  C   UNL     1     -11.055  14.530  67.875  1.00  0.00    -0.290 A  
HETATM   47  C   UNL     1     -12.212  13.366  69.814  1.00  0.00    -0.245 C  
HETATM   48  C   UNL     1     -11.506  15.785  69.871  1.00  0.00    -0.347 A  
HETATM   49  C   UNL     1     -10.974  16.930  69.262  1.00  0.00    -0.112 A  
HETATM   50  F   UNL     1     -12.256  12.273  69.002  1.00  0.00    -0.313 F  
HETATM   51  F   UNL     1     -13.501  13.596  70.197  1.00  0.00     0.148 F  
HETATM   52  F   UNL     1     -11.560  12.966  70.942  1.00  0.00    -0.122 F  
ENDBRANCH  38  43
ENDBRANCH  35  37
ENDBRANCH  28  33
ENDBRANCH  26  27
ENDBRANCH  25  26
ENDBRANCH  24  25
ENDBRANCH  23  24
ENDBRANCH  10  23
ENDBRANCH   7  10
ENDBRANCH   3   6
TORSDOF 10
ENDMDL
MODEL       74
REMARK 921   NORMALIZED FREE ENERGY PREDICTED BY IDOCK:   -4.96 KCAL/MOL
REMARK 922        TOTAL FREE ENERGY PREDICTED BY IDOCK:  -10.96 KCAL/MOL
REMARK 923 INTER-LIGAND FREE ENERGY PREDICTED BY IDOCK:   -9.25 KCAL/MOL
REMARK 924 INTRA-LIGAND FREE ENERGY PREDICTED BY IDOCK:   -1.71 KCAL/MOL
REMARK 927      BINDING AFFINITY PREDICTED BY RF-SCORE:    0.00 PKD
ROOT
HETATM    1  F   UNL     1     -12.878  15.366  70.321  1.00  0.00    -0.397 F  
HETATM    2  C   UNL     1     -12.797  14.305  71.154  1.00  0.00    -0.359 C  
HETATM    3  C   UNL     1     -11.714  13.301  70.728  1.00  0.00     0.278 C  
HETATM    4  F   UNL     1     -14.018  13.733  71.221  1.00  0.00    -0.308 F  
HETATM    5  F   UNL     1     -12.515  14.794  72.388  1.00  0.00    -0.355 F  
ENDROOT
BRANCH   3   6
HETATM    6  N   UNL     1     -10.991  13.609  69.494  1.00  0.00    -0.448 N  
HETATM    7  C   UNL     1     -11.284  12.948  68.316  1.00  0.00    -0.270 C  
HETATM    8  H   UNL     1     -10.261  14.321  69.503  1.00  0.00     0.000 HD 
HETATM    9  O   UNL     1     -12.116  12.039  68.297  1.00  0.00    -0.447 OA 
BRANCH   7  10
HETATM   10  C   UNL     1     -10.516  13.416  67.054  1.00  0.00    -0.257 C  
HETATM   11  C   UNL     1     -10.571  14.941  66.880  1.00  0.00    -0.300 A  
HETATM   12  C   UNL     1     -12.302  12.532  63.267  1.00  0.00    -0.473 A  
HETATM   13  C   UNL     1     -10.055  15.922  67.716  1.00  0.00    -0.244 A  
HETATM   14  C   UNL     1     -11.550  14.043  64.962  1.00  0.00    -0.351 A  
HETATM   15  C   UNL     1     -10.131  17.250  67.294  1.00  0.00    -0.300 A  
HETATM   16  C   UNL     1     -11.971  11.437  64.081  1.00  0.00     0.126 A  
HETATM   17  C   UNL     1     -10.721  17.579  66.062  1.00  0.00    -0.116 A  
HETATM   18  C   UNL     1     -12.100  13.845  63.707  1.00  0.00    -0.330 A  
HETATM   19  C   UNL     1     -11.209  12.937  65.772  1.00  0.00    -0.324 A  
HETATM   20  C   UNL     1     -11.247  16.586  65.229  1.00  0.00     0.049 A  
HETATM   21  C   UNL     1     -11.424  11.633  65.349  1.00  0.00    -0.170 A  
HETATM   22  C   UNL     1     -11.166  15.266  65.639  1.00  0.00    -0.256 A  
BRANCH  10  23
HETATM   23  C   UNL     1      -9.048  12.917  67.100  1.00  0.00    -0.220 C  
BRANCH  23  24
HETATM   24  C   UNL     1      -8.706  11.978  68.271  1.00  0.00    -0.178 C  
BRANCH  24  25
HETATM   25  C   UNL     1      -8.226  10.623  67.749  1.00  0.00    -0.111 C  
BRANCH  25  26
HETATM   26  C   UNL     1      -9.366   9.745  67.219  1.00  0.00    -0.138 C  
BRANCH  26  27
HETATM   27  N   UNL     1      -9.400   8.381  67.770  1.00  0.00    -0.134 NA 
HETATM   28  C   UNL     1     -10.247   8.522  70.608  1.00  0.00    -0.197 C  
HETATM   29  C   UNL     1     -11.230   8.719  69.450  1.00  0.00     0.163 C  
HETATM   30  C   UNL     1      -8.809   8.829  70.172  1.00  0.00    -0.160 C  
HETATM   31  C   UNL     1      -8.445   8.138  68.856  1.00  0.00    -0.130 C  
HETATM   32  C   UNL     1     -10.758   8.003  68.186  1.00  0.00    -0.032 C  
BRANCH  28  33
HETATM   33  N   UNL     1     -10.357   7.184  71.182  1.00  0.00    -0.203 N  
HETATM   34  O   UNL     1      -8.747   7.515  72.796  1.00  0.00    -0.119 OA 
HETATM   35  C   UNL     1      -9.554   6.784  72.236  1.00  0.00    -0.144 C  
HETATM   36  H   UNL     1     -11.041   6.531  70.798  1.00  0.00     0.000 HD 
BRANCH  35  37
HETATM   37  C   UNL     1      -9.679   5.358  72.624  1.00  0.00    -0.173 A  
HETATM   38  C   UNL     1      -9.553   4.286  71.711  1.00  0.00    -0.218 A  
HETATM   39  C   UNL     1      -9.876   3.006  72.215  1.00  0.00    -0.234 A  
HETATM   40  C   UNL     1     -10.078   5.139  73.962  1.00  0.00    -0.237 A  
HETATM   41  C   UNL     1     -10.387   3.865  74.416  1.00  0.00    -0.267 A  
HETATM   42  C   UNL     1     -10.301   2.796  73.536  1.00  0.00    -0.214 A  
BRANCH  38  43
HETATM   43  C   UNL     1      -9.117   4.408  70.283  1.00  0.00    -0.162 A  
HETATM   44  C   UNL     1     -10.026   4.409  69.213  1.00  0.00    -0.144 A  
HETATM   45  C   UNL     1      -8.241   4.633  67.566  1.00  0.00    -0.101 A  
HETATM   46  C   UNL     1      -9.600   4.503  67.878  1.00  0.00    -0.208 A  
HETATM   47  C   UNL     1      -7.759   4.694  66.137  1.00  0.00    -0.091 C  
HETATM   48  C   UNL     1      -7.325   4.687  68.620  1.00  0.00    -0.061 A  
HETATM   49  C   UNL     1      -7.756   4.567  69.949  1.00  0.00    -0.057 A  
HETATM   50  F   UNL     1      -8.755   4.578  65.216  1.00  0.00    -0.117 F  
HETATM   51  F   UNL     1      -6.865   3.706  65.845  1.00  0.00    -0.050 F  
HETATM   52  F   UNL     1      -7.121   5.864  65.850  1.00  0.00    -0.065 F  
ENDBRANCH  38  43
ENDBRANCH  35  37
ENDBRANCH  28  33
ENDBRANCH  26  27
ENDBRANCH  25  26
ENDBRANCH  24  25
ENDBRANCH  23  24
ENDBRANCH  10  23
ENDBRANCH   7  10
ENDBRANCH   3   6
TORSDOF 10
ENDMDL
MODEL       75
REMARK 921   NORMALIZED FREE ENERGY PREDICTED BY IDOCK:   -4.88 KCAL/MOL
REMARK 922        TOTAL FREE ENERGY PREDICTED BY IDOCK:  -10.83 KCAL/MOL
REMARK 923 INTER-LIGAND FREE ENERGY PREDICTED BY IDOCK:   -9.87 KCAL/MOL
REMARK 924 INTRA-LIGAND FREE ENERGY PREDICTED BY IDOCK:   -0.97 KCAL/MOL
REMARK 927      BINDING AFFINITY PREDICTED BY RF-SCORE:    0.00 PKD
ROOT
HETATM    1  F   UNL     1      -7.252  13.589  69.601  1.00  0.00     0.009 F  
HETATM    2  C   UNL     1      -6.220  14.120  70.295  1.00  0.00    -0.146 C  
HETATM    3  C   UNL     1      -5.966  15.593  69.939  1.00  0.00    -0.156 C  
HETATM    4  F   UNL     1      -5.131  13.351  70.076  1.00  0.00    -0.082 F  
HETATM    5  F   UNL     1      -6.531  14.008  71.611  1.00  0.00    -0.076 F  
ENDROOT
BRANCH   3   6
HETATM    6  N   UNL     1      -6.818  16.167  68.897  1.00  0.00    -0.142 N  
HETATM    7  C   UNL     1      -6.326  17.112  68.017  1.00  0.00    -0.141 C  
HETATM    8  H   UNL     1      -7.789  15.866  68.820  1.00  0.00     0.000 HD 
HETATM    9  O   UNL     1      -5.176  17.537  68.133  1.00  0.00    -0.135 OA 
BRANCH   7  10
HETATM   10  C   UNL     1      -7.293  17.585  66.903  1.00  0.00    -0.239 C  
HETATM   11  C   UNL     1      -6.580  18.446  65.849  1.00  0.00    -0.306 A  
HETATM   12  C   UNL     1     -10.156  20.580  67.974  1.00  0.00    -0.264 A  
HETATM   13  C   UNL     1      -5.558  18.077  64.984  1.00  0.00     0.022 A  
HETATM   14  C   UNL     1      -8.252  19.799  66.755  1.00  0.00    -0.344 A  
HETATM   15  C   UNL     1      -5.138  19.006  64.031  1.00  0.00    -0.254 A  
HETATM   16  C   UNL     1     -10.223  19.363  68.670  1.00  0.00    -0.462 A  
HETATM   17  C   UNL     1      -5.731  20.278  63.959  1.00  0.00    -0.297 A  
HETATM   18  C   UNL     1      -9.162  20.809  67.015  1.00  0.00    -0.314 A  
HETATM   19  C   UNL     1      -8.332  18.572  67.451  1.00  0.00    -0.264 A  
HETATM   20  C   UNL     1      -6.754  20.645  64.840  1.00  0.00    -0.220 A  
HETATM   21  C   UNL     1      -9.304  18.346  68.416  1.00  0.00    -0.347 A  
HETATM   22  C   UNL     1      -7.180  19.724  65.782  1.00  0.00    -0.336 A  
BRANCH  10  23
HETATM   23  C   UNL     1      -7.992  16.367  66.242  1.00  0.00    -0.264 C  
BRANCH  23  24
HETATM   24  C   UNL     1      -8.566  15.326  67.220  1.00  0.00    -0.210 C  
BRANCH  24  25
HETATM   25  C   UNL     1     -10.063  15.130  66.975  1.00  0.00    -0.244 C  
BRANCH  25  26
HETATM   26  C   UNL     1     -10.538  13.702  67.270  1.00  0.00    -0.267 C  
BRANCH  26  27
HETATM   27  N   UNL     1      -9.490  12.673  67.180  1.00  0.00    -0.207 NA 
HETATM   28  C   UNL     1     -10.774  10.055  66.638  1.00  0.00    -0.058 C  
HETATM   29  C   UNL     1     -10.636  11.138  65.562  1.00  0.00    -0.289 C  
HETATM   30  C   UNL     1     -10.731  10.664  68.045  1.00  0.00    -0.275 C  
HETATM   31  C   UNL     1      -9.563  11.637  68.217  1.00  0.00    -0.198 C  
HETATM   32  C   UNL     1      -9.452  12.060  65.845  1.00  0.00    -0.197 C  
BRANCH  28  33
HETATM   33  N   UNL     1      -9.768   9.009  66.477  1.00  0.00    -0.222 N  
HETATM   34  O   UNL     1     -10.992   7.375  67.542  1.00  0.00    -0.204 OA 
HETATM   35  C   UNL     1      -9.965   7.737  66.983  1.00  0.00    -0.244 C  
HETATM   36  H   UNL     1      -8.903   9.221  65.981  1.00  0.00     0.000 HD 
BRANCH  35  37
HETATM   37  C   UNL     1      -8.805   6.820  66.867  1.00  0.00    -0.120 A  
HETATM   38  C   UNL     1      -8.120   6.282  67.980  1.00  0.00    -0.115 A  
HETATM   39  C   UNL     1      -6.933   5.572  67.688  1.00  0.00    -0.066 A  
HETATM   40  C   UNL     1      -8.332   6.625  65.549  1.00  0.00    -0.144 A  
HETATM   41  C   UNL     1      -7.160   5.922  65.308  1.00  0.00    -0.065 A  
HETATM   42  C   UNL     1      -6.449   5.407  66.381  1.00  0.00    -0.044 A  
BRANCH  38  43
HETATM   43  C   UNL     1      -8.549   6.410  69.409  1.00  0.00    -0.130 A  
HETATM   44  C   UNL     1      -8.776   5.297  70.233  1.00  0.00    -0.134 A  
HETATM   45  C   UNL     1      -9.377   6.702  72.135  1.00  0.00    -0.142 A  
HETATM   46  C   UNL     1      -9.197   5.435  71.566  1.00  0.00    -0.169 A  
HETATM   47  C   UNL     1      -9.869   6.871  73.551  1.00  0.00    -0.242 C  
HETATM   48  C   UNL     1      -9.105   7.823  71.346  1.00  0.00    -0.154 A  
HETATM   49  C   UNL     1      -8.709   7.677  70.009  1.00  0.00    -0.142 A  
HETATM   50  F   UNL     1     -10.143   5.696  74.183  1.00  0.00    -0.169 F  
HETATM   51  F   UNL     1     -11.016   7.606  73.621  1.00  0.00    -0.411 F  
HETATM   52  F   UNL     1      -8.968   7.518  74.344  1.00  0.00    -0.251 F  
ENDBRANCH  38  43
ENDBRANCH  35  37
ENDBRANCH  28  33
ENDBRANCH  26  27
ENDBRANCH  25  26
ENDBRANCH  24  25
ENDBRANCH  23  24
ENDBRANCH  10  23
ENDBRANCH   7  10
ENDBRANCH   3   6
TORSDOF 10
ENDMDL
MODEL       76
REMARK 921   NORMALIZED FREE ENERGY PREDICTED BY IDOCK:   -4.81 KCAL/MOL
REMARK 922        TOTAL FREE ENERGY PREDICTED BY IDOCK:  -10.72 KCAL/MOL
REMARK 923 INTER-LIGAND FREE ENERGY PREDICTED BY IDOCK:   -9.16 KCAL/MOL
REMARK 924 INTRA-LIGAND FREE ENERGY PREDICTED BY IDOCK:   -1.57 KCAL/MOL
REMARK 927      BINDING AFFINITY PREDICTED BY RF-SCORE:    0.00 PKD
ROOT
HETATM    1  F   UNL     1      -8.529   8.147  64.387  1.00  0.00    -0.155 F  
HETATM    2  C   UNL     1      -7.667   7.479  63.589  1.00  0.00    -0.126 C  
HETATM    3  C   UNL     1      -6.837   6.439  64.357  1.00  0.00    -0.042 C  
HETATM    4  F   UNL     1      -6.886   8.388  62.965  1.00  0.00    -0.087 F  
HETATM    5  F   UNL     1      -8.409   6.865  62.633  1.00  0.00    -0.122 F  
ENDROOT
BRANCH   3   6
HETATM    6  N   UNL     1      -7.060   6.366  65.801  1.00  0.00    -0.061 N  
HETATM    7  C   UNL     1      -7.885   5.400  66.345  1.00  0.00    -0.100 C  
HETATM    8  H   UNL     1      -6.600   7.039  66.415  1.00  0.00     0.000 HD 
HETATM    9  O   UNL     1      -8.500   4.620  65.618  1.00  0.00    -0.114 OA 
BRANCH   7  10
HETATM   10  C   UNL     1      -7.978   5.366  67.892  1.00  0.00    -0.096 C  
HETATM   11  C   UNL     1      -6.993   6.345  68.549  1.00  0.00    -0.080 A  
HETATM   12  C   UNL     1      -6.421   1.888  69.842  1.00  0.00    -0.028 A  
HETATM   13  C   UNL     1      -6.963   7.730  68.453  1.00  0.00    -0.072 A  
HETATM   14  C   UNL     1      -6.415   4.228  69.344  1.00  0.00    -0.033 A  
HETATM   15  C   UNL     1      -6.035   8.421  69.233  1.00  0.00    -0.038 A  
HETATM   16  C   UNL     1      -7.481   1.689  68.943  1.00  0.00    -0.043 A  
HETATM   17  C   UNL     1      -5.155   7.730  70.083  1.00  0.00    -0.023 A  
HETATM   18  C   UNL     1      -5.876   3.162  70.043  1.00  0.00    -0.018 A  
HETATM   19  C   UNL     1      -7.488   4.022  68.448  1.00  0.00    -0.059 A  
HETATM   20  C   UNL     1      -5.185   6.334  70.167  1.00  0.00    -0.013 A  
HETATM   21  C   UNL     1      -8.021   2.759  68.231  1.00  0.00    -0.063 A  
HETATM   22  C   UNL     1      -6.110   5.644  69.402  1.00  0.00    -0.024 A  
BRANCH  10  23
HETATM   23  C   UNL     1      -9.432   5.650  68.351  1.00  0.00    -0.142 C  
BRANCH  23  24
HETATM   24  C   UNL     1     -10.201   6.679  67.505  1.00  0.00    -0.229 C  
BRANCH  24  25
HETATM   25  C   UNL     1     -10.891   7.704  68.406  1.00  0.00    -0.011 C  
BRANCH  25  26
HETATM   26  C   UNL     1     -10.296   7.760  69.818  1.00  0.00    -0.221 C  
BRANCH  26  27
HETATM   27  N   UNL     1      -9.956   9.111  70.292  1.00  0.00    -0.194 NA 
HETATM   28  C   UNL     1     -12.421  10.759  70.313  1.00  0.00    -0.317 C  
HETATM   29  C   UNL     1     -12.150   9.678  71.363  1.00  0.00    -0.472 C  
HETATM   30  C   UNL     1     -11.635  10.489  69.024  1.00  0.00    -0.278 C  
HETATM   31  C   UNL     1     -10.163  10.174  69.301  1.00  0.00    -0.223 C  
HETATM   32  C   UNL     1     -10.654   9.433  71.544  1.00  0.00    -0.261 C  
BRANCH  28  33
HETATM   33  N   UNL     1     -12.146  12.094  70.836  1.00  0.00    -0.418 N  
HETATM   34  O   UNL     1     -14.136  12.286  71.979  1.00  0.00     0.148 OA 
HETATM   35  C   UNL     1     -13.068  12.764  71.621  1.00  0.00    -0.331 C  
HETATM   36  H   UNL     1     -11.255  12.542  70.619  1.00  0.00     0.000 HD 
BRANCH  35  37
HETATM   37  C   UNL     1     -12.712  14.162  71.966  1.00  0.00    -0.392 A  
HETATM   38  C   UNL     1     -11.982  15.017  71.108  1.00  0.00    -0.375 A  
HETATM   39  C   UNL     1     -11.579  16.251  71.666  1.00  0.00    -0.436 A  
HETATM   40  C   UNL     1     -13.035  14.549  73.287  1.00  0.00    -0.500 A  
HETATM   41  C   UNL     1     -12.618  15.772  73.794  1.00  0.00    -0.733 A  
HETATM   42  C   UNL     1     -11.875  16.619  72.988  1.00  0.00    -0.293 A  
BRANCH  38  43
HETATM   43  C   UNL     1     -11.610  14.712  69.690  1.00  0.00    -0.349 A  
HETATM   44  C   UNL     1     -12.566  14.576  68.670  1.00  0.00     0.377 A  
HETATM   45  C   UNL     1     -10.855  14.120  66.991  1.00  0.00    -0.295 A  
HETATM   46  C   UNL     1     -12.201  14.270  67.349  1.00  0.00    -0.267 A  
HETATM   47  C   UNL     1     -10.446  13.750  65.587  1.00  0.00    -0.305 C  
HETATM   48  C   UNL     1      -9.886  14.303  67.981  1.00  0.00    -0.224 A  
HETATM   49  C   UNL     1     -10.259  14.583  69.304  1.00  0.00    -0.121 A  
HETATM   50  F   UNL     1     -11.496  13.552  64.742  1.00  0.00    -0.313 F  
HETATM   51  F   UNL     1      -9.711  12.602  65.542  1.00  0.00    -0.251 F  
HETATM   52  F   UNL     1      -9.671  14.706  65.000  1.00  0.00    -0.336 F  
ENDBRANCH  38  43
ENDBRANCH  35  37
ENDBRANCH  28  33
ENDBRANCH  26  27
ENDBRANCH  25  26
ENDBRANCH  24  25
ENDBRANCH  23  24
ENDBRANCH  10  23
ENDBRANCH   7  10
ENDBRANCH   3   6
TORSDOF 10
ENDMDL
MODEL       77
REMARK 921   NORMALIZED FREE ENERGY PREDICTED BY IDOCK:   -4.80 KCAL/MOL
REMARK 922        TOTAL FREE ENERGY PREDICTED BY IDOCK:  -10.71 KCAL/MOL
REMARK 923 INTER-LIGAND FREE ENERGY PREDICTED BY IDOCK:   -7.93 KCAL/MOL
REMARK 924 INTRA-LIGAND FREE ENERGY PREDICTED BY IDOCK:   -2.77 KCAL/MOL
REMARK 927      BINDING AFFINITY PREDICTED BY RF-SCORE:    0.00 PKD
ROOT
HETATM    1  F   UNL     1      -7.257  14.444  71.289  1.00  0.00     0.566 F  
HETATM    2  C   UNL     1      -6.060  14.255  70.692  1.00  0.00    -0.181 C  
HETATM    3  C   UNL     1      -6.047  14.731  69.231  1.00  0.00    -0.106 C  
HETATM    4  F   UNL     1      -5.741  12.947  70.800  1.00  0.00    -0.156 F  
HETATM    5  F   UNL     1      -5.145  14.951  71.413  1.00  0.00    -0.124 F  
ENDROOT
BRANCH   3   6
HETATM    6  N   UNL     1      -7.309  15.252  68.706  1.00  0.00    -0.123 N  
HETATM    7  C   UNL     1      -7.910  14.680  67.600  1.00  0.00    -0.181 C  
HETATM    8  H   UNL     1      -7.752  16.050  69.162  1.00  0.00     0.000 HD 
HETATM    9  O   UNL     1      -7.361  13.758  66.995  1.00  0.00     0.049 OA 
BRANCH   7  10
HETATM   10  C   UNL     1      -9.286  15.260  67.187  1.00  0.00    -0.227 C  
HETATM   11  C   UNL     1      -9.292  16.796  67.204  1.00  0.00    -0.236 A  
HETATM   12  C   UNL     1     -12.485  14.832  69.997  1.00  0.00    -0.327 A  
HETATM   13  C   UNL     1      -8.545  17.669  66.424  1.00  0.00    -0.269 A  
HETATM   14  C   UNL     1     -10.934  16.134  68.724  1.00  0.00    -0.330 A  
HETATM   15  C   UNL     1      -8.800  19.036  66.541  1.00  0.00    -0.334 A  
HETATM   16  C   UNL     1     -11.905  13.649  69.514  1.00  0.00    -0.394 A  
HETATM   17  C   UNL     1      -9.780  19.510  67.430  1.00  0.00    -0.449 A  
HETATM   18  C   UNL     1     -11.997  16.085  69.609  1.00  0.00    -0.189 A  
HETATM   19  C   UNL     1     -10.361  14.939  68.233  1.00  0.00    -0.232 A  
HETATM   20  C   UNL     1     -10.522  18.625  68.219  1.00  0.00    -0.315 A  
HETATM   21  C   UNL     1     -10.829  13.694  68.628  1.00  0.00    -0.283 A  
HETATM   22  C   UNL     1     -10.279  17.267  68.101  1.00  0.00    -0.343 A  
BRANCH  10  23
HETATM   23  C   UNL     1      -9.702  14.721  65.793  1.00  0.00    -0.347 C  
BRANCH  23  24
HETATM   24  C   UNL     1     -10.639  13.499  65.812  1.00  0.00    -0.283 C  
BRANCH  24  25
HETATM   25  C   UNL     1      -9.832  12.205  65.703  1.00  0.00    -0.256 C  
BRANCH  25  26
HETATM   26  C   UNL     1     -10.658  10.954  66.030  1.00  0.00    -0.189 C  
BRANCH  26  27
HETATM   27  N   UNL     1      -9.868   9.788  66.456  1.00  0.00    -0.210 NA 
HETATM   28  C   UNL     1      -9.542   9.886  69.402  1.00  0.00    -0.215 C  
HETATM   29  C   UNL     1     -10.866   9.494  68.737  1.00  0.00    -0.173 C  
HETATM   30  C   UNL     1      -8.679  10.734  68.460  1.00  0.00    -0.149 C  
HETATM   31  C   UNL     1      -8.573  10.118  67.063  1.00  0.00    -0.129 C  
HETATM   32  C   UNL     1     -10.642   8.910  67.345  1.00  0.00    -0.235 C  
BRANCH  28  33
HETATM   33  N   UNL     1      -8.817   8.713  69.882  1.00  0.00    -0.141 N  
HETATM   34  O   UNL     1      -7.218   9.910  71.030  1.00  0.00    -0.330 OA 
HETATM   35  C   UNL     1      -7.673   8.839  70.650  1.00  0.00    -0.094 C  
HETATM   36  H   UNL     1      -9.160   7.783  69.645  1.00  0.00     0.000 HD 
BRANCH  35  37
HETATM   37  C   UNL     1      -6.966   7.570  70.948  1.00  0.00    -0.054 A  
HETATM   38  C   UNL     1      -6.584   6.637  69.957  1.00  0.00    -0.048 A  
HETATM   39  C   UNL     1      -6.080   5.405  70.433  1.00  0.00    -0.022 A  
HETATM   40  C   UNL     1      -6.817   7.281  72.325  1.00  0.00    -0.059 A  
HETATM   41  C   UNL     1      -6.319   6.057  72.747  1.00  0.00    -0.062 A  
HETATM   42  C   UNL     1      -5.963   5.110  71.800  1.00  0.00    -0.025 A  
BRANCH  38  43
HETATM   43  C   UNL     1      -6.678   6.853  68.479  1.00  0.00    -0.064 A  
HETATM   44  C   UNL     1      -5.661   7.481  67.740  1.00  0.00    -0.035 A  
HETATM   45  C   UNL     1      -6.903   7.256  65.652  1.00  0.00    -0.056 A  
HETATM   46  C   UNL     1      -5.775   7.694  66.356  1.00  0.00    -0.036 A  
HETATM   47  C   UNL     1      -7.062   7.512  64.173  1.00  0.00    -0.064 C  
HETATM   48  C   UNL     1      -7.901   6.582  66.360  1.00  0.00    -0.104 A  
HETATM   49  C   UNL     1      -7.793   6.396  67.746  1.00  0.00    -0.104 A  
HETATM   50  F   UNL     1      -6.037   8.223  63.625  1.00  0.00    -0.067 F  
HETATM   51  F   UNL     1      -8.196   8.212  63.884  1.00  0.00    -0.153 F  
HETATM   52  F   UNL     1      -7.145   6.361  63.449  1.00  0.00    -0.044 F  
ENDBRANCH  38  43
ENDBRANCH  35  37
ENDBRANCH  28  33
ENDBRANCH  26  27
ENDBRANCH  25  26
ENDBRANCH  24  25
ENDBRANCH  23  24
ENDBRANCH  10  23
ENDBRANCH   7  10
ENDBRANCH   3   6
TORSDOF 10
ENDMDL
MODEL       78
REMARK 921   NORMALIZED FREE ENERGY PREDICTED BY IDOCK:   -4.78 KCAL/MOL
REMARK 922        TOTAL FREE ENERGY PREDICTED BY IDOCK:  -10.68 KCAL/MOL
REMARK 923 INTER-LIGAND FREE ENERGY PREDICTED BY IDOCK:   -8.51 KCAL/MOL
REMARK 924 INTRA-LIGAND FREE ENERGY PREDICTED BY IDOCK:   -2.17 KCAL/MOL
REMARK 927      BINDING AFFINITY PREDICTED BY RF-SCORE:    0.00 PKD
ROOT
HETATM    1  F   UNL     1      -7.248  15.470  69.481  1.00  0.00    -0.161 F  
HETATM    2  C   UNL     1      -6.283  14.898  68.727  1.00  0.00    -0.083 C  
HETATM    3  C   UNL     1      -6.849  13.916  67.690  1.00  0.00    -0.179 C  
HETATM    4  F   UNL     1      -5.401  14.303  69.559  1.00  0.00    -0.089 F  
HETATM    5  F   UNL     1      -5.623  15.905  68.100  1.00  0.00    -0.089 F  
ENDROOT
BRANCH   3   6
HETATM    6  N   UNL     1      -8.298  13.713  67.709  1.00  0.00    -0.166 N  
HETATM    7  C   UNL     1      -8.847  12.554  68.224  1.00  0.00    -0.171 C  
HETATM    8  H   UNL     1      -8.911  14.438  67.336  1.00  0.00     0.000 HD 
HETATM    9  O   UNL     1      -8.123  11.639  68.619  1.00  0.00    -0.150 OA 
BRANCH   7  10
HETATM   10  C   UNL     1     -10.394  12.487  68.271  1.00  0.00    -0.241 C  
HETATM   11  C   UNL     1     -11.018  12.622  66.874  1.00  0.00    -0.297 A  
HETATM   12  C   UNL     1     -12.424  15.871  69.927  1.00  0.00     0.010 A  
HETATM   13  C   UNL     1     -10.886  11.769  65.786  1.00  0.00    -0.341 A  
HETATM   14  C   UNL     1     -11.864  14.400  68.125  1.00  0.00    -0.362 A  
HETATM   15  C   UNL     1     -11.640  12.041  64.644  1.00  0.00    -0.364 A  
HETATM   16  C   UNL     1     -11.538  15.188  70.774  1.00  0.00    -0.361 A  
HETATM   17  C   UNL     1     -12.501  13.150  64.599  1.00  0.00    -0.433 A  
HETATM   18  C   UNL     1     -12.587  15.485  68.592  1.00  0.00     0.668 A  
HETATM   19  C   UNL     1     -10.982  13.710  68.987  1.00  0.00    -0.271 A  
HETATM   20  C   UNL     1     -12.623  14.010  65.697  1.00  0.00    -0.542 A  
HETATM   21  C   UNL     1     -10.802  14.100  70.307  1.00  0.00     0.379 A  
HETATM   22  C   UNL     1     -11.883  13.740  66.835  1.00  0.00    -0.447 A  
BRANCH  10  23
HETATM   23  C   UNL     1     -10.857  11.177  68.960  1.00  0.00    -0.276 C  
BRANCH  23  24
HETATM   24  C   UNL     1     -12.253  11.229  69.606  1.00  0.00    -0.340 C  
BRANCH  24  25
HETATM   25  C   UNL     1     -12.204  10.676  71.031  1.00  0.00    -0.498 C  
BRANCH  25  26
HETATM   26  C   UNL     1     -13.307   9.648  71.314  1.00  0.00    -0.330 C  
BRANCH  26  27
HETATM   27  N   UNL     1     -12.845   8.412  71.966  1.00  0.00    -0.341 NA 
HETATM   28  C   UNL     1     -10.410   7.454  70.570  1.00  0.00    -0.214 C  
HETATM   29  C   UNL     1     -10.392   8.662  71.511  1.00  0.00    -0.341 C  
HETATM   30  C   UNL     1     -11.818   7.207  70.013  1.00  0.00    -0.035 C  
HETATM   31  C   UNL     1     -12.884   7.221  71.110  1.00  0.00    -0.286 C  
HETATM   32  C   UNL     1     -11.507   8.580  72.551  1.00  0.00    -0.298 C  
BRANCH  28  33
HETATM   33  N   UNL     1      -9.877   6.261  71.221  1.00  0.00    -0.175 N  
HETATM   34  O   UNL     1      -7.690   6.650  70.612  1.00  0.00    -0.100 OA 
HETATM   35  C   UNL     1      -8.530   5.946  71.156  1.00  0.00    -0.124 C  
HETATM   36  H   UNL     1     -10.509   5.647  71.734  1.00  0.00     0.000 HD 
BRANCH  35  37
HETATM   37  C   UNL     1      -8.155   4.637  71.743  1.00  0.00    -0.103 A  
HETATM   38  C   UNL     1      -8.059   3.443  70.993  1.00  0.00    -0.068 A  
HETATM   39  C   UNL     1      -7.865   2.259  71.741  1.00  0.00    -0.045 A  
HETATM   40  C   UNL     1      -8.033   4.631  73.152  1.00  0.00    -0.100 A  
HETATM   41  C   UNL     1      -7.844   3.445  73.847  1.00  0.00    -0.066 A  
HETATM   42  C   UNL     1      -7.774   2.254  73.142  1.00  0.00    -0.042 A  
BRANCH  38  43
HETATM   43  C   UNL     1      -8.151   3.344  69.502  1.00  0.00    -0.064 A  
HETATM   44  C   UNL     1      -9.319   2.928  68.843  1.00  0.00    -0.226 A  
HETATM   45  C   UNL     1      -8.281   3.160  66.647  1.00  0.00    -0.089 A  
HETATM   46  C   UNL     1      -9.382   2.821  67.443  1.00  0.00    -0.178 A  
HETATM   47  C   UNL     1      -8.315   3.013  65.145  1.00  0.00    -0.096 C  
HETATM   48  C   UNL     1      -7.127   3.627  67.282  1.00  0.00    -0.059 A  
HETATM   49  C   UNL     1      -7.063   3.706  68.680  1.00  0.00    -0.050 A  
HETATM   50  F   UNL     1      -9.483   2.498  64.670  1.00  0.00    -0.138 F  
HETATM   51  F   UNL     1      -7.331   2.192  64.679  1.00  0.00    -0.052 F  
HETATM   52  F   UNL     1      -8.141   4.200  64.500  1.00  0.00    -0.088 F  
ENDBRANCH  38  43
ENDBRANCH  35  37
ENDBRANCH  28  33
ENDBRANCH  26  27
ENDBRANCH  25  26
ENDBRANCH  24  25
ENDBRANCH  23  24
ENDBRANCH  10  23
ENDBRANCH   7  10
ENDBRANCH   3   6
TORSDOF 10
ENDMDL
MODEL       79
REMARK 921   NORMALIZED FREE ENERGY PREDICTED BY IDOCK:   -4.67 KCAL/MOL
REMARK 922        TOTAL FREE ENERGY PREDICTED BY IDOCK:  -10.50 KCAL/MOL
REMARK 923 INTER-LIGAND FREE ENERGY PREDICTED BY IDOCK:   -9.91 KCAL/MOL
REMARK 924 INTRA-LIGAND FREE ENERGY PREDICTED BY IDOCK:   -0.59 KCAL/MOL
REMARK 927      BINDING AFFINITY PREDICTED BY RF-SCORE:    0.00 PKD
ROOT
HETATM    1  F   UNL     1     -12.433  16.250  71.808  1.00  0.00    -0.491 F  
HETATM    2  C   UNL     1     -13.043  15.208  72.415  1.00  0.00    -0.375 C  
HETATM    3  C   UNL     1     -12.594  13.851  71.851  1.00  0.00    -0.222 C  
HETATM    4  F   UNL     1     -14.377  15.383  72.306  1.00  0.00    -0.545 F  
HETATM    5  F   UNL     1     -12.736  15.285  73.735  1.00  0.00    -0.510 F  
ENDROOT
BRANCH   3   6
HETATM    6  N   UNL     1     -11.642  13.891  70.740  1.00  0.00    -0.505 N  
HETATM    7  C   UNL     1     -12.061  14.186  69.456  1.00  0.00    -0.340 C  
HETATM    8  H   UNL     1     -10.656  13.699  70.915  1.00  0.00     0.000 HD 
HETATM    9  O   UNL     1     -13.256  14.358  69.210  1.00  0.00     0.941 OA 
BRANCH   7  10
HETATM   10  C   UNL     1     -10.954  14.286  68.377  1.00  0.00    -0.267 C  
HETATM   11  C   UNL     1     -10.480  15.732  68.170  1.00  0.00    -0.263 A  
HETATM   12  C   UNL     1     -12.161  13.693  64.313  1.00  0.00    -0.480 A  
HETATM   13  C   UNL     1      -9.847  16.569  69.080  1.00  0.00    -0.266 A  
HETATM   14  C   UNL     1     -11.305  15.029  66.104  1.00  0.00    -0.270 A  
HETATM   15  C   UNL     1      -9.408  17.815  68.630  1.00  0.00    -0.275 A  
HETATM   16  C   UNL     1     -12.364  12.621  65.197  1.00  0.00    -0.547 A  
HETATM   17  C   UNL     1      -9.610  18.209  67.296  1.00  0.00    -0.281 A  
HETATM   18  C   UNL     1     -11.635  14.909  64.764  1.00  0.00    -0.410 A  
HETATM   19  C   UNL     1     -11.502  13.943  66.985  1.00  0.00    -0.367 A  
HETATM   20  C   UNL     1     -10.256  17.363  66.388  1.00  0.00    -0.339 A  
HETATM   21  C   UNL     1     -12.040  12.740  66.548  1.00  0.00    -0.338 A  
HETATM   22  C   UNL     1     -10.686  16.123  66.827  1.00  0.00    -0.235 A  
BRANCH  10  23
HETATM   23  C   UNL     1      -9.763  13.359  68.737  1.00  0.00     0.002 C  
BRANCH  23  24
HETATM   24  C   UNL     1     -10.037  11.851  68.601  1.00  0.00    -0.186 C  
BRANCH  24  25
HETATM   25  C   UNL     1     -11.250  11.448  69.441  1.00  0.00    -0.333 C  
BRANCH  25  26
HETATM   26  C   UNL     1     -10.956  10.290  70.403  1.00  0.00    -0.296 C  
BRANCH  26  27
HETATM   27  N   UNL     1      -9.708   9.560  70.127  1.00  0.00    -0.231 NA 
HETATM   28  C   UNL     1      -9.921   6.841  71.290  1.00  0.00    -0.176 C  
HETATM   29  C   UNL     1     -10.665   7.246  70.014  1.00  0.00    -0.261 C  
HETATM   30  C   UNL     1      -9.582   8.067  72.146  1.00  0.00    -0.277 C  
HETATM   31  C   UNL     1      -8.943   9.188  71.323  1.00  0.00    -0.136 C  
HETATM   32  C   UNL     1      -9.950   8.381  69.284  1.00  0.00    -0.195 C  
BRANCH  28  33
HETATM   33  N   UNL     1      -8.728   6.054  70.988  1.00  0.00    -0.131 N  
HETATM   34  O   UNL     1      -9.865   4.088  70.607  1.00  0.00    -0.198 OA 
HETATM   35  C   UNL     1      -8.811   4.705  70.692  1.00  0.00    -0.104 C  
HETATM   36  H   UNL     1      -7.815   6.509  70.994  1.00  0.00     0.000 HD 
BRANCH  35  37
HETATM   37  C   UNL     1      -7.512   4.007  70.542  1.00  0.00    -0.045 A  
HETATM   38  C   UNL     1      -6.683   4.134  69.404  1.00  0.00    -0.044 A  
HETATM   39  C   UNL     1      -5.571   3.263  69.351  1.00  0.00    -0.017 A  
HETATM   40  C   UNL     1      -7.213   3.080  71.568  1.00  0.00    -0.032 A  
HETATM   41  C   UNL     1      -6.111   2.243  71.474  1.00  0.00    -0.014 A  
HETATM   42  C   UNL     1      -5.295   2.323  70.357  1.00  0.00    -0.008 A  
BRANCH  38  43
HETATM   43  C   UNL     1      -6.897   5.097  68.278  1.00  0.00    -0.056 A  
HETATM   44  C   UNL     1      -6.101   6.241  68.099  1.00  0.00    -0.027 A  
HETATM   45  C   UNL     1      -7.347   6.919  66.114  1.00  0.00    -0.076 A  
HETATM   46  C   UNL     1      -6.329   7.145  67.048  1.00  0.00    -0.053 A  
HETATM   47  C   UNL     1      -7.633   7.899  65.003  1.00  0.00    -0.098 C  
HETATM   48  C   UNL     1      -8.115   5.758  66.244  1.00  0.00    -0.107 A  
HETATM   49  C   UNL     1      -7.899   4.874  67.310  1.00  0.00    -0.095 A  
HETATM   50  F   UNL     1      -6.842   9.007  65.029  1.00  0.00    -0.073 F  
HETATM   51  F   UNL     1      -8.917   8.358  65.030  1.00  0.00    -0.180 F  
HETATM   52  F   UNL     1      -7.465   7.351  63.766  1.00  0.00    -0.075 F  
ENDBRANCH  38  43
ENDBRANCH  35  37
ENDBRANCH  28  33
ENDBRANCH  26  27
ENDBRANCH  25  26
ENDBRANCH  24  25
ENDBRANCH  23  24
ENDBRANCH  10  23
ENDBRANCH   7  10
ENDBRANCH   3   6
TORSDOF 10
ENDMDL
MODEL       80
REMARK 921   NORMALIZED FREE ENERGY PREDICTED BY IDOCK:   -4.56 KCAL/MOL
REMARK 922        TOTAL FREE ENERGY PREDICTED BY IDOCK:  -10.33 KCAL/MOL
REMARK 923 INTER-LIGAND FREE ENERGY PREDICTED BY IDOCK:   -8.38 KCAL/MOL
REMARK 924 INTRA-LIGAND FREE ENERGY PREDICTED BY IDOCK:   -1.95 KCAL/MOL
REMARK 927      BINDING AFFINITY PREDICTED BY RF-SCORE:    0.00 PKD
ROOT
HETATM    1  F   UNL     1      -5.858   5.658  69.808  1.00  0.00    -0.016 F  
HETATM    2  C   UNL     1      -6.222   4.561  69.107  1.00  0.00    -0.031 C  
HETATM    3  C   UNL     1      -7.390   4.835  68.147  1.00  0.00    -0.066 C  
HETATM    4  F   UNL     1      -6.511   3.579  69.988  1.00  0.00    -0.029 F  
HETATM    5  F   UNL     1      -5.131   4.161  68.407  1.00  0.00    -0.005 F  
ENDROOT
BRANCH   3   6
HETATM    6  N   UNL     1      -7.951   6.186  68.173  1.00  0.00    -0.106 N  
HETATM    7  C   UNL     1      -7.787   7.045  67.103  1.00  0.00    -0.109 C  
HETATM    8  H   UNL     1      -8.470   6.499  68.994  1.00  0.00     0.000 HD 
HETATM    9  O   UNL     1      -7.109   6.711  66.130  1.00  0.00    -0.060 OA 
BRANCH   7  10
HETATM   10  C   UNL     1      -8.496   8.418  67.206  1.00  0.00    -0.124 C  
HETATM   11  C   UNL     1      -7.495   9.573  67.362  1.00  0.00    -0.091 A  
HETATM   12  C   UNL     1     -10.597   9.237  70.844  1.00  0.00    -0.366 A  
HETATM   13  C   UNL     1      -6.524   9.997  66.465  1.00  0.00    -0.073 A  
HETATM   14  C   UNL     1      -8.848   9.639  69.263  1.00  0.00    -0.164 A  
HETATM   15  C   UNL     1      -5.798  11.146  66.780  1.00  0.00    -0.111 A  
HETATM   16  C   UNL     1     -11.033   8.131  70.096  1.00  0.00    -0.223 A  
HETATM   17  C   UNL     1      -6.041  11.845  67.975  1.00  0.00    -0.055 A  
HETATM   18  C   UNL     1      -9.494   9.994  70.434  1.00  0.00     0.062 A  
HETATM   19  C   UNL     1      -9.299   8.532  68.510  1.00  0.00    -0.139 A  
HETATM   20  C   UNL     1      -7.015  11.405  68.878  1.00  0.00    -0.098 A  
HETATM   21  C   UNL     1     -10.381   7.766  68.920  1.00  0.00    -0.224 A  
HETATM   22  C   UNL     1      -7.745  10.271  68.567  1.00  0.00    -0.091 A  
BRANCH  10  23
HETATM   23  C   UNL     1      -9.416   8.645  65.978  1.00  0.00    -0.278 C  
BRANCH  23  24
HETATM   24  C   UNL     1      -9.863  10.100  65.748  1.00  0.00    -0.331 C  
BRANCH  24  25
HETATM   25  C   UNL     1     -11.133  10.402  66.544  1.00  0.00     0.107 C  
BRANCH  25  26
HETATM   26  C   UNL     1     -11.907  11.610  66.004  1.00  0.00     0.286 C  
BRANCH  26  27
HETATM   27  N   UNL     1     -11.678  12.867  66.735  1.00  0.00    -0.366 NA 
HETATM   28  C   UNL     1     -10.317  14.784  64.928  1.00  0.00    -0.332 C  
HETATM   29  C   UNL     1     -11.804  14.442  64.788  1.00  0.00    -0.439 C  
HETATM   30  C   UNL     1      -9.556  13.663  65.646  1.00  0.00    -0.026 C  
HETATM   31  C   UNL     1     -10.265  13.212  66.925  1.00  0.00    -0.245 C  
HETATM   32  C   UNL     1     -12.402  13.987  66.118  1.00  0.00    -0.458 C  
BRANCH  28  33
HETATM   33  N   UNL     1     -10.124  16.071  65.590  1.00  0.00    -0.358 N  
HETATM   34  O   UNL     1      -8.041  15.564  66.431  1.00  0.00    -0.168 OA 
HETATM   35  C   UNL     1      -8.983  16.339  66.325  1.00  0.00    -0.331 C  
HETATM   36  H   UNL     1     -10.846  16.787  65.509  1.00  0.00     0.000 HD 
BRANCH  35  37
HETATM   37  C   UNL     1      -8.985  17.630  67.053  1.00  0.00    -0.258 A  
HETATM   38  C   UNL     1      -9.750  17.869  68.218  1.00  0.00    -0.327 A  
HETATM   39  C   UNL     1      -9.771  19.205  68.679  1.00  0.00    -0.478 A  
HETATM   40  C   UNL     1      -8.268  18.671  66.420  1.00  0.00    -0.295 A  
HETATM   41  C   UNL     1      -8.317  19.970  66.906  1.00  0.00    -0.376 A  
HETATM   42  C   UNL     1      -9.083  20.242  68.029  1.00  0.00    -0.226 A  
BRANCH  38  43
HETATM   43  C   UNL     1     -10.525  16.835  68.975  1.00  0.00    -0.336 A  
HETATM   44  C   UNL     1     -10.085  16.308  70.201  1.00  0.00     0.268 A  
HETATM   45  C   UNL     1     -12.032  14.851  70.387  1.00  0.00    -0.368 A  
HETATM   46  C   UNL     1     -10.814  15.324  70.888  1.00  0.00    -0.225 A  
HETATM   47  C   UNL     1     -12.809  13.764  71.089  1.00  0.00    -0.335 C  
HETATM   48  C   UNL     1     -12.513  15.401  69.195  1.00  0.00     0.041 A  
HETATM   49  C   UNL     1     -11.767  16.365  68.502  1.00  0.00     0.020 A  
HETATM   50  F   UNL     1     -12.198  13.286  72.208  1.00  0.00     0.025 F  
HETATM   51  F   UNL     1     -13.026  12.679  70.292  1.00  0.00    -0.026 F  
HETATM   52  F   UNL     1     -14.045  14.179  71.489  1.00  0.00    -0.424 F  
ENDBRANCH  38  43
ENDBRANCH  35  37
ENDBRANCH  28  33
ENDBRANCH  26  27
ENDBRANCH  25  26
ENDBRANCH  24  25
ENDBRANCH  23  24
ENDBRANCH  10  23
ENDBRANCH   7  10
ENDBRANCH   3   6
TORSDOF 10
ENDMDL
MODEL       81
REMARK 921   NORMALIZED FREE ENERGY PREDICTED BY IDOCK:   -4.39 KCAL/MOL
REMARK 922        TOTAL FREE ENERGY PREDICTED BY IDOCK:  -10.06 KCAL/MOL
REMARK 923 INTER-LIGAND FREE ENERGY PREDICTED BY IDOCK:  -10.59 KCAL/MOL
REMARK 924 INTRA-LIGAND FREE ENERGY PREDICTED BY IDOCK:    0.53 KCAL/MOL
REMARK 927      BINDING AFFINITY PREDICTED BY RF-SCORE:    0.00 PKD
ROOT
HETATM    1  F   UNL     1     -11.443   3.997  64.338  1.00  0.00    -0.192 F  
HETATM    2  C   UNL     1     -10.791   3.050  63.627  1.00  0.00    -0.169 C  
HETATM    3  C   UNL     1      -9.388   2.757  64.181  1.00  0.00    -0.127 C  
HETATM    4  F   UNL     1     -10.752   3.450  62.338  1.00  0.00    -0.144 F  
HETATM    5  F   UNL     1     -11.552   1.928  63.675  1.00  0.00    -0.147 F  
ENDROOT
BRANCH   3   6
HETATM    6  N   UNL     1      -8.961   3.559  65.327  1.00  0.00    -0.131 N  
HETATM    7  C   UNL     1      -8.355   4.789  65.148  1.00  0.00    -0.129 C  
HETATM    8  H   UNL     1      -9.112   3.206  66.272  1.00  0.00     0.000 HD 
HETATM    9  O   UNL     1      -8.103   5.205  64.017  1.00  0.00    -0.105 OA 
BRANCH   7  10
HETATM   10  C   UNL     1      -8.023   5.587  66.435  1.00  0.00    -0.105 C  
HETATM   11  C   UNL     1      -7.115   4.794  67.386  1.00  0.00    -0.065 A  
HETATM   12  C   UNL     1     -11.195   6.092  69.264  1.00  0.00    -0.367 A  
HETATM   13  C   UNL     1      -5.815   4.355  67.169  1.00  0.00    -0.023 A  
HETATM   14  C   UNL     1      -9.067   5.233  68.586  1.00  0.00    -0.129 A  
HETATM   15  C   UNL     1      -5.144   3.742  68.228  1.00  0.00    -0.007 A  
HETATM   16  C   UNL     1     -11.398   6.629  67.983  1.00  0.00    -0.068 A  
HETATM   17  C   UNL     1      -5.773   3.570  69.473  1.00  0.00    -0.018 A  
HETATM   18  C   UNL     1     -10.028   5.382  69.571  1.00  0.00    -0.289 A  
HETATM   19  C   UNL     1      -9.273   5.786  67.302  1.00  0.00    -0.110 A  
HETATM   20  C   UNL     1      -7.086   4.007  69.681  1.00  0.00    -0.046 A  
HETATM   21  C   UNL     1     -10.436   6.475  66.985  1.00  0.00    -0.364 A  
HETATM   22  C   UNL     1      -7.753   4.623  68.636  1.00  0.00    -0.072 A  
BRANCH  10  23
HETATM   23  C   UNL     1      -7.387   6.954  66.072  1.00  0.00    -0.075 C  
BRANCH  23  24
HETATM   24  C   UNL     1      -8.260   7.879  65.205  1.00  0.00    -0.147 C  
BRANCH  24  25
HETATM   25  C   UNL     1      -8.045   9.341  65.598  1.00  0.00    -0.112 C  
BRANCH  25  26
HETATM   26  C   UNL     1      -8.945  10.310  64.821  1.00  0.00    -0.203 C  
BRANCH  26  27
HETATM   27  N   UNL     1     -10.014  10.932  65.619  1.00  0.00    -0.239 NA 
HETATM   28  C   UNL     1      -9.089  11.171  68.426  1.00  0.00    -0.168 C  
HETATM   29  C   UNL     1      -8.571  12.087  67.312  1.00  0.00    -0.177 C  
HETATM   30  C   UNL     1      -9.621   9.851  67.854  1.00  0.00    -0.157 C  
HETATM   31  C   UNL     1     -10.567  10.073  66.672  1.00  0.00    -0.125 C  
HETATM   32  C   UNL     1      -9.586  12.221  66.179  1.00  0.00    -0.240 C  
BRANCH  28  33
HETATM   33  N   UNL     1     -10.094  11.842  69.246  1.00  0.00    -0.406 N  
HETATM   34  O   UNL     1     -11.239   9.918  69.789  1.00  0.00    -0.245 OA 
HETATM   35  C   UNL     1     -11.122  11.135  69.846  1.00  0.00    -0.162 C  
HETATM   36  H   UNL     1     -10.037  12.851  69.379  1.00  0.00     0.000 HD 
BRANCH  35  37
HETATM   37  C   UNL     1     -12.144  11.962  70.533  1.00  0.00    -0.422 A  
HETATM   38  C   UNL     1     -12.374  13.325  70.237  1.00  0.00    -0.334 A  
HETATM   39  C   UNL     1     -13.259  14.003  71.106  1.00  0.00    -0.337 A  
HETATM   40  C   UNL     1     -12.792  11.326  71.617  1.00  0.00    -0.510 A  
HETATM   41  C   UNL     1     -13.653  12.031  72.446  1.00  0.00    -0.009 A  
HETATM   42  C   UNL     1     -13.876  13.377  72.200  1.00  0.00    -0.605 A  
BRANCH  38  43
HETATM   43  C   UNL     1     -11.758  14.083  69.102  1.00  0.00    -0.375 A  
HETATM   44  C   UNL     1     -12.124  13.868  67.763  1.00  0.00    -0.328 A  
HETATM   45  C   UNL     1     -10.549  15.549  66.959  1.00  0.00    -0.311 A  
HETATM   46  C   UNL     1     -11.522  14.574  66.708  1.00  0.00    -0.376 A  
HETATM   47  C   UNL     1      -9.861  16.288  65.838  1.00  0.00    -0.334 C  
HETATM   48  C   UNL     1     -10.209  15.814  68.289  1.00  0.00    -0.225 A  
HETATM   49  C   UNL     1     -10.796  15.088  69.335  1.00  0.00    -0.265 A  
HETATM   50  F   UNL     1     -10.253  15.890  64.595  1.00  0.00    -0.234 F  
HETATM   51  F   UNL     1      -8.506  16.135  65.866  1.00  0.00    -0.357 F  
HETATM   52  F   UNL     1     -10.081  17.632  65.885  1.00  0.00    -0.308 F  
ENDBRANCH  38  43
ENDBRANCH  35  37
ENDBRANCH  28  33
ENDBRANCH  26  27
ENDBRANCH  25  26
ENDBRANCH  24  25
ENDBRANCH  23  24
ENDBRANCH  10  23
ENDBRANCH   7  10
ENDBRANCH   3   6
TORSDOF 10
ENDMDL
MODEL       82
REMARK 921   NORMALIZED FREE ENERGY PREDICTED BY IDOCK:   -4.26 KCAL/MOL
REMARK 922        TOTAL FREE ENERGY PREDICTED BY IDOCK:   -9.85 KCAL/MOL
REMARK 923 INTER-LIGAND FREE ENERGY PREDICTED BY IDOCK:   -8.59 KCAL/MOL
REMARK 924 INTRA-LIGAND FREE ENERGY PREDICTED BY IDOCK:   -1.26 KCAL/MOL
REMARK 927      BINDING AFFINITY PREDICTED BY RF-SCORE:    0.00 PKD
ROOT
HETATM    1  F   UNL     1     -12.415   8.665  71.109  1.00  0.00    -0.300 F  
HETATM    2  C   UNL     1     -12.892   7.493  71.583  1.00  0.00    -0.358 C  
HETATM    3  C   UNL     1     -11.897   6.335  71.406  1.00  0.00    -0.205 C  
HETATM    4  F   UNL     1     -14.070   7.244  70.972  1.00  0.00    -0.479 F  
HETATM    5  F   UNL     1     -13.156   7.678  72.900  1.00  0.00     0.227 F  
ENDROOT
BRANCH   3   6
HETATM    6  N   UNL     1     -10.642   6.655  70.724  1.00  0.00    -0.220 N  
HETATM    7  C   UNL     1     -10.538   6.566  69.349  1.00  0.00    -0.245 C  
HETATM    8  H   UNL     1      -9.833   6.947  71.272  1.00  0.00     0.000 HD 
HETATM    9  O   UNL     1     -11.482   6.154  68.674  1.00  0.00    -0.223 OA 
BRANCH   7  10
HETATM   10  C   UNL     1      -9.189   7.011  68.730  1.00  0.00    -0.132 C  
HETATM   11  C   UNL     1      -8.449   5.843  68.061  1.00  0.00    -0.110 A  
HETATM   12  C   UNL     1      -6.030   7.952  71.461  1.00  0.00    -0.035 A  
HETATM   13  C   UNL     1      -8.848   5.085  66.968  1.00  0.00    -0.106 A  
HETATM   14  C   UNL     1      -7.020   6.632  69.728  1.00  0.00    -0.066 A  
HETATM   15  C   UNL     1      -7.954   4.139  66.465  1.00  0.00    -0.098 A  
HETATM   16  C   UNL     1      -7.197   8.727  71.552  1.00  0.00    -0.107 A  
HETATM   17  C   UNL     1      -6.692   3.958  67.056  1.00  0.00    -0.047 A  
HETATM   18  C   UNL     1      -5.937   6.892  70.551  1.00  0.00    -0.027 A  
HETATM   19  C   UNL     1      -8.188   7.423  69.818  1.00  0.00    -0.129 A  
HETATM   20  C   UNL     1      -6.302   4.719  68.163  1.00  0.00    -0.037 A  
HETATM   21  C   UNL     1      -8.293   8.463  70.730  1.00  0.00    -0.139 A  
HETATM   22  C   UNL     1      -7.181   5.665  68.661  1.00  0.00    -0.078 A  
BRANCH  10  23
HETATM   23  C   UNL     1      -9.412   8.173  67.727  1.00  0.00    -0.164 C  
BRANCH  23  24
HETATM   24  C   UNL     1     -10.659   9.038  67.987  1.00  0.00    -0.242 C  
BRANCH  24  25
HETATM   25  C   UNL     1     -10.369  10.085  69.063  1.00  0.00    -0.223 C  
BRANCH  25  26
HETATM   26  C   UNL     1     -11.446  11.174  69.147  1.00  0.00    -0.298 C  
BRANCH  26  27
HETATM   27  N   UNL     1     -11.388  12.183  68.078  1.00  0.00    -0.272 NA 
HETATM   28  C   UNL     1     -11.196  14.870  69.316  1.00  0.00    -0.284 C  
HETATM   29  C   UNL     1     -10.012  13.900  69.279  1.00  0.00     0.235 C  
HETATM   30  C   UNL     1     -12.530  14.122  69.200  1.00  0.00    -0.005 C  
HETATM   31  C   UNL     1     -12.526  13.110  68.052  1.00  0.00     0.441 C  
HETATM   32  C   UNL     1     -10.121  12.926  68.108  1.00  0.00    -0.240 C  
BRANCH  28  33
HETATM   33  N   UNL     1     -11.073  15.904  68.292  1.00  0.00    -0.330 N  
HETATM   34  O   UNL     1      -9.681  17.260  69.529  1.00  0.00     0.009 OA 
HETATM   35  C   UNL     1     -10.327  17.049  68.511  1.00  0.00    -0.359 C  
HETATM   36  H   UNL     1     -11.546  15.779  67.397  1.00  0.00     0.000 HD 
BRANCH  35  37
HETATM   37  C   UNL     1     -10.404  18.071  67.439  1.00  0.00    -0.391 A  
HETATM   38  C   UNL     1     -10.541  17.757  66.068  1.00  0.00    -0.229 A  
HETATM   39  C   UNL     1     -10.419  18.843  65.171  1.00  0.00     0.952 A  
HETATM   40  C   UNL     1     -10.189  19.401  67.870  1.00  0.00    -0.530 A  
HETATM   41  C   UNL     1     -10.075  20.438  66.954  1.00  0.00    -0.503 A  
HETATM   42  C   UNL     1     -10.175  20.157  65.601  1.00  0.00    -0.294 A  
BRANCH  38  43
HETATM   43  C   UNL     1     -10.793  16.390  65.511  1.00  0.00    -0.224 A  
HETATM   44  C   UNL     1     -12.007  16.033  64.902  1.00  0.00     0.416 A  
HETATM   45  C   UNL     1     -11.237  13.760  64.468  1.00  0.00    -0.381 A  
HETATM   46  C   UNL     1     -12.234  14.740  64.403  1.00  0.00    -0.447 A  
HETATM   47  C   UNL     1     -11.476  12.354  63.975  1.00  0.00    -0.408 C  
HETATM   48  C   UNL     1     -10.003  14.111  65.022  1.00  0.00    -0.216 A  
HETATM   49  C   UNL     1      -9.792  15.396  65.541  1.00  0.00    -0.359 A  
HETATM   50  F   UNL     1     -12.737  12.141  63.509  1.00  0.00    -0.586 F  
HETATM   51  F   UNL     1     -11.277  11.419  64.948  1.00  0.00    -0.346 F  
HETATM   52  F   UNL     1     -10.639  12.007  62.956  1.00  0.00    -0.400 F  
ENDBRANCH  38  43
ENDBRANCH  35  37
ENDBRANCH  28  33
ENDBRANCH  26  27
ENDBRANCH  25  26
ENDBRANCH  24  25
ENDBRANCH  23  24
ENDBRANCH  10  23
ENDBRANCH   7  10
ENDBRANCH   3   6
TORSDOF 10
ENDMDL
MODEL       83
REMARK 921   NORMALIZED FREE ENERGY PREDICTED BY IDOCK:   -4.24 KCAL/MOL
REMARK 922        TOTAL FREE ENERGY PREDICTED BY IDOCK:   -9.82 KCAL/MOL
REMARK 923 INTER-LIGAND FREE ENERGY PREDICTED BY IDOCK:  -10.30 KCAL/MOL
REMARK 924 INTRA-LIGAND FREE ENERGY PREDICTED BY IDOCK:    0.48 KCAL/MOL
REMARK 927      BINDING AFFINITY PREDICTED BY RF-SCORE:    0.00 PKD
ROOT
HETATM    1  F   UNL     1      -9.561   5.910  65.986  1.00  0.00    -0.177 F  
HETATM    2  C   UNL     1      -8.730   4.974  65.475  1.00  0.00    -0.143 C  
HETATM    3  C   UNL     1      -7.834   4.334  66.546  1.00  0.00    -0.098 C  
HETATM    4  F   UNL     1      -8.009   5.549  64.489  1.00  0.00    -0.091 F  
HETATM    5  F   UNL     1      -9.512   4.027  64.898  1.00  0.00    -0.133 F  
ENDROOT
BRANCH   3   6
HETATM    6  N   UNL     1      -7.971   4.854  67.906  1.00  0.00    -0.093 N  
HETATM    7  C   UNL     1      -8.812   4.245  68.819  1.00  0.00    -0.101 C  
HETATM    8  H   UNL     1      -7.440   5.679  68.185  1.00  0.00     0.000 HD 
HETATM    9  O   UNL     1      -9.511   3.288  68.485  1.00  0.00    -0.178 OA 
BRANCH   7  10
HETATM   10  C   UNL     1      -8.812   4.831  70.253  1.00  0.00    -0.137 C  
HETATM   11  C   UNL     1      -7.892   6.056  70.374  1.00  0.00    -0.106 A  
HETATM   12  C   UNL     1      -6.812   2.549  73.272  1.00  0.00    -0.027 A  
HETATM   13  C   UNL     1      -8.003   7.283  69.734  1.00  0.00    -0.123 A  
HETATM   14  C   UNL     1      -7.064   4.483  71.887  1.00  0.00    -0.056 A  
HETATM   15  C   UNL     1      -7.104   8.290  70.086  1.00  0.00    -0.040 A  
HETATM   16  C   UNL     1      -7.897   1.933  72.627  1.00  0.00    -0.052 A  
HETATM   17  C   UNL     1      -6.113   8.061  71.055  1.00  0.00    -0.034 A  
HETATM   18  C   UNL     1      -6.384   3.828  72.899  1.00  0.00    -0.013 A  
HETATM   19  C   UNL     1      -8.162   3.862  71.250  1.00  0.00    -0.074 A  
HETATM   20  C   UNL     1      -6.001   6.819  71.689  1.00  0.00    -0.037 A  
HETATM   21  C   UNL     1      -8.580   2.586  71.602  1.00  0.00    -0.095 A  
HETATM   22  C   UNL     1      -6.896   5.819  71.350  1.00  0.00    -0.063 A  
BRANCH  10  23
HETATM   23  C   UNL     1     -10.258   5.179  70.694  1.00  0.00    -0.326 C  
BRANCH  23  24
HETATM   24  C   UNL     1     -11.073   6.008  69.686  1.00  0.00    -0.474 C  
BRANCH  24  25
HETATM   25  C   UNL     1     -11.832   7.126  70.401  1.00  0.00    -0.235 C  
BRANCH  25  26
HETATM   26  C   UNL     1     -11.503   7.214  71.897  1.00  0.00    -0.270 C  
BRANCH  26  27
HETATM   27  N   UNL     1     -11.238   8.574  72.391  1.00  0.00    -0.360 NA 
HETATM   28  C   UNL     1     -12.131  10.521  70.340  1.00  0.00    -0.329 C  
HETATM   29  C   UNL     1     -13.118   9.752  71.224  1.00  0.00    -0.465 C  
HETATM   30  C   UNL     1     -10.793   9.780  70.230  1.00  0.00    -0.356 C  
HETATM   31  C   UNL     1     -10.266   9.333  71.595  1.00  0.00    -0.201 C  
HETATM   32  C   UNL     1     -12.481   9.341  72.550  1.00  0.00    -0.140 C  
BRANCH  28  33
HETATM   33  N   UNL     1     -11.946  11.891  70.812  1.00  0.00    -0.443 N  
HETATM   34  O   UNL     1     -13.986  12.025  71.873  1.00  0.00     0.189 OA 
HETATM   35  C   UNL     1     -12.931  12.544  71.533  1.00  0.00    -0.280 C  
HETATM   36  H   UNL     1     -11.073  12.376  70.607  1.00  0.00     0.000 HD 
BRANCH  35  37
HETATM   37  C   UNL     1     -12.662  13.972  71.825  1.00  0.00    -0.406 A  
HETATM   38  C   UNL     1     -12.006  14.844  70.926  1.00  0.00    -0.374 A  
HETATM   39  C   UNL     1     -11.675  16.120  71.437  1.00  0.00    -0.506 A  
HETATM   40  C   UNL     1     -12.985  14.380  73.140  1.00  0.00    -0.517 A  
HETATM   41  C   UNL     1     -12.640  15.643  73.600  1.00  0.00    -0.710 A  
HETATM   42  C   UNL     1     -11.970  16.511  72.752  1.00  0.00    -0.484 A  
BRANCH  38  43
HETATM   43  C   UNL     1     -11.642  14.519  69.511  1.00  0.00    -0.350 A  
HETATM   44  C   UNL     1     -10.310  14.375  69.087  1.00  0.00    -0.164 A  
HETATM   45  C   UNL     1     -10.987  13.905  66.791  1.00  0.00    -0.301 A  
HETATM   46  C   UNL     1      -9.985  14.090  67.751  1.00  0.00    -0.236 A  
HETATM   47  C   UNL     1     -10.657  13.639  65.343  1.00  0.00    -0.317 C  
HETATM   48  C   UNL     1     -12.319  13.991  67.205  1.00  0.00    -0.234 A  
HETATM   49  C   UNL     1     -12.636  14.302  68.535  1.00  0.00     0.464 A  
HETATM   50  F   UNL     1      -9.322  13.633  65.075  1.00  0.00     0.067 F  
HETATM   51  F   UNL     1     -11.200  14.568  64.505  1.00  0.00    -0.366 F  
HETATM   52  F   UNL     1     -11.128  12.434  64.912  1.00  0.00    -0.308 F  
ENDBRANCH  38  43
ENDBRANCH  35  37
ENDBRANCH  28  33
ENDBRANCH  26  27
ENDBRANCH  25  26
ENDBRANCH  24  25
ENDBRANCH  23  24
ENDBRANCH  10  23
ENDBRANCH   7  10
ENDBRANCH   3   6
TORSDOF 10
ENDMDL
MODEL       84
REMARK 921   NORMALIZED FREE ENERGY PREDICTED BY IDOCK:   -4.23 KCAL/MOL
REMARK 922        TOTAL FREE ENERGY PREDICTED BY IDOCK:   -9.80 KCAL/MOL
REMARK 923 INTER-LIGAND FREE ENERGY PREDICTED BY IDOCK:  -10.00 KCAL/MOL
REMARK 924 INTRA-LIGAND FREE ENERGY PREDICTED BY IDOCK:    0.19 KCAL/MOL
REMARK 927      BINDING AFFINITY PREDICTED BY RF-SCORE:    0.00 PKD
ROOT
HETATM    1  F   UNL     1      -6.996   6.105  63.803  1.00  0.00    -0.040 F  
HETATM    2  C   UNL     1      -5.652   6.074  63.936  1.00  0.00    -0.018 C  
HETATM    3  C   UNL     1      -5.206   5.994  65.404  1.00  0.00    -0.013 C  
HETATM    4  F   UNL     1      -5.145   7.159  63.312  1.00  0.00    -0.029 F  
HETATM    5  F   UNL     1      -5.214   4.983  63.259  1.00  0.00    -0.009 F  
ENDROOT
BRANCH   3   6
HETATM    6  N   UNL     1      -6.269   6.016  66.410  1.00  0.00    -0.035 N  
HETATM    7  C   UNL     1      -6.599   7.185  67.069  1.00  0.00    -0.059 C  
HETATM    8  H   UNL     1      -6.773   5.157  66.627  1.00  0.00     0.000 HD 
HETATM    9  O   UNL     1      -5.960   8.219  66.870  1.00  0.00    -0.050 OA 
BRANCH   7  10
HETATM   10  C   UNL     1      -7.797   7.108  68.049  1.00  0.00    -0.118 C  
HETATM   11  C   UNL     1      -7.375   7.394  69.498  1.00  0.00    -0.085 A  
HETATM   12  C   UNL     1      -9.372   3.214  68.870  1.00  0.00    -0.231 A  
HETATM   13  C   UNL     1      -6.852   8.567  70.026  1.00  0.00    -0.042 A  
HETATM   14  C   UNL     1      -8.270   5.240  69.507  1.00  0.00    -0.095 A  
HETATM   15  C   UNL     1      -6.643   8.630  71.404  1.00  0.00    -0.072 A  
HETATM   16  C   UNL     1      -9.418   3.647  67.535  1.00  0.00    -0.237 A  
HETATM   17  C   UNL     1      -6.948   7.532  72.227  1.00  0.00    -0.064 A  
HETATM   18  C   UNL     1      -8.790   4.007  69.865  1.00  0.00    -0.138 A  
HETATM   19  C   UNL     1      -8.329   5.673  68.164  1.00  0.00    -0.099 A  
HETATM   20  C   UNL     1      -7.466   6.350  71.686  1.00  0.00    -0.093 A  
HETATM   21  C   UNL     1      -8.889   4.884  67.169  1.00  0.00    -0.106 A  
HETATM   22  C   UNL     1      -7.683   6.286  70.320  1.00  0.00    -0.098 A  
BRANCH  10  23
HETATM   23  C   UNL     1      -8.924   8.074  67.599  1.00  0.00    -0.138 C  
BRANCH  23  24
HETATM   24  C   UNL     1      -9.462   7.843  66.176  1.00  0.00    -0.158 C  
BRANCH  24  25
HETATM   25  C   UNL     1      -8.654   8.651  65.160  1.00  0.00    -0.200 C  
BRANCH  25  26
HETATM   26  C   UNL     1      -9.518   9.610  64.331  1.00  0.00    -0.066 C  
BRANCH  26  27
HETATM   27  N   UNL     1      -9.096  11.019  64.381  1.00  0.00    -0.150 NA 
HETATM   28  C   UNL     1     -11.089  12.551  65.954  1.00  0.00    -0.299 C  
HETATM   29  C   UNL     1     -10.077  11.607  66.612  1.00  0.00    -0.238 C  
HETATM   30  C   UNL     1     -11.328  12.172  64.488  1.00  0.00    -0.393 C  
HETATM   31  C   UNL     1     -10.019  11.954  63.727  1.00  0.00    -0.355 C  
HETATM   32  C   UNL     1      -8.821  11.449  65.759  1.00  0.00    -0.111 C  
BRANCH  28  33
HETATM   33  N   UNL     1     -10.681  13.947  66.085  1.00  0.00    -0.281 N  
HETATM   34  O   UNL     1      -9.282  13.589  67.879  1.00  0.00    -0.194 OA 
HETATM   35  C   UNL     1      -9.811  14.352  67.083  1.00  0.00    -0.254 C  
HETATM   36  H   UNL     1     -11.045  14.638  65.428  1.00  0.00     0.000 HD 
BRANCH  35  37
HETATM   37  C   UNL     1      -9.595  15.816  67.180  1.00  0.00    -0.224 A  
HETATM   38  C   UNL     1     -10.223  16.636  68.146  1.00  0.00    -0.280 A  
HETATM   39  C   UNL     1     -10.043  18.029  67.983  1.00  0.00    -0.370 A  
HETATM   40  C   UNL     1      -8.814  16.373  66.141  1.00  0.00    -0.349 A  
HETATM   41  C   UNL     1      -8.664  17.747  66.018  1.00  0.00    -0.029 A  
HETATM   42  C   UNL     1      -9.292  18.578  66.932  1.00  0.00    -0.294 A  
BRANCH  38  43
HETATM   43  C   UNL     1     -11.049  16.147  69.295  1.00  0.00    -0.327 A  
HETATM   44  C   UNL     1     -11.932  15.061  69.183  1.00  0.00    -0.308 A  
HETATM   45  C   UNL     1     -12.619  15.251  71.516  1.00  0.00    -0.442 A  
HETATM   46  C   UNL     1     -12.715  14.628  70.266  1.00  0.00    -0.323 A  
HETATM   47  C   UNL     1     -13.481  14.828  72.680  1.00  0.00    -0.471 C  
HETATM   48  C   UNL     1     -11.707  16.300  71.662  1.00  0.00    -0.490 A  
HETATM   49  C   UNL     1     -10.948  16.743  70.569  1.00  0.00     0.202 A  
HETATM   50  F   UNL     1     -14.358  13.830  72.380  1.00  0.00    -0.574 F  
HETATM   51  F   UNL     1     -14.237  15.852  73.170  1.00  0.00    -0.593 F  
HETATM   52  F   UNL     1     -12.748  14.374  73.736  1.00  0.00    -0.558 F  
ENDBRANCH  38  43
ENDBRANCH  35  37
ENDBRANCH  28  33
ENDBRANCH  26  27
ENDBRANCH  25  26
ENDBRANCH  24  25
ENDBRANCH  23  24
ENDBRANCH  10  23
ENDBRANCH   7  10
ENDBRANCH   3   6
TORSDOF 10
ENDMDL
MODEL       85
REMARK 921   NORMALIZED FREE ENERGY PREDICTED BY IDOCK:   -4.22 KCAL/MOL
REMARK 922        TOTAL FREE ENERGY PREDICTED BY IDOCK:   -9.79 KCAL/MOL
REMARK 923 INTER-LIGAND FREE ENERGY PREDICTED BY IDOCK:   -9.30 KCAL/MOL
REMARK 924 INTRA-LIGAND FREE ENERGY PREDICTED BY IDOCK:   -0.50 KCAL/MOL
REMARK 927      BINDING AFFINITY PREDICTED BY RF-SCORE:    0.00 PKD
ROOT
HETATM    1  F   UNL     1      -8.252   8.024  67.526  1.00  0.00    -0.116 F  
HETATM    2  C   UNL     1      -9.207   7.283  66.920  1.00  0.00    -0.152 C  
HETATM    3  C   UNL     1     -10.531   8.045  66.757  1.00  0.00    -0.248 C  
HETATM    4  F   UNL     1      -9.363   6.144  67.629  1.00  0.00    -0.117 F  
HETATM    5  F   UNL     1      -8.721   6.933  65.703  1.00  0.00    -0.150 F  
ENDROOT
BRANCH   3   6
HETATM    6  N   UNL     1     -10.575   9.398  67.312  1.00  0.00    -0.265 N  
HETATM    7  C   UNL     1     -10.354  10.503  66.511  1.00  0.00    -0.233 C  
HETATM    8  H   UNL     1     -10.773   9.529  68.304  1.00  0.00     0.000 HD 
HETATM    9  O   UNL     1     -10.050  10.366  65.325  1.00  0.00    -0.293 OA 
BRANCH   7  10
HETATM   10  C   UNL     1     -10.511  11.887  67.188  1.00  0.00    -0.249 C  
HETATM   11  C   UNL     1     -11.010  12.956  66.203  1.00  0.00    -0.304 A  
HETATM   12  C   UNL     1      -6.908  13.959  68.208  1.00  0.00    -0.108 A  
HETATM   13  C   UNL     1     -12.223  13.005  65.528  1.00  0.00    -0.521 A  
HETATM   14  C   UNL     1      -8.943  13.715  66.975  1.00  0.00    -0.244 A  
HETATM   15  C   UNL     1     -12.502  14.138  64.763  1.00  0.00    -0.395 A  
HETATM   16  C   UNL     1      -7.113  12.710  68.815  1.00  0.00    -0.087 A  
HETATM   17  C   UNL     1     -11.577  15.192  64.677  1.00  0.00    -0.357 A  
HETATM   18  C   UNL     1      -7.820  14.466  67.276  1.00  0.00    -0.188 A  
HETATM   19  C   UNL     1      -9.149  12.463  67.598  1.00  0.00    -0.186 A  
HETATM   20  C   UNL     1     -10.354  15.131  65.353  1.00  0.00    -0.415 A  
HETATM   21  C   UNL     1      -8.239  11.946  68.509  1.00  0.00    -0.126 A  
HETATM   22  C   UNL     1     -10.075  14.013  66.120  1.00  0.00    -0.319 A  
BRANCH  10  23
HETATM   23  C   UNL     1     -11.452  11.784  68.416  1.00  0.00    -0.354 C  
BRANCH  23  24
HETATM   24  C   UNL     1     -11.683  10.359  68.951  1.00  0.00    -0.138 C  
BRANCH  24  25
HETATM   25  C   UNL     1     -10.856  10.120  70.215  1.00  0.00    -0.370 C  
BRANCH  25  26
HETATM   26  C   UNL     1     -11.697   9.626  71.399  1.00  0.00    -0.404 C  
BRANCH  26  27
HETATM   27  N   UNL     1     -11.503   8.209  71.744  1.00  0.00    -0.269 NA 
HETATM   28  C   UNL     1      -8.594   7.671  71.955  1.00  0.00    -0.109 C  
HETATM   29  C   UNL     1      -9.364   8.443  73.031  1.00  0.00    -0.249 C  
HETATM   30  C   UNL     1      -9.311   7.744  70.602  1.00  0.00    -0.162 C  
HETATM   31  C   UNL     1     -10.803   7.423  70.721  1.00  0.00    -0.241 C  
HETATM   32  C   UNL     1     -10.842   8.058  73.048  1.00  0.00    -0.247 C  
BRANCH  28  33
HETATM   33  N   UNL     1      -8.352   6.289  72.358  1.00  0.00    -0.111 N  
HETATM   34  O   UNL     1      -6.591   5.954  70.911  1.00  0.00    -0.042 OA 
HETATM   35  C   UNL     1      -7.362   5.528  71.762  1.00  0.00    -0.091 C  
HETATM   36  H   UNL     1      -8.924   5.876  73.095  1.00  0.00     0.000 HD 
BRANCH  35  37
HETATM   37  C   UNL     1      -7.321   4.104  72.173  1.00  0.00    -0.065 A  
HETATM   38  C   UNL     1      -7.627   3.031  71.305  1.00  0.00    -0.044 A  
HETATM   39  C   UNL     1      -7.711   1.755  71.908  1.00  0.00    -0.041 A  
HETATM   40  C   UNL     1      -7.087   3.890  73.551  1.00  0.00    -0.063 A  
HETATM   41  C   UNL     1      -7.180   2.619  74.102  1.00  0.00    -0.041 A  
HETATM   42  C   UNL     1      -7.508   1.551  73.282  1.00  0.00    -0.028 A  
BRANCH  38  43
HETATM   43  C   UNL     1      -7.869   3.147  69.832  1.00  0.00    -0.048 A  
HETATM   44  C   UNL     1      -6.825   3.287  68.903  1.00  0.00    -0.045 A  
HETATM   45  C   UNL     1      -8.376   3.376  67.022  1.00  0.00    -0.096 A  
HETATM   46  C   UNL     1      -7.070   3.415  67.526  1.00  0.00    -0.058 A  
HETATM   47  C   UNL     1      -8.663   3.554  65.552  1.00  0.00    -0.122 C  
HETATM   48  C   UNL     1      -9.425   3.185  67.925  1.00  0.00    -0.215 A  
HETATM   49  C   UNL     1      -9.174   3.084  69.301  1.00  0.00    -0.218 A  
HETATM   50  F   UNL     1      -7.552   3.783  64.798  1.00  0.00    -0.072 F  
HETATM   51  F   UNL     1      -9.500   4.602  65.306  1.00  0.00    -0.151 F  
HETATM   52  F   UNL     1      -9.267   2.463  65.001  1.00  0.00    -0.130 F  
ENDBRANCH  38  43
ENDBRANCH  35  37
ENDBRANCH  28  33
ENDBRANCH  26  27
ENDBRANCH  25  26
ENDBRANCH  24  25
ENDBRANCH  23  24
ENDBRANCH  10  23
ENDBRANCH   7  10
ENDBRANCH   3   6
TORSDOF 10
ENDMDL
MODEL       86
REMARK 921   NORMALIZED FREE ENERGY PREDICTED BY IDOCK:   -4.21 KCAL/MOL
REMARK 922        TOTAL FREE ENERGY PREDICTED BY IDOCK:   -9.76 KCAL/MOL
REMARK 923 INTER-LIGAND FREE ENERGY PREDICTED BY IDOCK:   -8.22 KCAL/MOL
REMARK 924 INTRA-LIGAND FREE ENERGY PREDICTED BY IDOCK:   -1.54 KCAL/MOL
REMARK 927      BINDING AFFINITY PREDICTED BY RF-SCORE:    0.00 PKD
ROOT
HETATM    1  F   UNL     1     -13.082  13.981  69.958  1.00  0.00    -0.247 F  
HETATM    2  C   UNL     1     -12.795  14.241  71.253  1.00  0.00    -0.352 C  
HETATM    3  C   UNL     1     -11.357  14.745  71.450  1.00  0.00    -0.074 C  
HETATM    4  F   UNL     1     -13.040  13.121  71.967  1.00  0.00    -0.444 F  
HETATM    5  F   UNL     1     -13.677  15.183  71.671  1.00  0.00    -0.392 F  
ENDROOT
BRANCH   3   6
HETATM    6  N   UNL     1     -10.523  14.816  70.249  1.00  0.00    -0.468 N  
HETATM    7  C   UNL     1     -10.346  16.010  69.577  1.00  0.00    -0.278 C  
HETATM    8  H   UNL     1     -10.066  13.972  69.904  1.00  0.00     0.000 HD 
HETATM    9  O   UNL     1     -10.939  17.028  69.938  1.00  0.00    -0.111 OA 
BRANCH   7  10
HETATM   10  C   UNL     1      -9.373  15.984  68.371  1.00  0.00    -0.207 C  
HETATM   11  C   UNL     1      -7.905  16.079  68.813  1.00  0.00    -0.190 A  
HETATM   12  C   UNL     1      -9.260  19.479  65.904  1.00  0.00    -0.108 A  
HETATM   13  C   UNL     1      -7.178  15.182  69.584  1.00  0.00    -0.194 A  
HETATM   14  C   UNL     1      -8.279  17.926  67.436  1.00  0.00    -0.224 A  
HETATM   15  C   UNL     1      -5.817  15.427  69.767  1.00  0.00    -0.135 A  
HETATM   16  C   UNL     1     -10.490  18.808  65.994  1.00  0.00    -0.483 A  
HETATM   17  C   UNL     1      -5.207  16.556  69.193  1.00  0.00    -0.120 A  
HETATM   18  C   UNL     1      -8.147  19.045  66.632  1.00  0.00    -0.285 A  
HETATM   19  C   UNL     1      -9.517  17.248  67.513  1.00  0.00    -0.245 A  
HETATM   20  C   UNL     1      -5.948  17.460  68.425  1.00  0.00    -0.159 A  
HETATM   21  C   UNL     1     -10.629  17.684  66.808  1.00  0.00    -0.224 A  
HETATM   22  C   UNL     1      -7.298  17.216  68.232  1.00  0.00    -0.214 A  
BRANCH  10  23
HETATM   23  C   UNL     1      -9.612  14.713  67.513  1.00  0.00    -0.206 C  
BRANCH  23  24
HETATM   24  C   UNL     1      -8.380  14.190  66.753  1.00  0.00     0.054 C  
BRANCH  24  25
HETATM   25  C   UNL     1      -7.601  13.195  67.615  1.00  0.00    -0.171 C  
BRANCH  25  26
HETATM   26  C   UNL     1      -7.417  11.831  66.939  1.00  0.00    -0.106 C  
BRANCH  26  27
HETATM   27  N   UNL     1      -7.722  10.673  67.794  1.00  0.00    -0.099 NA 
HETATM   28  C   UNL     1      -7.308   8.194  66.219  1.00  0.00    -0.078 C  
HETATM   29  C   UNL     1      -6.140   9.031  66.751  1.00  0.00    -0.061 C  
HETATM   30  C   UNL     1      -8.580   9.041  66.084  1.00  0.00    -0.149 C  
HETATM   31  C   UNL     1      -8.861   9.866  67.342  1.00  0.00    -0.132 C  
HETATM   32  C   UNL     1      -6.539   9.825  67.993  1.00  0.00    -0.061 C  
BRANCH  28  33
HETATM   33  N   UNL     1      -7.539   7.012  67.045  1.00  0.00    -0.100 N  
HETATM   34  O   UNL     1      -8.105   5.635  65.288  1.00  0.00    -0.111 OA 
HETATM   35  C   UNL     1      -7.955   5.815  66.489  1.00  0.00    -0.102 C  
HETATM   36  H   UNL     1      -7.391   7.071  68.053  1.00  0.00     0.000 HD 
BRANCH  35  37
HETATM   37  C   UNL     1      -8.282   4.744  67.461  1.00  0.00    -0.105 A  
HETATM   38  C   UNL     1      -8.987   4.969  68.665  1.00  0.00    -0.127 A  
HETATM   39  C   UNL     1      -9.055   3.872  69.554  1.00  0.00    -0.196 A  
HETATM   40  C   UNL     1      -7.713   3.482  67.168  1.00  0.00    -0.079 A  
HETATM   41  C   UNL     1      -7.804   2.432  68.071  1.00  0.00    -0.059 A  
HETATM   42  C   UNL     1      -8.463   2.631  69.274  1.00  0.00    -0.099 A  
BRANCH  38  43
HETATM   43  C   UNL     1      -9.643   6.256  69.059  1.00  0.00    -0.138 A  
HETATM   44  C   UNL     1      -9.223   7.012  70.166  1.00  0.00    -0.152 A  
HETATM   45  C   UNL     1     -10.935   8.708  69.783  1.00  0.00    -0.132 A  
HETATM   46  C   UNL     1      -9.864   8.207  70.533  1.00  0.00    -0.194 A  
HETATM   47  C   UNL     1     -11.662   9.967  70.186  1.00  0.00    -0.174 C  
HETATM   48  C   UNL     1     -11.334   7.997  68.648  1.00  0.00     0.713 A  
HETATM   49  C   UNL     1     -10.706   6.792  68.302  1.00  0.00    -0.290 A  
HETATM   50  F   UNL     1     -11.200  10.524  71.339  1.00  0.00    -0.254 F  
HETATM   51  F   UNL     1     -12.996   9.759  70.382  1.00  0.00    -0.202 F  
HETATM   52  F   UNL     1     -11.577  10.945  69.240  1.00  0.00    -0.262 F  
ENDBRANCH  38  43
ENDBRANCH  35  37
ENDBRANCH  28  33
ENDBRANCH  26  27
ENDBRANCH  25  26
ENDBRANCH  24  25
ENDBRANCH  23  24
ENDBRANCH  10  23
ENDBRANCH   7  10
ENDBRANCH   3   6
TORSDOF 10
ENDMDL
MODEL       87
REMARK 921   NORMALIZED FREE ENERGY PREDICTED BY IDOCK:   -4.10 KCAL/MOL
REMARK 922        TOTAL FREE ENERGY PREDICTED BY IDOCK:   -9.59 KCAL/MOL
REMARK 923 INTER-LIGAND FREE ENERGY PREDICTED BY IDOCK:   -8.78 KCAL/MOL
REMARK 924 INTRA-LIGAND FREE ENERGY PREDICTED BY IDOCK:   -0.82 KCAL/MOL
REMARK 927      BINDING AFFINITY PREDICTED BY RF-SCORE:    0.00 PKD
ROOT
HETATM    1  F   UNL     1      -7.251  14.279  70.954  1.00  0.00     0.306 F  
HETATM    2  C   UNL     1      -6.142  13.871  70.299  1.00  0.00    -0.141 C  
HETATM    3  C   UNL     1      -6.295  13.949  68.772  1.00  0.00    -0.091 C  
HETATM    4  F   UNL     1      -5.848  12.620  70.715  1.00  0.00    -0.172 F  
HETATM    5  F   UNL     1      -5.126  14.675  70.704  1.00  0.00    -0.102 F  
ENDROOT
BRANCH   3   6
HETATM    6  N   UNL     1      -7.598  14.389  68.271  1.00  0.00    -0.114 N  
HETATM    7  C   UNL     1      -8.595  13.476  67.987  1.00  0.00    -0.177 C  
HETATM    8  H   UNL     1      -7.772  15.384  68.130  1.00  0.00     0.000 HD 
HETATM    9  O   UNL     1      -8.386  12.267  68.088  1.00  0.00    -0.160 OA 
BRANCH   7  10
HETATM   10  C   UNL     1      -9.960  14.063  67.545  1.00  0.00    -0.236 C  
HETATM   11  C   UNL     1      -9.870  15.567  67.246  1.00  0.00    -0.224 A  
HETATM   12  C   UNL     1     -12.964  14.450  70.568  1.00  0.00    -0.283 A  
HETATM   13  C   UNL     1      -9.131  16.206  66.260  1.00  0.00    -0.373 A  
HETATM   14  C   UNL     1     -11.434  15.349  68.964  1.00  0.00    -0.349 A  
HETATM   15  C   UNL     1      -9.292  17.583  66.108  1.00  0.00    -0.168 A  
HETATM   16  C   UNL     1     -12.494  13.153  70.306  1.00  0.00    -0.233 A  
HETATM   17  C   UNL     1     -10.173  18.299  66.937  1.00  0.00    -0.390 A  
HETATM   18  C   UNL     1     -12.430  15.559  69.902  1.00  0.00    -0.243 A  
HETATM   19  C   UNL     1     -10.973  14.040  68.697  1.00  0.00    -0.281 A  
HETATM   20  C   UNL     1     -10.908  17.649  67.934  1.00  0.00    -0.245 A  
HETATM   21  C   UNL     1     -11.486  12.938  69.367  1.00  0.00    -0.323 A  
HETATM   22  C   UNL     1     -10.758  16.281  68.083  1.00  0.00    -0.322 A  
BRANCH  10  23
HETATM   23  C   UNL     1     -10.510  13.286  66.320  1.00  0.00    -0.289 C  
BRANCH  23  24
HETATM   24  C   UNL     1     -11.386  12.065  66.652  1.00  0.00    -0.399 C  
BRANCH  24  25
HETATM   25  C   UNL     1     -10.620  10.769  66.390  1.00  0.00    -0.266 C  
BRANCH  25  26
HETATM   26  C   UNL     1     -10.900   9.683  67.436  1.00  0.00    -0.172 C  
BRANCH  26  27
HETATM   27  N   UNL     1      -9.748   8.827  67.761  1.00  0.00    -0.152 NA 
HETATM   28  C   UNL     1     -10.745   6.321  68.994  1.00  0.00    -0.302 C  
HETATM   29  C   UNL     1     -10.870   6.601  67.493  1.00  0.00    -0.417 C  
HETATM   30  C   UNL     1     -10.615   7.624  69.792  1.00  0.00    -0.245 C  
HETATM   31  C   UNL     1      -9.568   8.566  69.194  1.00  0.00    -0.167 C  
HETATM   32  C   UNL     1      -9.788   7.564  67.010  1.00  0.00    -0.214 C  
BRANCH  28  33
HETATM   33  N   UNL     1      -9.640   5.409  69.277  1.00  0.00    -0.135 N  
HETATM   34  O   UNL     1     -10.129   5.175  71.516  1.00  0.00    -0.179 OA 
HETATM   35  C   UNL     1      -9.411   4.929  70.555  1.00  0.00    -0.166 C  
HETATM   36  H   UNL     1      -9.023   5.120  68.517  1.00  0.00     0.000 HD 
BRANCH  35  37
HETATM   37  C   UNL     1      -8.176   4.125  70.720  1.00  0.00    -0.077 A  
HETATM   38  C   UNL     1      -7.550   3.428  69.662  1.00  0.00    -0.044 A  
HETATM   39  C   UNL     1      -6.488   2.572  70.031  1.00  0.00    -0.029 A  
HETATM   40  C   UNL     1      -7.733   3.985  72.056  1.00  0.00    -0.071 A  
HETATM   41  C   UNL     1      -6.686   3.132  72.374  1.00  0.00    -0.022 A  
HETATM   42  C   UNL     1      -6.071   2.411  71.362  1.00  0.00    -0.014 A  
BRANCH  38  43
HETATM   43  C   UNL     1      -7.927   3.525  68.216  1.00  0.00    -0.072 A  
HETATM   44  C   UNL     1      -7.378   4.489  67.354  1.00  0.00    -0.073 A  
HETATM   45  C   UNL     1      -8.682   3.681  65.457  1.00  0.00    -0.119 A  
HETATM   46  C   UNL     1      -7.757   4.579  66.005  1.00  0.00    -0.094 A  
HETATM   47  C   UNL     1      -9.133   3.787  64.021  1.00  0.00    -0.124 C  
HETATM   48  C   UNL     1      -9.200   2.681  66.286  1.00  0.00    -0.066 A  
HETATM   49  C   UNL     1      -8.836   2.614  67.638  1.00  0.00    -0.159 A  
HETATM   50  F   UNL     1      -8.586   4.838  63.349  1.00  0.00    -0.111 F  
HETATM   51  F   UNL     1     -10.484   3.937  63.909  1.00  0.00    -0.195 F  
HETATM   52  F   UNL     1      -8.823   2.677  63.293  1.00  0.00    -0.085 F  
ENDBRANCH  38  43
ENDBRANCH  35  37
ENDBRANCH  28  33
ENDBRANCH  26  27
ENDBRANCH  25  26
ENDBRANCH  24  25
ENDBRANCH  23  24
ENDBRANCH  10  23
ENDBRANCH   7  10
ENDBRANCH   3   6
TORSDOF 10
ENDMDL
MODEL       88
REMARK 921   NORMALIZED FREE ENERGY PREDICTED BY IDOCK:   -4.08 KCAL/MOL
REMARK 922        TOTAL FREE ENERGY PREDICTED BY IDOCK:   -9.57 KCAL/MOL
REMARK 923 INTER-LIGAND FREE ENERGY PREDICTED BY IDOCK:   -7.94 KCAL/MOL
REMARK 924 INTRA-LIGAND FREE ENERGY PREDICTED BY IDOCK:   -1.63 KCAL/MOL
REMARK 927      BINDING AFFINITY PREDICTED BY RF-SCORE:    0.00 PKD
ROOT
HETATM    1  F   UNL     1      -7.181  14.105  70.922  1.00  0.00     0.391 F  
HETATM    2  C   UNL     1      -6.072  13.815  70.206  1.00  0.00    -0.133 C  
HETATM    3  C   UNL     1      -6.321  13.851  68.690  1.00  0.00    -0.090 C  
HETATM    4  F   UNL     1      -5.614  12.612  70.615  1.00  0.00    -0.127 F  
HETATM    5  F   UNL     1      -5.133  14.736  70.543  1.00  0.00    -0.099 F  
ENDROOT
BRANCH   3   6
HETATM    6  N   UNL     1      -7.692  14.133  68.263  1.00  0.00    -0.128 N  
HETATM    7  C   UNL     1      -8.636  13.126  68.193  1.00  0.00    -0.181 C  
HETATM    8  H   UNL     1      -7.955  15.086  68.014  1.00  0.00     0.000 HD 
HETATM    9  O   UNL     1      -8.325  11.957  68.428  1.00  0.00    -0.159 OA 
BRANCH   7  10
HETATM   10  C   UNL     1     -10.075  13.556  67.812  1.00  0.00    -0.236 C  
HETATM   11  C   UNL     1     -10.133  15.016  67.339  1.00  0.00    -0.228 A  
HETATM   12  C   UNL     1     -12.848  14.086  71.029  1.00  0.00    -0.410 A  
HETATM   13  C   UNL     1      -9.529  15.585  66.225  1.00  0.00    -0.356 A  
HETATM   14  C   UNL     1     -11.530  14.894  69.203  1.00  0.00    -0.324 A  
HETATM   15  C   UNL     1      -9.814  16.919  65.933  1.00  0.00    -0.241 A  
HETATM   16  C   UNL     1     -12.296  12.804  70.874  1.00  0.00    -0.356 A  
HETATM   17  C   UNL     1     -10.681  17.663  66.751  1.00  0.00    -0.129 A  
HETATM   18  C   UNL     1     -12.461  15.143  70.197  1.00  0.00    -0.361 A  
HETATM   19  C   UNL     1     -10.987  13.599  69.046  1.00  0.00    -0.271 A  
HETATM   20  C   UNL     1     -11.278  17.086  67.878  1.00  0.00     0.015 A  
HETATM   21  C   UNL     1     -11.353  12.551  69.879  1.00  0.00    -0.052 A  
HETATM   22  C   UNL     1     -11.005  15.760  68.166  1.00  0.00    -0.330 A  
BRANCH  10  23
HETATM   23  C   UNL     1     -10.657  12.602  66.737  1.00  0.00    -0.254 C  
BRANCH  23  24
HETATM   24  C   UNL     1     -11.567  11.482  67.272  1.00  0.00    -0.280 C  
BRANCH  24  25
HETATM   25  C   UNL     1     -10.778  10.181  67.431  1.00  0.00    -0.336 C  
BRANCH  25  26
HETATM   26  C   UNL     1     -11.267   9.322  68.604  1.00  0.00     0.235 C  
BRANCH  26  27
HETATM   27  N   UNL     1     -10.224   8.509  69.248  1.00  0.00    -0.204 NA 
HETATM   28  C   UNL     1     -11.487   6.090  70.409  1.00  0.00    -0.164 C  
HETATM   29  C   UNL     1     -11.263   6.254  68.902  1.00  0.00    -0.387 C  
HETATM   30  C   UNL     1     -11.539   7.451  71.112  1.00  0.00    -0.313 C  
HETATM   31  C   UNL     1     -10.378   8.359  70.700  1.00  0.00    -0.197 C  
HETATM   32  C   UNL     1     -10.095   7.193  68.608  1.00  0.00    -0.173 C  
BRANCH  28  33
HETATM   33  N   UNL     1     -10.480   5.217  71.007  1.00  0.00    -0.225 N  
HETATM   34  O   UNL     1     -11.612   4.920  72.990  1.00  0.00    -0.290 OA 
HETATM   35  C   UNL     1     -10.628   4.721  72.291  1.00  0.00    -0.157 C  
HETATM   36  H   UNL     1      -9.651   4.968  70.468  1.00  0.00     0.000 HD 
BRANCH  35  37
HETATM   37  C   UNL     1      -9.467   3.964  72.817  1.00  0.00    -0.162 A  
HETATM   38  C   UNL     1      -8.125   4.383  72.659  1.00  0.00    -0.098 A  
HETATM   39  C   UNL     1      -7.139   3.455  73.065  1.00  0.00    -0.045 A  
HETATM   40  C   UNL     1      -9.782   2.704  73.375  1.00  0.00    -0.144 A  
HETATM   41  C   UNL     1      -8.781   1.823  73.760  1.00  0.00    -0.058 A  
HETATM   42  C   UNL     1      -7.456   2.192  73.591  1.00  0.00    -0.037 A  
BRANCH  38  43
HETATM   43  C   UNL     1      -7.686   5.702  72.103  1.00  0.00    -0.102 A  
HETATM   44  C   UNL     1      -7.074   5.825  70.845  1.00  0.00    -0.071 A  
HETATM   45  C   UNL     1      -6.853   8.243  71.079  1.00  0.00    -0.046 A  
HETATM   46  C   UNL     1      -6.650   7.068  70.346  1.00  0.00    -0.051 A  
HETATM   47  C   UNL     1      -6.368   9.582  70.580  1.00  0.00    -0.080 C  
HETATM   48  C   UNL     1      -7.508   8.147  72.310  1.00  0.00    -0.139 A  
HETATM   49  C   UNL     1      -7.906   6.900  72.813  1.00  0.00    -0.099 A  
HETATM   50  F   UNL     1      -5.702   9.518  69.393  1.00  0.00    -0.034 F  
HETATM   51  F   UNL     1      -5.512  10.186  71.453  1.00  0.00    -0.069 F  
HETATM   52  F   UNL     1      -7.385  10.469  70.388  1.00  0.00    -0.158 F  
ENDBRANCH  38  43
ENDBRANCH  35  37
ENDBRANCH  28  33
ENDBRANCH  26  27
ENDBRANCH  25  26
ENDBRANCH  24  25
ENDBRANCH  23  24
ENDBRANCH  10  23
ENDBRANCH   7  10
ENDBRANCH   3   6
TORSDOF 10
ENDMDL
MODEL       89
REMARK 921   NORMALIZED FREE ENERGY PREDICTED BY IDOCK:   -4.05 KCAL/MOL
REMARK 922        TOTAL FREE ENERGY PREDICTED BY IDOCK:   -9.52 KCAL/MOL
REMARK 923 INTER-LIGAND FREE ENERGY PREDICTED BY IDOCK:   -8.16 KCAL/MOL
REMARK 924 INTRA-LIGAND FREE ENERGY PREDICTED BY IDOCK:   -1.36 KCAL/MOL
REMARK 927      BINDING AFFINITY PREDICTED BY RF-SCORE:    0.00 PKD
ROOT
HETATM    1  F   UNL     1     -12.992  12.111  64.863  1.00  0.00    -0.433 F  
HETATM    2  C   UNL     1     -12.284  12.402  63.749  1.00  0.00    -0.533 C  
HETATM    3  C   UNL     1     -11.073  13.302  64.038  1.00  0.00    -0.311 C  
HETATM    4  F   UNL     1     -13.126  12.959  62.853  1.00  0.00     0.028 F  
HETATM    5  F   UNL     1     -11.868  11.221  63.226  1.00  0.00    -0.415 F  
ENDROOT
BRANCH   3   6
HETATM    6  N   UNL     1     -10.903  13.740  65.424  1.00  0.00    -0.301 N  
HETATM    7  C   UNL     1      -9.871  13.250  66.202  1.00  0.00    -0.280 C  
HETATM    8  H   UNL     1     -11.555  14.416  65.821  1.00  0.00     0.000 HD 
HETATM    9  O   UNL     1      -9.111  12.385  65.764  1.00  0.00    -0.017 OA 
BRANCH   7  10
HETATM   10  C   UNL     1      -9.739  13.848  67.625  1.00  0.00    -0.226 C  
HETATM   11  C   UNL     1      -9.713  15.384  67.603  1.00  0.00    -0.211 A  
HETATM   12  C   UNL     1      -5.939  13.428  69.550  1.00  0.00    -0.105 A  
HETATM   13  C   UNL     1     -10.712  16.256  67.190  1.00  0.00    -0.247 A  
HETATM   14  C   UNL     1      -7.693  14.726  68.569  1.00  0.00    -0.120 A  
HETATM   15  C   UNL     1     -10.502  17.624  67.364  1.00  0.00    -0.356 A  
HETATM   16  C   UNL     1      -6.610  12.243  69.207  1.00  0.00    -0.099 A  
HETATM   17  C   UNL     1      -9.309  18.100  67.935  1.00  0.00    -0.276 A  
HETATM   18  C   UNL     1      -6.475  14.680  69.225  1.00  0.00    -0.122 A  
HETATM   19  C   UNL     1      -8.368  13.529  68.236  1.00  0.00    -0.165 A  
HETATM   20  C   UNL     1      -8.303  17.216  68.341  1.00  0.00    -0.251 A  
HETATM   21  C   UNL     1      -7.833  12.285  68.540  1.00  0.00    -0.111 A  
HETATM   22  C   UNL     1      -8.511  15.857  68.178  1.00  0.00    -0.167 A  
BRANCH  10  23
HETATM   23  C   UNL     1     -10.878  13.327  68.539  1.00  0.00    -0.286 C  
BRANCH  23  24
HETATM   24  C   UNL     1     -11.863  12.350  67.871  1.00  0.00    -0.370 C  
BRANCH  24  25
HETATM   25  C   UNL     1     -11.722  10.952  68.474  1.00  0.00    -0.307 C  
BRANCH  25  26
HETATM   26  C   UNL     1     -10.379  10.288  68.145  1.00  0.00    -0.177 C  
BRANCH  26  27
HETATM   27  N   UNL     1     -10.484   8.937  67.571  1.00  0.00    -0.268 NA 
HETATM   28  C   UNL     1      -8.305   7.261  68.685  1.00  0.00    -0.125 C  
HETATM   29  C   UNL     1      -9.538   7.653  69.506  1.00  0.00    -0.163 C  
HETATM   30  C   UNL     1      -8.064   8.253  67.541  1.00  0.00    -0.122 C  
HETATM   31  C   UNL     1      -9.340   8.536  66.744  1.00  0.00    -0.182 C  
HETATM   32  C   UNL     1     -10.743   7.930  68.610  1.00  0.00    -0.035 C  
BRANCH  28  33
HETATM   33  N   UNL     1      -8.405   5.890  68.193  1.00  0.00    -0.115 N  
HETATM   34  O   UNL     1      -6.274   5.826  67.319  1.00  0.00    -0.031 OA 
HETATM   35  C   UNL     1      -7.359   5.292  67.511  1.00  0.00    -0.079 C  
HETATM   36  H   UNL     1      -9.262   5.362  68.355  1.00  0.00     0.000 HD 
BRANCH  35  37
HETATM   37  C   UNL     1      -7.651   3.951  66.951  1.00  0.00    -0.080 A  
HETATM   38  C   UNL     1      -7.803   2.790  67.743  1.00  0.00    -0.060 A  
HETATM   39  C   UNL     1      -7.901   1.570  67.035  1.00  0.00    -0.065 A  
HETATM   40  C   UNL     1      -7.629   3.879  65.539  1.00  0.00    -0.082 A  
HETATM   41  C   UNL     1      -7.727   2.659  64.885  1.00  0.00    -0.077 A  
HETATM   42  C   UNL     1      -7.848   1.499  65.634  1.00  0.00    -0.068 A  
BRANCH  38  43
HETATM   43  C   UNL     1      -7.862   2.760  69.239  1.00  0.00    -0.052 A  
HETATM   44  C   UNL     1      -9.072   2.811  69.949  1.00  0.00    -0.190 A  
HETATM   45  C   UNL     1      -7.928   2.711  72.102  1.00  0.00    -0.054 A  
HETATM   46  C   UNL     1      -9.108   2.803  71.353  1.00  0.00    -0.175 A  
HETATM   47  C   UNL     1      -7.943   2.743  73.610  1.00  0.00    -0.060 C  
HETATM   48  C   UNL     1      -6.717   2.606  71.412  1.00  0.00    -0.030 A  
HETATM   49  C   UNL     1      -6.687   2.640  70.011  1.00  0.00    -0.033 A  
HETATM   50  F   UNL     1      -9.186   2.901  74.145  1.00  0.00    -0.080 F  
HETATM   51  F   UNL     1      -7.188   3.759  74.118  1.00  0.00    -0.051 F  
HETATM   52  F   UNL     1      -7.443   1.601  74.162  1.00  0.00    -0.026 F  
ENDBRANCH  38  43
ENDBRANCH  35  37
ENDBRANCH  28  33
ENDBRANCH  26  27
ENDBRANCH  25  26
ENDBRANCH  24  25
ENDBRANCH  23  24
ENDBRANCH  10  23
ENDBRANCH   7  10
ENDBRANCH   3   6
TORSDOF 10
ENDMDL
MODEL       90
REMARK 921   NORMALIZED FREE ENERGY PREDICTED BY IDOCK:   -4.04 KCAL/MOL
REMARK 922        TOTAL FREE ENERGY PREDICTED BY IDOCK:   -9.51 KCAL/MOL
REMARK 923 INTER-LIGAND FREE ENERGY PREDICTED BY IDOCK:  -10.49 KCAL/MOL
REMARK 924 INTRA-LIGAND FREE ENERGY PREDICTED BY IDOCK:    0.99 KCAL/MOL
REMARK 927      BINDING AFFINITY PREDICTED BY RF-SCORE:    0.00 PKD
ROOT
HETATM    1  F   UNL     1      -6.663  19.519  67.034  1.00  0.00    -0.195 F  
HETATM    2  C   UNL     1      -7.608  20.322  66.498  1.00  0.00    -0.248 C  
HETATM    3  C   UNL     1      -8.928  19.582  66.228  1.00  0.00    -0.364 C  
HETATM    4  F   UNL     1      -7.100  20.875  65.376  1.00  0.00    -0.165 F  
HETATM    5  F   UNL     1      -7.816  21.331  67.382  1.00  0.00    -0.379 F  
ENDROOT
BRANCH   3   6
HETATM    6  N   UNL     1      -8.945  18.151  66.533  1.00  0.00    -0.282 N  
HETATM    7  C   UNL     1     -10.046  17.563  67.126  1.00  0.00    -0.321 C  
HETATM    8  H   UNL     1      -8.132  17.579  66.304  1.00  0.00     0.000 HD 
HETATM    9  O   UNL     1     -11.012  18.246  67.470  1.00  0.00    -0.335 OA 
BRANCH   7  10
HETATM   10  C   UNL     1      -9.985  16.027  67.323  1.00  0.00    -0.242 C  
HETATM   11  C   UNL     1     -10.884  15.284  66.323  1.00  0.00    -0.312 A  
HETATM   12  C   UNL     1     -11.902  14.449  70.808  1.00  0.00    -0.349 A  
HETATM   13  C   UNL     1     -10.779  15.241  64.939  1.00  0.00    -0.423 A  
HETATM   14  C   UNL     1     -11.676  14.711  68.441  1.00  0.00    -0.352 A  
HETATM   15  C   UNL     1     -11.651  14.404  64.241  1.00  0.00    -0.279 A  
HETATM   16  C   UNL     1     -10.851  15.355  71.020  1.00  0.00    -0.207 A  
HETATM   17  C   UNL     1     -12.609  13.636  64.924  1.00  0.00    -0.380 A  
HETATM   18  C   UNL     1     -12.327  14.127  69.514  1.00  0.00    -0.275 A  
HETATM   19  C   UNL     1     -10.611  15.613  68.661  1.00  0.00    -0.243 A  
HETATM   20  C   UNL     1     -12.714  13.691  66.318  1.00  0.00    -0.222 A  
HETATM   21  C   UNL     1     -10.197  15.951  69.942  1.00  0.00    -0.233 A  
HETATM   22  C   UNL     1     -11.846  14.514  67.015  1.00  0.00    -0.408 A  
BRANCH  10  23
HETATM   23  C   UNL     1      -8.520  15.529  67.228  1.00  0.00    -0.216 C  
BRANCH  23  24
HETATM   24  C   UNL     1      -8.251  14.148  67.853  1.00  0.00    -0.155 C  
BRANCH  24  25
HETATM   25  C   UNL     1      -9.364  13.167  67.483  1.00  0.00    -0.207 C  
BRANCH  25  26
HETATM   26  C   UNL     1      -8.891  12.049  66.546  1.00  0.00    -0.172 C  
BRANCH  26  27
HETATM   27  N   UNL     1      -8.422  10.831  67.226  1.00  0.00    -0.124 NA 
HETATM   28  C   UNL     1     -10.719   9.577  68.620  1.00  0.00    -0.184 C  
HETATM   29  C   UNL     1     -10.548   9.509  67.099  1.00  0.00    -0.295 C  
HETATM   30  C   UNL     1      -9.967  10.777  69.209  1.00  0.00    -0.182 C  
HETATM   31  C   UNL     1      -8.531  10.870  68.689  1.00  0.00    -0.152 C  
HETATM   32  C   UNL     1      -9.081   9.630  66.694  1.00  0.00    -0.148 C  
BRANCH  28  33
HETATM   33  N   UNL     1     -10.317   8.327  69.260  1.00  0.00    -0.216 N  
HETATM   34  O   UNL     1     -10.773   9.033  71.404  1.00  0.00    -0.275 OA 
HETATM   35  C   UNL     1     -10.356   8.177  70.635  1.00  0.00    -0.199 C  
HETATM   36  H   UNL     1     -10.000   7.550  68.681  1.00  0.00     0.000 HD 
BRANCH  35  37
HETATM   37  C   UNL     1      -9.789   6.908  71.151  1.00  0.00    -0.184 A  
HETATM   38  C   UNL     1      -8.922   6.078  70.404  1.00  0.00    -0.153 A  
HETATM   39  C   UNL     1      -8.621   4.824  70.981  1.00  0.00    -0.126 A  
HETATM   40  C   UNL     1     -10.289   6.502  72.410  1.00  0.00    -0.210 A  
HETATM   41  C   UNL     1      -9.968   5.261  72.940  1.00  0.00    -0.192 A  
HETATM   42  C   UNL     1      -9.143   4.412  72.217  1.00  0.00    -0.147 A  
BRANCH  38  43
HETATM   43  C   UNL     1      -8.321   6.422  69.076  1.00  0.00    -0.118 A  
HETATM   44  C   UNL     1      -8.860   5.967  67.862  1.00  0.00    -0.110 A  
HETATM   45  C   UNL     1      -7.134   7.096  66.558  1.00  0.00    -0.078 A  
HETATM   46  C   UNL     1      -8.272   6.282  66.626  1.00  0.00    -0.111 A  
HETATM   47  C   UNL     1      -6.464   7.412  65.244  1.00  0.00    -0.041 C  
HETATM   48  C   UNL     1      -6.614   7.602  67.753  1.00  0.00    -0.062 A  
HETATM   49  C   UNL     1      -7.192   7.262  68.985  1.00  0.00    -0.089 A  
HETATM   50  F   UNL     1      -7.048   6.810  64.171  1.00  0.00    -0.047 F  
HETATM   51  F   UNL     1      -5.156   7.027  65.220  1.00  0.00    -0.021 F  
HETATM   52  F   UNL     1      -6.460   8.746  64.966  1.00  0.00    -0.062 F  
ENDBRANCH  38  43
ENDBRANCH  35  37
ENDBRANCH  28  33
ENDBRANCH  26  27
ENDBRANCH  25  26
ENDBRANCH  24  25
ENDBRANCH  23  24
ENDBRANCH  10  23
ENDBRANCH   7  10
ENDBRANCH   3   6
TORSDOF 10
ENDMDL
MODEL       91
REMARK 921   NORMALIZED FREE ENERGY PREDICTED BY IDOCK:   -3.88 KCAL/MOL
REMARK 922        TOTAL FREE ENERGY PREDICTED BY IDOCK:   -9.25 KCAL/MOL
REMARK 923 INTER-LIGAND FREE ENERGY PREDICTED BY IDOCK:   -9.48 KCAL/MOL
REMARK 924 INTRA-LIGAND FREE ENERGY PREDICTED BY IDOCK:    0.23 KCAL/MOL
REMARK 927      BINDING AFFINITY PREDICTED BY RF-SCORE:    0.00 PKD
ROOT
HETATM    1  F   UNL     1     -12.506  16.157  71.890  1.00  0.00    -0.471 F  
HETATM    2  C   UNL     1     -13.058  15.066  72.466  1.00  0.00    -0.388 C  
HETATM    3  C   UNL     1     -12.558  13.754  71.843  1.00  0.00    -0.188 C  
HETATM    4  F   UNL     1     -14.401  15.185  72.385  1.00  0.00    -0.528 F  
HETATM    5  F   UNL     1     -12.732  15.108  73.783  1.00  0.00    -0.528 F  
ENDROOT
BRANCH   3   6
HETATM    6  N   UNL     1     -11.628  13.879  70.720  1.00  0.00    -0.505 N  
HETATM    7  C   UNL     1     -12.072  14.268  69.470  1.00  0.00    -0.330 C  
HETATM    8  H   UNL     1     -10.639  13.677  70.861  1.00  0.00     0.000 HD 
HETATM    9  O   UNL     1     -13.272  14.454  69.261  1.00  0.00     0.941 OA 
BRANCH   7  10
HETATM   10  C   UNL     1     -10.987  14.451  68.380  1.00  0.00    -0.261 C  
HETATM   11  C   UNL     1     -10.540  15.915  68.252  1.00  0.00    -0.276 A  
HETATM   12  C   UNL     1     -12.257  14.080  64.310  1.00  0.00    -0.453 A  
HETATM   13  C   UNL     1      -9.905  16.707  69.199  1.00  0.00    -0.244 A  
HETATM   14  C   UNL     1     -11.391  15.322  66.162  1.00  0.00    -0.160 A  
HETATM   15  C   UNL     1      -9.495  17.985  68.818  1.00  0.00    -0.279 A  
HETATM   16  C   UNL     1     -12.427  12.954  65.131  1.00  0.00    -0.561 A  
HETATM   17  C   UNL     1      -9.727  18.454  67.513  1.00  0.00    -0.308 A  
HETATM   18  C   UNL     1     -11.743  15.276  64.824  1.00  0.00    -0.276 A  
HETATM   19  C   UNL     1     -11.555  14.182  66.980  1.00  0.00    -0.404 A  
HETATM   20  C   UNL     1     -10.376  17.653  66.567  1.00  0.00    -0.337 A  
HETATM   21  C   UNL     1     -12.080  12.998  66.481  1.00  0.00    -0.410 A  
HETATM   22  C   UNL     1     -10.777  16.381  66.938  1.00  0.00    -0.202 A  
BRANCH  10  23
HETATM   23  C   UNL     1      -9.775  13.525  68.664  1.00  0.00    -0.104 C  
BRANCH  23  24
HETATM   24  C   UNL     1      -9.986  12.039  68.322  1.00  0.00    -0.203 C  
BRANCH  24  25
HETATM   25  C   UNL     1     -11.342  11.558  68.838  1.00  0.00    -0.331 C  
BRANCH  25  26
HETATM   26  C   UNL     1     -11.239  10.315  69.731  1.00  0.00    -0.282 C  
BRANCH  26  27
HETATM   27  N   UNL     1      -9.928   9.646  69.707  1.00  0.00    -0.212 NA 
HETATM   28  C   UNL     1     -10.309   6.785  70.386  1.00  0.00    -0.198 C  
HETATM   29  C   UNL     1     -10.704   7.363  69.023  1.00  0.00    -0.164 C  
HETATM   30  C   UNL     1     -10.273   7.878  71.461  1.00  0.00    -0.232 C  
HETATM   31  C   UNL     1      -9.493   9.112  71.003  1.00  0.00    -0.274 C  
HETATM   32  C   UNL     1      -9.878   8.599  68.678  1.00  0.00    -0.169 C  
BRANCH  28  33
HETATM   33  N   UNL     1      -9.042   6.063  70.314  1.00  0.00    -0.150 N  
HETATM   34  O   UNL     1      -9.982   4.047  69.716  1.00  0.00    -0.180 OA 
HETATM   35  C   UNL     1      -8.998   4.715  70.004  1.00  0.00    -0.093 C  
HETATM   36  H   UNL     1      -8.172   6.563  70.496  1.00  0.00     0.000 HD 
BRANCH  35  37
HETATM   37  C   UNL     1      -7.659   4.085  70.102  1.00  0.00    -0.045 A  
HETATM   38  C   UNL     1      -6.447   4.800  69.968  1.00  0.00    -0.035 A  
HETATM   39  C   UNL     1      -5.272   4.015  69.912  1.00  0.00    -0.007 A  
HETATM   40  C   UNL     1      -7.672   2.674  70.204  1.00  0.00    -0.045 A  
HETATM   41  C   UNL     1      -6.494   1.944  70.144  1.00  0.00    -0.025 A  
HETATM   42  C   UNL     1      -5.292   2.614  69.982  1.00  0.00    -0.012 A  
BRANCH  38  43
HETATM   43  C   UNL     1      -6.322   6.289  69.876  1.00  0.00    -0.035 A  
HETATM   44  C   UNL     1      -5.918   7.082  70.962  1.00  0.00    -0.036 A  
HETATM   45  C   UNL     1      -6.107   9.137  69.661  1.00  0.00    -0.039 A  
HETATM   46  C   UNL     1      -5.826   8.480  70.865  1.00  0.00    -0.033 A  
HETATM   47  C   UNL     1      -6.054  10.641  69.548  1.00  0.00    -0.053 C  
HETATM   48  C   UNL     1      -6.460   8.360  68.554  1.00  0.00    -0.055 A  
HETATM   49  C   UNL     1      -6.575   6.967  68.665  1.00  0.00    -0.054 A  
HETATM   50  F   UNL     1      -5.747  11.269  70.716  1.00  0.00    -0.116 F  
HETATM   51  F   UNL     1      -7.241  11.175  69.139  1.00  0.00    -0.089 F  
HETATM   52  F   UNL     1      -5.128  11.065  68.642  1.00  0.00    -0.042 F  
ENDBRANCH  38  43
ENDBRANCH  35  37
ENDBRANCH  28  33
ENDBRANCH  26  27
ENDBRANCH  25  26
ENDBRANCH  24  25
ENDBRANCH  23  24
ENDBRANCH  10  23
ENDBRANCH   7  10
ENDBRANCH   3   6
TORSDOF 10
ENDMDL
MODEL       92
REMARK 921   NORMALIZED FREE ENERGY PREDICTED BY IDOCK:   -3.81 KCAL/MOL
REMARK 922        TOTAL FREE ENERGY PREDICTED BY IDOCK:   -9.15 KCAL/MOL
REMARK 923 INTER-LIGAND FREE ENERGY PREDICTED BY IDOCK:   -8.34 KCAL/MOL
REMARK 924 INTRA-LIGAND FREE ENERGY PREDICTED BY IDOCK:   -0.81 KCAL/MOL
REMARK 927      BINDING AFFINITY PREDICTED BY RF-SCORE:    0.00 PKD
ROOT
HETATM    1  F   UNL     1      -7.197  14.793  71.194  1.00  0.00     0.428 F  
HETATM    2  C   UNL     1      -6.267  14.026  70.583  1.00  0.00    -0.096 C  
HETATM    3  C   UNL     1      -6.691  13.601  69.168  1.00  0.00    -0.109 C  
HETATM    4  F   UNL     1      -6.015  12.964  71.377  1.00  0.00    -0.091 F  
HETATM    5  F   UNL     1      -5.128  14.760  70.524  1.00  0.00    -0.099 F  
ENDROOT
BRANCH   3   6
HETATM    6  N   UNL     1      -8.018  14.032  68.729  1.00  0.00    -0.246 N  
HETATM    7  C   UNL     1      -8.166  14.930  67.689  1.00  0.00    -0.172 C  
HETATM    8  H   UNL     1      -8.846  13.664  69.197  1.00  0.00     0.000 HD 
HETATM    9  O   UNL     1      -7.179  15.436  67.153  1.00  0.00    -0.204 OA 
BRANCH   7  10
HETATM   10  C   UNL     1      -9.618  15.247  67.254  1.00  0.00    -0.214 C  
HETATM   11  C   UNL     1      -9.837  16.751  67.032  1.00  0.00    -0.262 A  
HETATM   12  C   UNL     1     -12.658  14.855  70.242  1.00  0.00    -0.361 A  
HETATM   13  C   UNL     1      -9.238  17.578  66.091  1.00  0.00    -0.162 A  
HETATM   14  C   UNL     1     -11.334  16.130  68.710  1.00  0.00    -0.359 A  
HETATM   15  C   UNL     1      -9.677  18.900  66.004  1.00  0.00    -0.191 A  
HETATM   16  C   UNL     1     -11.930  13.698  69.923  1.00  0.00    -0.415 A  
HETATM   17  C   UNL     1     -10.692  19.376  66.852  1.00  0.00    -0.570 A  
HETATM   18  C   UNL     1     -12.358  16.083  69.641  1.00  0.00     0.113 A  
HETATM   19  C   UNL     1     -10.613  14.959  68.387  1.00  0.00    -0.244 A  
HETATM   20  C   UNL     1     -11.284  18.539  67.804  1.00  0.00     0.277 A  
HETATM   21  C   UNL     1     -10.893  13.742  68.992  1.00  0.00    -0.247 A  
HETATM   22  C   UNL     1     -10.858  17.225  67.888  1.00  0.00    -0.283 A  
BRANCH  10  23
HETATM   23  C   UNL     1      -9.990  14.440  65.983  1.00  0.00    -0.337 C  
BRANCH  23  24
HETATM   24  C   UNL     1     -11.388  13.797  65.995  1.00  0.00    -0.319 C  
BRANCH  24  25
HETATM   25  C   UNL     1     -11.281  12.278  65.850  1.00  0.00    -0.381 C  
BRANCH  25  26
HETATM   26  C   UNL     1      -9.959  11.827  65.217  1.00  0.00    -0.253 C  
BRANCH  26  27
HETATM   27  N   UNL     1      -9.032  11.151  66.138  1.00  0.00    -0.191 NA 
HETATM   28  C   UNL     1     -10.512   9.028  67.586  1.00  0.00    -0.260 C  
HETATM   29  C   UNL     1     -10.099   8.882  66.118  1.00  0.00    -0.209 C  
HETATM   30  C   UNL     1     -10.603  10.504  67.992  1.00  0.00    -0.251 C  
HETATM   31  C   UNL     1      -9.369  11.299  67.559  1.00  0.00    -0.162 C  
HETATM   32  C   UNL     1      -8.872   9.731  65.794  1.00  0.00    -0.153 C  
BRANCH  28  33
HETATM   33  N   UNL     1      -9.618   8.285  68.469  1.00  0.00    -0.147 N  
HETATM   34  O   UNL     1     -11.230   6.818  69.214  1.00  0.00    -0.252 OA 
HETATM   35  C   UNL     1     -10.080   7.236  69.245  1.00  0.00    -0.183 C  
HETATM   36  H   UNL     1      -8.632   8.544  68.515  1.00  0.00     0.000 HD 
BRANCH  35  37
HETATM   37  C   UNL     1      -9.093   6.665  70.193  1.00  0.00    -0.155 A  
HETATM   38  C   UNL     1      -8.344   5.495  69.932  1.00  0.00    -0.105 A  
HETATM   39  C   UNL     1      -7.585   4.995  71.014  1.00  0.00    -0.082 A  
HETATM   40  C   UNL     1      -9.049   7.298  71.457  1.00  0.00    -0.145 A  
HETATM   41  C   UNL     1      -8.289   6.772  72.492  1.00  0.00    -0.113 A  
HETATM   42  C   UNL     1      -7.567   5.609  72.276  1.00  0.00    -0.101 A  
BRANCH  38  43
HETATM   43  C   UNL     1      -8.304   4.763  68.626  1.00  0.00    -0.083 A  
HETATM   44  C   UNL     1      -9.425   4.108  68.092  1.00  0.00    -0.215 A  
HETATM   45  C   UNL     1      -8.181   3.366  66.129  1.00  0.00    -0.097 A  
HETATM   46  C   UNL     1      -9.365   3.409  66.875  1.00  0.00    -0.201 A  
HETATM   47  C   UNL     1      -8.085   2.586  64.841  1.00  0.00    -0.082 C  
HETATM   48  C   UNL     1      -7.068   4.056  66.618  1.00  0.00    -0.060 A  
HETATM   49  C   UNL     1      -7.129   4.730  67.846  1.00  0.00    -0.062 A  
HETATM   50  F   UNL     1      -9.228   1.922  64.513  1.00  0.00    -0.113 F  
HETATM   51  F   UNL     1      -7.103   1.640  64.876  1.00  0.00    -0.041 F  
HETATM   52  F   UNL     1      -7.794   3.378  63.770  1.00  0.00    -0.074 F  
ENDBRANCH  38  43
ENDBRANCH  35  37
ENDBRANCH  28  33
ENDBRANCH  26  27
ENDBRANCH  25  26
ENDBRANCH  24  25
ENDBRANCH  23  24
ENDBRANCH  10  23
ENDBRANCH   7  10
ENDBRANCH   3   6
TORSDOF 10
ENDMDL
MODEL       93
REMARK 921   NORMALIZED FREE ENERGY PREDICTED BY IDOCK:   -3.66 KCAL/MOL
REMARK 922        TOTAL FREE ENERGY PREDICTED BY IDOCK:   -8.89 KCAL/MOL
REMARK 923 INTER-LIGAND FREE ENERGY PREDICTED BY IDOCK:   -6.38 KCAL/MOL
REMARK 924 INTRA-LIGAND FREE ENERGY PREDICTED BY IDOCK:   -2.51 KCAL/MOL
REMARK 927      BINDING AFFINITY PREDICTED BY RF-SCORE:    0.00 PKD
ROOT
HETATM    1  F   UNL     1      -7.385  14.110  71.029  1.00  0.00     0.688 F  
HETATM    2  C   UNL     1      -6.167  14.286  70.470  1.00  0.00    -0.157 C  
HETATM    3  C   UNL     1      -6.245  14.937  69.080  1.00  0.00    -0.097 C  
HETATM    4  F   UNL     1      -5.547  13.087  70.433  1.00  0.00    -0.104 F  
HETATM    5  F   UNL     1      -5.457  15.078  71.312  1.00  0.00    -0.137 F  
ENDROOT
BRANCH   3   6
HETATM    6  N   UNL     1      -7.587  15.210  68.564  1.00  0.00    -0.115 N  
HETATM    7  C   UNL     1      -8.299  14.240  67.884  1.00  0.00    -0.162 C  
HETATM    8  H   UNL     1      -8.003  16.130  68.709  1.00  0.00     0.000 HD 
HETATM    9  O   UNL     1      -7.791  13.144  67.642  1.00  0.00    -0.142 OA 
BRANCH   7  10
HETATM   10  C   UNL     1      -9.742  14.615  67.461  1.00  0.00    -0.210 C  
HETATM   11  C   UNL     1      -9.877  16.110  67.137  1.00  0.00    -0.241 A  
HETATM   12  C   UNL     1     -12.718  14.616  70.536  1.00  0.00    -0.394 A  
HETATM   13  C   UNL     1      -9.255  16.832  66.127  1.00  0.00    -0.284 A  
HETATM   14  C   UNL     1     -11.363  15.699  68.889  1.00  0.00    -0.341 A  
HETATM   15  C   UNL     1      -9.617  18.169  65.958  1.00  0.00    -0.071 A  
HETATM   16  C   UNL     1     -12.069  13.397  70.284  1.00  0.00    -0.419 A  
HETATM   17  C   UNL     1     -10.579  18.763  66.793  1.00  0.00    -0.458 A  
HETATM   18  C   UNL     1     -12.362  15.779  69.843  1.00  0.00    -0.204 A  
HETATM   19  C   UNL     1     -10.721  14.466  68.633  1.00  0.00    -0.258 A  
HETATM   20  C   UNL     1     -11.194  18.032  67.814  1.00  0.00     0.280 A  
HETATM   21  C   UNL     1     -11.056  13.313  69.329  1.00  0.00    -0.208 A  
HETATM   22  C   UNL     1     -10.844  16.703  67.981  1.00  0.00    -0.337 A  
BRANCH  10  23
HETATM   23  C   UNL     1     -10.194  13.745  66.258  1.00  0.00    -0.298 C  
BRANCH  23  24
HETATM   24  C   UNL     1     -10.936  12.448  66.625  1.00  0.00    -0.309 C  
BRANCH  24  25
HETATM   25  C   UNL     1     -10.074  11.227  66.299  1.00  0.00    -0.271 C  
BRANCH  25  26
HETATM   26  C   UNL     1     -10.524   9.960  67.038  1.00  0.00    -0.230 C  
BRANCH  26  27
HETATM   27  N   UNL     1      -9.428   9.099  67.509  1.00  0.00    -0.137 NA 
HETATM   28  C   UNL     1      -9.630   6.472  66.147  1.00  0.00     0.024 C  
HETATM   29  C   UNL     1      -9.129   7.730  65.430  1.00  0.00     0.182 C  
HETATM   30  C   UNL     1     -10.510   6.834  67.351  1.00  0.00    -0.330 C  
HETATM   31  C   UNL     1      -9.864   7.902  68.237  1.00  0.00    -0.169 C  
HETATM   32  C   UNL     1      -8.523   8.731  66.411  1.00  0.00    -0.121 C  
BRANCH  28  33
HETATM   33  N   UNL     1      -8.524   5.602  66.536  1.00  0.00    -0.113 N  
HETATM   34  O   UNL     1      -9.840   3.751  66.923  1.00  0.00    -0.182 OA 
HETATM   35  C   UNL     1      -8.742   4.292  66.926  1.00  0.00    -0.113 C  
HETATM   36  H   UNL     1      -7.572   5.967  66.520  1.00  0.00     0.000 HD 
BRANCH  35  37
HETATM   37  C   UNL     1      -7.546   3.571  67.424  1.00  0.00    -0.074 A  
HETATM   38  C   UNL     1      -6.657   4.103  68.386  1.00  0.00    -0.046 A  
HETATM   39  C   UNL     1      -5.477   3.359  68.614  1.00  0.00    -0.013 A  
HETATM   40  C   UNL     1      -7.268   2.352  66.763  1.00  0.00    -0.056 A  
HETATM   41  C   UNL     1      -6.096   1.654  67.017  1.00  0.00    -0.020 A  
HETATM   42  C   UNL     1      -5.190   2.165  67.933  1.00  0.00    -0.012 A  
BRANCH  38  43
HETATM   43  C   UNL     1      -6.869   5.370  69.157  1.00  0.00    -0.054 A  
HETATM   44  C   UNL     1      -7.727   5.445  70.266  1.00  0.00    -0.077 A  
HETATM   45  C   UNL     1      -7.252   7.815  70.597  1.00  0.00    -0.061 A  
HETATM   46  C   UNL     1      -7.930   6.646  70.965  1.00  0.00    -0.107 A  
HETATM   47  C   UNL     1      -7.487   9.124  71.310  1.00  0.00    -0.021 C  
HETATM   48  C   UNL     1      -6.353   7.747  69.529  1.00  0.00    -0.034 A  
HETATM   49  C   UNL     1      -6.175   6.551  68.820  1.00  0.00    -0.030 A  
HETATM   50  F   UNL     1      -8.426   9.054  72.294  1.00  0.00    -0.165 F  
HETATM   51  F   UNL     1      -7.908  10.110  70.465  1.00  0.00    -0.177 F  
HETATM   52  F   UNL     1      -6.359   9.606  71.905  1.00  0.00     0.002 F  
ENDBRANCH  38  43
ENDBRANCH  35  37
ENDBRANCH  28  33
ENDBRANCH  26  27
ENDBRANCH  25  26
ENDBRANCH  24  25
ENDBRANCH  23  24
ENDBRANCH  10  23
ENDBRANCH   7  10
ENDBRANCH   3   6
TORSDOF 10
ENDMDL
MODEL       94
REMARK 921   NORMALIZED FREE ENERGY PREDICTED BY IDOCK:   -3.62 KCAL/MOL
REMARK 922        TOTAL FREE ENERGY PREDICTED BY IDOCK:   -8.84 KCAL/MOL
REMARK 923 INTER-LIGAND FREE ENERGY PREDICTED BY IDOCK:   -9.45 KCAL/MOL
REMARK 924 INTRA-LIGAND FREE ENERGY PREDICTED BY IDOCK:    0.61 KCAL/MOL
REMARK 927      BINDING AFFINITY PREDICTED BY RF-SCORE:    0.00 PKD
ROOT
HETATM    1  F   UNL     1     -10.716  14.560  64.171  1.00  0.00    -0.229 F  
HETATM    2  C   UNL     1     -10.439  13.256  64.391  1.00  0.00    -0.404 C  
HETATM    3  C   UNL     1      -9.794  13.013  65.764  1.00  0.00    -0.209 C  
HETATM    4  F   UNL     1      -9.656  12.819  63.381  1.00  0.00    -0.011 F  
HETATM    5  F   UNL     1     -11.614  12.583  64.306  1.00  0.00    -0.344 F  
ENDROOT
BRANCH   3   6
HETATM    6  N   UNL     1      -9.536  14.199  66.581  1.00  0.00    -0.279 N  
HETATM    7  C   UNL     1     -10.577  14.922  67.133  1.00  0.00    -0.285 C  
HETATM    8  H   UNL     1      -8.575  14.497  66.744  1.00  0.00     0.000 HD 
HETATM    9  O   UNL     1     -11.747  14.618  66.896  1.00  0.00    -0.375 OA 
BRANCH   7  10
HETATM   10  C   UNL     1     -10.182  16.107  68.050  1.00  0.00    -0.252 C  
HETATM   11  C   UNL     1     -10.026  17.416  67.262  1.00  0.00    -0.302 A  
HETATM   12  C   UNL     1      -6.189  16.109  69.590  1.00  0.00    -0.191 A  
HETATM   13  C   UNL     1     -10.996  18.117  66.556  1.00  0.00     0.205 A  
HETATM   14  C   UNL     1      -7.950  17.015  68.248  1.00  0.00    -0.222 A  
HETATM   15  C   UNL     1     -10.644  19.349  66.005  1.00  0.00    -0.573 A  
HETATM   16  C   UNL     1      -7.004  15.022  69.945  1.00  0.00    -0.149 A  
HETATM   17  C   UNL     1      -9.343  19.858  66.156  1.00  0.00    -0.442 A  
HETATM   18  C   UNL     1      -6.657  17.111  68.732  1.00  0.00    -0.191 A  
HETATM   19  C   UNL     1      -8.768  15.923  68.618  1.00  0.00    -0.199 A  
HETATM   20  C   UNL     1      -8.369  19.142  66.861  1.00  0.00    -0.300 A  
HETATM   21  C   UNL     1      -8.305  14.918  69.454  1.00  0.00    -0.069 A  
HETATM   22  C   UNL     1      -8.715  17.923  67.417  1.00  0.00    -0.237 A  
BRANCH  10  23
HETATM   23  C   UNL     1     -11.214  16.270  69.196  1.00  0.00    -0.309 C  
BRANCH  23  24
HETATM   24  C   UNL     1     -10.918  15.458  70.470  1.00  0.00    -0.350 C  
BRANCH  24  25
HETATM   25  C   UNL     1     -10.792  13.970  70.139  1.00  0.00     0.363 C  
BRANCH  25  26
HETATM   26  C   UNL     1     -12.063  13.174  70.457  1.00  0.00    -0.306 C  
BRANCH  26  27
HETATM   27  N   UNL     1     -12.300  12.015  69.581  1.00  0.00    -0.097 NA 
HETATM   28  C   UNL     1     -10.266   9.942  70.179  1.00  0.00    -0.273 C  
HETATM   29  C   UNL     1     -11.444  10.227  71.116  1.00  0.00    -0.319 C  
HETATM   30  C   UNL     1      -9.954  11.156  69.296  1.00  0.00    -0.034 C  
HETATM   31  C   UNL     1     -11.212  11.730  68.639  1.00  0.00    -0.257 C  
HETATM   32  C   UNL     1     -12.633  10.813  70.359  1.00  0.00    -0.314 C  
BRANCH  28  33
HETATM   33  N   UNL     1     -10.498   8.743  69.377  1.00  0.00    -0.221 N  
HETATM   34  O   UNL     1      -8.893   7.472  70.431  1.00  0.00    -0.143 OA 
HETATM   35  C   UNL     1      -9.749   7.595  69.565  1.00  0.00    -0.168 C  
HETATM   36  H   UNL     1     -11.227   8.753  68.664  1.00  0.00     0.000 HD 
BRANCH  35  37
HETATM   37  C   UNL     1     -10.000   6.506  68.590  1.00  0.00    -0.155 A  
HETATM   38  C   UNL     1      -9.468   5.203  68.719  1.00  0.00    -0.181 A  
HETATM   39  C   UNL     1      -9.661   4.346  67.612  1.00  0.00    -0.212 A  
HETATM   40  C   UNL     1     -10.704   6.900  67.429  1.00  0.00    -0.396 A  
HETATM   41  C   UNL     1     -10.870   6.025  66.364  1.00  0.00    -0.066 A  
HETATM   42  C   UNL     1     -10.334   4.750  66.448  1.00  0.00    -0.312 A  
BRANCH  38  43
HETATM   43  C   UNL     1      -8.728   4.681  69.912  1.00  0.00    -0.116 A  
HETATM   44  C   UNL     1      -9.384   4.174  71.046  1.00  0.00    -0.219 A  
HETATM   45  C   UNL     1      -7.275   3.702  72.178  1.00  0.00    -0.050 A  
HETATM   46  C   UNL     1      -8.675   3.707  72.165  1.00  0.00    -0.113 A  
HETATM   47  C   UNL     1      -6.496   3.244  73.386  1.00  0.00    -0.025 C  
HETATM   48  C   UNL     1      -6.604   4.155  71.038  1.00  0.00    -0.027 A  
HETATM   49  C   UNL     1      -7.318   4.643  69.935  1.00  0.00    -0.054 A  
HETATM   50  F   UNL     1      -7.279   2.880  74.440  1.00  0.00    -0.037 F  
HETATM   51  F   UNL     1      -5.657   4.208  73.862  1.00  0.00    -0.006 F  
HETATM   52  F   UNL     1      -5.705   2.166  73.120  1.00  0.00     0.000 F  
ENDBRANCH  38  43
ENDBRANCH  35  37
ENDBRANCH  28  33
ENDBRANCH  26  27
ENDBRANCH  25  26
ENDBRANCH  24  25
ENDBRANCH  23  24
ENDBRANCH  10  23
ENDBRANCH   7  10
ENDBRANCH   3   6
TORSDOF 10
ENDMDL
MODEL       95
REMARK 921   NORMALIZED FREE ENERGY PREDICTED BY IDOCK:   -3.58 KCAL/MOL
REMARK 922        TOTAL FREE ENERGY PREDICTED BY IDOCK:   -8.77 KCAL/MOL
REMARK 923 INTER-LIGAND FREE ENERGY PREDICTED BY IDOCK:   -8.22 KCAL/MOL
REMARK 924 INTRA-LIGAND FREE ENERGY PREDICTED BY IDOCK:   -0.55 KCAL/MOL
REMARK 927      BINDING AFFINITY PREDICTED BY RF-SCORE:    0.00 PKD
ROOT
HETATM    1  F   UNL     1     -12.315  13.848  67.919  1.00  0.00    -0.384 F  
HETATM    2  C   UNL     1     -12.136  13.253  69.119  1.00  0.00    -0.238 C  
HETATM    3  C   UNL     1     -10.779  13.599  69.753  1.00  0.00     0.388 C  
HETATM    4  F   UNL     1     -12.292  11.922  68.953  1.00  0.00    -0.310 F  
HETATM    5  F   UNL     1     -13.143  13.677  69.924  1.00  0.00    -0.078 F  
ENDROOT
BRANCH   3   6
HETATM    6  N   UNL     1      -9.890  14.451  68.962  1.00  0.00    -0.375 N  
HETATM    7  C   UNL     1      -9.810  15.809  69.201  1.00  0.00    -0.247 C  
HETATM    8  H   UNL     1      -9.323  14.036  68.223  1.00  0.00     0.000 HD 
HETATM    9  O   UNL     1     -10.533  16.342  70.044  1.00  0.00    -0.255 OA 
BRANCH   7  10
HETATM   10  C   UNL     1      -8.772  16.596  68.361  1.00  0.00    -0.225 C  
HETATM   11  C   UNL     1      -7.600  17.098  69.217  1.00  0.00    -0.025 A  
HETATM   12  C   UNL     1      -9.941  20.480  66.995  1.00  0.00    -0.489 A  
HETATM   13  C   UNL     1      -6.660  16.350  69.913  1.00  0.00    -0.011 A  
HETATM   14  C   UNL     1      -8.585  19.005  68.302  1.00  0.00    -0.366 A  
HETATM   15  C   UNL     1      -5.613  17.028  70.538  1.00  0.00    -0.128 A  
HETATM   16  C   UNL     1     -10.714  19.395  66.554  1.00  0.00    -0.516 A  
HETATM   17  C   UNL     1      -5.522  18.429  70.467  1.00  0.00    -0.241 A  
HETATM   18  C   UNL     1      -8.873  20.292  67.880  1.00  0.00    -0.247 A  
HETATM   19  C   UNL     1      -9.361  17.917  67.846  1.00  0.00    -0.271 A  
HETATM   20  C   UNL     1      -6.478  19.177  69.771  1.00  0.00    -0.235 A  
HETATM   21  C   UNL     1     -10.432  18.099  66.983  1.00  0.00    -0.385 A  
HETATM   22  C   UNL     1      -7.514  18.507  69.143  1.00  0.00    -0.149 A  
BRANCH  10  23
HETATM   23  C   UNL     1      -8.264  15.728  67.180  1.00  0.00    -0.237 C  
BRANCH  23  24
HETATM   24  C   UNL     1      -6.989  16.240  66.486  1.00  0.00     0.105 C  
BRANCH  24  25
HETATM   25  C   UNL     1      -5.743  15.731  67.212  1.00  0.00     0.061 C  
BRANCH  25  26
HETATM   26  C   UNL     1      -5.676  14.201  67.288  1.00  0.00     0.589 C  
BRANCH  26  27
HETATM   27  N   UNL     1      -6.657  13.585  68.196  1.00  0.00    -0.105 NA 
HETATM   28  C   UNL     1      -6.446  10.636  67.964  1.00  0.00    -0.062 C  
HETATM   29  C   UNL     1      -5.399  11.476  68.704  1.00  0.00    -0.042 C  
HETATM   30  C   UNL     1      -7.207  11.480  66.935  1.00  0.00    -0.137 C  
HETATM   31  C   UNL     1      -7.701  12.803  67.525  1.00  0.00    -0.168 C  
HETATM   32  C   UNL     1      -5.997  12.778  69.232  1.00  0.00    -0.093 C  
BRANCH  28  33
HETATM   33  N   UNL     1      -7.358   9.977  68.895  1.00  0.00    -0.076 N  
HETATM   34  O   UNL     1      -8.620   8.953  67.263  1.00  0.00    -0.117 OA 
HETATM   35  C   UNL     1      -8.408   9.197  68.443  1.00  0.00    -0.120 C  
HETATM   36  H   UNL     1      -7.219  10.095  69.898  1.00  0.00     0.000 HD 
BRANCH  35  37
HETATM   37  C   UNL     1      -9.332   8.706  69.494  1.00  0.00    -0.153 A  
HETATM   38  C   UNL     1      -9.955   7.437  69.456  1.00  0.00    -0.179 A  
HETATM   39  C   UNL     1     -10.939   7.205  70.444  1.00  0.00    -0.290 A  
HETATM   40  C   UNL     1      -9.665   9.658  70.485  1.00  0.00    -0.280 A  
HETATM   41  C   UNL     1     -10.638   9.388  71.436  1.00  0.00    -0.381 A  
HETATM   42  C   UNL     1     -11.289   8.164  71.407  1.00  0.00    -0.299 A  
BRANCH  38  43
HETATM   43  C   UNL     1      -9.659   6.353  68.466  1.00  0.00    -0.122 A  
HETATM   44  C   UNL     1      -8.458   5.625  68.479  1.00  0.00    -0.105 A  
HETATM   45  C   UNL     1      -9.128   4.294  66.548  1.00  0.00    -0.130 A  
HETATM   46  C   UNL     1      -8.188   4.625  67.531  1.00  0.00    -0.101 A  
HETATM   47  C   UNL     1      -8.840   3.252  65.495  1.00  0.00    -0.136 C  
HETATM   48  C   UNL     1     -10.351   4.971  66.551  1.00  0.00    -0.325 A  
HETATM   49  C   UNL     1     -10.603   5.986  67.485  1.00  0.00    -0.345 A  
HETATM   50  F   UNL     1      -7.593   2.713  65.583  1.00  0.00    -0.070 F  
HETATM   51  F   UNL     1      -8.942   3.748  64.229  1.00  0.00    -0.111 F  
HETATM   52  F   UNL     1      -9.705   2.200  65.550  1.00  0.00    -0.003 F  
ENDBRANCH  38  43
ENDBRANCH  35  37
ENDBRANCH  28  33
ENDBRANCH  26  27
ENDBRANCH  25  26
ENDBRANCH  24  25
ENDBRANCH  23  24
ENDBRANCH  10  23
ENDBRANCH   7  10
ENDBRANCH   3   6
TORSDOF 10
ENDMDL
MODEL       96
REMARK 921   NORMALIZED FREE ENERGY PREDICTED BY IDOCK:   -3.33 KCAL/MOL
REMARK 922        TOTAL FREE ENERGY PREDICTED BY IDOCK:   -8.38 KCAL/MOL
REMARK 923 INTER-LIGAND FREE ENERGY PREDICTED BY IDOCK:  -10.79 KCAL/MOL
REMARK 924 INTRA-LIGAND FREE ENERGY PREDICTED BY IDOCK:    2.40 KCAL/MOL
REMARK 927      BINDING AFFINITY PREDICTED BY RF-SCORE:    0.00 PKD
ROOT
HETATM    1  F   UNL     1      -7.112   7.796  64.768  1.00  0.00    -0.055 F  
HETATM    2  C   UNL     1      -5.983   7.861  65.507  1.00  0.00    -0.038 C  
HETATM    3  C   UNL     1      -6.234   7.576  66.996  1.00  0.00    -0.052 C  
HETATM    4  F   UNL     1      -5.425   9.075  65.311  1.00  0.00    -0.037 F  
HETATM    5  F   UNL     1      -5.125   6.940  64.998  1.00  0.00    -0.023 F  
ENDROOT
BRANCH   3   6
HETATM    6  N   UNL     1      -7.624   7.338  67.387  1.00  0.00    -0.103 N  
HETATM    7  C   UNL     1      -8.245   8.138  68.328  1.00  0.00    -0.129 C  
HETATM    8  H   UNL     1      -8.141   6.571  66.959  1.00  0.00     0.000 HD 
HETATM    9  O   UNL     1      -7.619   9.029  68.904  1.00  0.00    -0.080 OA 
BRANCH   7  10
HETATM   10  C   UNL     1      -9.742   7.846  68.599  1.00  0.00    -0.162 C  
HETATM   11  C   UNL     1     -10.371   8.889  69.535  1.00  0.00    -0.213 A  
HETATM   12  C   UNL     1     -10.632   4.493  71.106  1.00  0.00     0.149 A  
HETATM   13  C   UNL     1     -10.543  10.249  69.317  1.00  0.00    -0.254 A  
HETATM   14  C   UNL     1     -10.608   6.835  70.617  1.00  0.00    -0.257 A  
HETATM   15  C   UNL     1     -11.244  10.984  70.274  1.00  0.00    -0.199 A  
HETATM   16  C   UNL     1      -9.938   4.227  69.915  1.00  0.00    -0.179 A  
HETATM   17  C   UNL     1     -11.752  10.361  71.426  1.00  0.00    -0.230 A  
HETATM   18  C   UNL     1     -10.966   5.803  71.468  1.00  0.00    -0.304 A  
HETATM   19  C   UNL     1      -9.918   6.558  69.415  1.00  0.00    -0.178 A  
HETATM   20  C   UNL     1     -11.567   8.992  71.644  1.00  0.00    -0.426 A  
HETATM   21  C   UNL     1      -9.569   5.263  69.059  1.00  0.00    -0.199 A  
HETATM   22  C   UNL     1     -10.880   8.257  70.693  1.00  0.00    -0.254 A  
BRANCH  10  23
HETATM   23  C   UNL     1     -10.525   7.757  67.263  1.00  0.00    -0.392 C  
BRANCH  23  24
HETATM   24  C   UNL     1      -9.867   8.464  66.065  1.00  0.00    -0.082 C  
BRANCH  24  25
HETATM   25  C   UNL     1     -10.386   9.897  65.937  1.00  0.00    -0.184 C  
BRANCH  25  26
HETATM   26  C   UNL     1      -9.867  10.614  64.684  1.00  0.00    -0.321 C  
BRANCH  26  27
HETATM   27  N   UNL     1      -9.468  12.014  64.897  1.00  0.00    -0.010 NA 
HETATM   28  C   UNL     1     -11.870  13.583  65.649  1.00  0.00    -0.369 C  
HETATM   29  C   UNL     1     -11.184  12.618  66.622  1.00  0.00    -0.346 C  
HETATM   30  C   UNL     1     -11.565  13.211  64.193  1.00  0.00    -0.460 C  
HETATM   31  C   UNL     1     -10.072  12.969  63.960  1.00  0.00    -0.008 C  
HETATM   32  C   UNL     1      -9.706  12.437  66.284  1.00  0.00    -0.246 C  
BRANCH  28  33
HETATM   33  N   UNL     1     -11.513  14.970  65.933  1.00  0.00    -0.281 N  
HETATM   34  O   UNL     1      -9.412  14.486  66.742  1.00  0.00    -0.245 OA 
HETATM   35  C   UNL     1     -10.292  15.300  66.495  1.00  0.00    -0.286 C  
HETATM   36  H   UNL     1     -12.178  15.712  65.712  1.00  0.00     0.000 HD 
BRANCH  35  37
HETATM   37  C   UNL     1     -10.123  16.728  66.854  1.00  0.00    -0.286 A  
HETATM   38  C   UNL     1     -10.620  17.298  68.048  1.00  0.00    -0.394 A  
HETATM   39  C   UNL     1     -10.525  18.705  68.146  1.00  0.00    -0.361 A  
HETATM   40  C   UNL     1      -9.544  17.530  65.843  1.00  0.00    -0.028 A  
HETATM   41  C   UNL     1      -9.472  18.909  65.980  1.00  0.00    -0.100 A  
HETATM   42  C   UNL     1      -9.978  19.501  67.127  1.00  0.00    -0.487 A  
BRANCH  38  43
HETATM   43  C   UNL     1     -11.229  16.538  69.186  1.00  0.00    -0.221 A  
HETATM   44  C   UNL     1     -11.204  17.009  70.509  1.00  0.00     0.667 A  
HETATM   45  C   UNL     1     -12.396  15.047  71.334  1.00  0.00    -0.395 A  
HETATM   46  C   UNL     1     -11.762  16.273  71.567  1.00  0.00    -0.467 A  
HETATM   47  C   UNL     1     -12.965  14.222  72.462  1.00  0.00    -0.419 C  
HETATM   48  C   UNL     1     -12.477  14.587  70.016  1.00  0.00    -0.348 A  
HETATM   49  C   UNL     1     -11.895  15.314  68.968  1.00  0.00    -0.342 A  
HETATM   50  F   UNL     1     -12.769  14.767  73.695  1.00  0.00    -0.558 F  
HETATM   51  F   UNL     1     -12.424  12.971  72.519  1.00  0.00    -0.041 F  
HETATM   52  F   UNL     1     -14.311  14.036  72.347  1.00  0.00    -0.552 F  
ENDBRANCH  38  43
ENDBRANCH  35  37
ENDBRANCH  28  33
ENDBRANCH  26  27
ENDBRANCH  25  26
ENDBRANCH  24  25
ENDBRANCH  23  24
ENDBRANCH  10  23
ENDBRANCH   7  10
ENDBRANCH   3   6
TORSDOF 10
ENDMDL
MODEL       97
REMARK 921   NORMALIZED FREE ENERGY PREDICTED BY IDOCK:   -2.87 KCAL/MOL
REMARK 922        TOTAL FREE ENERGY PREDICTED BY IDOCK:   -7.65 KCAL/MOL
REMARK 923 INTER-LIGAND FREE ENERGY PREDICTED BY IDOCK:   -5.71 KCAL/MOL
REMARK 924 INTRA-LIGAND FREE ENERGY PREDICTED BY IDOCK:   -1.95 KCAL/MOL
REMARK 927      BINDING AFFINITY PREDICTED BY RF-SCORE:    0.00 PKD
ROOT
HETATM    1  F   UNL     1      -7.783   8.274  66.862  1.00  0.00    -0.089 F  
HETATM    2  C   UNL     1      -8.887   7.879  66.190  1.00  0.00    -0.166 C  
HETATM    3  C   UNL     1     -10.116   7.740  67.103  1.00  0.00    -0.258 C  
HETATM    4  F   UNL     1      -8.597   6.723  65.554  1.00  0.00    -0.145 F  
HETATM    5  F   UNL     1      -9.123   8.813  65.234  1.00  0.00    -0.235 F  
ENDROOT
BRANCH   3   6
HETATM    6  N   UNL     1      -9.900   7.999  68.527  1.00  0.00    -0.169 N  
HETATM    7  C   UNL     1     -10.066   6.996  69.464  1.00  0.00    -0.173 C  
HETATM    8  H   UNL     1      -9.624   8.932  68.832  1.00  0.00     0.000 HD 
HETATM    9  O   UNL     1     -10.461   5.880  69.124  1.00  0.00    -0.213 OA 
BRANCH   7  10
HETATM   10  C   UNL     1      -9.727   7.362  70.931  1.00  0.00    -0.169 C  
HETATM   11  C   UNL     1      -8.215   7.324  71.198  1.00  0.00    -0.107 A  
HETATM   12  C   UNL     1     -10.719   4.466  73.922  1.00  0.00    -0.340 A  
HETATM   13  C   UNL     1      -7.221   8.114  70.636  1.00  0.00    -0.052 A  
HETATM   14  C   UNL     1      -9.160   5.767  72.656  1.00  0.00    -0.131 A  
HETATM   15  C   UNL     1      -5.919   7.972  71.117  1.00  0.00    -0.034 A  
HETATM   16  C   UNL     1     -11.781   4.981  73.162  1.00  0.00    -0.211 A  
HETATM   17  C   UNL     1      -5.627   7.049  72.136  1.00  0.00    -0.037 A  
HETATM   18  C   UNL     1      -9.398   4.852  73.667  1.00  0.00    -0.126 A  
HETATM   19  C   UNL     1     -10.235   6.289  71.903  1.00  0.00    -0.227 A  
HETATM   20  C   UNL     1      -6.632   6.250  72.691  1.00  0.00    -0.064 A  
HETATM   21  C   UNL     1     -11.546   5.898  72.138  1.00  0.00    -0.314 A  
HETATM   22  C   UNL     1      -7.927   6.394  72.223  1.00  0.00    -0.103 A  
BRANCH  10  23
HETATM   23  C   UNL     1     -10.318   8.750  71.291  1.00  0.00    -0.331 C  
BRANCH  23  24
HETATM   24  C   UNL     1     -11.849   8.865  71.173  1.00  0.00    -0.353 C  
BRANCH  24  25
HETATM   25  C   UNL     1     -12.235   9.540  69.856  1.00  0.00     0.434 C  
BRANCH  25  26
HETATM   26  C   UNL     1     -12.565  11.029  70.019  1.00  0.00    -0.175 C  
BRANCH  26  27
HETATM   27  N   UNL     1     -11.451  11.944  69.726  1.00  0.00    -0.262 NA 
HETATM   28  C   UNL     1     -12.532  14.366  68.401  1.00  0.00     0.225 C  
HETATM   29  C   UNL     1     -12.707  14.106  69.901  1.00  0.00    -0.077 C  
HETATM   30  C   UNL     1     -12.295  13.059  67.636  1.00  0.00     0.114 C  
HETATM   31  C   UNL     1     -11.223  12.189  68.297  1.00  0.00    -0.268 C  
HETATM   32  C   UNL     1     -11.595  13.215  70.449  1.00  0.00     0.099 C  
BRANCH  28  33
HETATM   33  N   UNL     1     -11.469  15.335  68.146  1.00  0.00    -0.340 N  
HETATM   34  O   UNL     1     -12.064  16.755  69.860  1.00  0.00     0.682 OA 
HETATM   35  C   UNL     1     -11.348  16.486  68.904  1.00  0.00    -0.206 C  
HETATM   36  H   UNL     1     -10.803  15.159  67.395  1.00  0.00     0.000 HD 
BRANCH  35  37
HETATM   37  C   UNL     1     -10.311  17.442  68.446  1.00  0.00    -0.379 A  
HETATM   38  C   UNL     1      -8.944  17.105  68.308  1.00  0.00    -0.248 A  
HETATM   39  C   UNL     1      -8.070  18.181  68.032  1.00  0.00    -0.264 A  
HETATM   40  C   UNL     1     -10.759  18.773  68.284  1.00  0.00    -0.079 A  
HETATM   41  C   UNL     1      -9.865  19.799  68.013  1.00  0.00    -0.533 A  
HETATM   42  C   UNL     1      -8.514  19.506  67.902  1.00  0.00    -0.353 A  
BRANCH  38  43
HETATM   43  C   UNL     1      -8.372  15.728  68.437  1.00  0.00    -0.164 A  
HETATM   44  C   UNL     1      -7.770  15.056  67.361  1.00  0.00    -0.227 A  
HETATM   45  C   UNL     1      -7.298  13.088  68.724  1.00  0.00    -0.064 A  
HETATM   46  C   UNL     1      -7.256  13.755  67.494  1.00  0.00    -0.173 A  
HETATM   47  C   UNL     1      -6.789  11.676  68.877  1.00  0.00    -0.101 C  
HETATM   48  C   UNL     1      -7.845  13.761  69.820  1.00  0.00     0.947 A  
HETATM   49  C   UNL     1      -8.379  15.049  69.674  1.00  0.00    -0.010 A  
HETATM   50  F   UNL     1      -6.332  11.128  67.717  1.00  0.00    -0.053 F  
HETATM   51  F   UNL     1      -7.747  10.823  69.339  1.00  0.00    -0.123 F  
HETATM   52  F   UNL     1      -5.757  11.585  69.764  1.00  0.00    -0.059 F  
ENDBRANCH  38  43
ENDBRANCH  35  37
ENDBRANCH  28  33
ENDBRANCH  26  27
ENDBRANCH  25  26
ENDBRANCH  24  25
ENDBRANCH  23  24
ENDBRANCH  10  23
ENDBRANCH   7  10
ENDBRANCH   3   6
TORSDOF 10
ENDMDL
MODEL       98
REMARK 921   NORMALIZED FREE ENERGY PREDICTED BY IDOCK:   -2.87 KCAL/MOL
REMARK 922        TOTAL FREE ENERGY PREDICTED BY IDOCK:   -7.64 KCAL/MOL
REMARK 923 INTER-LIGAND FREE ENERGY PREDICTED BY IDOCK:   -9.21 KCAL/MOL
REMARK 924 INTRA-LIGAND FREE ENERGY PREDICTED BY IDOCK:    1.56 KCAL/MOL
REMARK 927      BINDING AFFINITY PREDICTED BY RF-SCORE:    0.00 PKD
ROOT
HETATM    1  F   UNL     1     -10.696  11.321  68.728  1.00  0.00    -0.171 F  
HETATM    2  C   UNL     1     -11.679  11.715  69.567  1.00  0.00    -0.344 C  
HETATM    3  C   UNL     1     -12.087  13.181  69.352  1.00  0.00    -0.231 C  
HETATM    4  F   UNL     1     -11.266  11.486  70.832  1.00  0.00     0.105 F  
HETATM    5  F   UNL     1     -12.741  10.902  69.340  1.00  0.00    -0.337 F  
ENDROOT
BRANCH   3   6
HETATM    6  N   UNL     1     -11.336  13.923  68.338  1.00  0.00    -0.268 N  
HETATM    7  C   UNL     1     -10.495  14.960  68.694  1.00  0.00    -0.242 C  
HETATM    8  H   UNL     1     -11.435  13.671  67.355  1.00  0.00     0.000 HD 
HETATM    9  O   UNL     1     -10.410  15.324  69.868  1.00  0.00    -0.269 OA 
BRANCH   7  10
HETATM   10  C   UNL     1      -9.686  15.616  67.547  1.00  0.00    -0.222 C  
HETATM   11  C   UNL     1      -8.175  15.383  67.702  1.00  0.00    -0.171 A  
HETATM   12  C   UNL     1      -9.421  19.887  67.567  1.00  0.00    -0.477 A  
HETATM   13  C   UNL     1      -7.482  14.180  67.677  1.00  0.00    -0.192 A  
HETATM   14  C   UNL     1      -8.471  17.698  67.728  1.00  0.00    -0.227 A  
HETATM   15  C   UNL     1      -6.089  14.225  67.730  1.00  0.00    -0.132 A  
HETATM   16  C   UNL     1     -10.707  19.333  67.464  1.00  0.00    -0.571 A  
HETATM   17  C   UNL     1      -5.412  15.454  67.815  1.00  0.00    -0.116 A  
HETATM   18  C   UNL     1      -8.293  19.071  67.707  1.00  0.00    -0.318 A  
HETATM   19  C   UNL     1      -9.767  17.147  67.614  1.00  0.00    -0.263 A  
HETATM   20  C   UNL     1      -6.118  16.661  67.849  1.00  0.00    -0.141 A  
HETATM   21  C   UNL     1     -10.891  17.952  67.492  1.00  0.00    -0.239 A  
HETATM   22  C   UNL     1      -7.501  16.623  67.788  1.00  0.00    -0.169 A  
BRANCH  10  23
HETATM   23  C   UNL     1     -10.187  15.102  66.172  1.00  0.00    -0.310 C  
BRANCH  23  24
HETATM   24  C   UNL     1     -10.880  16.154  65.287  1.00  0.00    -0.349 C  
BRANCH  24  25
HETATM   25  C   UNL     1     -11.928  15.494  64.391  1.00  0.00    -0.187 C  
BRANCH  25  26
HETATM   26  C   UNL     1     -11.851  13.962  64.404  1.00  0.00    -0.429 C  
BRANCH  26  27
HETATM   27  N   UNL     1     -10.659  13.411  65.068  1.00  0.00    -0.337 NA 
HETATM   28  C   UNL     1     -10.233  10.638  64.107  1.00  0.00    -0.295 C  
HETATM   29  C   UNL     1      -9.916  11.862  63.241  1.00  0.00    -0.409 C  
HETATM   30  C   UNL     1     -11.271  10.975  65.184  1.00  0.00     0.103 C  
HETATM   31  C   UNL     1     -10.924  12.260  65.939  1.00  0.00    -0.302 C  
HETATM   32  C   UNL     1      -9.604  13.088  64.097  1.00  0.00     0.714 C  
BRANCH  28  33
HETATM   33  N   UNL     1      -9.022  10.068  64.691  1.00  0.00    -0.195 N  
HETATM   34  O   UNL     1     -10.130   8.655  66.133  1.00  0.00    -0.250 OA 
HETATM   35  C   UNL     1      -9.085   9.122  65.699  1.00  0.00    -0.219 C  
HETATM   36  H   UNL     1      -8.111  10.374  64.349  1.00  0.00     0.000 HD 
BRANCH  35  37
HETATM   37  C   UNL     1      -7.781   8.736  66.290  1.00  0.00    -0.098 A  
HETATM   38  C   UNL     1      -7.297   7.408  66.315  1.00  0.00    -0.082 A  
HETATM   39  C   UNL     1      -6.122   7.195  67.072  1.00  0.00    -0.041 A  
HETATM   40  C   UNL     1      -7.102   9.778  66.963  1.00  0.00    -0.086 A  
HETATM   41  C   UNL     1      -5.952   9.523  67.696  1.00  0.00    -0.052 A  
HETATM   42  C   UNL     1      -5.468   8.226  67.765  1.00  0.00    -0.035 A  
BRANCH  38  43
HETATM   43  C   UNL     1      -7.926   6.241  65.619  1.00  0.00    -0.115 A  
HETATM   44  C   UNL     1      -7.407   5.700  64.431  1.00  0.00    -0.065 A  
HETATM   45  C   UNL     1      -9.166   4.013  64.314  1.00  0.00    -0.147 A  
HETATM   46  C   UNL     1      -8.021   4.618  63.780  1.00  0.00    -0.095 A  
HETATM   47  C   UNL     1      -9.864   2.877  63.609  1.00  0.00    -0.138 C  
HETATM   48  C   UNL     1      -9.666   4.504  65.524  1.00  0.00    -0.204 A  
HETATM   49  C   UNL     1      -9.063   5.601  66.154  1.00  0.00    -0.158 A  
HETATM   50  F   UNL     1      -9.297   2.538  62.418  1.00  0.00    -0.089 F  
HETATM   51  F   UNL     1     -11.169   3.157  63.332  1.00  0.00    -0.207 F  
HETATM   52  F   UNL     1      -9.882   1.733  64.351  1.00  0.00    -0.137 F  
ENDBRANCH  38  43
ENDBRANCH  35  37
ENDBRANCH  28  33
ENDBRANCH  26  27
ENDBRANCH  25  26
ENDBRANCH  24  25
ENDBRANCH  23  24
ENDBRANCH  10  23
ENDBRANCH   7  10
ENDBRANCH   3   6
TORSDOF 10
ENDMDL
MODEL       99
REMARK 921   NORMALIZED FREE ENERGY PREDICTED BY IDOCK:   -2.82 KCAL/MOL
REMARK 922        TOTAL FREE ENERGY PREDICTED BY IDOCK:   -7.56 KCAL/MOL
REMARK 923 INTER-LIGAND FREE ENERGY PREDICTED BY IDOCK:   -7.66 KCAL/MOL
REMARK 924 INTRA-LIGAND FREE ENERGY PREDICTED BY IDOCK:    0.10 KCAL/MOL
REMARK 927      BINDING AFFINITY PREDICTED BY RF-SCORE:    0.00 PKD
ROOT
HETATM    1  F   UNL     1     -11.508  19.313  66.683  1.00  0.00    -0.160 F  
HETATM    2  C   UNL     1     -10.317  19.761  66.229  1.00  0.00    -0.519 C  
HETATM    3  C   UNL     1      -9.259  18.649  66.149  1.00  0.00    -0.136 C  
HETATM    4  F   UNL     1      -9.922  20.778  67.024  1.00  0.00    -0.598 F  
HETATM    5  F   UNL     1     -10.536  20.280  64.994  1.00  0.00    -0.367 F  
ENDROOT
BRANCH   3   6
HETATM    6  N   UNL     1      -9.672  17.324  66.613  1.00  0.00    -0.275 N  
HETATM    7  C   UNL     1     -10.399  16.479  65.796  1.00  0.00    -0.341 C  
HETATM    8  H   UNL     1      -9.421  17.020  67.554  1.00  0.00     0.000 HD 
HETATM    9  O   UNL     1     -10.769  16.850  64.681  1.00  0.00    -0.756 OA 
BRANCH   7  10
HETATM   10  C   UNL     1     -10.706  15.069  66.361  1.00  0.00    -0.322 C  
HETATM   11  C   UNL     1      -9.451  14.394  66.934  1.00  0.00    -0.268 A  
HETATM   12  C   UNL     1     -11.536  11.985  63.513  1.00  0.00    -0.536 A  
HETATM   13  C   UNL     1      -8.671  14.797  68.011  1.00  0.00    -0.168 A  
HETATM   14  C   UNL     1     -10.210  12.991  65.232  1.00  0.00    -0.294 A  
HETATM   15  C   UNL     1      -7.634  13.958  68.420  1.00  0.00    -0.130 A  
HETATM   16  C   UNL     1     -12.403  13.089  63.521  1.00  0.00    -0.500 A  
HETATM   17  C   UNL     1      -7.386  12.746  67.754  1.00  0.00    -0.130 A  
HETATM   18  C   UNL     1     -10.427  11.933  64.365  1.00  0.00    -0.356 A  
HETATM   19  C   UNL     1     -11.093  14.094  65.242  1.00  0.00    -0.331 A  
HETATM   20  C   UNL     1      -8.170  12.351  66.664  1.00  0.00     0.054 A  
HETATM   21  C   UNL     1     -12.184  14.160  64.386  1.00  0.00    -0.466 A  
HETATM   22  C   UNL     1      -9.206  13.175  66.260  1.00  0.00    -0.074 A  
BRANCH  10  23
HETATM   23  C   UNL     1     -11.828  15.149  67.429  1.00  0.00    -0.086 C  
BRANCH  23  24
HETATM   24  C   UNL     1     -11.848  16.437  68.271  1.00  0.00     0.284 C  
BRANCH  24  25
HETATM   25  C   UNL     1     -11.583  16.119  69.743  1.00  0.00    -0.244 C  
BRANCH  25  26
HETATM   26  C   UNL     1     -12.823  15.593  70.476  1.00  0.00    -0.287 C  
BRANCH  26  27
HETATM   27  N   UNL     1     -12.595  14.386  71.286  1.00  0.00    -0.329 NA 
HETATM   28  C   UNL     1     -11.646  12.211  69.508  1.00  0.00    -0.315 C  
HETATM   29  C   UNL     1     -10.747  13.382  69.921  1.00  0.00     0.636 C  
HETATM   30  C   UNL     1     -13.128  12.587  69.613  1.00  0.00     1.480 C  
HETATM   31  C   UNL     1     -13.463  13.252  70.950  1.00  0.00     0.356 C  
HETATM   32  C   UNL     1     -11.183  13.978  71.257  1.00  0.00     1.273 C  
BRANCH  28  33
HETATM   33  N   UNL     1     -11.344  11.008  70.278  1.00  0.00    -0.452 N  
HETATM   34  O   UNL     1     -10.998   9.663  68.441  1.00  0.00    -0.198 OA 
HETATM   35  C   UNL     1     -11.067   9.804  69.654  1.00  0.00    -0.217 C  
HETATM   36  H   UNL     1     -11.337  11.056  71.297  1.00  0.00     0.000 HD 
BRANCH  35  37
HETATM   37  C   UNL     1     -10.916   8.640  70.560  1.00  0.00    -0.266 A  
HETATM   38  C   UNL     1     -10.353   7.406  70.160  1.00  0.00    -0.219 A  
HETATM   39  C   UNL     1     -10.449   6.352  71.097  1.00  0.00    -0.265 A  
HETATM   40  C   UNL     1     -11.509   8.797  71.834  1.00  0.00    -0.428 A  
HETATM   41  C   UNL     1     -11.583   7.734  72.723  1.00  0.00    -0.368 A  
HETATM   42  C   UNL     1     -11.065   6.504  72.349  1.00  0.00    -0.293 A  
BRANCH  38  43
HETATM   43  C   UNL     1      -9.683   7.143  68.847  1.00  0.00    -0.146 A  
HETATM   44  C   UNL     1      -8.923   8.115  68.177  1.00  0.00    -0.135 A  
HETATM   45  C   UNL     1      -8.428   6.600  66.330  1.00  0.00    -0.125 A  
HETATM   46  C   UNL     1      -8.319   7.858  66.935  1.00  0.00    -0.116 A  
HETATM   47  C   UNL     1      -7.821   6.316  64.978  1.00  0.00    -0.111 C  
HETATM   48  C   UNL     1      -9.136   5.602  67.007  1.00  0.00    -0.113 A  
HETATM   49  C   UNL     1      -9.758   5.875  68.234  1.00  0.00    -0.147 A  
HETATM   50  F   UNL     1      -7.207   7.393  64.414  1.00  0.00    -0.062 F  
HETATM   51  F   UNL     1      -8.747   5.898  64.068  1.00  0.00    -0.054 F  
HETATM   52  F   UNL     1      -6.879   5.332  65.024  1.00  0.00    -0.044 F  
ENDBRANCH  38  43
ENDBRANCH  35  37
ENDBRANCH  28  33
ENDBRANCH  26  27
ENDBRANCH  25  26
ENDBRANCH  24  25
ENDBRANCH  23  24
ENDBRANCH  10  23
ENDBRANCH   7  10
ENDBRANCH   3   6
TORSDOF 10
ENDMDL
MODEL      100
REMARK 921   NORMALIZED FREE ENERGY PREDICTED BY IDOCK:   -2.66 KCAL/MOL
REMARK 922        TOTAL FREE ENERGY PREDICTED BY IDOCK:   -7.32 KCAL/MOL
REMARK 923 INTER-LIGAND FREE ENERGY PREDICTED BY IDOCK:   -6.93 KCAL/MOL
REMARK 924 INTRA-LIGAND FREE ENERGY PREDICTED BY IDOCK:   -0.39 KCAL/MOL
REMARK 927      BINDING AFFINITY PREDICTED BY RF-SCORE:    0.00 PKD
ROOT
HETATM    1  F   UNL     1      -7.399  12.958  67.150  1.00  0.00    -0.145 F  
HETATM    2  C   UNL     1      -6.944  13.127  68.411  1.00  0.00    -0.104 C  
HETATM    3  C   UNL     1      -6.881  14.606  68.823  1.00  0.00    -0.095 C  
HETATM    4  F   UNL     1      -5.739  12.524  68.505  1.00  0.00    -0.053 F  
HETATM    5  F   UNL     1      -7.792  12.454  69.229  1.00  0.00     0.064 F  
ENDROOT
BRANCH   3   6
HETATM    6  N   UNL     1      -7.261  15.582  67.801  1.00  0.00    -0.141 N  
HETATM    7  C   UNL     1      -8.299  16.469  68.016  1.00  0.00    -0.180 C  
HETATM    8  H   UNL     1      -6.752  15.608  66.918  1.00  0.00     0.000 HD 
HETATM    9  O   UNL     1      -8.969  16.412  69.048  1.00  0.00    -0.249 OA 
BRANCH   7  10
HETATM   10  C   UNL     1      -8.555  17.513  66.900  1.00  0.00    -0.267 C  
HETATM   11  C   UNL     1      -7.312  18.369  66.617  1.00  0.00    -0.250 A  
HETATM   12  C   UNL     1     -11.083  20.820  67.894  1.00  0.00     1.571 A  
HETATM   13  C   UNL     1      -6.078  17.960  66.130  1.00  0.00    -0.256 A  
HETATM   14  C   UNL     1      -8.979  19.862  67.278  1.00  0.00    -0.420 A  
HETATM   15  C   UNL     1      -5.126  18.941  65.848  1.00  0.00    -0.168 A  
HETATM   16  C   UNL     1     -11.653  19.540  67.979  1.00  0.00     1.439 A  
HETATM   17  C   UNL     1      -5.412  20.301  66.060  1.00  0.00    -0.197 A  
HETATM   18  C   UNL     1      -9.737  20.989  67.549  1.00  0.00    -0.217 A  
HETATM   19  C   UNL     1      -9.562  18.577  67.356  1.00  0.00    -0.307 A  
HETATM   20  C   UNL     1      -6.655  20.704  66.560  1.00  0.00    -0.317 A  
HETATM   21  C   UNL     1     -10.891  18.403  67.714  1.00  0.00    -0.268 A  
HETATM   22  C   UNL     1      -7.606  19.735  66.833  1.00  0.00    -0.287 A  
BRANCH  10  23
HETATM   23  C   UNL     1      -9.050  16.811  65.608  1.00  0.00     0.256 C  
BRANCH  23  24
HETATM   24  C   UNL     1      -9.457  15.336  65.773  1.00  0.00    -0.310 C  
BRANCH  24  25
HETATM   25  C   UNL     1     -10.951  15.159  65.500  1.00  0.00    -0.370 C  
BRANCH  25  26
HETATM   26  C   UNL     1     -11.339  13.705  65.204  1.00  0.00    -0.309 C  
BRANCH  26  27
HETATM   27  N   UNL     1     -12.132  13.051  66.258  1.00  0.00    -0.410 NA 
HETATM   28  C   UNL     1     -10.291  12.100  68.379  1.00  0.00    -0.229 C  
HETATM   29  C   UNL     1     -10.643  13.580  68.205  1.00  0.00    -0.253 C  
HETATM   30  C   UNL     1     -10.495  11.324  67.072  1.00  0.00    -0.272 C  
HETATM   31  C   UNL     1     -11.853  11.621  66.431  1.00  0.00     0.245 C  
HETATM   32  C   UNL     1     -12.007  13.758  67.541  1.00  0.00    -0.376 C  
BRANCH  28  33
HETATM   33  N   UNL     1     -11.038  11.498  69.480  1.00  0.00    -0.407 N  
HETATM   34  O   UNL     1      -9.691   9.638  69.656  1.00  0.00    -0.186 OA 
HETATM   35  C   UNL     1     -10.673  10.274  70.013  1.00  0.00    -0.292 C  
HETATM   36  H   UNL     1     -11.844  11.990  69.864  1.00  0.00     0.000 HD 
BRANCH  35  37
HETATM   37  C   UNL     1     -11.602   9.723  71.030  1.00  0.00    -0.455 A  
HETATM   38  C   UNL     1     -11.338   8.551  71.775  1.00  0.00    -0.377 A  
HETATM   39  C   UNL     1     -12.405   8.072  72.569  1.00  0.00    -0.243 A  
HETATM   40  C   UNL     1     -12.853  10.377  71.110  1.00  0.00    -0.511 A  
HETATM   41  C   UNL     1     -13.873   9.872  71.902  1.00  0.00    -0.179 A  
HETATM   42  C   UNL     1     -13.656   8.707  72.622  1.00  0.00    -0.284 A  
BRANCH  38  43
HETATM   43  C   UNL     1     -10.044   7.797  71.780  1.00  0.00    -0.223 A  
HETATM   44  C   UNL     1      -9.137   7.859  72.850  1.00  0.00    -0.281 A  
HETATM   45  C   UNL     1      -7.575   6.347  71.743  1.00  0.00    -0.095 A  
HETATM   46  C   UNL     1      -7.917   7.161  72.829  1.00  0.00    -0.116 A  
HETATM   47  C   UNL     1      -6.252   5.622  71.683  1.00  0.00    -0.042 C  
HETATM   48  C   UNL     1      -8.488   6.231  70.692  1.00  0.00    -0.134 A  
HETATM   49  C   UNL     1      -9.692   6.950  70.708  1.00  0.00    -0.176 A  
HETATM   50  F   UNL     1      -5.442   5.868  72.749  1.00  0.00    -0.026 F  
HETATM   51  F   UNL     1      -5.524   5.956  70.579  1.00  0.00    -0.011 F  
HETATM   52  F   UNL     1      -6.399   4.268  71.631  1.00  0.00    -0.016 F  
ENDBRANCH  38  43
ENDBRANCH  35  37
ENDBRANCH  28  33
ENDBRANCH  26  27
ENDBRANCH  25  26
ENDBRANCH  24  25
ENDBRANCH  23  24
ENDBRANCH  10  23
ENDBRANCH   7  10
ENDBRANCH   3   6
TORSDOF 10
ENDMDL
MODEL      101
REMARK 921   NORMALIZED FREE ENERGY PREDICTED BY IDOCK:   -2.59 KCAL/MOL
REMARK 922        TOTAL FREE ENERGY PREDICTED BY IDOCK:   -7.20 KCAL/MOL
REMARK 923 INTER-LIGAND FREE ENERGY PREDICTED BY IDOCK:   -6.66 KCAL/MOL
REMARK 924 INTRA-LIGAND FREE ENERGY PREDICTED BY IDOCK:   -0.54 KCAL/MOL
REMARK 927      BINDING AFFINITY PREDICTED BY RF-SCORE:    0.00 PKD
ROOT
HETATM    1  F   UNL     1      -6.085  12.762  68.626  1.00  0.00    -0.060 F  
HETATM    2  C   UNL     1      -6.581  12.791  69.883  1.00  0.00     0.138 C  
HETATM    3  C   UNL     1      -7.255  14.130  70.221  1.00  0.00     0.570 C  
HETATM    4  F   UNL     1      -5.575  12.502  70.736  1.00  0.00    -0.138 F  
HETATM    5  F   UNL     1      -7.485  11.782  69.974  1.00  0.00     0.287 F  
ENDROOT
BRANCH   3   6
HETATM    6  N   UNL     1      -7.213  15.160  69.182  1.00  0.00    -0.148 N  
HETATM    7  C   UNL     1      -8.226  16.093  69.065  1.00  0.00    -0.244 C  
HETATM    8  H   UNL     1      -6.425  15.189  68.536  1.00  0.00     0.000 HD 
HETATM    9  O   UNL     1      -9.218  16.036  69.793  1.00  0.00    -0.120 OA 
BRANCH   7  10
HETATM   10  C   UNL     1      -8.032  17.187  67.985  1.00  0.00    -0.212 C  
HETATM   11  C   UNL     1      -7.122  18.324  68.474  1.00  0.00    -0.277 A  
HETATM   12  C   UNL     1     -11.392  19.708  67.167  1.00  0.00     0.221 A  
HETATM   13  C   UNL     1      -5.783  18.260  68.834  1.00  0.00    -0.206 A  
HETATM   14  C   UNL     1      -9.169  19.319  67.961  1.00  0.00    -0.375 A  
HETATM   15  C   UNL     1      -5.130  19.453  69.145  1.00  0.00    -0.195 A  
HETATM   16  C   UNL     1     -11.561  18.334  66.935  1.00  0.00     1.609 A  
HETATM   17  C   UNL     1      -5.815  20.679  69.102  1.00  0.00    -0.395 A  
HETATM   18  C   UNL     1     -10.195  20.209  67.690  1.00  0.00    -0.516 A  
HETATM   19  C   UNL     1      -9.342  17.939  67.715  1.00  0.00    -0.262 A  
HETATM   20  C   UNL     1      -7.167  20.734  68.747  1.00  0.00     0.438 A  
HETATM   21  C   UNL     1     -10.534  17.433  67.214  1.00  0.00    -0.321 A  
HETATM   22  C   UNL     1      -7.818  19.554  68.429  1.00  0.00    -0.374 A  
BRANCH  10  23
HETATM   23  C   UNL     1      -7.482  16.562  66.676  1.00  0.00    -0.296 C  
BRANCH  23  24
HETATM   24  C   UNL     1      -7.823  15.076  66.460  1.00  0.00     0.498 C  
BRANCH  24  25
HETATM   25  C   UNL     1      -9.284  14.918  66.038  1.00  0.00    -0.210 C  
BRANCH  25  26
HETATM   26  C   UNL     1      -9.736  13.454  65.974  1.00  0.00    -0.215 C  
BRANCH  26  27
HETATM   27  N   UNL     1     -10.697  13.059  67.015  1.00  0.00    -0.257 NA 
HETATM   28  C   UNL     1     -10.415  10.149  67.515  1.00  0.00    -0.253 C  
HETATM   29  C   UNL     1      -9.387  11.169  68.014  1.00  0.00    -0.166 C  
HETATM   30  C   UNL     1     -11.200  10.696  66.317  1.00  0.00     0.241 C  
HETATM   31  C   UNL     1     -11.725  12.111  66.568  1.00  0.00    -0.321 C  
HETATM   32  C   UNL     1     -10.014  12.547  68.212  1.00  0.00    -0.229 C  
BRANCH  28  33
HETATM   33  N   UNL     1     -11.307   9.720  68.588  1.00  0.00    -0.493 N  
HETATM   34  O   UNL     1      -9.619   9.115  70.035  1.00  0.00    -0.174 OA 
HETATM   35  C   UNL     1     -10.811   9.202  69.772  1.00  0.00    -0.211 C  
HETATM   36  H   UNL     1     -12.315   9.803  68.463  1.00  0.00     0.000 HD 
BRANCH  35  37
HETATM   37  C   UNL     1     -11.832   8.681  70.713  1.00  0.00    -0.197 A  
HETATM   38  C   UNL     1     -12.060   7.303  70.934  1.00  0.00    -0.326 A  
HETATM   39  C   UNL     1     -13.187   6.984  71.726  1.00  0.00    -0.326 A  
HETATM   40  C   UNL     1     -12.673   9.664  71.283  1.00  0.00    -0.443 A  
HETATM   41  C   UNL     1     -13.769   9.306  72.054  1.00  0.00    -0.493 A  
HETATM   42  C   UNL     1     -14.037   7.962  72.265  1.00  0.00    -0.205 A  
BRANCH  38  43
HETATM   43  C   UNL     1     -11.219   6.186  70.397  1.00  0.00    -0.423 A  
HETATM   44  C   UNL     1     -10.832   6.112  69.050  1.00  0.00    -0.416 A  
HETATM   45  C   UNL     1      -9.616   4.028  69.410  1.00  0.00    -0.257 A  
HETATM   46  C   UNL     1     -10.059   5.047  68.558  1.00  0.00    -0.184 A  
HETATM   47  C   UNL     1      -8.821   2.854  68.894  1.00  0.00    -0.103 C  
HETATM   48  C   UNL     1      -9.947   4.112  70.766  1.00  0.00    -0.192 A  
HETATM   49  C   UNL     1     -10.740   5.165  71.244  1.00  0.00    -0.142 A  
HETATM   50  F   UNL     1      -8.617   2.877  67.548  1.00  0.00    -0.085 F  
HETATM   51  F   UNL     1      -9.422   1.659  69.159  1.00  0.00    -0.157 F  
HETATM   52  F   UNL     1      -7.581   2.774  69.456  1.00  0.00    -0.044 F  
ENDBRANCH  38  43
ENDBRANCH  35  37
ENDBRANCH  28  33
ENDBRANCH  26  27
ENDBRANCH  25  26
ENDBRANCH  24  25
ENDBRANCH  23  24
ENDBRANCH  10  23
ENDBRANCH   7  10
ENDBRANCH   3   6
TORSDOF 10
ENDMDL
MODEL      102
REMARK 921   NORMALIZED FREE ENERGY PREDICTED BY IDOCK:   -2.42 KCAL/MOL
REMARK 922        TOTAL FREE ENERGY PREDICTED BY IDOCK:   -6.94 KCAL/MOL
REMARK 923 INTER-LIGAND FREE ENERGY PREDICTED BY IDOCK:   -7.43 KCAL/MOL
REMARK 924 INTRA-LIGAND FREE ENERGY PREDICTED BY IDOCK:    0.49 KCAL/MOL
REMARK 927      BINDING AFFINITY PREDICTED BY RF-SCORE:    0.00 PKD
ROOT
HETATM    1  F   UNL     1      -7.675  11.033  68.209  1.00  0.00    -0.094 F  
HETATM    2  C   UNL     1      -6.370  11.384  68.199  1.00  0.00    -0.049 C  
HETATM    3  C   UNL     1      -5.496  10.385  67.423  1.00  0.00    -0.041 C  
HETATM    4  F   UNL     1      -5.965  11.522  69.480  1.00  0.00    -0.056 F  
HETATM    5  F   UNL     1      -6.296  12.609  67.622  1.00  0.00    -0.085 F  
ENDROOT
BRANCH   3   6
HETATM    6  N   UNL     1      -6.179   9.213  66.875  1.00  0.00    -0.061 N  
HETATM    7  C   UNL     1      -6.706   8.243  67.706  1.00  0.00    -0.066 C  
HETATM    8  H   UNL     1      -6.267   9.110  65.864  1.00  0.00     0.000 HD 
HETATM    9  O   UNL     1      -6.555   8.314  68.927  1.00  0.00    -0.050 OA 
BRANCH   7  10
HETATM   10  C   UNL     1      -7.482   7.092  67.017  1.00  0.00    -0.097 C  
HETATM   11  C   UNL     1      -8.865   6.872  67.647  1.00  0.00    -0.118 A  
HETATM   12  C   UNL     1      -6.088   3.113  67.752  1.00  0.00    -0.028 A  
HETATM   13  C   UNL     1      -9.943   7.748  67.687  1.00  0.00    -0.230 A  
HETATM   14  C   UNL     1      -7.717   4.858  67.909  1.00  0.00    -0.083 A  
HETATM   15  C   UNL     1     -11.145   7.285  68.223  1.00  0.00     0.057 A  
HETATM   16  C   UNL     1      -5.188   3.995  67.133  1.00  0.00    -0.012 A  
HETATM   17  C   UNL     1     -11.254   5.973  68.714  1.00  0.00    -0.212 A  
HETATM   18  C   UNL     1      -7.358   3.543  68.152  1.00  0.00    -0.051 A  
HETATM   19  C   UNL     1      -6.810   5.737  67.276  1.00  0.00    -0.064 A  
HETATM   20  C   UNL     1     -10.161   5.100  68.680  1.00  0.00    -0.192 A  
HETATM   21  C   UNL     1      -5.542   5.322  66.893  1.00  0.00    -0.017 A  
HETATM   22  C   UNL     1      -8.968   5.551  68.141  1.00  0.00    -0.108 A  
BRANCH  10  23
HETATM   23  C   UNL     1      -7.604   7.360  65.494  1.00  0.00    -0.094 C  
BRANCH  23  24
HETATM   24  C   UNL     1      -8.938   7.977  65.037  1.00  0.00     0.246 C  
BRANCH  24  25
HETATM   25  C   UNL     1      -8.808   9.494  64.901  1.00  0.00    -0.240 C  
BRANCH  25  26
HETATM   26  C   UNL     1     -10.161  10.216  64.910  1.00  0.00    -0.207 C  
BRANCH  26  27
HETATM   27  N   UNL     1     -10.488  10.897  66.172  1.00  0.00    -0.246 NA 
HETATM   28  C   UNL     1     -11.181  13.719  65.578  1.00  0.00    -0.299 C  
HETATM   29  C   UNL     1     -12.132  12.559  65.267  1.00  0.00    -0.500 C  
HETATM   30  C   UNL     1      -9.727  13.237  65.655  1.00  0.00    -0.101 C  
HETATM   31  C   UNL     1      -9.577  11.990  66.529  1.00  0.00    -0.224 C  
HETATM   32  C   UNL     1     -11.881  11.366  66.185  1.00  0.00     0.659 C  
BRANCH  28  33
HETATM   33  N   UNL     1     -11.575  14.422  66.796  1.00  0.00    -0.371 N  
HETATM   34  O   UNL     1      -9.506  14.284  67.798  1.00  0.00    -0.207 OA 
HETATM   35  C   UNL     1     -10.682  14.621  67.834  1.00  0.00    -0.250 C  
HETATM   36  H   UNL     1     -12.529  14.774  66.883  1.00  0.00     0.000 HD 
BRANCH  35  37
HETATM   37  C   UNL     1     -11.258  15.225  69.060  1.00  0.00    -0.287 A  
HETATM   38  C   UNL     1     -10.819  16.453  69.606  1.00  0.00    -0.346 A  
HETATM   39  C   UNL     1     -11.352  16.791  70.871  1.00  0.00     0.308 A  
HETATM   40  C   UNL     1     -12.196  14.413  69.739  1.00  0.00    -0.370 A  
HETATM   41  C   UNL     1     -12.694  14.784  70.980  1.00  0.00    -0.411 A  
HETATM   42  C   UNL     1     -12.260  15.968  71.555  1.00  0.00    -0.478 A  
BRANCH  38  43
HETATM   43  C   UNL     1      -9.849  17.394  68.960  1.00  0.00    -0.230 A  
HETATM   44  C   UNL     1     -10.262  18.514  68.221  1.00  0.00    -0.412 A  
HETATM   45  C   UNL     1      -7.962  19.163  67.731  1.00  0.00    -0.305 A  
HETATM   46  C   UNL     1      -9.340  19.376  67.604  1.00  0.00    -0.382 A  
HETATM   47  C   UNL     1      -6.956  20.052  67.042  1.00  0.00    -0.219 C  
HETATM   48  C   UNL     1      -7.531  18.083  68.507  1.00  0.00    -0.283 A  
HETATM   49  C   UNL     1      -8.458  17.213  69.099  1.00  0.00     0.003 A  
HETATM   50  F   UNL     1      -7.519  21.031  66.280  1.00  0.00    -0.128 F  
HETATM   51  F   UNL     1      -6.132  19.358  66.206  1.00  0.00    -0.163 F  
HETATM   52  F   UNL     1      -6.135  20.692  67.922  1.00  0.00    -0.240 F  
ENDBRANCH  38  43
ENDBRANCH  35  37
ENDBRANCH  28  33
ENDBRANCH  26  27
ENDBRANCH  25  26
ENDBRANCH  24  25
ENDBRANCH  23  24
ENDBRANCH  10  23
ENDBRANCH   7  10
ENDBRANCH   3   6
TORSDOF 10
ENDMDL
MODEL      103
REMARK 921   NORMALIZED FREE ENERGY PREDICTED BY IDOCK:   -2.23 KCAL/MOL
REMARK 922        TOTAL FREE ENERGY PREDICTED BY IDOCK:   -6.64 KCAL/MOL
REMARK 923 INTER-LIGAND FREE ENERGY PREDICTED BY IDOCK:   -5.48 KCAL/MOL
REMARK 924 INTRA-LIGAND FREE ENERGY PREDICTED BY IDOCK:   -1.16 KCAL/MOL
REMARK 927      BINDING AFFINITY PREDICTED BY RF-SCORE:    0.00 PKD
ROOT
HETATM    1  F   UNL     1     -10.950  10.462  71.304  1.00  0.00    -0.274 F  
HETATM    2  C   UNL     1     -12.224  10.022  71.214  1.00  0.00    -0.402 C  
HETATM    3  C   UNL     1     -12.313   8.494  71.074  1.00  0.00    -0.131 C  
HETATM    4  F   UNL     1     -12.814  10.659  70.180  1.00  0.00    -0.382 F  
HETATM    5  F   UNL     1     -12.860  10.421  72.344  1.00  0.00    -0.451 F  
ENDROOT
BRANCH   3   6
HETATM    6  N   UNL     1     -11.042   7.772  71.008  1.00  0.00    -0.253 N  
HETATM    7  C   UNL     1     -10.721   6.996  69.910  1.00  0.00    -0.240 C  
HETATM    8  H   UNL     1     -10.383   7.843  71.783  1.00  0.00     0.000 HD 
HETATM    9  O   UNL     1     -11.528   6.845  68.992  1.00  0.00    -0.063 OA 
BRANCH   7  10
HETATM   10  C   UNL     1      -9.314   6.348  69.912  1.00  0.00    -0.156 C  
HETATM   11  C   UNL     1      -9.309   4.981  69.213  1.00  0.00    -0.178 A  
HETATM   12  C   UNL     1      -7.874   4.869  73.661  1.00  0.00    -0.095 A  
HETATM   13  C   UNL     1      -9.581   4.693  67.882  1.00  0.00    -0.205 A  
HETATM   14  C   UNL     1      -8.609   4.581  71.403  1.00  0.00    -0.127 A  
HETATM   15  C   UNL     1      -9.407   3.379  67.446  1.00  0.00    -0.243 A  
HETATM   16  C   UNL     1      -8.155   6.243  73.588  1.00  0.00    -0.109 A  
HETATM   17  C   UNL     1      -8.976   2.379  68.335  1.00  0.00    -0.179 A  
HETATM   18  C   UNL     1      -8.107   4.027  72.568  1.00  0.00    -0.090 A  
HETATM   19  C   UNL     1      -8.880   5.966  71.333  1.00  0.00    -0.137 A  
HETATM   20  C   UNL     1      -8.713   2.675  69.676  1.00  0.00    -0.130 A  
HETATM   21  C   UNL     1      -8.668   6.804  72.419  1.00  0.00    -0.131 A  
HETATM   22  C   UNL     1      -8.876   3.979  70.112  1.00  0.00    -0.137 A  
BRANCH  10  23
HETATM   23  C   UNL     1      -8.278   7.305  69.264  1.00  0.00    -0.131 C  
BRANCH  23  24
HETATM   24  C   UNL     1      -8.801   8.137  68.079  1.00  0.00    -0.131 C  
BRANCH  24  25
HETATM   25  C   UNL     1      -8.456   9.615  68.270  1.00  0.00    -0.118 C  
BRANCH  25  26
HETATM   26  C   UNL     1      -9.691  10.495  68.502  1.00  0.00    -0.165 C  
BRANCH  26  27
HETATM   27  N   UNL     1      -9.648  11.806  67.835  1.00  0.00    -0.181 NA 
HETATM   28  C   UNL     1      -8.591  13.811  69.747  1.00  0.00     1.570 C  
HETATM   29  C   UNL     1      -7.691  12.772  69.070  1.00  0.00     0.203 C  
HETATM   30  C   UNL     1     -10.049  13.338  69.787  1.00  0.00     1.346 C  
HETATM   31  C   UNL     1     -10.526  12.820  68.429  1.00  0.00    -0.243 C  
HETATM   32  C   UNL     1      -8.272  12.313  67.734  1.00  0.00    -0.161 C  
BRANCH  28  33
HETATM   33  N   UNL     1      -8.470  15.119  69.111  1.00  0.00    -0.213 N  
HETATM   34  O   UNL     1      -6.168  15.172  69.174  1.00  0.00    -0.100 OA 
HETATM   35  C   UNL     1      -7.235  15.707  68.902  1.00  0.00    -0.146 C  
HETATM   36  H   UNL     1      -9.313  15.610  68.813  1.00  0.00     0.000 HD 
BRANCH  35  37
HETATM   37  C   UNL     1      -7.272  17.092  68.374  1.00  0.00    -0.209 A  
HETATM   38  C   UNL     1      -8.170  17.522  67.370  1.00  0.00    -0.217 A  
HETATM   39  C   UNL     1      -7.949  18.821  66.860  1.00  0.00    -0.262 A  
HETATM   40  C   UNL     1      -6.241  17.937  68.847  1.00  0.00    -0.214 A  
HETATM   41  C   UNL     1      -6.060  19.207  68.318  1.00  0.00    -0.239 A  
HETATM   42  C   UNL     1      -6.905  19.646  67.311  1.00  0.00    -0.226 A  
BRANCH  38  43
HETATM   43  C   UNL     1      -9.305  16.716  66.818  1.00  0.00    -0.262 A  
HETATM   44  C   UNL     1     -10.648  17.089  66.985  1.00  0.00    -0.226 A  
HETATM   45  C   UNL     1     -11.447  15.141  65.753  1.00  0.00    -0.172 A  
HETATM   46  C   UNL     1     -11.702  16.311  66.478  1.00  0.00     1.038 A  
HETATM   47  C   UNL     1     -12.565  14.270  65.236  1.00  0.00    -0.394 C  
HETATM   48  C   UNL     1     -10.115  14.781  65.530  1.00  0.00    -0.409 A  
HETATM   49  C   UNL     1      -9.069  15.549  66.062  1.00  0.00    -0.316 A  
HETATM   50  F   UNL     1     -13.808  14.715  65.571  1.00  0.00     0.107 F  
HETATM   51  F   UNL     1     -12.490  12.991  65.704  1.00  0.00    -0.468 F  
HETATM   52  F   UNL     1     -12.561  14.166  63.877  1.00  0.00    -0.426 F  
ENDBRANCH  38  43
ENDBRANCH  35  37
ENDBRANCH  28  33
ENDBRANCH  26  27
ENDBRANCH  25  26
ENDBRANCH  24  25
ENDBRANCH  23  24
ENDBRANCH  10  23
ENDBRANCH   7  10
ENDBRANCH   3   6
TORSDOF 10
ENDMDL
MODEL      104
REMARK 921   NORMALIZED FREE ENERGY PREDICTED BY IDOCK:   -2.21 KCAL/MOL
REMARK 922        TOTAL FREE ENERGY PREDICTED BY IDOCK:   -6.60 KCAL/MOL
REMARK 923 INTER-LIGAND FREE ENERGY PREDICTED BY IDOCK:   -7.69 KCAL/MOL
REMARK 924 INTRA-LIGAND FREE ENERGY PREDICTED BY IDOCK:    1.08 KCAL/MOL
REMARK 927      BINDING AFFINITY PREDICTED BY RF-SCORE:    0.00 PKD
ROOT
HETATM    1  F   UNL     1     -12.432   7.880  70.245  1.00  0.00     0.127 F  
HETATM    2  C   UNL     1     -12.796   8.687  71.266  1.00  0.00    -0.192 C  
HETATM    3  C   UNL     1     -11.588   9.297  71.994  1.00  0.00    -0.234 C  
HETATM    4  F   UNL     1     -13.583   7.974  72.101  1.00  0.00    -0.318 F  
HETATM    5  F   UNL     1     -13.564   9.672  70.736  1.00  0.00    -0.354 F  
ENDROOT
BRANCH   3   6
HETATM    6  N   UNL     1     -10.267   8.885  71.521  1.00  0.00    -0.300 N  
HETATM    7  C   UNL     1      -9.540   7.922  72.194  1.00  0.00    -0.197 C  
HETATM    8  H   UNL     1      -9.877   9.315  70.683  1.00  0.00     0.000 HD 
HETATM    9  O   UNL     1      -9.963   7.436  73.244  1.00  0.00    -0.230 OA 
BRANCH   7  10
HETATM   10  C   UNL     1      -8.192   7.503  71.553  1.00  0.00    -0.105 C  
HETATM   11  C   UNL     1      -8.395   6.652  70.291  1.00  0.00    -0.134 A  
HETATM   12  C   UNL     1      -5.895   4.555  73.639  1.00  0.00    -0.013 A  
HETATM   13  C   UNL     1      -8.998   7.017  69.094  1.00  0.00    -0.134 A  
HETATM   14  C   UNL     1      -7.179   5.320  71.770  1.00  0.00    -0.080 A  
HETATM   15  C   UNL     1      -8.971   6.103  68.040  1.00  0.00    -0.113 A  
HETATM   16  C   UNL     1      -6.153   5.756  74.320  1.00  0.00    -0.060 A  
HETATM   17  C   UNL     1      -8.355   4.849  68.193  1.00  0.00    -0.099 A  
HETATM   18  C   UNL     1      -6.414   4.327  72.359  1.00  0.00    -0.022 A  
HETATM   19  C   UNL     1      -7.426   6.529  72.458  1.00  0.00    -0.090 A  
HETATM   20  C   UNL     1      -7.757   4.485  69.405  1.00  0.00    -0.055 A  
HETATM   21  C   UNL     1      -6.929   6.755  73.734  1.00  0.00    -0.075 A  
HETATM   22  C   UNL     1      -7.775   5.392  70.451  1.00  0.00    -0.080 A  
BRANCH  10  23
HETATM   23  C   UNL     1      -7.330   8.755  71.244  1.00  0.00    -0.112 C  
BRANCH  23  24
HETATM   24  C   UNL     1      -6.421   8.641  70.007  1.00  0.00    -0.038 C  
BRANCH  24  25
HETATM   25  C   UNL     1      -6.348   9.980  69.271  1.00  0.00    -0.045 C  
BRANCH  25  26
HETATM   26  C   UNL     1      -7.327  10.072  68.094  1.00  0.00    -0.083 C  
BRANCH  26  27
HETATM   27  N   UNL     1      -8.120  11.311  68.047  1.00  0.00    -0.122 NA 
HETATM   28  C   UNL     1      -6.293  13.622  68.384  1.00  0.00    -0.098 C  
HETATM   29  C   UNL     1      -6.367  12.821  67.080  1.00  0.00     0.073 C  
HETATM   30  C   UNL     1      -6.776  12.787  69.576  1.00  0.00     0.032 C  
HETATM   31  C   UNL     1      -8.108  12.090  69.290  1.00  0.00     0.519 C  
HETATM   32  C   UNL     1      -7.731  12.155  66.909  1.00  0.00    -0.049 C  
BRANCH  28  33
HETATM   33  N   UNL     1      -7.027  14.881  68.282  1.00  0.00    -0.108 N  
HETATM   34  O   UNL     1      -8.296  14.236  66.472  1.00  0.00     0.080 OA 
HETATM   35  C   UNL     1      -7.968  15.086  67.288  1.00  0.00    -0.206 C  
HETATM   36  H   UNL     1      -6.841  15.623  68.956  1.00  0.00     0.000 HD 
BRANCH  35  37
HETATM   37  C   UNL     1      -8.532  16.456  67.222  1.00  0.00    -0.196 A  
HETATM   38  C   UNL     1      -9.744  16.833  67.845  1.00  0.00    -0.245 A  
HETATM   39  C   UNL     1     -10.221  18.126  67.531  1.00  0.00    -0.382 A  
HETATM   40  C   UNL     1      -7.840  17.343  66.365  1.00  0.00    -0.337 A  
HETATM   41  C   UNL     1      -8.346  18.604  66.084  1.00  0.00    -0.174 A  
HETATM   42  C   UNL     1      -9.547  18.992  66.656  1.00  0.00    -0.378 A  
BRANCH  38  43
HETATM   43  C   UNL     1     -10.540  15.980  68.784  1.00  0.00    -0.262 A  
HETATM   44  C   UNL     1     -10.633  16.253  70.158  1.00  0.00    -0.183 A  
HETATM   45  C   UNL     1     -12.066  14.318  70.547  1.00  0.00    -0.413 A  
HETATM   46  C   UNL     1     -11.367  15.431  71.029  1.00  0.00    -0.411 A  
HETATM   47  C   UNL     1     -12.826  13.399  71.472  1.00  0.00    -0.337 C  
HETATM   48  C   UNL     1     -12.029  14.060  69.174  1.00  0.00    -0.400 A  
HETATM   49  C   UNL     1     -11.272  14.870  68.315  1.00  0.00    -0.306 A  
HETATM   50  F   UNL     1     -12.732  13.742  72.787  1.00  0.00    -0.371 F  
HETATM   51  F   UNL     1     -12.397  12.107  71.393  1.00  0.00    -0.379 F  
HETATM   52  F   UNL     1     -14.160  13.361  71.191  1.00  0.00     0.000 F  
ENDBRANCH  38  43
ENDBRANCH  35  37
ENDBRANCH  28  33
ENDBRANCH  26  27
ENDBRANCH  25  26
ENDBRANCH  24  25
ENDBRANCH  23  24
ENDBRANCH  10  23
ENDBRANCH   7  10
ENDBRANCH   3   6
TORSDOF 10
ENDMDL
MODEL      105
REMARK 921   NORMALIZED FREE ENERGY PREDICTED BY IDOCK:   -2.10 KCAL/MOL
REMARK 922        TOTAL FREE ENERGY PREDICTED BY IDOCK:   -6.43 KCAL/MOL
REMARK 923 INTER-LIGAND FREE ENERGY PREDICTED BY IDOCK:   -7.06 KCAL/MOL
REMARK 924 INTRA-LIGAND FREE ENERGY PREDICTED BY IDOCK:    0.63 KCAL/MOL
REMARK 927      BINDING AFFINITY PREDICTED BY RF-SCORE:    0.00 PKD
ROOT
HETATM    1  F   UNL     1     -11.616  15.895  66.415  1.00  0.00    -0.004 F  
HETATM    2  C   UNL     1     -10.780  16.693  65.715  1.00  0.00    -0.204 C  
HETATM    3  C   UNL     1      -9.329  16.189  65.734  1.00  0.00    -0.185 C  
HETATM    4  F   UNL     1     -10.887  17.945  66.210  1.00  0.00    -0.294 F  
HETATM    5  F   UNL     1     -11.242  16.727  64.440  1.00  0.00    -0.477 F  
ENDROOT
BRANCH   3   6
HETATM    6  N   UNL     1      -9.068  14.987  66.526  1.00  0.00    -0.279 N  
HETATM    7  C   UNL     1     -10.034  14.009  66.672  1.00  0.00    -0.278 C  
HETATM    8  H   UNL     1      -8.161  14.869  66.977  1.00  0.00     0.000 HD 
HETATM    9  O   UNL     1     -11.157  14.160  66.191  1.00  0.00    -0.305 OA 
BRANCH   7  10
HETATM   10  C   UNL     1      -9.617  12.741  67.460  1.00  0.00    -0.192 C  
HETATM   11  C   UNL     1      -9.536  11.502  66.556  1.00  0.00    -0.225 A  
HETATM   12  C   UNL     1     -12.523  11.083  70.128  1.00  0.00    -0.344 A  
HETATM   13  C   UNL     1      -8.684  11.273  65.483  1.00  0.00    -0.038 A  
HETATM   14  C   UNL     1     -11.133  11.003  68.183  1.00  0.00    -0.329 A  
HETATM   15  C   UNL     1      -8.720  10.018  64.874  1.00  0.00    -0.201 A  
HETATM   16  C   UNL     1     -12.103  12.397  70.387  1.00  0.00    -0.381 A  
HETATM   17  C   UNL     1      -9.600   9.022  65.332  1.00  0.00    -0.084 A  
HETATM   18  C   UNL     1     -12.045  10.379  69.017  1.00  0.00     0.133 A  
HETATM   19  C   UNL     1     -10.707  12.322  68.456  1.00  0.00    -0.261 A  
HETATM   20  C   UNL     1     -10.461   9.264  66.408  1.00  0.00    -0.157 A  
HETATM   21  C   UNL     1     -11.191  13.032  69.546  1.00  0.00    -0.146 A  
HETATM   22  C   UNL     1     -10.424  10.505  67.021  1.00  0.00    -0.304 A  
BRANCH  10  23
HETATM   23  C   UNL     1      -8.270  12.980  68.193  1.00  0.00    -0.157 C  
BRANCH  23  24
HETATM   24  C   UNL     1      -8.114  12.251  69.539  1.00  0.00     1.108 C  
BRANCH  24  25
HETATM   25  C   UNL     1      -7.004  11.203  69.455  1.00  0.00    -0.111 C  
BRANCH  25  26
HETATM   26  C   UNL     1      -7.375  10.006  68.570  1.00  0.00    -0.077 C  
BRANCH  26  27
HETATM   27  N   UNL     1      -7.057   8.690  69.147  1.00  0.00    -0.062 NA 
HETATM   28  C   UNL     1      -9.492   7.612  70.452  1.00  0.00    -0.164 C  
HETATM   29  C   UNL     1      -9.326   7.646  68.929  1.00  0.00    -0.145 C  
HETATM   30  C   UNL     1      -8.604   8.662  71.130  1.00  0.00    -0.224 C  
HETATM   31  C   UNL     1      -7.165   8.624  70.609  1.00  0.00    -0.058 C  
HETATM   32  C   UNL     1      -7.854   7.623  68.525  1.00  0.00    -0.121 C  
BRANCH  28  33
HETATM   33  N   UNL     1      -9.243   6.276  70.987  1.00  0.00    -0.154 N  
HETATM   34  O   UNL     1     -10.468   5.174  69.377  1.00  0.00    -0.230 OA 
HETATM   35  C   UNL     1      -9.794   5.151  70.398  1.00  0.00    -0.218 C  
HETATM   36  H   UNL     1      -8.652   6.170  71.811  1.00  0.00     0.000 HD 
BRANCH  35  37
HETATM   37  C   UNL     1      -9.570   3.879  71.128  1.00  0.00    -0.244 A  
HETATM   38  C   UNL     1      -9.081   2.703  70.515  1.00  0.00    -0.185 A  
HETATM   39  C   UNL     1      -9.098   1.538  71.317  1.00  0.00    -0.131 A  
HETATM   40  C   UNL     1     -10.016   3.877  72.470  1.00  0.00    -0.225 A  
HETATM   41  C   UNL     1     -10.016   2.710  73.220  1.00  0.00    -0.175 A  
HETATM   42  C   UNL     1      -9.570   1.534  72.639  1.00  0.00    -0.127 A  
BRANCH  38  43
HETATM   43  C   UNL     1      -8.566   2.603  69.113  1.00  0.00    -0.117 A  
HETATM   44  C   UNL     1      -9.288   1.974  68.085  1.00  0.00    -0.248 A  
HETATM   45  C   UNL     1      -7.539   2.427  66.445  1.00  0.00    -0.071 A  
HETATM   46  C   UNL     1      -8.781   1.872  66.779  1.00  0.00    -0.125 A  
HETATM   47  C   UNL     1      -6.959   2.291  65.059  1.00  0.00    -0.048 C  
HETATM   48  C   UNL     1      -6.830   3.103  67.442  1.00  0.00    -0.046 A  
HETATM   49  C   UNL     1      -7.331   3.178  68.749  1.00  0.00    -0.049 A  
HETATM   50  F   UNL     1      -7.734   1.565  64.207  1.00  0.00    -0.054 F  
HETATM   51  F   UNL     1      -5.738   1.683  65.061  1.00  0.00    -0.010 F  
HETATM   52  F   UNL     1      -6.768   3.497  64.452  1.00  0.00    -0.038 F  
ENDBRANCH  38  43
ENDBRANCH  35  37
ENDBRANCH  28  33
ENDBRANCH  26  27
ENDBRANCH  25  26
ENDBRANCH  24  25
ENDBRANCH  23  24
ENDBRANCH  10  23
ENDBRANCH   7  10
ENDBRANCH   3   6
TORSDOF 10
ENDMDL
MODEL      106
REMARK 921   NORMALIZED FREE ENERGY PREDICTED BY IDOCK:   -1.99 KCAL/MOL
REMARK 922        TOTAL FREE ENERGY PREDICTED BY IDOCK:   -6.25 KCAL/MOL
REMARK 923 INTER-LIGAND FREE ENERGY PREDICTED BY IDOCK:   -5.21 KCAL/MOL
REMARK 924 INTRA-LIGAND FREE ENERGY PREDICTED BY IDOCK:   -1.04 KCAL/MOL
REMARK 927      BINDING AFFINITY PREDICTED BY RF-SCORE:    0.00 PKD
ROOT
HETATM    1  F   UNL     1      -5.852  12.757  68.558  1.00  0.00    -0.056 F  
HETATM    2  C   UNL     1      -6.221  12.789  69.857  1.00  0.00    -0.084 C  
HETATM    3  C   UNL     1      -6.884  14.118  70.250  1.00  0.00     0.182 C  
HETATM    4  F   UNL     1      -5.130  12.526  70.608  1.00  0.00    -0.083 F  
HETATM    5  F   UNL     1      -7.091  11.764  70.046  1.00  0.00     0.024 F  
ENDROOT
BRANCH   3   6
HETATM    6  N   UNL     1      -6.965  15.138  69.205  1.00  0.00    -0.134 N  
HETATM    7  C   UNL     1      -8.054  15.986  69.122  1.00  0.00    -0.238 C  
HETATM    8  H   UNL     1      -6.208  15.225  68.527  1.00  0.00     0.000 HD 
HETATM    9  O   UNL     1      -9.009  15.857  69.890  1.00  0.00    -0.005 OA 
BRANCH   7  10
HETATM   10  C   UNL     1      -7.991  17.082  68.029  1.00  0.00    -0.195 C  
HETATM   11  C   UNL     1      -7.105  18.264  68.449  1.00  0.00    -0.264 A  
HETATM   12  C   UNL     1     -11.519  19.435  67.450  1.00  0.00     0.537 A  
HETATM   13  C   UNL     1      -5.741  18.267  68.712  1.00  0.00    -0.192 A  
HETATM   14  C   UNL     1      -9.229  19.158  68.082  1.00  0.00    -0.377 A  
HETATM   15  C   UNL     1      -5.126  19.492  68.973  1.00  0.00    -0.198 A  
HETATM   16  C   UNL     1     -11.638  18.053  67.233  1.00  0.00     1.399 A  
HETATM   17  C   UNL     1      -5.871  20.683  68.976  1.00  0.00    -0.390 A  
HETATM   18  C   UNL     1     -10.313  19.996  67.884  1.00  0.00    -0.506 A  
HETATM   19  C   UNL     1      -9.352  17.769  67.853  1.00  0.00    -0.266 A  
HETATM   20  C   UNL     1      -7.247  20.671  68.720  1.00  0.00     0.248 A  
HETATM   21  C   UNL     1     -10.551  17.204  67.439  1.00  0.00    -0.297 A  
HETATM   22  C   UNL     1      -7.860  19.460  68.451  1.00  0.00    -0.377 A  
BRANCH  10  23
HETATM   23  C   UNL     1      -7.507  16.477  66.685  1.00  0.00    -0.296 C  
BRANCH  23  24
HETATM   24  C   UNL     1      -7.805  14.980  66.491  1.00  0.00     0.498 C  
BRANCH  24  25
HETATM   25  C   UNL     1      -9.212  14.782  65.927  1.00  0.00    -0.076 C  
BRANCH  25  26
HETATM   26  C   UNL     1      -9.502  13.329  65.531  1.00  0.00     0.188 C  
BRANCH  26  27
HETATM   27  N   UNL     1     -10.087  12.504  66.600  1.00  0.00    -0.227 NA 
HETATM   28  C   UNL     1      -9.066   9.733  66.328  1.00  0.00    -0.157 C  
HETATM   29  C   UNL     1      -8.200  10.876  66.869  1.00  0.00    -0.135 C  
HETATM   30  C   UNL     1     -10.207  10.269  65.454  1.00  0.00    -0.312 C  
HETATM   31  C   UNL     1     -10.957  11.421  66.126  1.00  0.00    -0.236 C  
HETATM   32  C   UNL     1      -9.052  11.975  67.499  1.00  0.00    -0.177 C  
BRANCH  28  33
HETATM   33  N   UNL     1      -9.570   8.888  67.407  1.00  0.00    -0.151 N  
HETATM   34  O   UNL     1      -7.610   8.899  68.616  1.00  0.00    -0.093 OA 
HETATM   35  C   UNL     1      -8.763   8.516  68.467  1.00  0.00    -0.139 C  
HETATM   36  H   UNL     1     -10.537   8.565  67.377  1.00  0.00     0.000 HD 
BRANCH  35  37
HETATM   37  C   UNL     1      -9.365   7.546  69.414  1.00  0.00    -0.152 A  
HETATM   38  C   UNL     1      -9.871   6.285  69.024  1.00  0.00    -0.165 A  
HETATM   39  C   UNL     1     -10.568   5.566  70.021  1.00  0.00    -0.384 A  
HETATM   40  C   UNL     1      -9.531   8.028  70.733  1.00  0.00    -0.173 A  
HETATM   41  C   UNL     1     -10.224   7.288  71.681  1.00  0.00    -0.207 A  
HETATM   42  C   UNL     1     -10.757   6.060  71.321  1.00  0.00    -0.320 A  
BRANCH  38  43
HETATM   43  C   UNL     1      -9.730   5.675  67.663  1.00  0.00    -0.135 A  
HETATM   44  C   UNL     1      -8.508   5.182  67.180  1.00  0.00    -0.106 A  
HETATM   45  C   UNL     1      -9.501   4.526  65.050  1.00  0.00    -0.156 A  
HETATM   46  C   UNL     1      -8.388   4.631  65.893  1.00  0.00    -0.115 A  
HETATM   47  C   UNL     1      -9.385   3.976  63.650  1.00  0.00    -0.139 C  
HETATM   48  C   UNL     1     -10.738   4.963  65.534  1.00  0.00    -0.072 A  
HETATM   49  C   UNL     1     -10.844   5.535  66.810  1.00  0.00    -0.252 A  
HETATM   50  F   UNL     1      -8.115   3.638  63.296  1.00  0.00    -0.078 F  
HETATM   51  F   UNL     1      -9.811   4.862  62.704  1.00  0.00    -0.046 F  
HETATM   52  F   UNL     1     -10.135   2.852  63.465  1.00  0.00    -0.122 F  
ENDBRANCH  38  43
ENDBRANCH  35  37
ENDBRANCH  28  33
ENDBRANCH  26  27
ENDBRANCH  25  26
ENDBRANCH  24  25
ENDBRANCH  23  24
ENDBRANCH  10  23
ENDBRANCH   7  10
ENDBRANCH   3   6
TORSDOF 10
ENDMDL
MODEL      107
REMARK 921   NORMALIZED FREE ENERGY PREDICTED BY IDOCK:   -1.97 KCAL/MOL
REMARK 922        TOTAL FREE ENERGY PREDICTED BY IDOCK:   -6.22 KCAL/MOL
REMARK 923 INTER-LIGAND FREE ENERGY PREDICTED BY IDOCK:   -7.60 KCAL/MOL
REMARK 924 INTRA-LIGAND FREE ENERGY PREDICTED BY IDOCK:    1.38 KCAL/MOL
REMARK 927      BINDING AFFINITY PREDICTED BY RF-SCORE:    0.00 PKD
ROOT
HETATM    1  F   UNL     1      -9.212   6.452  66.480  1.00  0.00    -0.138 F  
HETATM    2  C   UNL     1      -9.030   5.182  66.053  1.00  0.00    -0.140 C  
HETATM    3  C   UNL     1      -8.700   4.216  67.202  1.00  0.00    -0.110 C  
HETATM    4  F   UNL     1      -8.065   5.194  65.109  1.00  0.00    -0.100 F  
HETATM    5  F   UNL     1     -10.181   4.801  65.444  1.00  0.00    -0.198 F  
ENDROOT
BRANCH   3   6
HETATM    6  N   UNL     1      -8.584   4.806  68.535  1.00  0.00    -0.093 N  
HETATM    7  C   UNL     1      -9.707   5.201  69.238  1.00  0.00    -0.172 C  
HETATM    8  H   UNL     1      -7.661   4.927  68.953  1.00  0.00     0.000 HD 
HETATM    9  O   UNL     1     -10.825   5.124  68.727  1.00  0.00     0.026 OA 
BRANCH   7  10
HETATM   10  C   UNL     1      -9.469   5.733  70.674  1.00  0.00    -0.198 C  
HETATM   11  C   UNL     1      -9.845   4.694  71.741  1.00  0.00    -0.247 A  
HETATM   12  C   UNL     1     -12.168   8.736  72.093  1.00  0.00    -0.448 A  
HETATM   13  C   UNL     1      -9.275   3.448  71.969  1.00  0.00    -0.172 A  
HETATM   14  C   UNL     1     -11.202   6.548  72.148  1.00  0.00    -0.308 A  
HETATM   15  C   UNL     1      -9.714   2.718  73.074  1.00  0.00    -0.164 A  
HETATM   16  C   UNL     1     -11.410   9.053  70.954  1.00  0.00    -0.351 A  
HETATM   17  C   UNL     1     -10.709   3.230  73.924  1.00  0.00    -0.291 A  
HETATM   18  C   UNL     1     -12.074   7.475  72.693  1.00  0.00    -0.080 A  
HETATM   19  C   UNL     1     -10.434   6.878  71.009  1.00  0.00    -0.235 A  
HETATM   20  C   UNL     1     -11.285   4.482  73.682  1.00  0.00    -0.346 A  
HETATM   21  C   UNL     1     -10.536   8.120  70.398  1.00  0.00    -0.217 A  
HETATM   22  C   UNL     1     -10.847   5.214  72.592  1.00  0.00    -0.303 A  
BRANCH  10  23
HETATM   23  C   UNL     1      -7.997   6.192  70.843  1.00  0.00    -0.116 C  
BRANCH  23  24
HETATM   24  C   UNL     1      -7.121   6.075  69.582  1.00  0.00    -0.069 C  
BRANCH  24  25
HETATM   25  C   UNL     1      -6.110   7.221  69.525  1.00  0.00    -0.030 C  
BRANCH  25  26
HETATM   26  C   UNL     1      -6.755   8.601  69.698  1.00  0.00    -0.039 C  
BRANCH  26  27
HETATM   27  N   UNL     1      -8.055   8.763  69.028  1.00  0.00    -0.114 NA 
HETATM   28  C   UNL     1      -8.040  11.322  67.530  1.00  0.00    -0.124 C  
HETATM   29  C   UNL     1      -7.274  10.086  67.047  1.00  0.00    -0.090 C  
HETATM   30  C   UNL     1      -8.283  11.267  69.043  1.00  0.00    -0.026 C  
HETATM   31  C   UNL     1      -8.840   9.913  69.490  1.00  0.00    -0.197 C  
HETATM   32  C   UNL     1      -7.906   8.797  67.566  1.00  0.00    -0.102 C  
BRANCH  28  33
HETATM   33  N   UNL     1      -9.290  11.498  66.795  1.00  0.00    -0.177 N  
HETATM   34  O   UNL     1      -8.286  12.167  64.833  1.00  0.00     1.559 OA 
HETATM   35  C   UNL     1      -9.297  11.944  65.484  1.00  0.00    -0.078 C  
HETATM   36  H   UNL     1     -10.175  11.288  67.256  1.00  0.00     0.000 HD 
BRANCH  35  37
HETATM   37  C   UNL     1     -10.639  12.207  64.911  1.00  0.00    -0.332 A  
HETATM   38  C   UNL     1     -11.440  13.315  65.273  1.00  0.00    -0.319 A  
HETATM   39  C   UNL     1     -12.759  13.314  64.764  1.00  0.00    -0.338 A  
HETATM   40  C   UNL     1     -11.135  11.187  64.067  1.00  0.00    -0.173 A  
HETATM   41  C   UNL     1     -12.438  11.226  63.590  1.00  0.00     0.547 A  
HETATM   42  C   UNL     1     -13.258  12.284  63.951  1.00  0.00     0.016 A  
BRANCH  38  43
HETATM   43  C   UNL     1     -11.004  14.455  66.140  1.00  0.00    -0.320 A  
HETATM   44  C   UNL     1     -11.571  14.708  67.399  1.00  0.00    -0.408 A  
HETATM   45  C   UNL     1     -10.147  16.655  67.761  1.00  0.00    -0.275 A  
HETATM   46  C   UNL     1     -11.164  15.794  68.191  1.00  0.00    -0.344 A  
HETATM   47  C   UNL     1      -9.725  17.852  68.578  1.00  0.00    -0.351 C  
HETATM   48  C   UNL     1      -9.534  16.389  66.534  1.00  0.00    -0.296 A  
HETATM   49  C   UNL     1      -9.963  15.318  65.738  1.00  0.00    -0.391 A  
HETATM   50  F   UNL     1     -10.442  18.016  69.724  1.00  0.00    -0.150 F  
HETATM   51  F   UNL     1      -9.849  19.023  67.890  1.00  0.00    -0.319 F  
HETATM   52  F   UNL     1      -8.419  17.788  68.962  1.00  0.00    -0.252 F  
ENDBRANCH  38  43
ENDBRANCH  35  37
ENDBRANCH  28  33
ENDBRANCH  26  27
ENDBRANCH  25  26
ENDBRANCH  24  25
ENDBRANCH  23  24
ENDBRANCH  10  23
ENDBRANCH   7  10
ENDBRANCH   3   6
TORSDOF 10
ENDMDL
MODEL      108
REMARK 921   NORMALIZED FREE ENERGY PREDICTED BY IDOCK:   -1.88 KCAL/MOL
REMARK 922        TOTAL FREE ENERGY PREDICTED BY IDOCK:   -6.08 KCAL/MOL
REMARK 923 INTER-LIGAND FREE ENERGY PREDICTED BY IDOCK:   -3.42 KCAL/MOL
REMARK 924 INTRA-LIGAND FREE ENERGY PREDICTED BY IDOCK:   -2.66 KCAL/MOL
REMARK 927      BINDING AFFINITY PREDICTED BY RF-SCORE:    0.00 PKD
ROOT
HETATM    1  F   UNL     1      -7.199   9.812  68.853  1.00  0.00    -0.066 F  
HETATM    2  C   UNL     1      -7.851   9.124  69.816  1.00  0.00    -0.088 C  
HETATM    3  C   UNL     1      -8.824   8.082  69.241  1.00  0.00    -0.141 C  
HETATM    4  F   UNL     1      -8.478  10.014  70.614  1.00  0.00    -0.149 F  
HETATM    5  F   UNL     1      -6.905   8.508  70.569  1.00  0.00    -0.035 F  
ENDROOT
BRANCH   3   6
HETATM    6  N   UNL     1      -8.934   8.030  67.783  1.00  0.00    -0.132 N  
HETATM    7  C   UNL     1      -8.348   7.007  67.062  1.00  0.00    -0.121 C  
HETATM    8  H   UNL     1      -9.450   8.759  67.291  1.00  0.00     0.000 HD 
HETATM    9  O   UNL     1      -7.666   6.151  67.628  1.00  0.00    -0.095 OA 
BRANCH   7  10
HETATM   10  C   UNL     1      -8.603   7.007  65.533  1.00  0.00    -0.091 C  
HETATM   11  C   UNL     1      -9.164   5.664  65.043  1.00  0.00     0.221 A  
HETATM   12  C   UNL     1      -5.154   6.930  63.000  1.00  0.00    -0.031 A  
HETATM   13  C   UNL     1     -10.371   5.063  65.374  1.00  0.00     0.083 A  
HETATM   14  C   UNL     1      -7.159   5.977  63.892  1.00  0.00    -0.053 A  
HETATM   15  C   UNL     1     -10.720   3.884  64.715  1.00  0.00    -0.092 A  
HETATM   16  C   UNL     1      -5.281   8.030  63.863  1.00  0.00    -0.041 A  
HETATM   17  C   UNL     1      -9.866   3.321  63.751  1.00  0.00    -0.154 A  
HETATM   18  C   UNL     1      -6.091   5.890  63.015  1.00  0.00    -0.021 A  
HETATM   19  C   UNL     1      -7.286   7.092  64.750  1.00  0.00    -0.072 A  
HETATM   20  C   UNL     1      -8.647   3.928  63.429  1.00  0.00    -0.096 A  
HETATM   21  C   UNL     1      -6.351   8.117  64.753  1.00  0.00    -0.049 A  
HETATM   22  C   UNL     1      -8.301   5.103  64.074  1.00  0.00    -0.132 A  
BRANCH  10  23
HETATM   23  C   UNL     1      -9.545   8.177  65.144  1.00  0.00     0.999 C  
BRANCH  23  24
HETATM   24  C   UNL     1      -9.483   8.610  63.668  1.00  0.00     1.734 C  
BRANCH  24  25
HETATM   25  C   UNL     1      -9.566  10.133  63.554  1.00  0.00    -0.249 C  
BRANCH  25  26
HETATM   26  C   UNL     1      -8.596  10.860  64.494  1.00  0.00     0.034 C  
BRANCH  26  27
HETATM   27  N   UNL     1      -9.114  11.098  65.850  1.00  0.00    -0.200 NA 
HETATM   28  C   UNL     1      -9.712  13.988  66.144  1.00  0.00    -0.280 C  
HETATM   29  C   UNL     1     -10.603  13.047  65.327  1.00  0.00    -0.320 C  
HETATM   30  C   UNL     1      -8.287  13.436  66.264  1.00  0.00     0.847 C  
HETATM   31  C   UNL     1      -8.270  11.964  66.681  1.00  0.00    -0.088 C  
HETATM   32  C   UNL     1     -10.494  11.605  65.817  1.00  0.00    -0.263 C  
BRANCH  28  33
HETATM   33  N   UNL     1     -10.290  14.266  67.456  1.00  0.00    -0.247 N  
HETATM   34  O   UNL     1     -11.911  15.703  66.672  1.00  0.00     0.245 OA 
HETATM   35  C   UNL     1     -11.349  15.144  67.605  1.00  0.00    -0.321 C  
HETATM   36  H   UNL     1      -9.905  13.802  68.279  1.00  0.00     0.000 HD 
BRANCH  35  37
HETATM   37  C   UNL     1     -11.740  15.434  69.006  1.00  0.00    -0.380 A  
HETATM   38  C   UNL     1     -11.067  16.366  69.829  1.00  0.00    -0.305 A  
HETATM   39  C   UNL     1     -11.461  16.387  71.186  1.00  0.00    -0.252 A  
HETATM   40  C   UNL     1     -12.763  14.604  69.521  1.00  0.00     0.104 A  
HETATM   41  C   UNL     1     -13.117  14.657  70.862  1.00  0.00    -0.416 A  
HETATM   42  C   UNL     1     -12.455  15.540  71.701  1.00  0.00    -0.473 A  
BRANCH  38  43
HETATM   43  C   UNL     1      -9.990  17.304  69.378  1.00  0.00    -0.036 A  
HETATM   44  C   UNL     1     -10.242  18.649  69.062  1.00  0.00    -0.176 A  
HETATM   45  C   UNL     1      -7.903  19.062  68.509  1.00  0.00    -0.375 A  
HETATM   46  C   UNL     1      -9.224  19.510  68.621  1.00  0.00    -0.410 A  
HETATM   47  C   UNL     1      -6.803  19.959  67.997  1.00  0.00    -0.274 C  
HETATM   48  C   UNL     1      -7.622  17.741  68.869  1.00  0.00    -0.223 A  
HETATM   49  C   UNL     1      -8.648  16.880  69.284  1.00  0.00     0.073 A  
HETATM   50  F   UNL     1      -7.230  21.201  67.636  1.00  0.00    -0.374 F  
HETATM   51  F   UNL     1      -6.180  19.446  66.898  1.00  0.00    -0.180 F  
HETATM   52  F   UNL     1      -5.819  20.158  68.919  1.00  0.00    -0.259 F  
ENDBRANCH  38  43
ENDBRANCH  35  37
ENDBRANCH  28  33
ENDBRANCH  26  27
ENDBRANCH  25  26
ENDBRANCH  24  25
ENDBRANCH  23  24
ENDBRANCH  10  23
ENDBRANCH   7  10
ENDBRANCH   3   6
TORSDOF 10
ENDMDL
MODEL      109
REMARK 921   NORMALIZED FREE ENERGY PREDICTED BY IDOCK:   -1.80 KCAL/MOL
REMARK 922        TOTAL FREE ENERGY PREDICTED BY IDOCK:   -5.96 KCAL/MOL
REMARK 923 INTER-LIGAND FREE ENERGY PREDICTED BY IDOCK:   -5.24 KCAL/MOL
REMARK 924 INTRA-LIGAND FREE ENERGY PREDICTED BY IDOCK:   -0.73 KCAL/MOL
REMARK 927      BINDING AFFINITY PREDICTED BY RF-SCORE:    0.00 PKD
ROOT
HETATM    1  F   UNL     1      -6.131  12.768  68.631  1.00  0.00    -0.060 F  
HETATM    2  C   UNL     1      -6.615  12.708  69.892  1.00  0.00     0.133 C  
HETATM    3  C   UNL     1      -7.314  14.008  70.318  1.00  0.00     0.861 C  
HETATM    4  F   UNL     1      -5.594  12.389  70.716  1.00  0.00    -0.138 F  
HETATM    5  F   UNL     1      -7.494  11.675  69.928  1.00  0.00     0.117 F  
ENDROOT
BRANCH   3   6
HETATM    6  N   UNL     1      -7.306  15.101  69.345  1.00  0.00    -0.190 N  
HETATM    7  C   UNL     1      -8.324  16.034  69.316  1.00  0.00    -0.217 C  
HETATM    8  H   UNL     1      -6.537  15.174  68.679  1.00  0.00     0.000 HD 
HETATM    9  O   UNL     1      -9.294  15.928  70.068  1.00  0.00     0.020 OA 
BRANCH   7  10
HETATM   10  C   UNL     1      -8.166  17.194  68.301  1.00  0.00    -0.230 C  
HETATM   11  C   UNL     1      -7.209  18.281  68.814  1.00  0.00    -0.291 A  
HETATM   12  C   UNL     1     -11.513  19.821  67.833  1.00  0.00     0.959 A  
HETATM   13  C   UNL     1      -5.853  18.171  69.096  1.00  0.00    -0.218 A  
HETATM   14  C   UNL     1      -9.259  19.343  68.478  1.00  0.00    -0.429 A  
HETATM   15  C   UNL     1      -5.161  19.329  69.449  1.00  0.00    -0.184 A  
HETATM   16  C   UNL     1     -11.721  18.468  67.521  1.00  0.00     1.655 A  
HETATM   17  C   UNL     1      -5.822  20.567  69.523  1.00  0.00    -0.387 A  
HETATM   18  C   UNL     1     -10.279  20.266  68.322  1.00  0.00    -0.373 A  
HETATM   19  C   UNL     1      -9.473  17.985  68.152  1.00  0.00    -0.292 A  
HETATM   20  C   UNL     1      -7.190  20.668  69.246  1.00  0.00     0.630 A  
HETATM   21  C   UNL     1     -10.699  17.534  67.684  1.00  0.00    -0.306 A  
HETATM   22  C   UNL     1      -7.880  19.523  68.887  1.00  0.00    -0.349 A  
BRANCH  10  23
HETATM   23  C   UNL     1      -7.699  16.649  66.926  1.00  0.00    -0.263 C  
BRANCH  23  24
HETATM   24  C   UNL     1      -8.120  15.202  66.613  1.00  0.00     0.002 C  
BRANCH  24  25
HETATM   25  C   UNL     1      -9.602  15.144  66.241  1.00  0.00    -0.325 C  
BRANCH  25  26
HETATM   26  C   UNL     1     -10.057  13.747  65.801  1.00  0.00    -0.307 C  
BRANCH  26  27
HETATM   27  N   UNL     1     -10.648  12.926  66.870  1.00  0.00    -0.252 NA 
HETATM   28  C   UNL     1     -10.222  10.065  66.216  1.00  0.00    -0.215 C  
HETATM   29  C   UNL     1      -9.090  10.967  66.720  1.00  0.00    -0.172 C  
HETATM   30  C   UNL     1     -11.340  10.889  65.568  1.00  0.00     0.361 C  
HETATM   31  C   UNL     1     -11.763  12.075  66.438  1.00  0.00    -0.252 C  
HETATM   32  C   UNL     1      -9.627  12.124  67.559  1.00  0.00    -0.179 C  
BRANCH  28  33
HETATM   33  N   UNL     1     -10.737   9.209  67.281  1.00  0.00    -0.350 N  
HETATM   34  O   UNL     1      -8.667   8.664  68.133  1.00  0.00    -0.139 OA 
HETATM   35  C   UNL     1      -9.885   8.547  68.149  1.00  0.00    -0.165 C  
HETATM   36  H   UNL     1     -11.745   9.097  67.388  1.00  0.00     0.000 HD 
BRANCH  35  37
HETATM   37  C   UNL     1     -10.542   7.607  69.089  1.00  0.00    -0.195 A  
HETATM   38  C   UNL     1     -11.306   8.023  70.203  1.00  0.00    -0.081 A  
HETATM   39  C   UNL     1     -11.709   6.999  71.091  1.00  0.00    -0.366 A  
HETATM   40  C   UNL     1     -10.235   6.243  68.877  1.00  0.00    -0.219 A  
HETATM   41  C   UNL     1     -10.650   5.271  69.775  1.00  0.00    -0.283 A  
HETATM   42  C   UNL     1     -11.376   5.650  70.894  1.00  0.00     0.019 A  
BRANCH  38  43
HETATM   43  C   UNL     1     -11.704   9.435  70.505  1.00  0.00    -0.254 A  
HETATM   44  C   UNL     1     -12.898   9.758  71.170  1.00  0.00    -0.434 A  
HETATM   45  C   UNL     1     -12.432  12.150  71.055  1.00  0.00    -0.369 A  
HETATM   46  C   UNL     1     -13.266  11.089  71.427  1.00  0.00    -0.326 A  
HETATM   47  C   UNL     1     -12.828  13.587  71.286  1.00  0.00    -0.338 C  
HETATM   48  C   UNL     1     -11.214  11.846  70.440  1.00  0.00     0.593 A  
HETATM   49  C   UNL     1     -10.865  10.516  70.163  1.00  0.00    -0.291 A  
HETATM   50  F   UNL     1     -14.061  13.735  71.845  1.00  0.00    -0.452 F  
HETATM   51  F   UNL     1     -12.855  14.313  70.131  1.00  0.00    -0.384 F  
HETATM   52  F   UNL     1     -11.964  14.242  72.111  1.00  0.00    -0.308 F  
ENDBRANCH  38  43
ENDBRANCH  35  37
ENDBRANCH  28  33
ENDBRANCH  26  27
ENDBRANCH  25  26
ENDBRANCH  24  25
ENDBRANCH  23  24
ENDBRANCH  10  23
ENDBRANCH   7  10
ENDBRANCH   3   6
TORSDOF 10
ENDMDL
MODEL      110
REMARK 921   NORMALIZED FREE ENERGY PREDICTED BY IDOCK:   -1.69 KCAL/MOL
REMARK 922        TOTAL FREE ENERGY PREDICTED BY IDOCK:   -5.78 KCAL/MOL
REMARK 923 INTER-LIGAND FREE ENERGY PREDICTED BY IDOCK:   -6.75 KCAL/MOL
REMARK 924 INTRA-LIGAND FREE ENERGY PREDICTED BY IDOCK:    0.97 KCAL/MOL
REMARK 927      BINDING AFFINITY PREDICTED BY RF-SCORE:    0.00 PKD
ROOT
HETATM    1  F   UNL     1     -12.885  12.441  70.337  1.00  0.00    -0.169 F  
HETATM    2  C   UNL     1     -12.442  11.248  70.791  1.00  0.00    -0.376 C  
HETATM    3  C   UNL     1     -11.055  10.885  70.239  1.00  0.00    -0.093 C  
HETATM    4  F   UNL     1     -13.368  10.315  70.486  1.00  0.00    -0.419 F  
HETATM    5  F   UNL     1     -12.392  11.335  72.145  1.00  0.00    -0.132 F  
ENDROOT
BRANCH   3   6
HETATM    6  N   UNL     1     -10.464  11.830  69.291  1.00  0.00    -0.426 N  
HETATM    7  C   UNL     1     -10.601  11.650  67.928  1.00  0.00    -0.193 C  
HETATM    8  H   UNL     1      -9.943  12.634  69.642  1.00  0.00     0.000 HD 
HETATM    9  O   UNL     1     -11.169  10.653  67.482  1.00  0.00    -0.316 OA 
BRANCH   7  10
HETATM   10  C   UNL     1     -10.008  12.760  67.024  1.00  0.00    -0.231 C  
HETATM   11  C   UNL     1     -10.370  14.166  67.525  1.00  0.00    -0.248 A  
HETATM   12  C   UNL     1     -11.785  13.258  63.162  1.00  0.00     0.039 A  
HETATM   13  C   UNL     1     -10.013  14.771  68.723  1.00  0.00    -0.234 A  
HETATM   14  C   UNL     1     -11.255  14.008  65.372  1.00  0.00    -0.319 A  
HETATM   15  C   UNL     1     -10.371  16.106  68.915  1.00  0.00    -0.250 A  
HETATM   16  C   UNL     1     -11.203  12.010  63.435  1.00  0.00    -0.481 A  
HETATM   17  C   UNL     1     -11.079  16.809  67.925  1.00  0.00    -0.178 A  
HETATM   18  C   UNL     1     -11.821  14.265  64.135  1.00  0.00    -0.338 A  
HETATM   19  C   UNL     1     -10.661  12.753  65.635  1.00  0.00    -0.297 A  
HETATM   20  C   UNL     1     -11.443  16.189  66.725  1.00  0.00     0.453 A  
HETATM   21  C   UNL     1     -10.638  11.745  64.682  1.00  0.00    -0.359 A  
HETATM   22  C   UNL     1     -11.083  14.867  66.526  1.00  0.00    -0.341 A  
BRANCH  10  23
HETATM   23  C   UNL     1      -8.470  12.594  66.904  1.00  0.00    -0.118 C  
BRANCH  23  24
HETATM   24  C   UNL     1      -7.852  11.509  67.804  1.00  0.00    -0.126 C  
BRANCH  24  25
HETATM   25  C   UNL     1      -7.578  10.238  66.999  1.00  0.00    -0.099 C  
BRANCH  25  26
HETATM   26  C   UNL     1      -8.794   9.306  66.916  1.00  0.00    -0.127 C  
BRANCH  26  27
HETATM   27  N   UNL     1      -8.595   7.978  67.518  1.00  0.00    -0.126 NA 
HETATM   28  C   UNL     1      -7.834   8.327  70.363  1.00  0.00    -0.089 C  
HETATM   29  C   UNL     1      -9.267   8.544  69.866  1.00  0.00    -0.154 C  
HETATM   30  C   UNL     1      -6.821   8.497  69.223  1.00  0.00    -0.050 C  
HETATM   31  C   UNL     1      -7.224   7.714  67.972  1.00  0.00    -0.097 C  
HETATM   32  C   UNL     1      -9.552   7.731  68.605  1.00  0.00    -0.154 C  
BRANCH  28  33
HETATM   33  N   UNL     1      -7.686   7.032  71.021  1.00  0.00    -0.090 N  
HETATM   34  O   UNL     1      -5.661   7.526  72.002  1.00  0.00    -0.036 OA 
HETATM   35  C   UNL     1      -6.567   6.734  71.779  1.00  0.00    -0.050 C  
HETATM   36  H   UNL     1      -8.422   6.334  70.920  1.00  0.00     0.000 HD 
BRANCH  35  37
HETATM   37  C   UNL     1      -6.489   5.338  72.272  1.00  0.00    -0.051 A  
HETATM   38  C   UNL     1      -6.483   4.208  71.422  1.00  0.00    -0.019 A  
HETATM   39  C   UNL     1      -6.583   2.953  72.064  1.00  0.00    -0.015 A  
HETATM   40  C   UNL     1      -6.561   5.198  73.677  1.00  0.00    -0.072 A  
HETATM   41  C   UNL     1      -6.659   3.946  74.266  1.00  0.00    -0.044 A  
HETATM   42  C   UNL     1      -6.686   2.820  73.458  1.00  0.00    -0.023 A  
BRANCH  38  43
HETATM   43  C   UNL     1      -6.387   4.246  69.928  1.00  0.00    -0.028 A  
HETATM   44  C   UNL     1      -5.597   5.185  69.245  1.00  0.00    -0.008 A  
HETATM   45  C   UNL     1      -6.239   4.289  67.068  1.00  0.00    -0.036 A  
HETATM   46  C   UNL     1      -5.534   5.219  67.842  1.00  0.00    -0.012 A  
HETATM   47  C   UNL     1      -6.217   4.336  65.560  1.00  0.00    -0.027 C  
HETATM   48  C   UNL     1      -6.989   3.314  67.731  1.00  0.00    -0.050 A  
HETATM   49  C   UNL     1      -7.067   3.302  69.131  1.00  0.00    -0.048 A  
HETATM   50  F   UNL     1      -5.489   5.369  65.052  1.00  0.00    -0.012 F  
HETATM   51  F   UNL     1      -7.465   4.462  65.024  1.00  0.00    -0.068 F  
HETATM   52  F   UNL     1      -5.693   3.205  65.010  1.00  0.00    -0.015 F  
ENDBRANCH  38  43
ENDBRANCH  35  37
ENDBRANCH  28  33
ENDBRANCH  26  27
ENDBRANCH  25  26
ENDBRANCH  24  25
ENDBRANCH  23  24
ENDBRANCH  10  23
ENDBRANCH   7  10
ENDBRANCH   3   6
TORSDOF 10
ENDMDL
MODEL      111
REMARK 921   NORMALIZED FREE ENERGY PREDICTED BY IDOCK:   -1.67 KCAL/MOL
REMARK 922        TOTAL FREE ENERGY PREDICTED BY IDOCK:   -5.75 KCAL/MOL
REMARK 923 INTER-LIGAND FREE ENERGY PREDICTED BY IDOCK:   -3.98 KCAL/MOL
REMARK 924 INTRA-LIGAND FREE ENERGY PREDICTED BY IDOCK:   -1.77 KCAL/MOL
REMARK 927      BINDING AFFINITY PREDICTED BY RF-SCORE:    0.00 PKD
ROOT
HETATM    1  F   UNL     1     -11.095   8.595  70.490  1.00  0.00    -0.232 F  
HETATM    2  C   UNL     1     -12.407   8.548  70.813  1.00  0.00     0.057 C  
HETATM    3  C   UNL     1     -13.229   9.634  70.101  1.00  0.00     0.770 C  
HETATM    4  F   UNL     1     -12.510   8.635  72.156  1.00  0.00    -0.344 F  
HETATM    5  F   UNL     1     -12.857   7.318  70.457  1.00  0.00    -0.189 F  
ENDROOT
BRANCH   3   6
HETATM    6  N   UNL     1     -12.483  10.560  69.248  1.00  0.00    -0.440 N  
HETATM    7  C   UNL     1     -11.510  11.386  69.778  1.00  0.00    -0.300 C  
HETATM    8  H   UNL     1     -12.684  10.596  68.249  1.00  0.00     0.000 HD 
HETATM    9  O   UNL     1     -11.296  11.406  70.990  1.00  0.00     0.542 OA 
BRANCH   7  10
HETATM   10  C   UNL     1     -10.726  12.262  68.768  1.00  0.00    -0.247 C  
HETATM   11  C   UNL     1     -11.099  13.748  68.884  1.00  0.00    -0.300 A  
HETATM   12  C   UNL     1     -11.827  11.910  64.647  1.00  0.00    -0.282 A  
HETATM   13  C   UNL     1     -10.913  14.600  69.964  1.00  0.00    -0.149 A  
HETATM   14  C   UNL     1     -11.629  13.125  66.698  1.00  0.00    -0.403 A  
HETATM   15  C   UNL     1     -11.234  15.948  69.799  1.00  0.00    -0.339 A  
HETATM   16  C   UNL     1     -11.356  10.748  65.277  1.00  0.00     0.549 A  
HETATM   17  C   UNL     1     -11.738  16.421  68.576  1.00  0.00     0.020 A  
HETATM   18  C   UNL     1     -11.974  13.107  65.357  1.00  0.00    -0.448 A  
HETATM   19  C   UNL     1     -11.145  11.954  67.324  1.00  0.00    -0.344 A  
HETATM   20  C   UNL     1     -11.931  15.554  67.494  1.00  0.00     0.294 A  
HETATM   21  C   UNL     1     -11.015  10.760  66.629  1.00  0.00    -0.173 A  
HETATM   22  C   UNL     1     -11.606  14.218  67.650  1.00  0.00    -0.396 A  
BRANCH  10  23
HETATM   23  C   UNL     1      -9.199  12.059  68.948  1.00  0.00     0.178 C  
BRANCH  23  24
HETATM   24  C   UNL     1      -8.310  13.141  68.310  1.00  0.00    -0.152 C  
BRANCH  24  25
HETATM   25  C   UNL     1      -7.330  12.513  67.319  1.00  0.00    -0.113 C  
BRANCH  25  26
HETATM   26  C   UNL     1      -7.972  11.430  66.444  1.00  0.00    -0.088 C  
BRANCH  26  27
HETATM   27  N   UNL     1      -7.052  10.371  65.998  1.00  0.00    -0.127 NA 
HETATM   28  C   UNL     1      -8.500   7.784  66.014  1.00  0.00    -0.139 C  
HETATM   29  C   UNL     1      -8.741   8.850  64.941  1.00  0.00    -0.184 C  
HETATM   30  C   UNL     1      -7.933   8.406  67.296  1.00  0.00    -0.105 C  
HETATM   31  C   UNL     1      -6.762   9.350  67.010  1.00  0.00    -0.076 C  
HETATM   32  C   UNL     1      -7.517   9.743  64.753  1.00  0.00    -0.130 C  
BRANCH  28  33
HETATM   33  N   UNL     1      -7.645   6.709  65.518  1.00  0.00    -0.083 N  
HETATM   34  O   UNL     1      -9.381   5.348  64.855  1.00  0.00     0.050 OA 
HETATM   35  C   UNL     1      -8.181   5.546  64.995  1.00  0.00    -0.139 C  
HETATM   36  H   UNL     1      -6.631   6.819  65.558  1.00  0.00     0.000 HD 
BRANCH  35  37
HETATM   37  C   UNL     1      -7.197   4.488  64.659  1.00  0.00    -0.063 A  
HETATM   38  C   UNL     1      -6.320   3.908  65.604  1.00  0.00    -0.032 A  
HETATM   39  C   UNL     1      -5.330   3.047  65.078  1.00  0.00    -0.009 A  
HETATM   40  C   UNL     1      -7.093   4.189  63.281  1.00  0.00    -0.045 A  
HETATM   41  C   UNL     1      -6.105   3.337  62.808  1.00  0.00    -0.014 A  
HETATM   42  C   UNL     1      -5.211   2.776  63.706  1.00  0.00    -0.008 A  
BRANCH  38  43
HETATM   43  C   UNL     1      -6.360   4.140  67.083  1.00  0.00    -0.040 A  
HETATM   44  C   UNL     1      -7.544   4.039  67.832  1.00  0.00    -0.067 A  
HETATM   45  C   UNL     1      -6.395   4.602  69.909  1.00  0.00    -0.027 A  
HETATM   46  C   UNL     1      -7.568   4.280  69.215  1.00  0.00    -0.054 A  
HETATM   47  C   UNL     1      -6.407   4.904  71.387  1.00  0.00    -0.026 C  
HETATM   48  C   UNL     1      -5.197   4.655  69.190  1.00  0.00    -0.004 A  
HETATM   49  C   UNL     1      -5.186   4.439  67.804  1.00  0.00    -0.011 A  
HETATM   50  F   UNL     1      -7.648   4.866  71.946  1.00  0.00    -0.084 F  
HETATM   51  F   UNL     1      -5.910   6.143  71.670  1.00  0.00    -0.027 F  
HETATM   52  F   UNL     1      -5.647   4.030  72.106  1.00  0.00    -0.006 F  
ENDBRANCH  38  43
ENDBRANCH  35  37
ENDBRANCH  28  33
ENDBRANCH  26  27
ENDBRANCH  25  26
ENDBRANCH  24  25
ENDBRANCH  23  24
ENDBRANCH  10  23
ENDBRANCH   7  10
ENDBRANCH   3   6
TORSDOF 10
ENDMDL
MODEL      112
REMARK 921   NORMALIZED FREE ENERGY PREDICTED BY IDOCK:   -0.68 KCAL/MOL
REMARK 922        TOTAL FREE ENERGY PREDICTED BY IDOCK:   -4.18 KCAL/MOL
REMARK 923 INTER-LIGAND FREE ENERGY PREDICTED BY IDOCK:   -5.95 KCAL/MOL
REMARK 924 INTRA-LIGAND FREE ENERGY PREDICTED BY IDOCK:    1.77 KCAL/MOL
REMARK 927      BINDING AFFINITY PREDICTED BY RF-SCORE:    0.00 PKD
ROOT
HETATM    1  F   UNL     1      -8.237  10.613  70.069  1.00  0.00    -0.083 F  
HETATM    2  C   UNL     1      -6.904  10.718  69.877  1.00  0.00    -0.146 C  
HETATM    3  C   UNL     1      -6.298   9.455  69.245  1.00  0.00    -0.044 C  
HETATM    4  F   UNL     1      -6.333  11.012  71.065  1.00  0.00    -0.012 F  
HETATM    5  F   UNL     1      -6.704  11.784  69.063  1.00  0.00    -0.072 F  
ENDROOT
BRANCH   3   6
HETATM    6  N   UNL     1      -7.218   8.344  69.002  1.00  0.00    -0.068 N  
HETATM    7  C   UNL     1      -7.544   7.457  70.011  1.00  0.00    -0.089 C  
HETATM    8  H   UNL     1      -7.624   8.222  68.075  1.00  0.00     0.000 HD 
HETATM    9  O   UNL     1      -7.015   7.546  71.119  1.00  0.00    -0.053 OA 
BRANCH   7  10
HETATM   10  C   UNL     1      -8.594   6.372  69.661  1.00  0.00    -0.134 C  
HETATM   11  C   UNL     1      -9.913   6.583  70.418  1.00  0.00    -0.202 A  
HETATM   12  C   UNL     1      -7.893   2.440  71.199  1.00  0.00    -0.043 A  
HETATM   13  C   UNL     1     -10.797   7.651  70.328  1.00  0.00    -0.253 A  
HETATM   14  C   UNL     1      -9.139   4.477  71.059  1.00  0.00    -0.185 A  
HETATM   15  C   UNL     1     -11.995   7.572  71.037  1.00  0.00    -0.317 A  
HETATM   16  C   UNL     1      -6.920   2.963  70.333  1.00  0.00    -0.034 A  
HETATM   17  C   UNL     1     -12.291   6.447  71.825  1.00  0.00    -0.259 A  
HETATM   18  C   UNL     1      -9.007   3.199  71.574  1.00  0.00    -0.151 A  
HETATM   19  C   UNL     1      -8.162   4.994  70.179  1.00  0.00    -0.081 A  
HETATM   20  C   UNL     1     -11.392   5.379  71.919  1.00  0.00    -0.058 A  
HETATM   21  C   UNL     1      -7.045   4.253  69.817  1.00  0.00    -0.049 A  
HETATM   22  C   UNL     1     -10.204   5.448  71.210  1.00  0.00    -0.287 A  
BRANCH  10  23
HETATM   23  C   UNL     1      -8.835   6.328  68.129  1.00  0.00    -0.113 C  
BRANCH  23  24
HETATM   24  C   UNL     1      -9.874   7.331  67.597  1.00  0.00    -0.189 C  
BRANCH  24  25
HETATM   25  C   UNL     1      -9.181   8.575  67.039  1.00  0.00    -0.187 C  
BRANCH  25  26
HETATM   26  C   UNL     1     -10.166   9.667  66.603  1.00  0.00    -0.232 C  
BRANCH  26  27
HETATM   27  N   UNL     1     -10.326  10.771  67.562  1.00  0.00    -0.196 NA 
HETATM   28  C   UNL     1     -10.924  13.256  66.059  1.00  0.00    -0.279 C  
HETATM   29  C   UNL     1     -11.963  12.147  66.254  1.00  0.00    -0.213 C  
HETATM   30  C   UNL     1      -9.498  12.708  66.190  1.00  0.00    -0.177 C  
HETATM   31  C   UNL     1      -9.326  11.837  67.436  1.00  0.00    -0.174 C  
HETATM   32  C   UNL     1     -11.684  11.333  67.514  1.00  0.00    -0.082 C  
BRANCH  28  33
HETATM   33  N   UNL     1     -11.154  14.371  66.973  1.00  0.00    -0.305 N  
HETATM   34  O   UNL     1      -8.963  14.532  67.664  1.00  0.00    -0.180 OA 
HETATM   35  C   UNL     1     -10.127  14.903  67.734  1.00  0.00    -0.234 C  
HETATM   36  H   UNL     1     -12.091  14.767  67.053  1.00  0.00     0.000 HD 
BRANCH  35  37
HETATM   37  C   UNL     1     -10.533  15.936  68.717  1.00  0.00    -0.237 A  
HETATM   38  C   UNL     1      -9.956  17.225  68.779  1.00  0.00    -0.325 A  
HETATM   39  C   UNL     1     -10.336  18.017  69.887  1.00  0.00     0.822 A  
HETATM   40  C   UNL     1     -11.455  15.496  69.694  1.00  0.00    -0.337 A  
HETATM   41  C   UNL     1     -11.800  16.307  70.766  1.00  0.00    -0.148 A  
HETATM   42  C   UNL     1     -11.228  17.565  70.872  1.00  0.00     1.919 A  
BRANCH  38  43
HETATM   43  C   UNL     1      -8.991  17.794  67.786  1.00  0.00    -0.249 A  
HETATM   44  C   UNL     1      -7.985  17.022  67.182  1.00  0.00    -0.214 A  
HETATM   45  C   UNL     1      -7.159  18.924  65.897  1.00  0.00    -0.294 A  
HETATM   46  C   UNL     1      -7.075  17.576  66.267  1.00  0.00    -0.340 A  
HETATM   47  C   UNL     1      -6.166  19.547  64.947  1.00  0.00    -0.279 C  
HETATM   48  C   UNL     1      -8.186  19.695  66.447  1.00  0.00    -0.356 A  
HETATM   49  C   UNL     1      -9.075  19.141  67.379  1.00  0.00    -0.333 A  
HETATM   50  F   UNL     1      -5.191  18.692  64.532  1.00  0.00    -0.189 F  
HETATM   51  F   UNL     1      -5.516  20.613  65.498  1.00  0.00    -0.197 F  
HETATM   52  F   UNL     1      -6.754  20.021  63.813  1.00  0.00    -0.011 F  
ENDBRANCH  38  43
ENDBRANCH  35  37
ENDBRANCH  28  33
ENDBRANCH  26  27
ENDBRANCH  25  26
ENDBRANCH  24  25
ENDBRANCH  23  24
ENDBRANCH  10  23
ENDBRANCH   7  10
ENDBRANCH   3   6
TORSDOF 10
ENDMDL
MODEL      113
REMARK 921   NORMALIZED FREE ENERGY PREDICTED BY IDOCK:   -0.54 KCAL/MOL
REMARK 922        TOTAL FREE ENERGY PREDICTED BY IDOCK:   -3.96 KCAL/MOL
REMARK 923 INTER-LIGAND FREE ENERGY PREDICTED BY IDOCK:   -3.62 KCAL/MOL
REMARK 924 INTRA-LIGAND FREE ENERGY PREDICTED BY IDOCK:   -0.34 KCAL/MOL
REMARK 927      BINDING AFFINITY PREDICTED BY RF-SCORE:    0.00 PKD
ROOT
HETATM    1  F   UNL     1     -11.677  19.078  66.528  1.00  0.00     0.511 F  
HETATM    2  C   UNL     1     -10.426  19.546  66.322  1.00  0.00    -0.512 C  
HETATM    3  C   UNL     1      -9.349  18.476  66.562  1.00  0.00    -0.313 C  
HETATM    4  F   UNL     1     -10.249  20.627  67.112  1.00  0.00    -0.563 F  
HETATM    5  F   UNL     1     -10.373  19.977  65.037  1.00  0.00    -0.224 F  
ENDROOT
BRANCH   3   6
HETATM    6  N   UNL     1      -9.822  17.167  67.013  1.00  0.00    -0.266 N  
HETATM    7  C   UNL     1     -10.479  16.312  66.150  1.00  0.00    -0.322 C  
HETATM    8  H   UNL     1      -9.663  16.882  67.980  1.00  0.00     0.000 HD 
HETATM    9  O   UNL     1     -10.738  16.662  64.997  1.00  0.00    -0.677 OA 
BRANCH   7  10
HETATM   10  C   UNL     1     -10.857  14.919  66.714  1.00  0.00    -0.320 C  
HETATM   11  C   UNL     1      -9.626  14.149  67.218  1.00  0.00    -0.234 A  
HETATM   12  C   UNL     1     -12.037  11.941  63.876  1.00  0.00    -0.505 A  
HETATM   13  C   UNL     1      -8.769  14.482  68.259  1.00  0.00    -0.173 A  
HETATM   14  C   UNL     1     -10.563  12.827  65.539  1.00  0.00    -0.303 A  
HETATM   15  C   UNL     1      -7.775  13.568  68.607  1.00  0.00    -0.093 A  
HETATM   16  C   UNL     1     -12.823  13.102  63.939  1.00  0.00     0.051 A  
HETATM   17  C   UNL     1      -7.645  12.351  67.917  1.00  0.00    -0.130 A  
HETATM   18  C   UNL     1     -10.895  11.799  64.673  1.00  0.00    -0.363 A  
HETATM   19  C   UNL     1     -11.365  13.989  65.604  1.00  0.00    -0.313 A  
HETATM   20  C   UNL     1      -8.506  12.027  66.863  1.00  0.00    -0.172 A  
HETATM   21  C   UNL     1     -12.488  14.143  64.804  1.00  0.00    -0.395 A  
HETATM   22  C   UNL     1      -9.500  12.927  66.519  1.00  0.00    -0.251 A  
BRANCH  10  23
HETATM   23  C   UNL     1     -11.918  15.061  67.836  1.00  0.00    -0.140 C  
BRANCH  23  24
HETATM   24  C   UNL     1     -11.871  16.382  68.625  1.00  0.00     0.138 C  
BRANCH  24  25
HETATM   25  C   UNL     1     -11.293  16.152  70.021  1.00  0.00    -0.332 C  
BRANCH  25  26
HETATM   26  C   UNL     1     -12.360  16.164  71.123  1.00  0.00    -0.084 C  
BRANCH  26  27
HETATM   27  N   UNL     1     -12.515  14.891  71.845  1.00  0.00    -0.318 NA 
HETATM   28  C   UNL     1     -11.766  12.670  70.029  1.00  0.00    -0.215 C  
HETATM   29  C   UNL     1     -10.723  13.591  70.669  1.00  0.00     2.150 C  
HETATM   30  C   UNL     1     -13.137  13.353  69.956  1.00  0.00     0.660 C  
HETATM   31  C   UNL     1     -13.534  13.995  71.288  1.00  0.00    -0.240 C  
HETATM   32  C   UNL     1     -11.231  14.189  71.979  1.00  0.00     2.000 C  
BRANCH  28  33
HETATM   33  N   UNL     1     -11.844  11.387  70.722  1.00  0.00    -0.410 N  
HETATM   34  O   UNL     1     -13.554  10.551  69.424  1.00  0.00     0.881 OA 
HETATM   35  C   UNL     1     -12.777  10.430  70.362  1.00  0.00    -0.218 C  
HETATM   36  H   UNL     1     -11.198  11.193  71.486  1.00  0.00     0.000 HD 
BRANCH  35  37
HETATM   37  C   UNL     1     -12.832   9.236  71.240  1.00  0.00    -0.354 A  
HETATM   38  C   UNL     1     -11.802   8.269  71.309  1.00  0.00    -0.319 A  
HETATM   39  C   UNL     1     -12.097   7.109  72.061  1.00  0.00    -0.329 A  
HETATM   40  C   UNL     1     -14.062   9.048  71.912  1.00  0.00    -0.404 A  
HETATM   41  C   UNL     1     -14.309   7.892  72.638  1.00  0.00     0.088 A  
HETATM   42  C   UNL     1     -13.330   6.913  72.701  1.00  0.00     0.799 A  
BRANCH  38  43
HETATM   43  C   UNL     1     -10.460   8.382  70.656  1.00  0.00    -0.227 A  
HETATM   44  C   UNL     1      -9.417   9.151  71.198  1.00  0.00    -0.331 A  
HETATM   45  C   UNL     1      -7.909   8.577  69.368  1.00  0.00    -0.098 A  
HETATM   46  C   UNL     1      -8.170   9.262  70.561  1.00  0.00    -0.219 A  
HETATM   47  C   UNL     1      -6.591   8.716  68.648  1.00  0.00    -0.055 C  
HETATM   48  C   UNL     1      -8.917   7.765  68.841  1.00  0.00    -0.141 A  
HETATM   49  C   UNL     1     -10.168   7.679  69.468  1.00  0.00    -0.209 A  
HETATM   50  F   UNL     1      -5.725   9.579  69.247  1.00  0.00    -0.035 F  
HETATM   51  F   UNL     1      -6.740   9.168  67.369  1.00  0.00    -0.065 F  
HETATM   52  F   UNL     1      -5.924   7.532  68.544  1.00  0.00    -0.024 F  
ENDBRANCH  38  43
ENDBRANCH  35  37
ENDBRANCH  28  33
ENDBRANCH  26  27
ENDBRANCH  25  26
ENDBRANCH  24  25
ENDBRANCH  23  24
ENDBRANCH  10  23
ENDBRANCH   7  10
ENDBRANCH   3   6
TORSDOF 10
ENDMDL
MODEL      114
REMARK 921   NORMALIZED FREE ENERGY PREDICTED BY IDOCK:   -0.50 KCAL/MOL
REMARK 922        TOTAL FREE ENERGY PREDICTED BY IDOCK:   -3.89 KCAL/MOL
REMARK 923 INTER-LIGAND FREE ENERGY PREDICTED BY IDOCK:   -8.71 KCAL/MOL
REMARK 924 INTRA-LIGAND FREE ENERGY PREDICTED BY IDOCK:    4.82 KCAL/MOL
REMARK 927      BINDING AFFINITY PREDICTED BY RF-SCORE:    0.00 PKD
ROOT
HETATM    1  F   UNL     1     -12.960  11.613  70.186  1.00  0.00    -0.083 F  
HETATM    2  C   UNL     1     -12.820  10.390  70.745  1.00  0.00    -0.364 C  
HETATM    3  C   UNL     1     -11.467   9.742  70.414  1.00  0.00    -0.280 C  
HETATM    4  F   UNL     1     -13.859   9.626  70.344  1.00  0.00    -0.148 F  
HETATM    5  F   UNL     1     -12.939  10.554  72.087  1.00  0.00    -0.522 F  
ENDROOT
BRANCH   3   6
HETATM    6  N   UNL     1     -10.582  10.498  69.527  1.00  0.00    -0.237 N  
HETATM    7  C   UNL     1     -11.057  11.050  68.352  1.00  0.00    -0.251 C  
HETATM    8  H   UNL     1      -9.602  10.620  69.780  1.00  0.00     0.000 HD 
HETATM    9  O   UNL     1     -12.220  10.861  67.995  1.00  0.00    -0.422 OA 
BRANCH   7  10
HETATM   10  C   UNL     1     -10.051  11.902  67.537  1.00  0.00    -0.206 C  
HETATM   11  C   UNL     1     -10.317  13.407  67.690  1.00  0.00    -0.238 A  
HETATM   12  C   UNL     1     -10.495  11.864  63.280  1.00  0.00    -0.427 A  
HETATM   13  C   UNL     1     -10.240  14.183  68.839  1.00  0.00    -0.181 A  
HETATM   14  C   UNL     1     -10.534  12.949  65.412  1.00  0.00    -0.308 A  
HETATM   15  C   UNL     1     -10.421  15.561  68.714  1.00  0.00    -0.234 A  
HETATM   16  C   UNL     1     -10.227  10.633  63.900  1.00  0.00    -0.306 A  
HETATM   17  C   UNL     1     -10.679  16.140  67.460  1.00  0.00    -0.304 A  
HETATM   18  C   UNL     1     -10.657  13.031  64.036  1.00  0.00    -0.371 A  
HETATM   19  C   UNL     1     -10.254  11.708  66.028  1.00  0.00    -0.270 A  
HETATM   20  C   UNL     1     -10.764  15.351  66.308  1.00  0.00    -0.312 A  
HETATM   21  C   UNL     1     -10.110  10.544  65.287  1.00  0.00    -0.369 A  
HETATM   22  C   UNL     1     -10.578  13.984  66.425  1.00  0.00    -0.280 A  
BRANCH  10  23
HETATM   23  C   UNL     1      -8.595  11.553  67.942  1.00  0.00    -0.143 C  
BRANCH  23  24
HETATM   24  C   UNL     1      -8.435  10.894  69.323  1.00  0.00    -0.006 C  
BRANCH  24  25
HETATM   25  C   UNL     1      -6.965  10.573  69.596  1.00  0.00    -0.135 C  
BRANCH  25  26
HETATM   26  C   UNL     1      -6.456   9.366  68.797  1.00  0.00    -0.048 C  
BRANCH  26  27
HETATM   27  N   UNL     1      -6.280   8.135  69.584  1.00  0.00    -0.033 NA 
HETATM   28  C   UNL     1      -8.907   7.346  70.712  1.00  0.00    -0.149 C  
HETATM   29  C   UNL     1      -8.562   7.157  69.231  1.00  0.00    -0.137 C  
HETATM   30  C   UNL     1      -8.049   8.448  71.344  1.00  0.00    -0.162 C  
HETATM   31  C   UNL     1      -6.563   8.282  71.017  1.00  0.00    -0.040 C  
HETATM   32  C   UNL     1      -7.056   7.021  69.020  1.00  0.00    -0.084 C  
BRANCH  28  33
HETATM   33  N   UNL     1      -8.797   6.092  71.451  1.00  0.00    -0.136 N  
HETATM   34  O   UNL     1      -6.495   6.028  71.414  1.00  0.00    -0.046 OA 
HETATM   35  C   UNL     1      -7.565   5.519  71.717  1.00  0.00    -0.095 C  
HETATM   36  H   UNL     1      -9.645   5.629  71.778  1.00  0.00     0.000 HD 
BRANCH  35  37
HETATM   37  C   UNL     1      -7.612   4.180  72.353  1.00  0.00    -0.073 A  
HETATM   38  C   UNL     1      -7.894   2.988  71.646  1.00  0.00    -0.056 A  
HETATM   39  C   UNL     1      -8.073   1.831  72.437  1.00  0.00    -0.052 A  
HETATM   40  C   UNL     1      -7.492   4.187  73.762  1.00  0.00    -0.076 A  
HETATM   41  C   UNL     1      -7.677   3.026  74.499  1.00  0.00    -0.056 A  
HETATM   42  C   UNL     1      -7.983   1.847  73.838  1.00  0.00    -0.046 A  
BRANCH  38  43
HETATM   43  C   UNL     1      -8.018   2.870  70.159  1.00  0.00    -0.052 A  
HETATM   44  C   UNL     1      -9.247   2.641  69.518  1.00  0.00    -0.197 A  
HETATM   45  C   UNL     1      -8.210   2.640  67.310  1.00  0.00    -0.082 A  
HETATM   46  C   UNL     1      -9.343   2.512  68.123  1.00  0.00    -0.261 A  
HETATM   47  C   UNL     1      -8.285   2.464  65.814  1.00  0.00    -0.088 C  
HETATM   48  C   UNL     1      -6.986   2.920  67.925  1.00  0.00    -0.049 A  
HETATM   49  C   UNL     1      -6.894   3.022  69.320  1.00  0.00    -0.037 A  
HETATM   50  F   UNL     1      -9.529   2.143  65.360  1.00  0.00    -0.122 F  
HETATM   51  F   UNL     1      -7.459   1.477  65.362  1.00  0.00    -0.052 F  
HETATM   52  F   UNL     1      -7.920   3.588  65.136  1.00  0.00    -0.083 F  
ENDBRANCH  38  43
ENDBRANCH  35  37
ENDBRANCH  28  33
ENDBRANCH  26  27
ENDBRANCH  25  26
ENDBRANCH  24  25
ENDBRANCH  23  24
ENDBRANCH  10  23
ENDBRANCH   7  10
ENDBRANCH   3   6
TORSDOF 10
ENDMDL
MODEL      115
REMARK 921   NORMALIZED FREE ENERGY PREDICTED BY IDOCK:    0.16 KCAL/MOL
REMARK 922        TOTAL FREE ENERGY PREDICTED BY IDOCK:   -2.85 KCAL/MOL
REMARK 923 INTER-LIGAND FREE ENERGY PREDICTED BY IDOCK:   -2.20 KCAL/MOL
REMARK 924 INTRA-LIGAND FREE ENERGY PREDICTED BY IDOCK:   -0.65 KCAL/MOL
REMARK 927      BINDING AFFINITY PREDICTED BY RF-SCORE:    0.00 PKD
ROOT
HETATM    1  F   UNL     1      -8.785  13.770  69.720  1.00  0.00     0.685 F  
HETATM    2  C   UNL     1      -8.052  13.123  68.787  1.00  0.00     0.073 C  
HETATM    3  C   UNL     1      -7.803  13.979  67.535  1.00  0.00    -0.184 C  
HETATM    4  F   UNL     1      -8.681  11.966  68.490  1.00  0.00    -0.161 F  
HETATM    5  F   UNL     1      -6.870  12.799  69.369  1.00  0.00    -0.107 F  
ENDROOT
BRANCH   3   6
HETATM    6  N   UNL     1      -8.421  15.305  67.520  1.00  0.00    -0.167 N  
HETATM    7  C   UNL     1      -7.880  16.334  66.773  1.00  0.00    -0.265 C  
HETATM    8  H   UNL     1      -9.264  15.473  68.069  1.00  0.00     0.000 HD 
HETATM    9  O   UNL     1      -6.827  16.172  66.154  1.00  0.00     0.243 OA 
BRANCH   7  10
HETATM   10  C   UNL     1      -8.668  17.668  66.764  1.00  0.00    -0.277 C  
HETATM   11  C   UNL     1      -7.746  18.879  66.557  1.00  0.00    -0.274 A  
HETATM   12  C   UNL     1     -10.230  19.011  70.516  1.00  0.00     1.610 A  
HETATM   13  C   UNL     1      -6.962  19.186  65.453  1.00  0.00    -0.175 A  
HETATM   14  C   UNL     1      -8.786  19.213  68.619  1.00  0.00    -0.394 A  
HETATM   15  C   UNL     1      -6.286  20.406  65.447  1.00  0.00    -0.280 A  
HETATM   16  C   UNL     1     -10.692  17.771  70.045  1.00  0.00     1.111 A  
HETATM   17  C   UNL     1      -6.392  21.292  66.533  1.00  0.00    -0.314 A  
HETATM   18  C   UNL     1      -9.266  19.737  69.807  1.00  0.00     0.516 A  
HETATM   19  C   UNL     1      -9.263  17.970  68.146  1.00  0.00    -0.283 A  
HETATM   20  C   UNL     1      -7.176  20.971  67.647  1.00  0.00    -0.260 A  
HETATM   21  C   UNL     1     -10.205  17.236  68.853  1.00  0.00    -0.349 A  
HETATM   22  C   UNL     1      -7.857  19.765  67.654  1.00  0.00    -0.326 A  
BRANCH  10  23
HETATM   23  C   UNL     1      -9.782  17.630  65.686  1.00  0.00     0.270 C  
BRANCH  23  24
HETATM   24  C   UNL     1      -9.880  16.319  64.885  1.00  0.00     0.986 C  
BRANCH  24  25
HETATM   25  C   UNL     1     -11.119  15.527  65.303  1.00  0.00    -0.344 C  
BRANCH  25  26
HETATM   26  C   UNL     1     -11.579  14.526  64.236  1.00  0.00    -0.238 C  
BRANCH  26  27
HETATM   27  N   UNL     1     -10.622  13.445  63.951  1.00  0.00    -0.160 NA 
HETATM   28  C   UNL     1     -11.541  10.977  65.316  1.00  0.00     0.666 C  
HETATM   29  C   UNL     1     -12.220  11.516  64.053  1.00  0.00    -0.033 C  
HETATM   30  C   UNL     1     -10.799  12.092  66.063  1.00  0.00    -0.318 C  
HETATM   31  C   UNL     1      -9.919  12.927  65.130  1.00  0.00    -0.157 C  
HETATM   32  C   UNL     1     -11.257  12.347  63.208  1.00  0.00    -0.309 C  
BRANCH  28  33
HETATM   33  N   UNL     1     -10.655   9.857  65.010  1.00  0.00     0.145 N  
HETATM   34  O   UNL     1      -9.552   9.905  67.032  1.00  0.00    -0.164 OA 
HETATM   35  C   UNL     1      -9.696   9.431  65.913  1.00  0.00    -0.285 C  
HETATM   36  H   UNL     1     -10.745   9.380  64.114  1.00  0.00     0.000 HD 
BRANCH  35  37
HETATM   37  C   UNL     1      -8.779   8.377  65.415  1.00  0.00    -0.175 A  
HETATM   38  C   UNL     1      -8.386   7.256  66.182  1.00  0.00    -0.133 A  
HETATM   39  C   UNL     1      -7.373   6.449  65.618  1.00  0.00    -0.080 A  
HETATM   40  C   UNL     1      -8.203   8.640  64.150  1.00  0.00    -0.156 A  
HETATM   41  C   UNL     1      -7.209   7.820  63.635  1.00  0.00    -0.082 A  
HETATM   42  C   UNL     1      -6.781   6.730  64.376  1.00  0.00    -0.042 A  
BRANCH  38  43
HETATM   43  C   UNL     1      -8.949   6.878  67.517  1.00  0.00    -0.116 A  
HETATM   44  C   UNL     1      -8.480   7.432  68.719  1.00  0.00    -0.129 A  
HETATM   45  C   UNL     1     -10.046   6.118  70.051  1.00  0.00    -0.228 A  
HETATM   46  C   UNL     1      -9.005   7.051  69.965  1.00  0.00    -0.142 A  
HETATM   47  C   UNL     1     -10.595   5.664  71.381  1.00  0.00    -0.253 C  
HETATM   48  C   UNL     1     -10.561   5.594  68.862  1.00  0.00    -0.303 A  
HETATM   49  C   UNL     1     -10.015   5.961  67.624  1.00  0.00    -0.159 A  
HETATM   50  F   UNL     1      -9.964   6.217  72.454  1.00  0.00    -0.172 F  
HETATM   51  F   UNL     1     -10.502   4.314  71.551  1.00  0.00    -0.222 F  
HETATM   52  F   UNL     1     -11.916   5.964  71.531  1.00  0.00    -0.292 F  
ENDBRANCH  38  43
ENDBRANCH  35  37
ENDBRANCH  28  33
ENDBRANCH  26  27
ENDBRANCH  25  26
ENDBRANCH  24  25
ENDBRANCH  23  24
ENDBRANCH  10  23
ENDBRANCH   7  10
ENDBRANCH   3   6
TORSDOF 10
ENDMDL
MODEL      116
REMARK 921   NORMALIZED FREE ENERGY PREDICTED BY IDOCK:    0.35 KCAL/MOL
REMARK 922        TOTAL FREE ENERGY PREDICTED BY IDOCK:   -2.55 KCAL/MOL
REMARK 923 INTER-LIGAND FREE ENERGY PREDICTED BY IDOCK:   -5.79 KCAL/MOL
REMARK 924 INTRA-LIGAND FREE ENERGY PREDICTED BY IDOCK:    3.24 KCAL/MOL
REMARK 927      BINDING AFFINITY PREDICTED BY RF-SCORE:    0.00 PKD
ROOT
HETATM    1  F   UNL     1     -12.194  14.694  72.049  1.00  0.00    -0.354 F  
HETATM    2  C   UNL     1     -12.982  13.667  71.661  1.00  0.00    -0.362 C  
HETATM    3  C   UNL     1     -12.427  12.927  70.435  1.00  0.00    -0.173 C  
HETATM    4  F   UNL     1     -14.222  14.154  71.439  1.00  0.00    -0.408 F  
HETATM    5  F   UNL     1     -13.069  12.817  72.715  1.00  0.00    -0.437 F  
ENDROOT
BRANCH   3   6
HETATM    6  N   UNL     1     -11.193  13.460  69.857  1.00  0.00    -0.482 N  
HETATM    7  C   UNL     1     -11.071  13.649  68.493  1.00  0.00    -0.275 C  
HETATM    8  H   UNL     1     -10.412  13.696  70.469  1.00  0.00     0.000 HD 
HETATM    9  O   UNL     1     -11.977  13.311  67.730  1.00  0.00    -0.349 OA 
BRANCH   7  10
HETATM   10  C   UNL     1      -9.753  14.300  68.003  1.00  0.00    -0.223 C  
HETATM   11  C   UNL     1      -8.600  14.081  68.994  1.00  0.00     0.161 A  
HETATM   12  C   UNL     1      -9.552  18.574  68.118  1.00  0.00    -0.353 A  
HETATM   13  C   UNL     1      -8.015  12.884  69.383  1.00  0.00     0.826 A  
HETATM   14  C   UNL     1      -8.861  16.393  68.819  1.00  0.00    -0.246 A  
HETATM   15  C   UNL     1      -6.900  12.940  70.221  1.00  0.00     0.886 A  
HETATM   16  C   UNL     1     -10.549  18.009  67.307  1.00  0.00    -0.358 A  
HETATM   17  C   UNL     1      -6.394  14.175  70.660  1.00  0.00    -0.053 A  
HETATM   18  C   UNL     1      -8.704  17.767  68.886  1.00  0.00    -0.118 A  
HETATM   19  C   UNL     1      -9.860  15.831  67.993  1.00  0.00    -0.217 A  
HETATM   20  C   UNL     1      -6.995  15.377  70.272  1.00  0.00     0.185 A  
HETATM   21  C   UNL     1     -10.715  16.626  67.243  1.00  0.00    -0.227 A  
HETATM   22  C   UNL     1      -8.096  15.327  69.434  1.00  0.00    -0.230 A  
BRANCH  10  23
HETATM   23  C   UNL     1      -9.380  13.770  66.594  1.00  0.00    -0.277 C  
BRANCH  23  24
HETATM   24  C   UNL     1     -10.486  12.978  65.874  1.00  0.00    -0.293 C  
BRANCH  24  25
HETATM   25  C   UNL     1     -10.858  11.729  66.674  1.00  0.00    -0.318 C  
BRANCH  25  26
HETATM   26  C   UNL     1      -9.640  11.008  67.263  1.00  0.00    -0.165 C  
BRANCH  26  27
HETATM   27  N   UNL     1      -8.910  10.154  66.313  1.00  0.00    -0.146 NA 
HETATM   28  C   UNL     1      -9.131   7.334  67.206  1.00  0.00    -0.123 C  
HETATM   29  C   UNL     1     -10.300   8.081  66.555  1.00  0.00    -0.144 C  
HETATM   30  C   UNL     1      -8.133   8.312  67.839  1.00  0.00    -0.127 C  
HETATM   31  C   UNL     1      -7.757   9.450  66.888  1.00  0.00    -0.091 C  
HETATM   32  C   UNL     1      -9.809   9.204  65.643  1.00  0.00    -0.094 C  
BRANCH  28  33
HETATM   33  N   UNL     1      -8.474   6.439  66.259  1.00  0.00    -0.126 N  
HETATM   34  O   UNL     1     -10.256   4.992  66.066  1.00  0.00    -0.216 OA 
HETATM   35  C   UNL     1      -9.106   5.303  65.784  1.00  0.00    -0.157 C  
HETATM   36  H   UNL     1      -7.529   6.655  65.940  1.00  0.00     0.000 HD 
BRANCH  35  37
HETATM   37  C   UNL     1      -8.270   4.417  64.939  1.00  0.00    -0.104 A  
HETATM   38  C   UNL     1      -7.217   3.620  65.444  1.00  0.00    -0.067 A  
HETATM   39  C   UNL     1      -6.412   2.976  64.477  1.00  0.00    -0.031 A  
HETATM   40  C   UNL     1      -8.505   4.526  63.549  1.00  0.00    -0.114 A  
HETATM   41  C   UNL     1      -7.690   3.877  62.633  1.00  0.00    -0.061 A  
HETATM   42  C   UNL     1      -6.631   3.112  63.097  1.00  0.00    -0.027 A  
BRANCH  38  43
HETATM   43  C   UNL     1      -6.898   3.420  66.894  1.00  0.00    -0.053 A  
HETATM   44  C   UNL     1      -6.241   2.275  67.372  1.00  0.00    -0.027 A  
HETATM   45  C   UNL     1      -6.316   3.073  69.676  1.00  0.00    -0.029 A  
HETATM   46  C   UNL     1      -5.967   2.093  68.738  1.00  0.00    -0.024 A  
HETATM   47  C   UNL     1      -6.068   2.878  71.152  1.00  0.00    -0.018 C  
HETATM   48  C   UNL     1      -6.923   4.243  69.213  1.00  0.00    -0.050 A  
HETATM   49  C   UNL     1      -7.216   4.406  67.851  1.00  0.00    -0.065 A  
HETATM   50  F   UNL     1      -5.519   1.672  71.463  1.00  0.00    -0.003 F  
HETATM   51  F   UNL     1      -7.212   2.967  71.889  1.00  0.00    -0.035 F  
HETATM   52  F   UNL     1      -5.224   3.816  71.668  1.00  0.00     0.000 F  
ENDBRANCH  38  43
ENDBRANCH  35  37
ENDBRANCH  28  33
ENDBRANCH  26  27
ENDBRANCH  25  26
ENDBRANCH  24  25
ENDBRANCH  23  24
ENDBRANCH  10  23
ENDBRANCH   7  10
ENDBRANCH   3   6
TORSDOF 10
ENDMDL
MODEL      117
REMARK 921   NORMALIZED FREE ENERGY PREDICTED BY IDOCK:    0.45 KCAL/MOL
REMARK 922        TOTAL FREE ENERGY PREDICTED BY IDOCK:   -2.39 KCAL/MOL
REMARK 923 INTER-LIGAND FREE ENERGY PREDICTED BY IDOCK:   -8.24 KCAL/MOL
REMARK 924 INTRA-LIGAND FREE ENERGY PREDICTED BY IDOCK:    5.86 KCAL/MOL
REMARK 927      BINDING AFFINITY PREDICTED BY RF-SCORE:    0.00 PKD
ROOT
HETATM    1  F   UNL     1     -12.455  10.218  69.101  1.00  0.00    -0.072 F  
HETATM    2  C   UNL     1     -12.755  10.833  70.267  1.00  0.00    -0.216 C  
HETATM    3  C   UNL     1     -11.962  10.263  71.454  1.00  0.00    -0.327 C  
HETATM    4  F   UNL     1     -14.088  10.740  70.458  1.00  0.00     0.681 F  
HETATM    5  F   UNL     1     -12.464  12.148  70.105  1.00  0.00    -0.302 F  
ENDROOT
BRANCH   3   6
HETATM    6  N   UNL     1     -11.070   9.141  71.163  1.00  0.00    -0.293 N  
HETATM    7  C   UNL     1     -10.106   9.237  70.178  1.00  0.00    -0.213 C  
HETATM    8  H   UNL     1     -11.162   8.276  71.695  1.00  0.00     0.000 HD 
HETATM    9  O   UNL     1     -10.021  10.248  69.480  1.00  0.00    -0.223 OA 
BRANCH   7  10
HETATM   10  C   UNL     1      -9.163   8.018  70.016  1.00  0.00    -0.156 C  
HETATM   11  C   UNL     1      -9.363   7.310  68.668  1.00  0.00    -0.138 A  
HETATM   12  C   UNL     1     -10.040   4.570  72.395  1.00  0.00    -0.243 A  
HETATM   13  C   UNL     1      -9.145   7.811  67.391  1.00  0.00    -0.138 A  
HETATM   14  C   UNL     1      -9.826   5.711  70.303  1.00  0.00    -0.254 A  
HETATM   15  C   UNL     1      -9.293   6.941  66.311  1.00  0.00    -0.144 A  
HETATM   16  C   UNL     1      -9.751   5.757  73.085  1.00  0.00    -0.162 A  
HETATM   17  C   UNL     1      -9.660   5.600  66.514  1.00  0.00    -0.171 A  
HETATM   18  C   UNL     1     -10.087   4.541  70.996  1.00  0.00    -0.222 A  
HETATM   19  C   UNL     1      -9.525   6.901  71.004  1.00  0.00    -0.163 A  
HETATM   20  C   UNL     1      -9.887   5.104  67.802  1.00  0.00    -0.196 A  
HETATM   21  C   UNL     1      -9.494   6.940  72.391  1.00  0.00    -0.153 A  
HETATM   22  C   UNL     1      -9.733   5.962  68.879  1.00  0.00    -0.168 A  
BRANCH  10  23
HETATM   23  C   UNL     1      -7.685   8.451  70.200  1.00  0.00    -0.083 C  
BRANCH  23  24
HETATM   24  C   UNL     1      -6.638   7.356  69.927  1.00  0.00    -0.043 C  
BRANCH  24  25
HETATM   25  C   UNL     1      -5.542   7.882  69.000  1.00  0.00    -0.030 C  
BRANCH  25  26
HETATM   26  C   UNL     1      -5.923   9.195  68.304  1.00  0.00    -0.045 C  
BRANCH  26  27
HETATM   27  N   UNL     1      -6.943   9.990  69.004  1.00  0.00    -0.054 NA 
HETATM   28  C   UNL     1      -7.171  12.629  67.671  1.00  0.00    -0.142 C  
HETATM   29  C   UNL     1      -7.740  11.348  67.053  1.00  0.00    -0.154 C  
HETATM   30  C   UNL     1      -6.044  12.313  68.662  1.00  0.00    -0.057 C  
HETATM   31  C   UNL     1      -6.433  11.208  69.646  1.00  0.00    -0.128 C  
HETATM   32  C   UNL     1      -8.074  10.310  68.122  1.00  0.00    -0.110 C  
BRANCH  28  33
HETATM   33  N   UNL     1      -8.219  13.434  68.293  1.00  0.00    -0.156 N  
HETATM   34  O   UNL     1      -8.612  14.738  66.435  1.00  0.00    -0.144 OA 
HETATM   35  C   UNL     1      -8.841  14.462  67.605  1.00  0.00    -0.193 C  
HETATM   36  H   UNL     1      -8.499  13.234  69.253  1.00  0.00     0.000 HD 
BRANCH  35  37
HETATM   37  C   UNL     1      -9.785  15.280  68.405  1.00  0.00    -0.213 A  
HETATM   38  C   UNL     1      -9.757  16.693  68.441  1.00  0.00    -0.243 A  
HETATM   39  C   UNL     1     -10.610  17.302  69.389  1.00  0.00    -0.079 A  
HETATM   40  C   UNL     1     -10.642  14.541  69.252  1.00  0.00    -0.224 A  
HETATM   41  C   UNL     1     -11.463  15.180  70.170  1.00  0.00    -0.313 A  
HETATM   42  C   UNL     1     -11.437  16.564  70.250  1.00  0.00     0.019 A  
BRANCH  38  43
HETATM   43  C   UNL     1      -8.906  17.568  67.573  1.00  0.00    -0.229 A  
HETATM   44  C   UNL     1      -9.381  18.761  67.005  1.00  0.00    -0.313 A  
HETATM   45  C   UNL     1      -7.247  19.206  65.910  1.00  0.00    -0.293 A  
HETATM   46  C   UNL     1      -8.576  19.559  66.176  1.00  0.00    -0.326 A  
HETATM   47  C   UNL     1      -6.379  20.028  64.989  1.00  0.00    -0.280 C  
HETATM   48  C   UNL     1      -6.740  18.050  66.508  1.00  0.00    -0.243 A  
HETATM   49  C   UNL     1      -7.558  17.244  67.314  1.00  0.00    -0.204 A  
HETATM   50  F   UNL     1      -7.019  21.096  64.437  1.00  0.00    -0.204 F  
HETATM   51  F   UNL     1      -5.897  19.302  63.940  1.00  0.00    -0.302 F  
HETATM   52  F   UNL     1      -5.283  20.537  65.620  1.00  0.00    -0.184 F  
ENDBRANCH  38  43
ENDBRANCH  35  37
ENDBRANCH  28  33
ENDBRANCH  26  27
ENDBRANCH  25  26
ENDBRANCH  24  25
ENDBRANCH  23  24
ENDBRANCH  10  23
ENDBRANCH   7  10
ENDBRANCH   3   6
TORSDOF 10
ENDMDL
MODEL      118
REMARK 921   NORMALIZED FREE ENERGY PREDICTED BY IDOCK:    0.53 KCAL/MOL
REMARK 922        TOTAL FREE ENERGY PREDICTED BY IDOCK:   -2.26 KCAL/MOL
REMARK 923 INTER-LIGAND FREE ENERGY PREDICTED BY IDOCK:   -5.78 KCAL/MOL
REMARK 924 INTRA-LIGAND FREE ENERGY PREDICTED BY IDOCK:    3.52 KCAL/MOL
REMARK 927      BINDING AFFINITY PREDICTED BY RF-SCORE:    0.00 PKD
ROOT
HETATM    1  F   UNL     1      -9.678   6.278  69.381  1.00  0.00    -0.139 F  
HETATM    2  C   UNL     1     -10.089   5.383  68.456  1.00  0.00    -0.177 C  
HETATM    3  C   UNL     1     -10.216   5.999  67.054  1.00  0.00    -0.205 C  
HETATM    4  F   UNL     1     -11.254   4.848  68.881  1.00  0.00     0.387 F  
HETATM    5  F   UNL     1      -9.172   4.383  68.440  1.00  0.00    -0.128 F  
ENDROOT
BRANCH   3   6
HETATM    6  N   UNL     1      -9.934   7.431  66.945  1.00  0.00    -0.218 N  
HETATM    7  C   UNL     1      -9.234   7.937  65.866  1.00  0.00    -0.042 C  
HETATM    8  H   UNL     1     -10.257   8.064  67.676  1.00  0.00     0.000 HD 
HETATM    9  O   UNL     1      -8.778   7.183  65.005  1.00  0.00     0.037 OA 
BRANCH   7  10
HETATM   10  C   UNL     1      -9.069   9.477  65.813  1.00  0.00    -0.243 C  
HETATM   11  C   UNL     1      -7.610   9.907  66.025  1.00  0.00    -0.106 A  
HETATM   12  C   UNL     1     -10.611  11.699  69.130  1.00  0.00    -0.147 A  
HETATM   13  C   UNL     1      -6.507   9.632  65.228  1.00  0.00    -0.083 A  
HETATM   14  C   UNL     1      -8.827  10.907  67.747  1.00  0.00    -0.135 A  
HETATM   15  C   UNL     1      -5.289  10.224  65.566  1.00  0.00    -0.079 A  
HETATM   16  C   UNL     1     -11.533  10.937  68.395  1.00  0.00    -0.374 A  
HETATM   17  C   UNL     1      -5.187  11.067  66.685  1.00  0.00    -0.088 A  
HETATM   18  C   UNL     1      -9.247  11.682  68.814  1.00  0.00    -0.042 A  
HETATM   19  C   UNL     1      -9.762  10.151  67.005  1.00  0.00    -0.224 A  
HETATM   20  C   UNL     1      -6.301  11.332  67.489  1.00  0.00    -0.068 A  
HETATM   21  C   UNL     1     -11.113  10.149  67.324  1.00  0.00    -0.166 A  
HETATM   22  C   UNL     1      -7.513  10.754  67.153  1.00  0.00    -0.102 A  
BRANCH  10  23
HETATM   23  C   UNL     1      -9.621  10.033  64.474  1.00  0.00    -0.346 C  
BRANCH  23  24
HETATM   24  C   UNL     1     -10.341  11.390  64.571  1.00  0.00    -0.369 C  
BRANCH  24  25
HETATM   25  C   UNL     1     -11.739  11.300  63.959  1.00  0.00     0.176 C  
BRANCH  25  26
HETATM   26  C   UNL     1     -12.696  12.376  64.486  1.00  0.00    -0.314 C  
BRANCH  26  27
HETATM   27  N   UNL     1     -12.126  13.257  65.517  1.00  0.00    -0.408 NA 
HETATM   28  C   UNL     1     -11.141  15.733  64.215  1.00  0.00     0.020 C  
HETATM   29  C   UNL     1     -12.633  15.458  64.429  1.00  0.00     0.196 C  
HETATM   30  C   UNL     1     -10.335  14.428  64.197  1.00  0.00     1.007 C  
HETATM   31  C   UNL     1     -10.689  13.514  65.372  1.00  0.00    -0.304 C  
HETATM   32  C   UNL     1     -12.867  14.523  65.613  1.00  0.00    -0.090 C  
BRANCH  28  33
HETATM   33  N   UNL     1     -10.621  16.668  65.209  1.00  0.00    -0.285 N  
HETATM   34  O   UNL     1     -10.698  15.176  66.962  1.00  0.00    -0.295 OA 
HETATM   35  C   UNL     1     -10.470  16.300  66.534  1.00  0.00    -0.290 C  
HETATM   36  H   UNL     1     -10.365  17.612  64.920  1.00  0.00     0.000 HD 
BRANCH  35  37
HETATM   37  C   UNL     1     -10.064  17.390  67.454  1.00  0.00    -0.321 A  
HETATM   38  C   UNL     1     -10.424  17.435  68.820  1.00  0.00    -0.333 A  
HETATM   39  C   UNL     1     -10.104  18.630  69.503  1.00  0.00     0.243 A  
HETATM   40  C   UNL     1      -9.399  18.474  66.834  1.00  0.00    -0.294 A  
HETATM   41  C   UNL     1      -9.105  19.630  67.543  1.00  0.00    -0.396 A  
HETATM   42  C   UNL     1      -9.471  19.716  68.877  1.00  0.00    -0.380 A  
BRANCH  38  43
HETATM   43  C   UNL     1     -11.107  16.336  69.574  1.00  0.00    -0.330 A  
HETATM   44  C   UNL     1     -12.504  16.196  69.605  1.00  0.00     0.506 A  
HETATM   45  C   UNL     1     -12.374  14.226  71.038  1.00  0.00    -0.431 A  
HETATM   46  C   UNL     1     -13.130  15.172  70.335  1.00  0.00    -0.232 A  
HETATM   47  C   UNL     1     -13.028  13.143  71.861  1.00  0.00    -0.314 C  
HETATM   48  C   UNL     1     -10.981  14.317  70.976  1.00  0.00     0.885 A  
HETATM   49  C   UNL     1     -10.364  15.358  70.267  1.00  0.00    -0.205 A  
HETATM   50  F   UNL     1     -14.388  13.207  71.872  1.00  0.00    -0.257 F  
HETATM   51  F   UNL     1     -12.644  13.178  73.169  1.00  0.00     0.167 F  
HETATM   52  F   UNL     1     -12.717  11.891  71.420  1.00  0.00    -0.447 F  
ENDBRANCH  38  43
ENDBRANCH  35  37
ENDBRANCH  28  33
ENDBRANCH  26  27
ENDBRANCH  25  26
ENDBRANCH  24  25
ENDBRANCH  23  24
ENDBRANCH  10  23
ENDBRANCH   7  10
ENDBRANCH   3   6
TORSDOF 10
ENDMDL
MODEL      119
REMARK 921   NORMALIZED FREE ENERGY PREDICTED BY IDOCK:    0.56 KCAL/MOL
REMARK 922        TOTAL FREE ENERGY PREDICTED BY IDOCK:   -2.22 KCAL/MOL
REMARK 923 INTER-LIGAND FREE ENERGY PREDICTED BY IDOCK:   -6.86 KCAL/MOL
REMARK 924 INTRA-LIGAND FREE ENERGY PREDICTED BY IDOCK:    4.64 KCAL/MOL
REMARK 927      BINDING AFFINITY PREDICTED BY RF-SCORE:    0.00 PKD
ROOT
HETATM    1  F   UNL     1     -10.233   4.225  67.908  1.00  0.00    -0.145 F  
HETATM    2  C   UNL     1      -9.367   3.413  67.261  1.00  0.00    -0.201 C  
HETATM    3  C   UNL     1      -8.005   3.322  67.965  1.00  0.00    -0.070 C  
HETATM    4  F   UNL     1      -9.251   3.855  65.990  1.00  0.00    -0.128 F  
HETATM    5  F   UNL     1      -9.943   2.186  67.206  1.00  0.00     0.096 F  
ENDROOT
BRANCH   3   6
HETATM    6  N   UNL     1      -7.836   4.143  69.165  1.00  0.00    -0.057 N  
HETATM    7  C   UNL     1      -8.773   4.119  70.180  1.00  0.00    -0.074 C  
HETATM    8  H   UNL     1      -7.015   4.741  69.252  1.00  0.00     0.000 HD 
HETATM    9  O   UNL     1      -9.804   3.453  70.066  1.00  0.00    -0.113 OA 
BRANCH   7  10
HETATM   10  C   UNL     1      -8.447   4.962  71.438  1.00  0.00    -0.120 C  
HETATM   11  C   UNL     1      -7.382   6.032  71.154  1.00  0.00    -0.084 A  
HETATM   12  C   UNL     1      -6.225   3.023  74.539  1.00  0.00    -0.016 A  
HETATM   13  C   UNL     1      -7.460   7.116  70.289  1.00  0.00    -0.085 A  
HETATM   14  C   UNL     1      -6.489   4.671  72.826  1.00  0.00    -0.038 A  
HETATM   15  C   UNL     1      -6.400   8.023  70.277  1.00  0.00    -0.036 A  
HETATM   16  C   UNL     1      -7.472   2.468  74.213  1.00  0.00    -0.042 A  
HETATM   17  C   UNL     1      -5.285   7.835  71.112  1.00  0.00    -0.026 A  
HETATM   18  C   UNL     1      -5.721   4.126  73.841  1.00  0.00    -0.008 A  
HETATM   19  C   UNL     1      -7.749   4.114  72.510  1.00  0.00    -0.075 A  
HETATM   20  C   UNL     1      -5.209   6.735  71.973  1.00  0.00    -0.032 A  
HETATM   21  C   UNL     1      -8.246   3.009  73.187  1.00  0.00    -0.076 A  
HETATM   22  C   UNL     1      -6.263   5.837  71.996  1.00  0.00    -0.044 A  
BRANCH  10  23
HETATM   23  C   UNL     1      -9.739   5.605  72.007  1.00  0.00    -0.182 C  
BRANCH  23  24
HETATM   24  C   UNL     1     -10.727   6.142  70.956  1.00  0.00    -0.317 C  
BRANCH  24  25
HETATM   25  C   UNL     1     -11.970   6.719  71.634  1.00  0.00    -0.391 C  
BRANCH  25  26
HETATM   26  C   UNL     1     -11.636   7.693  72.770  1.00  0.00    -0.281 C  
BRANCH  26  27
HETATM   27  N   UNL     1     -11.142   9.008  72.330  1.00  0.00    -0.207 NA 
HETATM   28  C   UNL     1     -12.455   9.707  69.765  1.00  0.00     0.764 C  
HETATM   29  C   UNL     1     -13.192   9.771  71.106  1.00  0.00    -0.404 C  
HETATM   30  C   UNL     1     -11.265   8.743  69.832  1.00  0.00    -0.059 C  
HETATM   31  C   UNL     1     -10.394   8.986  71.067  1.00  0.00    -0.278 C  
HETATM   32  C   UNL     1     -12.226   9.997  72.267  1.00  0.00     0.359 C  
BRANCH  28  33
HETATM   33  N   UNL     1     -12.043  11.035  69.318  1.00  0.00    -0.416 N  
HETATM   34  O   UNL     1     -12.650  12.109  71.262  1.00  0.00    -0.342 OA 
HETATM   35  C   UNL     1     -12.209  12.149  70.122  1.00  0.00    -0.231 C  
HETATM   36  H   UNL     1     -11.623  11.143  68.394  1.00  0.00     0.000 HD 
BRANCH  35  37
HETATM   37  C   UNL     1     -11.874  13.446  69.486  1.00  0.00    -0.391 A  
HETATM   38  C   UNL     1     -10.999  13.573  68.383  1.00  0.00    -0.289 A  
HETATM   39  C   UNL     1     -10.654  14.894  68.019  1.00  0.00    -0.248 A  
HETATM   40  C   UNL     1     -12.386  14.584  70.151  1.00  0.00    -0.398 A  
HETATM   41  C   UNL     1     -12.020  15.864  69.760  1.00  0.00    -0.276 A  
HETATM   42  C   UNL     1     -11.140  16.021  68.701  1.00  0.00    -0.349 A  
BRANCH  38  43
HETATM   43  C   UNL     1     -10.421  12.436  67.598  1.00  0.00    -0.229 A  
HETATM   44  C   UNL     1      -9.239  11.779  67.976  1.00  0.00    -0.181 A  
HETATM   45  C   UNL     1      -9.345  10.272  66.061  1.00  0.00    -0.224 A  
HETATM   46  C   UNL     1      -8.700  10.728  67.217  1.00  0.00    -0.130 A  
HETATM   47  C   UNL     1      -8.761   9.172  65.209  1.00  0.00    -0.188 C  
HETATM   48  C   UNL     1     -10.550  10.879  65.696  1.00  0.00    -0.233 A  
HETATM   49  C   UNL     1     -11.069  11.944  66.445  1.00  0.00    -0.359 A  
HETATM   50  F   UNL     1      -7.559   8.711  65.655  1.00  0.00    -0.081 F  
HETATM   51  F   UNL     1      -8.552   9.565  63.920  1.00  0.00    -0.162 F  
HETATM   52  F   UNL     1      -9.574   8.081  65.134  1.00  0.00     0.236 F  
ENDBRANCH  38  43
ENDBRANCH  35  37
ENDBRANCH  28  33
ENDBRANCH  26  27
ENDBRANCH  25  26
ENDBRANCH  24  25
ENDBRANCH  23  24
ENDBRANCH  10  23
ENDBRANCH   7  10
ENDBRANCH   3   6
TORSDOF 10
ENDMDL
MODEL      120
REMARK 921   NORMALIZED FREE ENERGY PREDICTED BY IDOCK:    1.80 KCAL/MOL
REMARK 922        TOTAL FREE ENERGY PREDICTED BY IDOCK:   -0.25 KCAL/MOL
REMARK 923 INTER-LIGAND FREE ENERGY PREDICTED BY IDOCK:   -6.17 KCAL/MOL
REMARK 924 INTRA-LIGAND FREE ENERGY PREDICTED BY IDOCK:    5.92 KCAL/MOL
REMARK 927      BINDING AFFINITY PREDICTED BY RF-SCORE:    0.00 PKD
ROOT
HETATM    1  F   UNL     1     -10.577   6.607  72.409  1.00  0.00    -0.205 F  
HETATM    2  C   UNL     1     -11.582   6.485  71.514  1.00  0.00    -0.315 C  
HETATM    3  C   UNL     1     -11.124   5.840  70.196  1.00  0.00    -0.253 C  
HETATM    4  F   UNL     1     -12.117   7.709  71.318  1.00  0.00    -0.298 F  
HETATM    5  F   UNL     1     -12.538   5.719  72.097  1.00  0.00    -0.252 F  
ENDROOT
BRANCH   3   6
HETATM    6  N   UNL     1      -9.702   5.513  70.092  1.00  0.00    -0.171 N  
HETATM    7  C   UNL     1      -9.134   5.194  68.873  1.00  0.00    -0.107 C  
HETATM    8  H   UNL     1      -9.122   5.520  70.931  1.00  0.00     0.000 HD 
HETATM    9  O   UNL     1      -9.828   5.116  67.859  1.00  0.00    -0.142 OA 
BRANCH   7  10
HETATM   10  C   UNL     1      -7.603   4.950  68.870  1.00  0.00    -0.069 C  
HETATM   11  C   UNL     1      -7.208   3.759  69.755  1.00  0.00    -0.042 A  
HETATM   12  C   UNL     1      -5.189   7.800  70.960  1.00  0.00    -0.026 A  
HETATM   13  C   UNL     1      -7.552   2.422  69.603  1.00  0.00    -0.043 A  
HETATM   14  C   UNL     1      -6.096   5.609  70.641  1.00  0.00    -0.030 A  
HETATM   15  C   UNL     1      -6.982   1.495  70.476  1.00  0.00    -0.032 A  
HETATM   16  C   UNL     1      -5.955   8.285  69.888  1.00  0.00    -0.025 A  
HETATM   17  C   UNL     1      -6.093   1.909  71.483  1.00  0.00    -0.014 A  
HETATM   18  C   UNL     1      -5.262   6.457  71.349  1.00  0.00    -0.022 A  
HETATM   19  C   UNL     1      -6.856   6.102  69.556  1.00  0.00    -0.065 A  
HETATM   20  C   UNL     1      -5.759   3.259  71.636  1.00  0.00    -0.009 A  
HETATM   21  C   UNL     1      -6.803   7.436  69.177  1.00  0.00    -0.060 A  
HETATM   22  C   UNL     1      -6.315   4.182  70.766  1.00  0.00    -0.022 A  
BRANCH  10  23
HETATM   23  C   UNL     1      -7.091   4.755  67.418  1.00  0.00    -0.065 C  
BRANCH  23  24
HETATM   24  C   UNL     1      -6.733   6.049  66.666  1.00  0.00    -0.061 C  
BRANCH  24  25
HETATM   25  C   UNL     1      -7.645   7.195  67.107  1.00  0.00    -0.103 C  
BRANCH  25  26
HETATM   26  C   UNL     1      -9.103   7.002  66.674  1.00  0.00    -0.152 C  
BRANCH  26  27
HETATM   27  N   UNL     1     -10.089   7.739  67.481  1.00  0.00    -0.190 NA 
HETATM   28  C   UNL     1      -9.604  10.646  67.152  1.00  0.00    -0.164 C  
HETATM   29  C   UNL     1     -10.253   9.795  66.056  1.00  0.00    -0.263 C  
HETATM   30  C   UNL     1      -8.759   9.782  68.096  1.00  0.00    -0.119 C  
HETATM   31  C   UNL     1      -9.512   8.536  68.569  1.00  0.00    -0.142 C  
HETATM   32  C   UNL     1     -10.958   8.572  66.639  1.00  0.00     0.671 C  
BRANCH  28  33
HETATM   33  N   UNL     1     -10.599  11.422  67.887  1.00  0.00    -0.181 N  
HETATM   34  O   UNL     1      -9.195  11.971  69.627  1.00  0.00     1.136 OA 
HETATM   35  C   UNL     1     -10.301  12.007  69.105  1.00  0.00     0.089 C  
HETATM   36  H   UNL     1     -11.534  11.536  67.493  1.00  0.00     0.000 HD 
BRANCH  35  37
HETATM   37  C   UNL     1     -11.445  12.645  69.800  1.00  0.00    -0.200 A  
HETATM   38  C   UNL     1     -11.671  14.041  69.813  1.00  0.00    -0.375 A  
HETATM   39  C   UNL     1     -12.703  14.490  70.668  1.00  0.00    -0.421 A  
HETATM   40  C   UNL     1     -12.233  11.767  70.579  1.00  0.00    -0.438 A  
HETATM   41  C   UNL     1     -13.236  12.252  71.406  1.00  0.00    -0.179 A  
HETATM   42  C   UNL     1     -13.462  13.618  71.463  1.00  0.00    -0.332 A  
BRANCH  38  43
HETATM   43  C   UNL     1     -10.911  15.051  69.010  1.00  0.00    -0.242 A  
HETATM   44  C   UNL     1      -9.816  15.761  69.530  1.00  0.00    -0.283 A  
HETATM   45  C   UNL     1      -9.491  16.983  67.443  1.00  0.00    -0.242 A  
HETATM   46  C   UNL     1      -9.127  16.720  68.770  1.00  0.00    -0.259 A  
HETATM   47  C   UNL     1      -8.790  18.038  66.624  1.00  0.00    -0.266 C  
HETATM   48  C   UNL     1     -10.544  16.249  66.891  1.00  0.00    -0.270 A  
HETATM   49  C   UNL     1     -11.244  15.311  67.664  1.00  0.00    -0.320 A  
HETATM   50  F   UNL     1      -7.820  18.709  67.305  1.00  0.00    -0.226 F  
HETATM   51  F   UNL     1      -9.646  18.994  66.161  1.00  0.00    -0.336 F  
HETATM   52  F   UNL     1      -8.180  17.523  65.519  1.00  0.00    -0.040 F  
ENDBRANCH  38  43
ENDBRANCH  35  37
ENDBRANCH  28  33
ENDBRANCH  26  27
ENDBRANCH  25  26
ENDBRANCH  24  25
ENDBRANCH  23  24
ENDBRANCH  10  23
ENDBRANCH   7  10
ENDBRANCH   3   6
TORSDOF 10
ENDMDL
MODEL      121
REMARK 921   NORMALIZED FREE ENERGY PREDICTED BY IDOCK:    2.37 KCAL/MOL
REMARK 922        TOTAL FREE ENERGY PREDICTED BY IDOCK:    0.65 KCAL/MOL
REMARK 923 INTER-LIGAND FREE ENERGY PREDICTED BY IDOCK:   -3.21 KCAL/MOL
REMARK 924 INTRA-LIGAND FREE ENERGY PREDICTED BY IDOCK:    3.86 KCAL/MOL
REMARK 927      BINDING AFFINITY PREDICTED BY RF-SCORE:    0.00 PKD
ROOT
HETATM    1  F   UNL     1     -11.965   8.191  70.292  1.00  0.00    -0.115 F  
HETATM    2  C   UNL     1     -13.243   8.316  70.714  1.00  0.00     0.454 C  
HETATM    3  C   UNL     1     -13.865   9.664  70.318  1.00  0.00     1.024 C  
HETATM    4  F   UNL     1     -13.262   8.123  72.050  1.00  0.00    -0.311 F  
HETATM    5  F   UNL     1     -13.945   7.299  70.153  1.00  0.00     0.661 F  
ENDROOT
BRANCH   3   6
HETATM    6  N   UNL     1     -12.992  10.602  69.613  1.00  0.00    -0.219 N  
HETATM    7  C   UNL     1     -11.741  10.918  70.108  1.00  0.00    -0.347 C  
HETATM    8  H   UNL     1     -13.311  11.029  68.743  1.00  0.00     0.000 HD 
HETATM    9  O   UNL     1     -11.362  10.465  71.189  1.00  0.00    -0.268 OA 
BRANCH   7  10
HETATM   10  C   UNL     1     -10.870  11.855  69.233  1.00  0.00    -0.157 C  
HETATM   11  C   UNL     1     -11.371  13.307  69.270  1.00  0.00    -0.311 A  
HETATM   12  C   UNL     1     -11.241  11.429  64.990  1.00  0.00    -0.159 A  
HETATM   13  C   UNL     1     -11.433  14.168  70.357  1.00  0.00    -0.149 A  
HETATM   14  C   UNL     1     -11.480  12.651  67.033  1.00  0.00    -0.406 A  
HETATM   15  C   UNL     1     -11.826  15.487  70.127  1.00  0.00    -0.378 A  
HETATM   16  C   UNL     1     -10.793  10.305  65.703  1.00  0.00     0.239 A  
HETATM   17  C   UNL     1     -12.154  15.923  68.832  1.00  0.00    -0.065 A  
HETATM   18  C   UNL     1     -11.595  12.609  65.654  1.00  0.00    -0.418 A  
HETATM   19  C   UNL     1     -11.018  11.519  67.743  1.00  0.00    -0.291 A  
HETATM   20  C   UNL     1     -12.097  15.047  67.743  1.00  0.00     0.014 A  
HETATM   21  C   UNL     1     -10.683  10.340  67.092  1.00  0.00    -0.303 A  
HETATM   22  C   UNL     1     -11.700  13.739  67.965  1.00  0.00    -0.390 A  
BRANCH  10  23
HETATM   23  C   UNL     1      -9.383  11.771  69.666  1.00  0.00     1.379 C  
BRANCH  23  24
HETATM   24  C   UNL     1      -8.406  12.627  68.840  1.00  0.00     0.270 C  
BRANCH  24  25
HETATM   25  C   UNL     1      -7.921  11.853  67.614  1.00  0.00    -0.146 C  
BRANCH  25  26
HETATM   26  C   UNL     1      -8.530  10.449  67.510  1.00  0.00    -0.115 C  
BRANCH  26  27
HETATM   27  N   UNL     1      -7.870   9.428  68.339  1.00  0.00    -0.090 NA 
HETATM   28  C   UNL     1      -8.071   6.810  66.961  1.00  0.00    -0.109 C  
HETATM   29  C   UNL     1      -7.109   7.908  66.496  1.00  0.00    -0.075 C  
HETATM   30  C   UNL     1      -9.238   7.399  67.762  1.00  0.00    -0.133 C  
HETATM   31  C   UNL     1      -8.764   8.377  68.839  1.00  0.00    -0.136 C  
HETATM   32  C   UNL     1      -6.718   8.834  67.645  1.00  0.00    -0.066 C  
BRANCH  28  33
HETATM   33  N   UNL     1      -7.373   5.773  67.717  1.00  0.00    -0.076 N  
HETATM   34  O   UNL     1      -8.044   4.037  66.360  1.00  0.00    -0.097 OA 
HETATM   35  C   UNL     1      -7.450   4.440  67.351  1.00  0.00    -0.074 C  
HETATM   36  H   UNL     1      -6.818   6.036  68.531  1.00  0.00     0.000 HD 
BRANCH  35  37
HETATM   37  C   UNL     1      -6.807   3.487  68.287  1.00  0.00    -0.046 A  
HETATM   38  C   UNL     1      -6.697   3.712  69.679  1.00  0.00    -0.034 A  
HETATM   39  C   UNL     1      -5.901   2.787  70.392  1.00  0.00    -0.018 A  
HETATM   40  C   UNL     1      -6.176   2.382  67.670  1.00  0.00    -0.024 A  
HETATM   41  C   UNL     1      -5.403   1.498  68.409  1.00  0.00    -0.013 A  
HETATM   42  C   UNL     1      -5.252   1.708  69.771  1.00  0.00    -0.007 A  
BRANCH  38  43
HETATM   43  C   UNL     1      -7.343   4.835  70.430  1.00  0.00    -0.050 A  
HETATM   44  C   UNL     1      -6.608   5.747  71.205  1.00  0.00    -0.045 A  
HETATM   45  C   UNL     1      -8.618   6.963  71.861  1.00  0.00    -0.118 A  
HETATM   46  C   UNL     1      -7.231   6.783  71.920  1.00  0.00    -0.080 A  
HETATM   47  C   UNL     1      -9.311   8.043  72.654  1.00  0.00    -0.248 C  
HETATM   48  C   UNL     1      -9.361   6.097  71.054  1.00  0.00    -0.176 A  
HETATM   49  C   UNL     1      -8.735   5.050  70.363  1.00  0.00    -0.128 A  
HETATM   50  F   UNL     1      -8.470   8.777  73.435  1.00  0.00    -0.213 F  
HETATM   51  F   UNL     1     -10.260   7.545  73.497  1.00  0.00    -0.313 F  
HETATM   52  F   UNL     1      -9.959   8.942  71.860  1.00  0.00    -0.334 F  
ENDBRANCH  38  43
ENDBRANCH  35  37
ENDBRANCH  28  33
ENDBRANCH  26  27
ENDBRANCH  25  26
ENDBRANCH  24  25
ENDBRANCH  23  24
ENDBRANCH  10  23
ENDBRANCH   7  10
ENDBRANCH   3   6
TORSDOF 10
ENDMDL
MODEL      122
REMARK 921   NORMALIZED FREE ENERGY PREDICTED BY IDOCK:    3.53 KCAL/MOL
REMARK 922        TOTAL FREE ENERGY PREDICTED BY IDOCK:    2.49 KCAL/MOL
REMARK 923 INTER-LIGAND FREE ENERGY PREDICTED BY IDOCK:   -7.07 KCAL/MOL
REMARK 924 INTRA-LIGAND FREE ENERGY PREDICTED BY IDOCK:    9.56 KCAL/MOL
REMARK 927      BINDING AFFINITY PREDICTED BY RF-SCORE:    0.00 PKD
ROOT
HETATM    1  F   UNL     1     -12.506  15.734  71.035  1.00  0.00    -0.383 F  
HETATM    2  C   UNL     1     -12.548  14.462  71.490  1.00  0.00    -0.350 C  
HETATM    3  C   UNL     1     -11.511  13.557  70.806  1.00  0.00     0.597 C  
HETATM    4  F   UNL     1     -13.807  14.002  71.327  1.00  0.00    -0.368 F  
HETATM    5  F   UNL     1     -12.310  14.512  72.825  1.00  0.00    -0.374 F  
ENDROOT
BRANCH   3   6
HETATM    6  N   UNL     1     -10.695  14.175  69.761  1.00  0.00    -0.454 N  
HETATM    7  C   UNL     1     -11.280  14.899  68.738  1.00  0.00    -0.275 C  
HETATM    8  H   UNL     1      -9.681  14.071  69.787  1.00  0.00     0.000 HD 
HETATM    9  O   UNL     1     -12.506  14.983  68.651  1.00  0.00     0.008 OA 
BRANCH   7  10
HETATM   10  C   UNL     1     -10.313  15.580  67.737  1.00  0.00    -0.263 C  
HETATM   11  C   UNL     1     -10.244  17.100  67.949  1.00  0.00    -0.330 A  
HETATM   12  C   UNL     1     -11.604  15.818  63.664  1.00  0.00     1.040 A  
HETATM   13  C   UNL     1      -9.787  17.795  69.061  1.00  0.00    -0.225 A  
HETATM   14  C   UNL     1     -11.000  16.794  65.763  1.00  0.00     0.044 A  
HETATM   15  C   UNL     1      -9.717  19.186  68.983  1.00  0.00    -0.420 A  
HETATM   16  C   UNL     1     -11.462  14.532  64.209  1.00  0.00    -0.194 A  
HETATM   17  C   UNL     1     -10.105  19.860  67.812  1.00  0.00    -0.565 A  
HETATM   18  C   UNL     1     -11.380  16.959  64.442  1.00  0.00     0.602 A  
HETATM   19  C   UNL     1     -10.850  15.496  66.302  1.00  0.00    -0.283 A  
HETATM   20  C   UNL     1     -10.573  19.153  66.698  1.00  0.00    -0.520 A  
HETATM   21  C   UNL     1     -11.087  14.360  65.541  1.00  0.00    -0.326 A  
HETATM   22  C   UNL     1     -10.636  17.772  66.768  1.00  0.00    -0.235 A  
BRANCH  10  23
HETATM   23  C   UNL     1      -8.902  14.943  67.831  1.00  0.00    -0.165 C  
BRANCH  23  24
HETATM   24  C   UNL     1      -8.573  13.907  66.742  1.00  0.00    -0.066 C  
BRANCH  24  25
HETATM   25  C   UNL     1      -9.816  13.593  65.908  1.00  0.00    -0.263 C  
BRANCH  25  26
HETATM   26  C   UNL     1     -10.474  12.261  66.290  1.00  0.00    -0.238 C  
BRANCH  26  27
HETATM   27  N   UNL     1     -10.252  11.840  67.683  1.00  0.00    -0.197 NA 
HETATM   28  C   UNL     1      -9.949   8.891  67.747  1.00  0.00    -0.192 C  
HETATM   29  C   UNL     1      -8.845   9.816  67.225  1.00  0.00    -0.139 C  
HETATM   30  C   UNL     1     -11.324   9.566  67.662  1.00  0.00     0.475 C  
HETATM   31  C   UNL     1     -11.308  10.984  68.236  1.00  0.00    -0.299 C  
HETATM   32  C   UNL     1      -8.937  11.206  67.850  1.00  0.00    -0.143 C  
BRANCH  28  33
HETATM   33  N   UNL     1      -9.664   8.430  69.104  1.00  0.00    -0.168 N  
HETATM   34  O   UNL     1     -10.921   6.507  68.941  1.00  0.00    -0.282 OA 
HETATM   35  C   UNL     1     -10.215   7.261  69.597  1.00  0.00    -0.211 C  
HETATM   36  H   UNL     1      -9.046   8.982  69.698  1.00  0.00     0.000 HD 
BRANCH  35  37
HETATM   37  C   UNL     1      -9.949   6.990  71.031  1.00  0.00    -0.196 A  
HETATM   38  C   UNL     1      -9.151   5.917  71.489  1.00  0.00    -0.150 A  
HETATM   39  C   UNL     1      -9.150   5.702  72.886  1.00  0.00    -0.125 A  
HETATM   40  C   UNL     1     -10.671   7.805  71.933  1.00  0.00    -0.272 A  
HETATM   41  C   UNL     1     -10.642   7.557  73.298  1.00  0.00    -0.438 A  
HETATM   42  C   UNL     1      -9.892   6.494  73.776  1.00  0.00    -0.247 A  
BRANCH  38  43
HETATM   43  C   UNL     1      -8.332   5.012  70.621  1.00  0.00    -0.106 A  
HETATM   44  C   UNL     1      -7.395   5.497  69.695  1.00  0.00    -0.066 A  
HETATM   45  C   UNL     1      -6.793   3.246  68.974  1.00  0.00    -0.044 A  
HETATM   46  C   UNL     1      -6.649   4.635  68.874  1.00  0.00    -0.045 A  
HETATM   47  C   UNL     1      -6.032   2.304  68.073  1.00  0.00    -0.024 C  
HETATM   48  C   UNL     1      -7.682   2.742  69.928  1.00  0.00    -0.045 A  
HETATM   49  C   UNL     1      -8.441   3.610  70.725  1.00  0.00    -0.101 A  
HETATM   50  F   UNL     1      -5.243   2.935  67.159  1.00  0.00    -0.007 F  
HETATM   51  F   UNL     1      -6.856   1.490  67.353  1.00  0.00    -0.030 F  
HETATM   52  F   UNL     1      -5.205   1.471  68.766  1.00  0.00    -0.009 F  
ENDBRANCH  38  43
ENDBRANCH  35  37
ENDBRANCH  28  33
ENDBRANCH  26  27
ENDBRANCH  25  26
ENDBRANCH  24  25
ENDBRANCH  23  24
ENDBRANCH  10  23
ENDBRANCH   7  10
ENDBRANCH   3   6
TORSDOF 10
ENDMDL
MODEL      123
REMARK 921   NORMALIZED FREE ENERGY PREDICTED BY IDOCK:    3.61 KCAL/MOL
REMARK 922        TOTAL FREE ENERGY PREDICTED BY IDOCK:    2.62 KCAL/MOL
REMARK 923 INTER-LIGAND FREE ENERGY PREDICTED BY IDOCK:   -1.26 KCAL/MOL
REMARK 924 INTRA-LIGAND FREE ENERGY PREDICTED BY IDOCK:    3.88 KCAL/MOL
REMARK 927      BINDING AFFINITY PREDICTED BY RF-SCORE:    0.00 PKD
ROOT
HETATM    1  F   UNL     1      -5.694  13.716  68.582  1.00  0.00    -0.075 F  
HETATM    2  C   UNL     1      -6.782  13.018  68.977  1.00  0.00    -0.099 C  
HETATM    3  C   UNL     1      -8.097  13.752  68.671  1.00  0.00    -0.084 C  
HETATM    4  F   UNL     1      -6.649  12.747  70.294  1.00  0.00    -0.029 F  
HETATM    5  F   UNL     1      -6.749  11.831  68.320  1.00  0.00    -0.058 F  
ENDROOT
BRANCH   3   6
HETATM    6  N   UNL     1      -7.976  15.078  68.065  1.00  0.00    -0.124 N  
HETATM    7  C   UNL     1      -9.070  15.915  67.963  1.00  0.00    -0.184 C  
HETATM    8  H   UNL     1      -7.071  15.388  67.712  1.00  0.00     0.000 HD 
HETATM    9  O   UNL     1     -10.186  15.536  68.323  1.00  0.00    -0.219 OA 
BRANCH   7  10
HETATM   10  C   UNL     1      -8.806  17.327  67.382  1.00  0.00    -0.222 C  
HETATM   11  C   UNL     1      -7.480  17.917  67.886  1.00  0.00    -0.216 A  
HETATM   12  C   UNL     1     -11.238  20.516  68.875  1.00  0.00     1.621 A  
HETATM   13  C   UNL     1      -6.191  17.446  67.672  1.00  0.00    -0.164 A  
HETATM   14  C   UNL     1      -9.144  19.399  68.581  1.00  0.00    -0.423 A  
HETATM   15  C   UNL     1      -5.126  18.215  68.142  1.00  0.00    -0.164 A  
HETATM   16  C   UNL     1     -11.903  19.463  68.226  1.00  0.00     2.774 A  
HETATM   17  C   UNL     1      -5.356  19.426  68.817  1.00  0.00    -0.207 A  
HETATM   18  C   UNL     1      -9.852  20.486  69.063  1.00  0.00     0.290 A  
HETATM   19  C   UNL     1      -9.818  18.348  67.920  1.00  0.00    -0.348 A  
HETATM   20  C   UNL     1      -6.658  19.889  69.037  1.00  0.00    -0.364 A  
HETATM   21  C   UNL     1     -11.195  18.363  67.745  1.00  0.00     0.292 A  
HETATM   22  C   UNL     1      -7.719  19.134  68.566  1.00  0.00    -0.376 A  
BRANCH  10  23
HETATM   23  C   UNL     1      -8.840  17.288  65.832  1.00  0.00     0.008 C  
BRANCH  23  24
HETATM   24  C   UNL     1      -8.962  15.886  65.210  1.00  0.00     1.238 C  
BRANCH  24  25
HETATM   25  C   UNL     1     -10.101  15.106  65.867  1.00  0.00    -0.349 C  
BRANCH  25  26
HETATM   26  C   UNL     1     -10.252  13.683  65.314  1.00  0.00    -0.323 C  
BRANCH  26  27
HETATM   27  N   UNL     1      -9.897  12.613  66.259  1.00  0.00    -0.258 NA 
HETATM   28  C   UNL     1     -10.184   9.999  64.888  1.00  0.00     0.034 C  
HETATM   29  C   UNL     1      -9.016  10.949  64.603  1.00  0.00    -0.147 C  
HETATM   30  C   UNL     1     -11.391  10.759  65.451  1.00  0.00     0.525 C  
HETATM   31  C   UNL     1     -10.999  11.702  66.590  1.00  0.00    -0.299 C  
HETATM   32  C   UNL     1      -8.726  11.854  65.798  1.00  0.00     0.216 C  
BRANCH  28  33
HETATM   33  N   UNL     1      -9.782   8.906  65.768  1.00  0.00    -0.459 N  
HETATM   34  O   UNL     1      -7.520   9.292  65.562  1.00  0.00    -0.088 OA 
HETATM   35  C   UNL     1      -8.447   8.629  66.009  1.00  0.00    -0.141 C  
HETATM   36  H   UNL     1     -10.499   8.335  66.216  1.00  0.00     0.000 HD 
BRANCH  35  37
HETATM   37  C   UNL     1      -8.186   7.409  66.810  1.00  0.00    -0.121 A  
HETATM   38  C   UNL     1      -8.704   7.202  68.109  1.00  0.00    -0.127 A  
HETATM   39  C   UNL     1      -8.212   6.068  68.795  1.00  0.00    -0.104 A  
HETATM   40  C   UNL     1      -7.257   6.510  66.238  1.00  0.00    -0.072 A  
HETATM   41  C   UNL     1      -6.799   5.409  66.948  1.00  0.00    -0.063 A  
HETATM   42  C   UNL     1      -7.266   5.194  68.235  1.00  0.00    -0.067 A  
BRANCH  38  43
HETATM   43  C   UNL     1      -9.706   8.078  68.795  1.00  0.00    -0.157 A  
HETATM   44  C   UNL     1      -9.747   9.469  68.607  1.00  0.00    -0.163 A  
HETATM   45  C   UNL     1     -11.633   9.719  70.134  1.00  0.00    -0.239 A  
HETATM   46  C   UNL     1     -10.680  10.280  69.274  1.00  0.00    -0.265 A  
HETATM   47  C   UNL     1     -12.618  10.577  70.891  1.00  0.00    -0.398 C  
HETATM   48  C   UNL     1     -11.643   8.331  70.292  1.00  0.00     0.017 A  
HETATM   49  C   UNL     1     -10.691   7.531  69.643  1.00  0.00    -0.236 A  
HETATM   50  F   UNL     1     -12.459  11.913  70.680  1.00  0.00    -0.388 F  
HETATM   51  F   UNL     1     -12.532  10.401  72.241  1.00  0.00    -0.366 F  
HETATM   52  F   UNL     1     -13.912  10.299  70.564  1.00  0.00    -0.087 F  
ENDBRANCH  38  43
ENDBRANCH  35  37
ENDBRANCH  28  33
ENDBRANCH  26  27
ENDBRANCH  25  26
ENDBRANCH  24  25
ENDBRANCH  23  24
ENDBRANCH  10  23
ENDBRANCH   7  10
ENDBRANCH   3   6
TORSDOF 10
ENDMDL
MODEL      124
REMARK 921   NORMALIZED FREE ENERGY PREDICTED BY IDOCK:    4.46 KCAL/MOL
REMARK 922        TOTAL FREE ENERGY PREDICTED BY IDOCK:    3.96 KCAL/MOL
REMARK 923 INTER-LIGAND FREE ENERGY PREDICTED BY IDOCK:   -1.57 KCAL/MOL
REMARK 924 INTRA-LIGAND FREE ENERGY PREDICTED BY IDOCK:    5.53 KCAL/MOL
REMARK 927      BINDING AFFINITY PREDICTED BY RF-SCORE:    0.00 PKD
ROOT
HETATM    1  F   UNL     1      -9.882  10.693  65.336  1.00  0.00    -0.248 F  
HETATM    2  C   UNL     1     -11.046  11.375  65.257  1.00  0.00    -0.129 C  
HETATM    3  C   UNL     1     -11.707  11.576  66.630  1.00  0.00     0.135 C  
HETATM    4  F   UNL     1     -11.856  10.720  64.398  1.00  0.00     0.344 F  
HETATM    5  F   UNL     1     -10.761  12.579  64.700  1.00  0.00    -0.285 F  
ENDROOT
BRANCH   3   6
HETATM    6  N   UNL     1     -11.024  10.972  67.775  1.00  0.00    -0.247 N  
HETATM    7  C   UNL     1     -11.736  10.522  68.871  1.00  0.00    -0.146 C  
HETATM    8  H   UNL     1     -10.008  10.882  67.764  1.00  0.00     0.000 HD 
HETATM    9  O   UNL     1     -12.956  10.679  68.933  1.00  0.00     0.454 OA 
BRANCH   7  10
HETATM   10  C   UNL     1     -10.917   9.823  69.985  1.00  0.00    -0.319 C  
HETATM   11  C   UNL     1      -9.504   9.450  69.512  1.00  0.00    -0.187 A  
HETATM   12  C   UNL     1     -12.053   5.822  70.994  1.00  0.00     0.875 A  
HETATM   13  C   UNL     1      -8.479  10.297  69.111  1.00  0.00    -0.164 A  
HETATM   14  C   UNL     1     -10.524   7.442  70.121  1.00  0.00    -0.228 A  
HETATM   15  C   UNL     1      -7.236   9.732  68.825  1.00  0.00    -0.072 A  
HETATM   16  C   UNL     1     -13.022   6.821  71.179  1.00  0.00    -0.152 A  
HETATM   17  C   UNL     1      -7.035   8.345  68.934  1.00  0.00    -0.062 A  
HETATM   18  C   UNL     1     -10.797   6.126  70.455  1.00  0.00    -0.364 A  
HETATM   19  C   UNL     1     -11.500   8.444  70.320  1.00  0.00    -0.063 A  
HETATM   20  C   UNL     1      -8.075   7.497  69.330  1.00  0.00    -0.126 A  
HETATM   21  C   UNL     1     -12.753   8.145  70.837  1.00  0.00     0.087 A  
HETATM   22  C   UNL     1      -9.308   8.054  69.623  1.00  0.00    -0.156 A  
BRANCH  10  23
HETATM   23  C   UNL     1     -10.859  10.714  71.253  1.00  0.00     1.398 C  
BRANCH  23  24
HETATM   24  C   UNL     1     -12.219  11.023  71.904  1.00  0.00     0.370 C  
BRANCH  24  25
HETATM   25  C   UNL     1     -12.957  12.107  71.116  1.00  0.00    -0.240 C  
BRANCH  25  26
HETATM   26  C   UNL     1     -12.877  13.489  71.777  1.00  0.00    -0.306 C  
BRANCH  26  27
HETATM   27  N   UNL     1     -11.775  14.339  71.297  1.00  0.00    -0.159 NA 
HETATM   28  C   UNL     1     -12.498  15.417  68.631  1.00  0.00     0.398 C  
HETATM   29  C   UNL     1     -13.130  15.940  69.925  1.00  0.00     0.899 C  
HETATM   30  C   UNL     1     -11.962  13.992  68.814  1.00  0.00    -0.382 C  
HETATM   31  C   UNL     1     -11.115  13.851  70.081  1.00  0.00     0.220 C  
HETATM   32  C   UNL     1     -12.208  15.732  71.124  1.00  0.00    -0.423 C  
BRANCH  28  33
HETATM   33  N   UNL     1     -11.460  16.319  68.140  1.00  0.00    -0.257 N  
HETATM   34  O   UNL     1     -10.737  16.965  70.229  1.00  0.00    -0.095 OA 
HETATM   35  C   UNL     1     -10.672  17.052  69.010  1.00  0.00    -0.271 C  
HETATM   36  H   UNL     1     -11.314  16.411  67.135  1.00  0.00     0.000 HD 
BRANCH  35  37
HETATM   37  C   UNL     1      -9.757  18.027  68.370  1.00  0.00    -0.348 A  
HETATM   38  C   UNL     1      -8.513  17.673  67.798  1.00  0.00    -0.227 A  
HETATM   39  C   UNL     1      -7.693  18.750  67.392  1.00  0.00    -0.240 A  
HETATM   40  C   UNL     1     -10.150  19.380  68.492  1.00  0.00    -0.527 A  
HETATM   41  C   UNL     1      -9.312  20.406  68.080  1.00  0.00    -0.139 A  
HETATM   42  C   UNL     1      -8.073  20.093  67.543  1.00  0.00    -0.356 A  
BRANCH  38  43
HETATM   43  C   UNL     1      -8.014  16.275  67.602  1.00  0.00    -0.160 A  
HETATM   44  C   UNL     1      -6.824  15.809  68.184  1.00  0.00    -0.128 A  
HETATM   45  C   UNL     1      -7.090  13.595  67.194  1.00  0.00     0.246 A  
HETATM   46  C   UNL     1      -6.359  14.500  67.973  1.00  0.00    -0.162 A  
HETATM   47  C   UNL     1      -6.588  12.198  66.922  1.00  0.00    -0.001 C  
HETATM   48  C   UNL     1      -8.304  14.024  66.650  1.00  0.00     0.220 A  
HETATM   49  C   UNL     1      -8.748  15.340  66.843  1.00  0.00    -0.288 A  
HETATM   50  F   UNL     1      -5.369  11.936  67.471  1.00  0.00    -0.049 F  
HETATM   51  F   UNL     1      -6.457  11.941  65.589  1.00  0.00     0.588 F  
HETATM   52  F   UNL     1      -7.427  11.238  67.402  1.00  0.00    -0.096 F  
ENDBRANCH  38  43
ENDBRANCH  35  37
ENDBRANCH  28  33
ENDBRANCH  26  27
ENDBRANCH  25  26
ENDBRANCH  24  25
ENDBRANCH  23  24
ENDBRANCH  10  23
ENDBRANCH   7  10
ENDBRANCH   3   6
TORSDOF 10
ENDMDL
MODEL      125
REMARK 921   NORMALIZED FREE ENERGY PREDICTED BY IDOCK:    4.69 KCAL/MOL
REMARK 922        TOTAL FREE ENERGY PREDICTED BY IDOCK:    4.34 KCAL/MOL
REMARK 923 INTER-LIGAND FREE ENERGY PREDICTED BY IDOCK:   -0.83 KCAL/MOL
REMARK 924 INTRA-LIGAND FREE ENERGY PREDICTED BY IDOCK:    5.17 KCAL/MOL
REMARK 927      BINDING AFFINITY PREDICTED BY RF-SCORE:    0.00 PKD
ROOT
HETATM    1  F   UNL     1     -11.841   5.087  65.717  1.00  0.00     0.243 F  
HETATM    2  C   UNL     1     -11.379   4.473  64.605  1.00  0.00     0.607 C  
HETATM    3  C   UNL     1      -9.959   4.925  64.228  1.00  0.00     0.518 C  
HETATM    4  F   UNL     1     -12.262   4.696  63.608  1.00  0.00     1.449 F  
HETATM    5  F   UNL     1     -11.389   3.140  64.857  1.00  0.00     0.694 F  
ENDROOT
BRANCH   3   6
HETATM    6  N   UNL     1      -9.360   5.958  65.072  1.00  0.00    -0.218 N  
HETATM    7  C   UNL     1      -8.480   6.884  64.545  1.00  0.00     0.196 C  
HETATM    8  H   UNL     1      -9.594   5.995  66.064  1.00  0.00     0.000 HD 
HETATM    9  O   UNL     1      -8.132   6.818  63.365  1.00  0.00    -0.099 OA 
BRANCH   7  10
HETATM   10  C   UNL     1      -7.975   7.983  65.514  1.00  0.00    -0.117 C  
HETATM   11  C   UNL     1      -7.080   7.407  66.622  1.00  0.00    -0.075 A  
HETATM   12  C   UNL     1     -10.858   9.672  68.188  1.00  0.00    -0.241 A  
HETATM   13  C   UNL     1      -5.850   6.775  66.493  1.00  0.00    -0.025 A  
HETATM   14  C   UNL     1      -8.883   8.408  67.713  1.00  0.00    -0.137 A  
HETATM   15  C   UNL     1      -5.166   6.429  67.659  1.00  0.00    -0.005 A  
HETATM   16  C   UNL     1     -11.103   9.826  66.814  1.00  0.00     0.228 A  
HETATM   17  C   UNL     1      -5.713   6.710  68.923  1.00  0.00    -0.017 A  
HETATM   18  C   UNL     1      -9.747   8.954  68.647  1.00  0.00    -0.169 A  
HETATM   19  C   UNL     1      -9.130   8.576  66.332  1.00  0.00    -0.229 A  
HETATM   20  C   UNL     1      -6.956   7.339  69.044  1.00  0.00    -0.077 A  
HETATM   21  C   UNL     1     -10.239   9.271  65.871  1.00  0.00    -0.054 A  
HETATM   22  C   UNL     1      -7.636   7.691  67.890  1.00  0.00    -0.117 A  
BRANCH  10  23
HETATM   23  C   UNL     1      -7.235   9.097  64.728  1.00  0.00    -0.097 C  
BRANCH  23  24
HETATM   24  C   UNL     1      -8.099  10.307  64.329  1.00  0.00    -0.143 C  
BRANCH  24  25
HETATM   25  C   UNL     1      -8.415  11.166  65.553  1.00  0.00    -0.003 C  
BRANCH  25  26
HETATM   26  C   UNL     1      -9.044  12.518  65.193  1.00  0.00     0.694 C  
BRANCH  26  27
HETATM   27  N   UNL     1      -9.974  13.054  66.199  1.00  0.00    -0.275 NA 
HETATM   28  C   UNL     1      -8.409  14.012  68.527  1.00  0.00    -0.143 C  
HETATM   29  C   UNL     1      -8.461  14.781  67.203  1.00  0.00    -0.247 C  
HETATM   30  C   UNL     1      -8.728  12.527  68.318  1.00  0.00    -0.171 C  
HETATM   31  C   UNL     1      -9.985  12.321  67.470  1.00  0.00    -0.199 C  
HETATM   32  C   UNL     1      -9.746  14.486  66.434  1.00  0.00    -0.296 C  
BRANCH  28  33
HETATM   33  N   UNL     1      -9.286  14.612  69.529  1.00  0.00    -0.410 N  
HETATM   34  O   UNL     1     -11.063  13.204  69.122  1.00  0.00    -0.245 OA 
HETATM   35  C   UNL     1     -10.579  14.156  69.719  1.00  0.00     0.225 C  
HETATM   36  H   UNL     1      -8.939  15.383  70.100  1.00  0.00     0.000 HD 
BRANCH  35  37
HETATM   37  C   UNL     1     -11.397  14.947  70.670  1.00  0.00    -0.275 A  
HETATM   38  C   UNL     1     -11.420  16.361  70.694  1.00  0.00    -0.179 A  
HETATM   39  C   UNL     1     -12.114  16.947  71.776  1.00  0.00     1.082 A  
HETATM   40  C   UNL     1     -12.060  14.186  71.660  1.00  0.00    -0.191 A  
HETATM   41  C   UNL     1     -12.730  14.804  72.706  1.00  0.00    -0.491 A  
HETATM   42  C   UNL     1     -12.745  16.188  72.774  1.00  0.00    -0.479 A  
BRANCH  38  43
HETATM   43  C   UNL     1     -10.772  17.257  69.684  1.00  0.00     0.187 A  
HETATM   44  C   UNL     1      -9.814  18.222  70.034  1.00  0.00     1.120 A  
HETATM   45  C   UNL     1      -9.564  18.958  67.722  1.00  0.00    -0.357 A  
HETATM   46  C   UNL     1      -9.231  19.069  69.077  1.00  0.00    -0.262 A  
HETATM   47  C   UNL     1      -8.980  19.885  66.684  1.00  0.00    -0.372 C  
HETATM   48  C   UNL     1     -10.476  17.967  67.347  1.00  0.00    -0.399 A  
HETATM   49  C   UNL     1     -11.073  17.143  68.311  1.00  0.00    -0.118 A  
HETATM   50  F   UNL     1      -8.148  20.832  67.200  1.00  0.00    -0.363 F  
HETATM   51  F   UNL     1      -9.939  20.568  65.996  1.00  0.00    -0.480 F  
HETATM   52  F   UNL     1      -8.251  19.222  65.742  1.00  0.00    -0.299 F  
ENDBRANCH  38  43
ENDBRANCH  35  37
ENDBRANCH  28  33
ENDBRANCH  26  27
ENDBRANCH  25  26
ENDBRANCH  24  25
ENDBRANCH  23  24
ENDBRANCH  10  23
ENDBRANCH   7  10
ENDBRANCH   3   6
TORSDOF 10
ENDMDL
MODEL      126
REMARK 921   NORMALIZED FREE ENERGY PREDICTED BY IDOCK:    6.46 KCAL/MOL
REMARK 922        TOTAL FREE ENERGY PREDICTED BY IDOCK:    7.14 KCAL/MOL
REMARK 923 INTER-LIGAND FREE ENERGY PREDICTED BY IDOCK:    6.15 KCAL/MOL
REMARK 924 INTRA-LIGAND FREE ENERGY PREDICTED BY IDOCK:    0.99 KCAL/MOL
REMARK 927      BINDING AFFINITY PREDICTED BY RF-SCORE:    0.00 PKD
ROOT
HETATM    1  F   UNL     1      -7.236  15.202  70.826  1.00  0.00     0.176 F  
HETATM    2  C   UNL     1      -6.636  14.053  71.207  1.00  0.00     0.889 C  
HETATM    3  C   UNL     1      -7.425  12.805  70.779  1.00  0.00     4.450 C  
HETATM    4  F   UNL     1      -6.453  14.101  72.544  1.00  0.00     0.147 F  
HETATM    5  F   UNL     1      -5.406  14.042  70.635  1.00  0.00    -0.096 F  
ENDROOT
BRANCH   3   6
HETATM    6  N   UNL     1      -8.694  13.043  70.091  1.00  0.00     2.935 N  
HETATM    7  C   UNL     1      -8.777  13.938  69.041  1.00  0.00     0.222 C  
HETATM    8  H   UNL     1      -9.530  12.540  70.391  1.00  0.00     0.000 HD 
HETATM    9  O   UNL     1      -7.796  14.602  68.705  1.00  0.00    -0.134 OA 
BRANCH   7  10
HETATM   10  C   UNL     1     -10.152  14.043  68.333  1.00  0.00    -0.236 C  
HETATM   11  C   UNL     1     -10.351  15.412  67.666  1.00  0.00    -0.262 A  
HETATM   12  C   UNL     1     -13.602  14.336  70.849  1.00  0.00    -0.111 A  
HETATM   13  C   UNL     1      -9.627  15.976  66.624  1.00  0.00    -0.258 A  
HETATM   14  C   UNL     1     -12.077  15.203  69.223  1.00  0.00    -0.278 A  
HETATM   15  C   UNL     1     -10.063  17.196  66.106  1.00  0.00    -0.317 A  
HETATM   16  C   UNL     1     -12.821  13.176  70.977  1.00  0.00    -0.295 A  
HETATM   17  C   UNL     1     -11.199  17.834  66.633  1.00  0.00     0.708 A  
HETATM   18  C   UNL     1     -13.229  15.362  69.974  1.00  0.00     0.263 A  
HETATM   19  C   UNL     1     -11.302  14.029  69.349  1.00  0.00    -0.317 A  
HETATM   20  C   UNL     1     -11.919  17.265  67.689  1.00  0.00     1.823 A  
HETATM   21  C   UNL     1     -11.657  13.015  70.228  1.00  0.00    -0.060 A  
HETATM   22  C   UNL     1     -11.495  16.050  68.201  1.00  0.00    -0.250 A  
BRANCH  10  23
HETATM   23  C   UNL     1     -10.318  12.896  67.303  1.00  0.00    -0.234 C  
BRANCH  23  24
HETATM   24  C   UNL     1     -11.674  12.167  67.341  1.00  0.00    -0.374 C  
BRANCH  24  25
HETATM   25  C   UNL     1     -11.593  10.932  68.238  1.00  0.00    -0.335 C  
BRANCH  25  26
HETATM   26  C   UNL     1     -11.370   9.633  67.454  1.00  0.00     0.616 C  
BRANCH  26  27
HETATM   27  N   UNL     1     -10.205   8.845  67.885  1.00  0.00    -0.210 NA 
HETATM   28  C   UNL     1     -10.699   7.844  70.633  1.00  0.00    -0.228 C  
HETATM   29  C   UNL     1     -11.397   7.248  69.407  1.00  0.00     0.064 C  
HETATM   30  C   UNL     1     -10.234   9.280  70.361  1.00  0.00    -0.284 C  
HETATM   31  C   UNL     1      -9.483   9.403  69.034  1.00  0.00    -0.160 C  
HETATM   32  C   UNL     1     -10.568   7.443  68.139  1.00  0.00    -0.162 C  
BRANCH  28  33
HETATM   33  N   UNL     1      -9.594   7.001  71.083  1.00  0.00    -0.166 N  
HETATM   34  O   UNL     1     -10.926   5.485  72.193  1.00  0.00    -0.240 OA 
HETATM   35  C   UNL     1      -9.815   5.883  71.867  1.00  0.00    -0.162 C  
HETATM   36  H   UNL     1      -8.641   7.242  70.813  1.00  0.00     0.000 HD 
BRANCH  35  37
HETATM   37  C   UNL     1      -8.594   5.203  72.362  1.00  0.00    -0.125 A  
HETATM   38  C   UNL     1      -7.356   5.227  71.681  1.00  0.00    -0.085 A  
HETATM   39  C   UNL     1      -6.349   4.382  72.202  1.00  0.00    -0.022 A  
HETATM   40  C   UNL     1      -8.785   4.400  73.510  1.00  0.00    -0.099 A  
HETATM   41  C   UNL     1      -7.769   3.584  73.987  1.00  0.00    -0.066 A  
HETATM   42  C   UNL     1      -6.552   3.563  73.323  1.00  0.00    -0.030 A  
BRANCH  38  43
HETATM   43  C   UNL     1      -7.044   6.058  70.474  1.00  0.00    -0.071 A  
HETATM   44  C   UNL     1      -6.509   7.353  70.566  1.00  0.00    -0.039 A  
HETATM   45  C   UNL     1      -6.472   7.616  68.141  1.00  0.00    -0.054 A  
HETATM   46  C   UNL     1      -6.242   8.127  69.424  1.00  0.00    -0.034 A  
HETATM   47  C   UNL     1      -6.230   8.446  66.904  1.00  0.00    -0.055 C  
HETATM   48  C   UNL     1      -6.954   6.309  68.028  1.00  0.00    -0.080 A  
HETATM   49  C   UNL     1      -7.243   5.553  69.172  1.00  0.00    -0.069 A  
HETATM   50  F   UNL     1      -5.811   9.715  67.166  1.00  0.00    -0.048 F  
HETATM   51  F   UNL     1      -7.350   8.576  66.136  1.00  0.00    -0.076 F  
HETATM   52  F   UNL     1      -5.284   7.903  66.087  1.00  0.00    -0.023 F  
ENDBRANCH  38  43
ENDBRANCH  35  37
ENDBRANCH  28  33
ENDBRANCH  26  27
ENDBRANCH  25  26
ENDBRANCH  24  25
ENDBRANCH  23  24
ENDBRANCH  10  23
ENDBRANCH   7  10
ENDBRANCH   3   6
TORSDOF 10
ENDMDL
MODEL      127
REMARK 921   NORMALIZED FREE ENERGY PREDICTED BY IDOCK:    6.88 KCAL/MOL
REMARK 922        TOTAL FREE ENERGY PREDICTED BY IDOCK:    7.80 KCAL/MOL
REMARK 923 INTER-LIGAND FREE ENERGY PREDICTED BY IDOCK:   -0.67 KCAL/MOL
REMARK 924 INTRA-LIGAND FREE ENERGY PREDICTED BY IDOCK:    8.47 KCAL/MOL
REMARK 927      BINDING AFFINITY PREDICTED BY RF-SCORE:    0.00 PKD
ROOT
HETATM    1  F   UNL     1      -7.355  15.155  66.731  1.00  0.00    -0.181 F  
HETATM    2  C   UNL     1      -8.329  16.060  66.970  1.00  0.00    -0.219 C  
HETATM    3  C   UNL     1      -9.738  15.458  66.848  1.00  0.00    -0.231 C  
HETATM    4  F   UNL     1      -8.149  17.100  66.128  1.00  0.00    -0.284 F  
HETATM    5  F   UNL     1      -8.133  16.527  68.229  1.00  0.00    -0.159 F  
ENDROOT
BRANCH   3   6
HETATM    6  N   UNL     1      -9.812  14.052  66.451  1.00  0.00    -0.287 N  
HETATM    7  C   UNL     1      -9.065  13.089  67.103  1.00  0.00    -0.225 C  
HETATM    8  H   UNL     1     -10.424  13.778  65.683  1.00  0.00     0.000 HD 
HETATM    9  O   UNL     1      -8.271  13.406  67.991  1.00  0.00    -0.139 OA 
BRANCH   7  10
HETATM   10  C   UNL     1      -9.289  11.623  66.655  1.00  0.00    -0.203 C  
HETATM   11  C   UNL     1      -8.072  10.736  66.958  1.00  0.00    -0.124 A  
HETATM   12  C   UNL     1      -9.274  10.869  62.442  1.00  0.00    -0.304 A  
HETATM   13  C   UNL     1      -7.531  10.411  68.194  1.00  0.00    -0.090 A  
HETATM   14  C   UNL     1      -8.373  10.638  64.646  1.00  0.00    -0.056 A  
HETATM   15  C   UNL     1      -6.481   9.492  68.230  1.00  0.00    -0.053 A  
HETATM   16  C   UNL     1     -10.256  11.749  62.924  1.00  0.00    -0.071 A  
HETATM   17  C   UNL     1      -5.985   8.922  67.045  1.00  0.00    -0.057 A  
HETATM   18  C   UNL     1      -8.320  10.313  63.301  1.00  0.00    -0.168 A  
HETATM   19  C   UNL     1      -9.371  11.516  65.126  1.00  0.00    -0.129 A  
HETATM   20  C   UNL     1      -6.530   9.262  65.801  1.00  0.00    -0.068 A  
HETATM   21  C   UNL     1     -10.309  12.085  64.276  1.00  0.00    -0.357 A  
HETATM   22  C   UNL     1      -7.577  10.167  65.762  1.00  0.00    -0.134 A  
BRANCH  10  23
HETATM   23  C   UNL     1     -10.571  11.048  67.312  1.00  0.00    -0.287 C  
BRANCH  23  24
HETATM   24  C   UNL     1     -11.887  11.734  66.902  1.00  0.00    -0.090 C  
BRANCH  24  25
HETATM   25  C   UNL     1     -12.270  12.807  67.921  1.00  0.00     0.016 C  
BRANCH  25  26
HETATM   26  C   UNL     1     -11.343  12.835  69.142  1.00  0.00    -0.281 C  
BRANCH  26  27
HETATM   27  N   UNL     1     -11.700  11.887  70.209  1.00  0.00    -0.268 NA 
HETATM   28  C   UNL     1     -11.128   9.135  69.265  1.00  0.00     0.023 C  
HETATM   29  C   UNL     1     -10.017  10.105  69.681  1.00  0.00    -0.262 C  
HETATM   30  C   UNL     1     -12.396   9.890  68.849  1.00  0.00     1.509 C  
HETATM   31  C   UNL     1     -12.788  10.964  69.866  1.00  0.00     0.081 C  
HETATM   32  C   UNL     1     -10.524  11.141  70.681  1.00  0.00     1.874 C  
BRANCH  28  33
HETATM   33  N   UNL     1     -11.407   8.159  70.315  1.00  0.00    -0.429 N  
HETATM   34  O   UNL     1      -9.942   6.570  69.520  1.00  0.00    -0.155 OA 
HETATM   35  C   UNL     1     -10.791   6.920  70.329  1.00  0.00    -0.257 C  
HETATM   36  H   UNL     1     -12.071   8.396  71.052  1.00  0.00     0.000 HD 
BRANCH  35  37
HETATM   37  C   UNL     1     -11.273   5.983  71.372  1.00  0.00    -0.325 A  
HETATM   38  C   UNL     1     -10.773   4.671  71.536  1.00  0.00     0.090 A  
HETATM   39  C   UNL     1     -11.467   3.858  72.460  1.00  0.00     0.614 A  
HETATM   40  C   UNL     1     -12.381   6.445  72.120  1.00  0.00    -0.231 A  
HETATM   41  C   UNL     1     -13.033   5.612  73.017  1.00  0.00     1.267 A  
HETATM   42  C   UNL     1     -12.585   4.310  73.178  1.00  0.00     0.842 A  
BRANCH  38  43
HETATM   43  C   UNL     1      -9.595   4.094  70.812  1.00  0.00    -0.260 A  
HETATM   44  C   UNL     1      -8.603   3.343  71.463  1.00  0.00    -0.107 A  
HETATM   45  C   UNL     1      -7.353   3.016  69.393  1.00  0.00    -0.044 A  
HETATM   46  C   UNL     1      -7.494   2.826  70.773  1.00  0.00    -0.036 A  
HETATM   47  C   UNL     1      -6.149   2.505  68.642  1.00  0.00    -0.025 C  
HETATM   48  C   UNL     1      -8.358   3.716  68.719  1.00  0.00    -0.089 A  
HETATM   49  C   UNL     1      -9.449   4.251  69.419  1.00  0.00    -0.256 A  
HETATM   50  F   UNL     1      -5.228   1.888  69.433  1.00  0.00    -0.009 F  
HETATM   51  F   UNL     1      -5.476   3.499  67.995  1.00  0.00    -0.014 F  
HETATM   52  F   UNL     1      -6.479   1.598  67.680  1.00  0.00    -0.024 F  
ENDBRANCH  38  43
ENDBRANCH  35  37
ENDBRANCH  28  33
ENDBRANCH  26  27
ENDBRANCH  25  26
ENDBRANCH  24  25
ENDBRANCH  23  24
ENDBRANCH  10  23
ENDBRANCH   7  10
ENDBRANCH   3   6
TORSDOF 10
ENDMDL
MODEL      128
REMARK 921   NORMALIZED FREE ENERGY PREDICTED BY IDOCK:    7.16 KCAL/MOL
REMARK 922        TOTAL FREE ENERGY PREDICTED BY IDOCK:    8.24 KCAL/MOL
REMARK 923 INTER-LIGAND FREE ENERGY PREDICTED BY IDOCK:    0.73 KCAL/MOL
REMARK 924 INTRA-LIGAND FREE ENERGY PREDICTED BY IDOCK:    7.51 KCAL/MOL
REMARK 927      BINDING AFFINITY PREDICTED BY RF-SCORE:    0.00 PKD
ROOT
HETATM    1  F   UNL     1      -9.280  10.078  69.244  1.00  0.00    -0.155 F  
HETATM    2  C   UNL     1     -10.095  10.355  70.287  1.00  0.00     0.199 C  
HETATM    3  C   UNL     1     -10.663  11.782  70.230  1.00  0.00     1.329 C  
HETATM    4  F   UNL     1      -9.405  10.131  71.426  1.00  0.00     0.646 F  
HETATM    5  F   UNL     1     -11.107   9.452  70.248  1.00  0.00    -0.237 F  
ENDROOT
BRANCH   3   6
HETATM    6  N   UNL     1     -10.209  12.618  69.118  1.00  0.00    -0.408 N  
HETATM    7  C   UNL     1      -9.599  13.837  69.349  1.00  0.00     0.666 C  
HETATM    8  H   UNL     1     -10.345  12.298  68.160  1.00  0.00     0.000 HD 
HETATM    9  O   UNL     1      -9.483  14.273  70.495  1.00  0.00     1.733 OA 
BRANCH   7  10
HETATM   10  C   UNL     1      -9.083  14.596  68.100  1.00  0.00    -0.187 C  
HETATM   11  C   UNL     1      -7.624  15.047  68.263  1.00  0.00    -0.111 A  
HETATM   12  C   UNL     1     -10.634  18.532  67.456  1.00  0.00    -0.461 A  
HETATM   13  C   UNL     1      -6.490  14.259  68.412  1.00  0.00    -0.106 A  
HETATM   14  C   UNL     1      -8.863  16.997  67.937  1.00  0.00    -0.224 A  
HETATM   15  C   UNL     1      -5.248  14.894  68.434  1.00  0.00    -0.111 A  
HETATM   16  C   UNL     1     -11.562  17.480  67.462  1.00  0.00     1.069 A  
HETATM   17  C   UNL     1      -5.154  16.291  68.316  1.00  0.00    -0.102 A  
HETATM   18  C   UNL     1      -9.276  18.298  67.701  1.00  0.00    -0.271 A  
HETATM   19  C   UNL     1      -9.802  15.941  67.931  1.00  0.00    -0.218 A  
HETATM   20  C   UNL     1      -6.301  17.079  68.176  1.00  0.00    -0.143 A  
HETATM   21  C   UNL     1     -11.152  16.170  67.706  1.00  0.00    -0.254 A  
HETATM   22  C   UNL     1      -7.536  16.453  68.145  1.00  0.00    -0.152 A  
BRANCH  10  23
HETATM   23  C   UNL     1      -9.254  13.723  66.829  1.00  0.00    -0.255 C  
BRANCH  23  24
HETATM   24  C   UNL     1     -10.122  14.339  65.718  1.00  0.00    -0.356 C  
BRANCH  24  25
HETATM   25  C   UNL     1     -10.276  13.359  64.554  1.00  0.00    -0.321 C  
BRANCH  25  26
HETATM   26  C   UNL     1      -9.621  11.999  64.822  1.00  0.00     0.004 C  
BRANCH  26  27
HETATM   27  N   UNL     1      -9.149  11.804  66.203  1.00  0.00    -0.210 NA 
HETATM   28  C   UNL     1      -6.839   9.944  66.164  1.00  0.00    -0.097 C  
HETATM   29  C   UNL     1      -6.727  11.400  65.700  1.00  0.00     0.602 C  
HETATM   30  C   UNL     1      -8.287   9.445  66.074  1.00  0.00    -0.123 C  
HETATM   31  C   UNL     1      -9.277  10.429  66.701  1.00  0.00    -0.156 C  
HETATM   32  C   UNL     1      -7.772  12.286  66.374  1.00  0.00     0.484 C  
BRANCH  28  33
HETATM   33  N   UNL     1      -6.295   9.768  67.508  1.00  0.00    -0.063 N  
HETATM   34  O   UNL     1      -8.041   8.474  68.272  1.00  0.00    -0.116 OA 
HETATM   35  C   UNL     1      -6.981   9.051  68.473  1.00  0.00    -0.064 C  
HETATM   36  H   UNL     1      -5.392  10.181  67.739  1.00  0.00     0.000 HD 
BRANCH  35  37
HETATM   37  C   UNL     1      -6.376   9.071  69.827  1.00  0.00    -0.038 A  
HETATM   38  C   UNL     1      -6.496   8.009  70.753  1.00  0.00    -0.037 A  
HETATM   39  C   UNL     1      -6.011   8.269  72.055  1.00  0.00    -0.049 A  
HETATM   40  C   UNL     1      -5.777  10.298  70.192  1.00  0.00    -0.058 A  
HETATM   41  C   UNL     1      -5.314  10.511  71.483  1.00  0.00    -0.002 A  
HETATM   42  C   UNL     1      -5.445   9.499  72.422  1.00  0.00    -0.007 A  
BRANCH  38  43
HETATM   43  C   UNL     1      -7.092   6.666  70.461  1.00  0.00    -0.068 A  
HETATM   44  C   UNL     1      -7.583   5.822  71.470  1.00  0.00    -0.099 A  
HETATM   45  C   UNL     1      -8.214   4.101  69.861  1.00  0.00    -0.068 A  
HETATM   46  C   UNL     1      -8.120   4.557  71.181  1.00  0.00    -0.086 A  
HETATM   47  C   UNL     1      -8.749   2.728  69.533  1.00  0.00    -0.077 C  
HETATM   48  C   UNL     1      -7.778   4.948  68.838  1.00  0.00    -0.073 A  
HETATM   49  C   UNL     1      -7.220   6.199  69.136  1.00  0.00    -0.083 A  
HETATM   50  F   UNL     1      -9.086   1.994  70.629  1.00  0.00    -0.113 F  
HETATM   51  F   UNL     1      -7.852   1.970  68.840  1.00  0.00    -0.046 F  
HETATM   52  F   UNL     1      -9.868   2.775  68.757  1.00  0.00    -0.197 F  
ENDBRANCH  38  43
ENDBRANCH  35  37
ENDBRANCH  28  33
ENDBRANCH  26  27
ENDBRANCH  25  26
ENDBRANCH  24  25
ENDBRANCH  23  24
ENDBRANCH  10  23
ENDBRANCH   7  10
ENDBRANCH   3   6
TORSDOF 10
ENDMDL
MODEL      129
REMARK 921   NORMALIZED FREE ENERGY PREDICTED BY IDOCK:    7.87 KCAL/MOL
REMARK 922        TOTAL FREE ENERGY PREDICTED BY IDOCK:    9.37 KCAL/MOL
REMARK 923 INTER-LIGAND FREE ENERGY PREDICTED BY IDOCK:   -3.82 KCAL/MOL
REMARK 924 INTRA-LIGAND FREE ENERGY PREDICTED BY IDOCK:   13.20 KCAL/MOL
REMARK 927      BINDING AFFINITY PREDICTED BY RF-SCORE:    0.00 PKD
ROOT
HETATM    1  F   UNL     1      -9.473   6.340  67.974  1.00  0.00    -0.120 F  
HETATM    2  C   UNL     1      -8.483   6.160  67.073  1.00  0.00    -0.105 C  
HETATM    3  C   UNL     1      -7.222   5.542  67.696  1.00  0.00    -0.075 C  
HETATM    4  F   UNL     1      -8.227   7.352  66.491  1.00  0.00    -0.106 F  
HETATM    5  F   UNL     1      -8.971   5.341  66.108  1.00  0.00    -0.123 F  
ENDROOT
BRANCH   3   6
HETATM    6  N   UNL     1      -7.262   5.297  69.138  1.00  0.00    -0.057 N  
HETATM    7  C   UNL     1      -8.431   5.467  69.855  1.00  0.00    -0.116 C  
HETATM    8  H   UNL     1      -6.416   4.996  69.621  1.00  0.00     0.000 HD 
HETATM    9  O   UNL     1      -9.448   5.891  69.305  1.00  0.00    -0.126 OA 
BRANCH   7  10
HETATM   10  C   UNL     1      -8.377   5.095  71.359  1.00  0.00    -0.119 C  
HETATM   11  C   UNL     1      -9.177   3.820  71.665  1.00  0.00    -0.184 A  
HETATM   12  C   UNL     1     -10.588   7.589  74.045  1.00  0.00     0.480 A  
HETATM   13  C   UNL     1      -8.949   2.530  71.205  1.00  0.00    -0.146 A  
HETATM   14  C   UNL     1     -10.152   5.508  72.948  1.00  0.00    -0.202 A  
HETATM   15  C   UNL     1      -9.748   1.503  71.709  1.00  0.00    -0.196 A  
HETATM   16  C   UNL     1      -9.566   8.205  73.305  1.00  0.00    -0.261 A  
HETATM   17  C   UNL     1     -10.758   1.774  72.647  1.00  0.00    -0.207 A  
HETATM   18  C   UNL     1     -10.892   6.235  73.864  1.00  0.00     0.010 A  
HETATM   19  C   UNL     1      -9.118   6.132  72.214  1.00  0.00    -0.137 A  
HETATM   20  C   UNL     1     -10.988   3.078  73.099  1.00  0.00    -0.210 A  
HETATM   21  C   UNL     1      -8.822   7.479  72.376  1.00  0.00    -0.162 A  
HETATM   22  C   UNL     1     -10.192   4.099  72.609  1.00  0.00    -0.231 A  
BRANCH  10  23
HETATM   23  C   UNL     1      -6.905   4.952  71.827  1.00  0.00    -0.052 C  
BRANCH  23  24
HETATM   24  C   UNL     1      -5.848   5.511  70.858  1.00  0.00    -0.024 C  
BRANCH  24  25
HETATM   25  C   UNL     1      -5.583   6.989  71.150  1.00  0.00    -0.028 C  
BRANCH  25  26
HETATM   26  C   UNL     1      -6.869   7.811  71.299  1.00  0.00    -0.049 C  
BRANCH  26  27
HETATM   27  N   UNL     1      -7.656   7.956  70.064  1.00  0.00    -0.082 NA 
HETATM   28  C   UNL     1      -6.944  10.533  68.781  1.00  0.00    -0.070 C  
HETATM   29  C   UNL     1      -6.011   9.318  68.750  1.00  0.00    -0.044 C  
HETATM   30  C   UNL     1      -7.916  10.455  69.964  1.00  0.00     0.090 C  
HETATM   31  C   UNL     1      -8.592   9.086  70.067  1.00  0.00    -0.151 C  
HETATM   32  C   UNL     1      -6.790   8.011  68.878  1.00  0.00    -0.061 C  
BRANCH  28  33
HETATM   33  N   UNL     1      -7.654  10.694  67.515  1.00  0.00    -0.093 N  
HETATM   34  O   UNL     1      -6.763  12.763  67.036  1.00  0.00    -0.090 OA 
HETATM   35  C   UNL     1      -7.515  11.840  66.752  1.00  0.00    -0.057 C  
HETATM   36  H   UNL     1      -8.266   9.947  67.187  1.00  0.00     0.000 HD 
BRANCH  35  37
HETATM   37  C   UNL     1      -8.400  11.924  65.565  1.00  0.00     0.728 A  
HETATM   38  C   UNL     1      -9.585  12.694  65.527  1.00  0.00    -0.026 A  
HETATM   39  C   UNL     1     -10.397  12.518  64.383  1.00  0.00    -0.378 A  
HETATM   40  C   UNL     1      -8.051  11.060  64.501  1.00  0.00     0.390 A  
HETATM   41  C   UNL     1      -8.879  10.918  63.397  1.00  0.00    -0.123 A  
HETATM   42  C   UNL     1     -10.063  11.637  63.343  1.00  0.00    -0.468 A  
BRANCH  38  43
HETATM   43  C   UNL     1     -10.032  13.652  66.586  1.00  0.00    -0.283 A  
HETATM   44  C   UNL     1     -10.957  13.300  67.583  1.00  0.00    -0.281 A  
HETATM   45  C   UNL     1     -10.869  15.520  68.590  1.00  0.00    -0.267 A  
HETATM   46  C   UNL     1     -11.381  14.217  68.558  1.00  0.00    -0.309 A  
HETATM   47  C   UNL     1     -11.343  16.533  69.603  1.00  0.00    -0.073 C  
HETATM   48  C   UNL     1      -9.909  15.874  67.638  1.00  0.00    -0.233 A  
HETATM   49  C   UNL     1      -9.509  14.960  66.652  1.00  0.00    -0.286 A  
HETATM   50  F   UNL     1     -12.317  16.066  70.433  1.00  0.00    -0.380 F  
HETATM   51  F   UNL     1     -11.858  17.653  69.020  1.00  0.00     1.146 F  
HETATM   52  F   UNL     1     -10.339  16.969  70.415  1.00  0.00     0.125 F  
ENDBRANCH  38  43
ENDBRANCH  35  37
ENDBRANCH  28  33
ENDBRANCH  26  27
ENDBRANCH  25  26
ENDBRANCH  24  25
ENDBRANCH  23  24
ENDBRANCH  10  23
ENDBRANCH   7  10
ENDBRANCH   3   6
TORSDOF 10
ENDMDL
MODEL      130
REMARK 921   NORMALIZED FREE ENERGY PREDICTED BY IDOCK:    7.96 KCAL/MOL
REMARK 922        TOTAL FREE ENERGY PREDICTED BY IDOCK:    9.52 KCAL/MOL
REMARK 923 INTER-LIGAND FREE ENERGY PREDICTED BY IDOCK:    2.32 KCAL/MOL
REMARK 924 INTRA-LIGAND FREE ENERGY PREDICTED BY IDOCK:    7.20 KCAL/MOL
REMARK 927      BINDING AFFINITY PREDICTED BY RF-SCORE:    0.00 PKD
ROOT
HETATM    1  F   UNL     1     -12.589  14.488  67.135  1.00  0.00    -0.325 F  
HETATM    2  C   UNL     1     -12.295  15.623  66.463  1.00  0.00     1.411 C  
HETATM    3  C   UNL     1     -10.919  15.565  65.781  1.00  0.00    -0.283 C  
HETATM    4  F   UNL     1     -12.388  16.656  67.327  1.00  0.00     1.153 F  
HETATM    5  F   UNL     1     -13.266  15.792  65.531  1.00  0.00     1.428 F  
ENDROOT
BRANCH   3   6
HETATM    6  N   UNL     1     -10.135  14.349  65.999  1.00  0.00    -0.308 N  
HETATM    7  C   UNL     1     -10.625  13.318  66.779  1.00  0.00    -0.276 C  
HETATM    8  H   UNL     1      -9.214  14.261  65.570  1.00  0.00     0.000 HD 
HETATM    9  O   UNL     1     -11.706  13.430  67.359  1.00  0.00    -0.331 OA 
BRANCH   7  10
HETATM   10  C   UNL     1      -9.746  12.045  66.868  1.00  0.00    -0.213 C  
HETATM   11  C   UNL     1      -9.654  11.313  65.521  1.00  0.00    -0.259 A  
HETATM   12  C   UNL     1     -11.382   8.716  69.002  1.00  0.00     0.508 A  
HETATM   13  C   UNL     1      -9.101  11.767  64.331  1.00  0.00     0.362 A  
HETATM   14  C   UNL     1     -10.597   9.787  67.013  1.00  0.00    -0.269 A  
HETATM   15  C   UNL     1      -9.033  10.878  63.257  1.00  0.00    -0.204 A  
HETATM   16  C   UNL     1     -11.198   9.904  69.727  1.00  0.00    -0.279 A  
HETATM   17  C   UNL     1      -9.519   9.565  63.381  1.00  0.00     0.338 A  
HETATM   18  C   UNL     1     -11.089   8.653  67.635  1.00  0.00     0.318 A  
HETATM   19  C   UNL     1     -10.404  10.977  67.751  1.00  0.00    -0.218 A  
HETATM   20  C   UNL     1     -10.083   9.118  64.581  1.00  0.00     1.626 A  
HETATM   21  C   UNL     1     -10.710  11.051  69.103  1.00  0.00    -0.274 A  
HETATM   22  C   UNL     1     -10.145   9.994  65.652  1.00  0.00    -0.321 A  
BRANCH  10  23
HETATM   23  C   UNL     1      -8.334  12.401  67.403  1.00  0.00    -0.180 C  
BRANCH  23  24
HETATM   24  C   UNL     1      -7.955  11.751  68.746  1.00  0.00    -0.063 C  
BRANCH  24  25
HETATM   25  C   UNL     1      -6.935  10.633  68.531  1.00  0.00    -0.067 C  
BRANCH  25  26
HETATM   26  C   UNL     1      -7.548   9.372  67.909  1.00  0.00    -0.087 C  
BRANCH  26  27
HETATM   27  N   UNL     1      -6.874   8.115  68.271  1.00  0.00    -0.067 NA 
HETATM   28  C   UNL     1      -7.218   7.655  71.180  1.00  0.00    -0.062 C  
HETATM   29  C   UNL     1      -8.358   7.448  70.178  1.00  0.00    -0.136 C  
HETATM   30  C   UNL     1      -6.165   8.625  70.629  1.00  0.00    -0.037 C  
HETATM   31  C   UNL     1      -5.749   8.273  69.199  1.00  0.00    -0.034 C  
HETATM   32  C   UNL     1      -7.828   7.122  68.784  1.00  0.00    -0.122 C  
BRANCH  28  33
HETATM   33  N   UNL     1      -6.618   6.384  71.577  1.00  0.00    -0.053 N  
HETATM   34  O   UNL     1      -7.524   5.173  69.840  1.00  0.00    -0.058 OA 
HETATM   35  C   UNL     1      -6.856   5.222  70.865  1.00  0.00    -0.048 C  
HETATM   36  H   UNL     1      -6.010   6.353  72.396  1.00  0.00     0.000 HD 
BRANCH  35  37
HETATM   37  C   UNL     1      -6.296   3.985  71.461  1.00  0.00    -0.015 A  
HETATM   38  C   UNL     1      -5.915   2.855  70.702  1.00  0.00    -0.018 A  
HETATM   39  C   UNL     1      -5.569   1.703  71.445  1.00  0.00    -0.008 A  
HETATM   40  C   UNL     1      -6.294   3.955  72.875  1.00  0.00    -0.016 A  
HETATM   41  C   UNL     1      -5.947   2.802  73.564  1.00  0.00    -0.004 A  
HETATM   42  C   UNL     1      -5.598   1.667  72.848  1.00  0.00     0.000 A  
BRANCH  38  43
HETATM   43  C   UNL     1      -5.861   2.790  69.207  1.00  0.00    -0.023 A  
HETATM   44  C   UNL     1      -5.215   3.767  68.432  1.00  0.00    -0.012 A  
HETATM   45  C   UNL     1      -5.788   2.634  66.349  1.00  0.00    -0.023 A  
HETATM   46  C   UNL     1      -5.190   3.702  67.029  1.00  0.00    -0.012 A  
HETATM   47  C   UNL     1      -5.808   2.568  64.841  1.00  0.00    -0.018 C  
HETATM   48  C   UNL     1      -6.390   1.625  67.105  1.00  0.00    -0.024 A  
HETATM   49  C   UNL     1      -6.433   1.710  68.504  1.00  0.00    -0.029 A  
HETATM   50  F   UNL     1      -5.231   3.642  64.236  1.00  0.00    -0.007 F  
HETATM   51  F   UNL     1      -7.074   2.494  64.339  1.00  0.00    -0.044 F  
HETATM   52  F   UNL     1      -5.156   1.473  64.357  1.00  0.00    -0.003 F  
ENDBRANCH  38  43
ENDBRANCH  35  37
ENDBRANCH  28  33
ENDBRANCH  26  27
ENDBRANCH  25  26
ENDBRANCH  24  25
ENDBRANCH  23  24
ENDBRANCH  10  23
ENDBRANCH   7  10
ENDBRANCH   3   6
TORSDOF 10
ENDMDL
MODEL      131
REMARK 921   NORMALIZED FREE ENERGY PREDICTED BY IDOCK:    8.56 KCAL/MOL
REMARK 922        TOTAL FREE ENERGY PREDICTED BY IDOCK:   10.46 KCAL/MOL
REMARK 923 INTER-LIGAND FREE ENERGY PREDICTED BY IDOCK:    1.52 KCAL/MOL
REMARK 924 INTRA-LIGAND FREE ENERGY PREDICTED BY IDOCK:    8.95 KCAL/MOL
REMARK 927      BINDING AFFINITY PREDICTED BY RF-SCORE:    0.00 PKD
ROOT
HETATM    1  F   UNL     1      -9.932  10.726  65.287  1.00  0.00    -0.264 F  
HETATM    2  C   UNL     1     -11.140  11.328  65.347  1.00  0.00    -0.067 C  
HETATM    3  C   UNL     1     -11.691  11.403  66.780  1.00  0.00     0.210 C  
HETATM    4  F   UNL     1     -11.978  10.669  64.518  1.00  0.00     0.795 F  
HETATM    5  F   UNL     1     -10.983  12.579  64.846  1.00  0.00    -0.300 F  
ENDROOT
BRANCH   3   6
HETATM    6  N   UNL     1     -10.875  10.783  67.824  1.00  0.00    -0.247 N  
HETATM    7  C   UNL     1     -11.461  10.187  68.925  1.00  0.00    -0.064 C  
HETATM    8  H   UNL     1      -9.858  10.791  67.738  1.00  0.00     0.000 HD 
HETATM    9  O   UNL     1     -12.682  10.223  69.081  1.00  0.00     0.192 OA 
BRANCH   7  10
HETATM   10  C   UNL     1     -10.502   9.488  69.921  1.00  0.00    -0.269 C  
HETATM   11  C   UNL     1      -9.082   9.350  69.353  1.00  0.00    -0.162 A  
HETATM   12  C   UNL     1     -11.079   5.291  70.533  1.00  0.00     0.217 A  
HETATM   13  C   UNL     1      -8.192  10.358  69.005  1.00  0.00    -0.141 A  
HETATM   14  C   UNL     1      -9.812   7.176  69.781  1.00  0.00    -0.173 A  
HETATM   15  C   UNL     1      -6.906   9.991  68.609  1.00  0.00    -0.054 A  
HETATM   16  C   UNL     1     -12.152   6.133  70.866  1.00  0.00     0.179 A  
HETATM   17  C   UNL     1      -6.530   8.637  68.558  1.00  0.00    -0.055 A  
HETATM   18  C   UNL     1      -9.902   5.809  69.980  1.00  0.00    -0.235 A  
HETATM   19  C   UNL     1     -10.892   8.018  70.128  1.00  0.00    -0.242 A  
HETATM   20  C   UNL     1      -7.435   7.627  68.901  1.00  0.00    -0.096 A  
HETATM   21  C   UNL     1     -12.068   7.510  70.660  1.00  0.00    -0.116 A  
HETATM   22  C   UNL     1      -8.710   7.987  69.303  1.00  0.00    -0.137 A  
BRANCH  10  23
HETATM   23  C   UNL     1     -10.486  10.244  71.275  1.00  0.00     1.067 C  
BRANCH  23  24
HETATM   24  C   UNL     1     -11.813  10.227  72.056  1.00  0.00     0.572 C  
BRANCH  24  25
HETATM   25  C   UNL     1     -12.770  11.285  71.507  1.00  0.00    -0.481 C  
BRANCH  25  26
HETATM   26  C   UNL     1     -12.740  12.595  72.305  1.00  0.00     0.163 C  
BRANCH  26  27
HETATM   27  N   UNL     1     -11.809  13.611  71.788  1.00  0.00     0.649 NA 
HETATM   28  C   UNL     1     -13.108  15.028  69.530  1.00  0.00     0.698 C  
HETATM   29  C   UNL     1     -13.504  15.276  70.989  1.00  0.00    -0.516 C  
HETATM   30  C   UNL     1     -12.459  13.650  69.359  1.00  0.00    -0.036 C  
HETATM   31  C   UNL     1     -11.372  13.389  70.405  1.00  0.00     0.389 C  
HETATM   32  C   UNL     1     -12.353  14.967  71.943  1.00  0.00    -0.342 C  
BRANCH  28  33
HETATM   33  N   UNL     1     -12.245  16.092  69.023  1.00  0.00    -0.392 N  
HETATM   34  O   UNL     1     -11.013  16.304  70.957  1.00  0.00    -0.158 OA 
HETATM   35  C   UNL     1     -11.268  16.666  69.816  1.00  0.00    -0.031 C  
HETATM   36  H   UNL     1     -12.366  16.418  68.064  1.00  0.00     0.000 HD 
BRANCH  35  37
HETATM   37  C   UNL     1     -10.563  17.825  69.216  1.00  0.00     0.170 A  
HETATM   38  C   UNL     1     -10.254  17.925  67.840  1.00  0.00    -0.375 A  
HETATM   39  C   UNL     1      -9.426  19.009  67.472  1.00  0.00    -0.351 A  
HETATM   40  C   UNL     1     -10.088  18.778  70.146  1.00  0.00     1.148 A  
HETATM   41  C   UNL     1      -9.277  19.828  69.741  1.00  0.00     0.516 A  
HETATM   42  C   UNL     1      -8.931  19.937  68.403  1.00  0.00    -0.255 A  
BRANCH  38  43
HETATM   43  C   UNL     1     -10.724  16.984  66.774  1.00  0.00    -0.102 A  
HETATM   44  C   UNL     1     -11.177  17.428  65.521  1.00  0.00     0.579 A  
HETATM   45  C   UNL     1     -11.624  15.151  64.766  1.00  0.00    -0.364 A  
HETATM   46  C   UNL     1     -11.634  16.533  64.539  1.00  0.00     0.163 A  
HETATM   47  C   UNL     1     -12.149  14.177  63.740  1.00  0.00    -0.151 C  
HETATM   48  C   UNL     1     -11.127  14.688  65.987  1.00  0.00    -0.332 A  
HETATM   49  C   UNL     1     -10.697  15.588  66.972  1.00  0.00    -0.321 A  
HETATM   50  F   UNL     1     -12.649  14.772  62.622  1.00  0.00     1.002 F  
HETATM   51  F   UNL     1     -13.156  13.398  64.228  1.00  0.00    -0.084 F  
HETATM   52  F   UNL     1     -11.191  13.310  63.304  1.00  0.00    -0.280 F  
ENDBRANCH  38  43
ENDBRANCH  35  37
ENDBRANCH  28  33
ENDBRANCH  26  27
ENDBRANCH  25  26
ENDBRANCH  24  25
ENDBRANCH  23  24
ENDBRANCH  10  23
ENDBRANCH   7  10
ENDBRANCH   3   6
TORSDOF 10
ENDMDL
MODEL      132
REMARK 921   NORMALIZED FREE ENERGY PREDICTED BY IDOCK:    9.18 KCAL/MOL
REMARK 922        TOTAL FREE ENERGY PREDICTED BY IDOCK:   11.44 KCAL/MOL
REMARK 923 INTER-LIGAND FREE ENERGY PREDICTED BY IDOCK:   -6.09 KCAL/MOL
REMARK 924 INTRA-LIGAND FREE ENERGY PREDICTED BY IDOCK:   17.53 KCAL/MOL
REMARK 927      BINDING AFFINITY PREDICTED BY RF-SCORE:    0.00 PKD
ROOT
HETATM    1  F   UNL     1     -12.242  14.627  72.149  1.00  0.00    -0.365 F  
HETATM    2  C   UNL     1     -12.922  13.513  71.797  1.00  0.00    -0.348 C  
HETATM    3  C   UNL     1     -12.344  12.841  70.541  1.00  0.00    -0.275 C  
HETATM    4  F   UNL     1     -14.220  13.849  71.638  1.00  0.00    -0.429 F  
HETATM    5  F   UNL     1     -12.855  12.661  72.850  1.00  0.00    -0.055 F  
ENDROOT
BRANCH   3   6
HETATM    6  N   UNL     1     -11.213  13.517  69.904  1.00  0.00    -0.479 N  
HETATM    7  C   UNL     1     -11.214  13.779  68.547  1.00  0.00    -0.275 C  
HETATM    8  H   UNL     1     -10.412  13.798  70.470  1.00  0.00     0.000 HD 
HETATM    9  O   UNL     1     -12.141  13.391  67.835  1.00  0.00    -0.338 OA 
BRANCH   7  10
HETATM   10  C   UNL     1     -10.003  14.575  67.999  1.00  0.00    -0.222 C  
HETATM   11  C   UNL     1      -8.696  14.199  68.713  1.00  0.00    -0.065 A  
HETATM   12  C   UNL     1      -9.809  18.731  69.004  1.00  0.00    -0.351 A  
HETATM   13  C   UNL     1      -8.046  12.972  68.730  1.00  0.00     0.086 A  
HETATM   14  C   UNL     1      -8.996  16.482  69.090  1.00  0.00    -0.171 A  
HETATM   15  C   UNL     1      -6.805  12.896  69.362  1.00  0.00     0.040 A  
HETATM   16  C   UNL     1     -10.927  18.309  68.268  1.00  0.00     0.181 A  
HETATM   17  C   UNL     1      -6.238  14.029  69.970  1.00  0.00    -0.142 A  
HETATM   18  C   UNL     1      -8.838  17.816  69.427  1.00  0.00     0.469 A  
HETATM   19  C   UNL     1     -10.119  16.067  68.340  1.00  0.00    -0.229 A  
HETATM   20  C   UNL     1      -6.903  15.260  69.957  1.00  0.00    -0.080 A  
HETATM   21  C   UNL     1     -11.094  16.966  67.933  1.00  0.00    -0.153 A  
HETATM   22  C   UNL     1      -8.131  15.343  69.323  1.00  0.00    -0.246 A  
BRANCH  10  23
HETATM   23  C   UNL     1      -9.874  14.374  66.466  1.00  0.00    -0.298 C  
BRANCH  23  24
HETATM   24  C   UNL     1     -11.168  13.955  65.745  1.00  0.00    -0.303 C  
BRANCH  24  25
HETATM   25  C   UNL     1     -11.963  12.969  66.602  1.00  0.00    -0.453 C  
BRANCH  25  26
HETATM   26  C   UNL     1     -11.093  12.218  67.618  1.00  0.00    -0.268 C  
BRANCH  26  27
HETATM   27  N   UNL     1      -9.867  11.625  67.060  1.00  0.00    -0.191 NA 
HETATM   28  C   UNL     1     -10.242   8.690  66.850  1.00  0.00    -0.296 C  
HETATM   29  C   UNL     1     -10.916   9.673  65.887  1.00  0.00     1.019 C  
HETATM   30  C   UNL     1      -9.886   9.372  68.177  1.00  0.00    -0.183 C  
HETATM   31  C   UNL     1      -9.168  10.707  67.966  1.00  0.00    -0.148 C  
HETATM   32  C   UNL     1     -10.125  10.973  65.768  1.00  0.00    -0.252 C  
BRANCH  28  33
HETATM   33  N   UNL     1      -9.072   8.062  66.242  1.00  0.00    -0.180 N  
HETATM   34  O   UNL     1      -9.882   5.912  66.403  1.00  0.00    -0.158 OA 
HETATM   35  C   UNL     1      -8.987   6.688  66.096  1.00  0.00    -0.139 C  
HETATM   36  H   UNL     1      -8.303   8.648  65.918  1.00  0.00     0.000 HD 
BRANCH  35  37
HETATM   37  C   UNL     1      -7.688   6.183  65.591  1.00  0.00    -0.092 A  
HETATM   38  C   UNL     1      -6.466   6.341  66.283  1.00  0.00    -0.047 A  
HETATM   39  C   UNL     1      -5.303   5.957  65.576  1.00  0.00    -0.013 A  
HETATM   40  C   UNL     1      -7.727   5.645  64.284  1.00  0.00    -0.098 A  
HETATM   41  C   UNL     1      -6.561   5.282  63.626  1.00  0.00    -0.030 A  
HETATM   42  C   UNL     1      -5.344   5.452  64.267  1.00  0.00    -0.013 A  
BRANCH  38  43
HETATM   43  C   UNL     1      -6.318   6.877  67.674  1.00  0.00    -0.048 A  
HETATM   44  C   UNL     1      -5.733   8.125  67.945  1.00  0.00    -0.038 A  
HETATM   45  C   UNL     1      -6.046   7.860  70.349  1.00  0.00    -0.029 A  
HETATM   46  C   UNL     1      -5.584   8.604  69.256  1.00  0.00    -0.035 A  
HETATM   47  C   UNL     1      -5.857   8.339  71.768  1.00  0.00    -0.040 C  
HETATM   48  C   UNL     1      -6.678   6.640  70.097  1.00  0.00    -0.052 A  
HETATM   49  C   UNL     1      -6.800   6.156  68.786  1.00  0.00    -0.066 A  
HETATM   50  F   UNL     1      -5.181   9.516  71.866  1.00  0.00    -0.054 F  
HETATM   51  F   UNL     1      -5.163   7.447  72.532  1.00  0.00    -0.035 F  
HETATM   52  F   UNL     1      -7.041   8.534  72.416  1.00  0.00    -0.100 F  
ENDBRANCH  38  43
ENDBRANCH  35  37
ENDBRANCH  28  33
ENDBRANCH  26  27
ENDBRANCH  25  26
ENDBRANCH  24  25
ENDBRANCH  23  24
ENDBRANCH  10  23
ENDBRANCH   7  10
ENDBRANCH   3   6
TORSDOF 10
ENDMDL
MODEL      133
REMARK 921   NORMALIZED FREE ENERGY PREDICTED BY IDOCK:   10.63 KCAL/MOL
REMARK 922        TOTAL FREE ENERGY PREDICTED BY IDOCK:   13.74 KCAL/MOL
REMARK 923 INTER-LIGAND FREE ENERGY PREDICTED BY IDOCK:   -2.11 KCAL/MOL
REMARK 924 INTRA-LIGAND FREE ENERGY PREDICTED BY IDOCK:   15.85 KCAL/MOL
REMARK 927      BINDING AFFINITY PREDICTED BY RF-SCORE:    0.00 PKD
ROOT
HETATM    1  F   UNL     1      -7.237   7.542  62.558  1.00  0.00    -0.072 F  
HETATM    2  C   UNL     1      -6.025   7.707  63.133  1.00  0.00    -0.055 C  
HETATM    3  C   UNL     1      -5.969   7.151  64.564  1.00  0.00    -0.037 C  
HETATM    4  F   UNL     1      -5.719   9.022  63.089  1.00  0.00    -0.077 F  
HETATM    5  F   UNL     1      -5.126   7.061  62.349  1.00  0.00    -0.028 F  
ENDROOT
BRANCH   3   6
HETATM    6  N   UNL     1      -7.213   6.590  65.093  1.00  0.00    -0.067 N  
HETATM    7  C   UNL     1      -7.207   5.777  66.210  1.00  0.00    -0.077 C  
HETATM    8  H   UNL     1      -8.096   6.802  64.630  1.00  0.00     0.000 HD 
HETATM    9  O   UNL     1      -6.146   5.455  66.746  1.00  0.00    -0.028 OA 
BRANCH   7  10
HETATM   10  C   UNL     1      -8.591   5.311  66.730  1.00  0.00    -0.106 C  
HETATM   11  C   UNL     1      -8.474   4.505  68.033  1.00  0.00    -0.101 A  
HETATM   12  C   UNL     1     -10.536   2.201  64.526  1.00  0.00     0.561 A  
HETATM   13  C   UNL     1      -8.008   4.931  69.270  1.00  0.00    -0.075 A  
HETATM   14  C   UNL     1      -9.478   3.076  66.485  1.00  0.00    -0.029 A  
HETATM   15  C   UNL     1      -8.098   4.045  70.344  1.00  0.00    -0.058 A  
HETATM   16  C   UNL     1     -10.267   3.394  63.835  1.00  0.00    -0.216 A  
HETATM   17  C   UNL     1      -8.638   2.759  70.172  1.00  0.00    -0.111 A  
HETATM   18  C   UNL     1     -10.135   2.032  65.856  1.00  0.00     1.300 A  
HETATM   19  C   UNL     1      -9.220   4.277  65.787  1.00  0.00    -0.146 A  
HETATM   20  C   UNL     1      -9.097   2.335  68.920  1.00  0.00    -0.192 A  
HETATM   21  C   UNL     1      -9.599   4.444  64.462  1.00  0.00    -0.111 A  
HETATM   22  C   UNL     1      -9.018   3.213  67.853  1.00  0.00    -0.191 A  
BRANCH  10  23
HETATM   23  C   UNL     1      -9.535   6.528  66.915  1.00  0.00    -0.178 C  
BRANCH  23  24
HETATM   24  C   UNL     1      -9.891   7.287  65.624  1.00  0.00     0.895 C  
BRANCH  24  25
HETATM   25  C   UNL     1      -8.867   6.991  64.528  1.00  0.00     0.643 C  
BRANCH  25  26
HETATM   26  C   UNL     1      -8.903   8.009  63.381  1.00  0.00     0.718 C  
BRANCH  26  27
HETATM   27  N   UNL     1      -8.528   9.380  63.761  1.00  0.00    -0.184 NA 
HETATM   28  C   UNL     1     -10.964  10.821  64.645  1.00  0.00     0.203 C  
HETATM   29  C   UNL     1     -10.282   9.759  65.512  1.00  0.00    -0.114 C  
HETATM   30  C   UNL     1     -10.629  10.624  63.162  1.00  0.00     0.387 C  
HETATM   31  C   UNL     1      -9.129  10.429  62.930  1.00  0.00    -0.277 C  
HETATM   32  C   UNL     1      -8.796   9.636  65.183  1.00  0.00    -0.180 C  
BRANCH  28  33
HETATM   33  N   UNL     1     -10.632  12.171  65.093  1.00  0.00    -0.276 N  
HETATM   34  O   UNL     1      -9.439  11.491  66.942  1.00  0.00    -0.177 OA 
HETATM   35  C   UNL     1      -9.903  12.387  66.249  1.00  0.00    -0.247 C  
HETATM   36  H   UNL     1     -10.945  12.971  64.543  1.00  0.00     0.000 HD 
BRANCH  35  37
HETATM   37  C   UNL     1      -9.760  13.806  66.654  1.00  0.00    -0.293 A  
HETATM   38  C   UNL     1     -10.388  14.361  67.793  1.00  0.00    -0.238 A  
HETATM   39  C   UNL     1     -10.289  15.764  67.930  1.00  0.00    -0.261 A  
HETATM   40  C   UNL     1      -9.056  14.619  65.736  1.00  0.00     0.281 A  
HETATM   41  C   UNL     1      -8.984  15.994  65.909  1.00  0.00    -0.256 A  
HETATM   42  C   UNL     1      -9.615  16.571  67.000  1.00  0.00    -0.249 A  
BRANCH  38  43
HETATM   43  C   UNL     1     -11.137  13.588  68.835  1.00  0.00    -0.305 A  
HETATM   44  C   UNL     1     -11.856  14.211  69.868  1.00  0.00    -0.387 A  
HETATM   45  C   UNL     1     -12.547  12.071  70.813  1.00  0.00    -0.312 A  
HETATM   46  C   UNL     1     -12.536  13.471  70.849  1.00  0.00    -0.448 A  
HETATM   47  C   UNL     1     -13.236  11.258  71.881  1.00  0.00    -0.386 C  
HETATM   48  C   UNL     1     -11.881  11.433  69.763  1.00  0.00    -0.435 A  
HETATM   49  C   UNL     1     -11.183  12.179  68.802  1.00  0.00    -0.314 A  
HETATM   50  F   UNL     1     -13.798  12.010  72.868  1.00  0.00    -0.022 F  
HETATM   51  F   UNL     1     -12.388  10.395  72.509  1.00  0.00    -0.032 F  
HETATM   52  F   UNL     1     -14.243  10.487  71.382  1.00  0.00     0.253 F  
ENDBRANCH  38  43
ENDBRANCH  35  37
ENDBRANCH  28  33
ENDBRANCH  26  27
ENDBRANCH  25  26
ENDBRANCH  24  25
ENDBRANCH  23  24
ENDBRANCH  10  23
ENDBRANCH   7  10
ENDBRANCH   3   6
TORSDOF 10
ENDMDL
MODEL      134
REMARK 921   NORMALIZED FREE ENERGY PREDICTED BY IDOCK:   15.14 KCAL/MOL
REMARK 922        TOTAL FREE ENERGY PREDICTED BY IDOCK:   20.89 KCAL/MOL
REMARK 923 INTER-LIGAND FREE ENERGY PREDICTED BY IDOCK:    8.53 KCAL/MOL
REMARK 924 INTRA-LIGAND FREE ENERGY PREDICTED BY IDOCK:   12.35 KCAL/MOL
REMARK 927      BINDING AFFINITY PREDICTED BY RF-SCORE:    0.00 PKD
ROOT
HETATM    1  F   UNL     1     -12.792  10.514  71.678  1.00  0.00    -0.436 F  
HETATM    2  C   UNL     1     -12.207  11.730  71.598  1.00  0.00     0.420 C  
HETATM    3  C   UNL     1     -10.771  11.659  71.056  1.00  0.00     3.590 C  
HETATM    4  F   UNL     1     -12.258  12.300  72.821  1.00  0.00     1.095 F  
HETATM    5  F   UNL     1     -12.977  12.484  70.773  1.00  0.00    -0.263 F  
ENDROOT
BRANCH   3   6
HETATM    6  N   UNL     1     -10.249  10.323  70.767  1.00  0.00    -0.178 N  
HETATM    7  C   UNL     1      -9.613   9.582  71.745  1.00  0.00     0.796 C  
HETATM    8  H   UNL     1     -10.357   9.933  69.831  1.00  0.00     0.000 HD 
HETATM    9  O   UNL     1      -9.415  10.059  72.863  1.00  0.00     4.473 OA 
BRANCH   7  10
HETATM   10  C   UNL     1      -9.180   8.148  71.350  1.00  0.00    -0.195 C  
HETATM   11  C   UNL     1     -10.313   7.130  71.546  1.00  0.00    -0.218 A  
HETATM   12  C   UNL     1      -6.428   6.172  73.966  1.00  0.00    -0.071 A  
HETATM   13  C   UNL     1     -11.542   7.074  70.903  1.00  0.00    -0.370 A  
HETATM   14  C   UNL     1      -8.564   6.411  72.914  1.00  0.00    -0.124 A  
HETATM   15  C   UNL     1     -12.373   5.986  71.169  1.00  0.00     0.604 A  
HETATM   16  C   UNL     1      -5.990   7.365  73.370  1.00  0.00    -0.056 A  
HETATM   17  C   UNL     1     -11.976   4.982  72.069  1.00  0.00     0.983 A  
HETATM   18  C   UNL     1      -7.724   5.690  73.746  1.00  0.00    -0.101 A  
HETATM   19  C   UNL     1      -8.112   7.606  72.309  1.00  0.00    -0.127 A  
HETATM   20  C   UNL     1     -10.740   5.050  72.720  1.00  0.00    -0.292 A  
HETATM   21  C   UNL     1      -6.835   8.098  72.537  1.00  0.00    -0.096 A  
HETATM   22  C   UNL     1      -9.907   6.123  72.453  1.00  0.00    -0.179 A  
BRANCH  10  23
HETATM   23  C   UNL     1      -8.662   8.124  69.888  1.00  0.00    -0.138 C  
BRANCH  23  24
HETATM   24  C   UNL     1      -9.561   7.384  68.881  1.00  0.00    -0.148 C  
BRANCH  24  25
HETATM   25  C   UNL     1     -10.273   8.380  67.966  1.00  0.00    -0.263 C  
BRANCH  25  26
HETATM   26  C   UNL     1     -11.550   8.960  68.587  1.00  0.00     1.147 C  
BRANCH  26  27
HETATM   27  N   UNL     1     -11.796  10.378  68.280  1.00  0.00    -0.253 NA 
HETATM   28  C   UNL     1      -9.258  11.605  67.360  1.00  0.00    -0.168 C  
HETATM   29  C   UNL     1     -10.076  10.657  66.477  1.00  0.00    -0.275 C  
HETATM   30  C   UNL     1      -9.558  11.376  68.846  1.00  0.00    -0.087 C  
HETATM   31  C   UNL     1     -11.061  11.322  69.130  1.00  0.00    -0.253 C  
HETATM   32  C   UNL     1     -11.554  10.670  66.860  1.00  0.00     0.696 C  
BRANCH  28  33
HETATM   33  N   UNL     1      -9.465  13.001  66.982  1.00  0.00    -0.229 N  
HETATM   34  O   UNL     1     -11.765  12.874  66.968  1.00  0.00    -0.350 OA 
HETATM   35  C   UNL     1     -10.736  13.513  66.789  1.00  0.00    -0.278 C  
HETATM   36  H   UNL     1      -8.657  13.610  66.859  1.00  0.00     0.000 HD 
BRANCH  35  37
HETATM   37  C   UNL     1     -10.789  14.902  66.274  1.00  0.00    -0.331 A  
HETATM   38  C   UNL     1     -11.136  16.018  67.071  1.00  0.00    -0.071 A  
HETATM   39  C   UNL     1     -11.310  17.239  66.380  1.00  0.00     0.979 A  
HETATM   40  C   UNL     1     -10.602  15.027  64.878  1.00  0.00    -0.400 A  
HETATM   41  C   UNL     1     -10.783  16.246  64.240  1.00  0.00     0.896 A  
HETATM   42  C   UNL     1     -11.153  17.352  64.990  1.00  0.00     0.441 A  
BRANCH  38  43
HETATM   43  C   UNL     1     -11.335  15.997  68.555  1.00  0.00    -0.382 A  
HETATM   44  C   UNL     1     -12.452  15.400  69.160  1.00  0.00     0.041 A  
HETATM   45  C   UNL     1     -11.680  15.988  71.398  1.00  0.00    -0.536 A  
HETATM   46  C   UNL     1     -12.633  15.407  70.553  1.00  0.00    -0.471 A  
HETATM   47  C   UNL     1     -11.875  16.043  72.893  1.00  0.00    -0.449 C  
HETATM   48  C   UNL     1     -10.534  16.541  70.818  1.00  0.00     0.862 A  
HETATM   49  C   UNL     1     -10.373  16.552  69.425  1.00  0.00    -0.298 A  
HETATM   50  F   UNL     1     -13.058  15.513  73.313  1.00  0.00    -0.459 F  
HETATM   51  F   UNL     1     -11.846  17.317  73.377  1.00  0.00    -0.408 F  
HETATM   52  F   UNL     1     -10.904  15.369  73.573  1.00  0.00     0.468 F  
ENDBRANCH  38  43
ENDBRANCH  35  37
ENDBRANCH  28  33
ENDBRANCH  26  27
ENDBRANCH  25  26
ENDBRANCH  24  25
ENDBRANCH  23  24
ENDBRANCH  10  23
ENDBRANCH   7  10
ENDBRANCH   3   6
TORSDOF 10
ENDMDL
MODEL      135
REMARK 921   NORMALIZED FREE ENERGY PREDICTED BY IDOCK:   15.23 KCAL/MOL
REMARK 922        TOTAL FREE ENERGY PREDICTED BY IDOCK:   21.03 KCAL/MOL
REMARK 923 INTER-LIGAND FREE ENERGY PREDICTED BY IDOCK:    9.09 KCAL/MOL
REMARK 924 INTRA-LIGAND FREE ENERGY PREDICTED BY IDOCK:   11.94 KCAL/MOL
REMARK 927      BINDING AFFINITY PREDICTED BY RF-SCORE:    0.00 PKD
ROOT
HETATM    1  F   UNL     1      -8.709   9.349  67.519  1.00  0.00    -0.120 F  
HETATM    2  C   UNL     1      -9.580   9.203  68.543  1.00  0.00    -0.148 C  
HETATM    3  C   UNL     1     -10.314  10.509  68.883  1.00  0.00    -0.208 C  
HETATM    4  F   UNL     1      -8.901   8.714  69.602  1.00  0.00    -0.129 F  
HETATM    5  F   UNL     1     -10.474   8.253  68.168  1.00  0.00    -0.229 F  
ENDROOT
BRANCH   3   6
HETATM    6  N   UNL     1      -9.934  11.690  68.107  1.00  0.00    -0.189 N  
HETATM    7  C   UNL     1      -9.702  12.903  68.727  1.00  0.00     0.069 C  
HETATM    8  H   UNL     1      -9.840  11.617  67.094  1.00  0.00     0.000 HD 
HETATM    9  O   UNL     1      -9.873  13.030  69.940  1.00  0.00     1.577 OA 
BRANCH   7  10
HETATM   10  C   UNL     1      -9.222  14.061  67.816  1.00  0.00    -0.195 C  
HETATM   11  C   UNL     1      -7.878  14.641  68.283  1.00  0.00    -0.128 A  
HETATM   12  C   UNL     1     -11.357  17.759  68.108  1.00  0.00     0.600 A  
HETATM   13  C   UNL     1      -6.644  14.008  68.347  1.00  0.00    -0.106 A  
HETATM   14  C   UNL     1      -9.398  16.410  68.361  1.00  0.00    -0.217 A  
HETATM   15  C   UNL     1      -5.532  14.773  68.703  1.00  0.00    -0.094 A  
HETATM   16  C   UNL     1     -12.092  16.634  67.702  1.00  0.00     1.419 A  
HETATM   17  C   UNL     1      -5.666  16.142  68.994  1.00  0.00    -0.119 A  
HETATM   18  C   UNL     1     -10.004  17.652  68.448  1.00  0.00    -0.356 A  
HETATM   19  C   UNL     1     -10.141  15.284  67.941  1.00  0.00    -0.233 A  
HETATM   20  C   UNL     1      -6.915  16.770  68.936  1.00  0.00    -0.207 A  
HETATM   21  C   UNL     1     -11.488  15.380  67.620  1.00  0.00    -0.255 A  
HETATM   22  C   UNL     1      -8.019  16.017  68.575  1.00  0.00    -0.159 A  
BRANCH  10  23
HETATM   23  C   UNL     1      -9.139  13.589  66.341  1.00  0.00    -0.064 C  
BRANCH  23  24
HETATM   24  C   UNL     1     -10.043  14.349  65.354  1.00  0.00    -0.388 C  
BRANCH  24  25
HETATM   25  C   UNL     1      -9.869  13.800  63.937  1.00  0.00     2.155 C  
BRANCH  25  26
HETATM   26  C   UNL     1      -9.003  12.536  63.885  1.00  0.00     1.702 C  
BRANCH  26  27
HETATM   27  N   UNL     1      -8.757  11.902  65.191  1.00  0.00     0.489 NA 
HETATM   28  C   UNL     1      -5.991  10.832  65.222  1.00  0.00    -0.028 C  
HETATM   29  C   UNL     1      -6.291  12.330  65.338  1.00  0.00     4.205 C  
HETATM   30  C   UNL     1      -7.143  10.089  64.536  1.00  0.00    -0.139 C  
HETATM   31  C   UNL     1      -8.505  10.458  65.129  1.00  0.00    -0.173 C  
HETATM   32  C   UNL     1      -7.679  12.581  65.923  1.00  0.00     1.882 C  
BRANCH  28  33
HETATM   33  N   UNL     1      -5.678  10.248  66.523  1.00  0.00    -0.054 N  
HETATM   34  O   UNL     1      -7.316   8.632  66.428  1.00  0.00    -0.078 OA 
HETATM   35  C   UNL     1      -6.409   9.189  67.032  1.00  0.00    -0.063 C  
HETATM   36  H   UNL     1      -4.904  10.629  67.068  1.00  0.00     0.000 HD 
BRANCH  35  37
HETATM   37  C   UNL     1      -6.068   8.790  68.419  1.00  0.00    -0.050 A  
HETATM   38  C   UNL     1      -6.251   7.482  68.923  1.00  0.00    -0.035 A  
HETATM   39  C   UNL     1      -6.041   7.322  70.312  1.00  0.00    -0.024 A  
HETATM   40  C   UNL     1      -5.671   9.853  69.262  1.00  0.00    -0.034 A  
HETATM   41  C   UNL     1      -5.477   9.651  70.621  1.00  0.00    -0.049 A  
HETATM   42  C   UNL     1      -5.677   8.386  71.151  1.00  0.00    -0.034 A  
BRANCH  38  43
HETATM   43  C   UNL     1      -6.646   6.286  68.113  1.00  0.00    -0.066 A  
HETATM   44  C   UNL     1      -6.401   4.970  68.538  1.00  0.00    -0.036 A  
HETATM   45  C   UNL     1      -7.409   4.026  66.527  1.00  0.00    -0.076 A  
HETATM   46  C   UNL     1      -6.760   3.860  67.756  1.00  0.00    -0.046 A  
HETATM   47  C   UNL     1      -7.766   2.848  65.654  1.00  0.00    -0.077 C  
HETATM   48  C   UNL     1      -7.709   5.326  66.111  1.00  0.00    -0.088 A  
HETATM   49  C   UNL     1      -7.325   6.431  66.885  1.00  0.00    -0.079 A  
HETATM   50  F   UNL     1      -7.368   1.648  66.160  1.00  0.00    -0.051 F  
HETATM   51  F   UNL     1      -7.207   2.931  64.412  1.00  0.00    -0.054 F  
HETATM   52  F   UNL     1      -9.109   2.738  65.447  1.00  0.00    -0.132 F  
ENDBRANCH  38  43
ENDBRANCH  35  37
ENDBRANCH  28  33
ENDBRANCH  26  27
ENDBRANCH  25  26
ENDBRANCH  24  25
ENDBRANCH  23  24
ENDBRANCH  10  23
ENDBRANCH   7  10
ENDBRANCH   3   6
TORSDOF 10
ENDMDL
MODEL      136
REMARK 921   NORMALIZED FREE ENERGY PREDICTED BY IDOCK:   15.70 KCAL/MOL
REMARK 922        TOTAL FREE ENERGY PREDICTED BY IDOCK:   21.77 KCAL/MOL
REMARK 923 INTER-LIGAND FREE ENERGY PREDICTED BY IDOCK:   13.92 KCAL/MOL
REMARK 924 INTRA-LIGAND FREE ENERGY PREDICTED BY IDOCK:    7.85 KCAL/MOL
REMARK 927      BINDING AFFINITY PREDICTED BY RF-SCORE:    0.00 PKD
ROOT
HETATM    1  F   UNL     1     -10.571   8.580  71.446  1.00  0.00    -0.242 F  
HETATM    2  C   UNL     1     -10.601   7.433  72.161  1.00  0.00    -0.220 C  
HETATM    3  C   UNL     1     -10.150   6.214  71.340  1.00  0.00    -0.194 C  
HETATM    4  F   UNL     1     -11.850   7.279  72.650  1.00  0.00    -0.287 F  
HETATM    5  F   UNL     1      -9.774   7.607  73.222  1.00  0.00    -0.235 F  
ENDROOT
BRANCH   3   6
HETATM    6  N   UNL     1      -9.817   6.462  69.937  1.00  0.00    -0.166 N  
HETATM    7  C   UNL     1      -8.774   7.300  69.592  1.00  0.00    -0.141 C  
HETATM    8  H   UNL     1     -10.363   6.010  69.204  1.00  0.00     0.000 HD 
HETATM    9  O   UNL     1      -8.143   7.907  70.459  1.00  0.00    -0.105 OA 
BRANCH   7  10
HETATM   10  C   UNL     1      -8.458   7.420  68.080  1.00  0.00    -0.123 C  
HETATM   11  C   UNL     1      -9.594   8.106  67.307  1.00  0.00    -0.211 A  
HETATM   12  C   UNL     1      -8.569   3.804  65.792  1.00  0.00    -0.112 A  
HETATM   13  C   UNL     1     -10.065   9.406  67.443  1.00  0.00    -0.271 A  
HETATM   14  C   UNL     1      -9.370   5.985  66.361  1.00  0.00    -0.171 A  
HETATM   15  C   UNL     1     -11.042   9.846  66.550  1.00  0.00     0.331 A  
HETATM   16  C   UNL     1      -7.638   3.861  66.842  1.00  0.00    -0.080 A  
HETATM   17  C   UNL     1     -11.537   8.993  65.548  1.00  0.00     6.837 A  
HETATM   18  C   UNL     1      -9.448   4.866  65.550  1.00  0.00    -0.155 A  
HETATM   19  C   UNL     1      -8.423   6.040  67.409  1.00  0.00    -0.104 A  
HETATM   20  C   UNL     1     -11.064   7.682  65.424  1.00  0.00     6.342 A  
HETATM   21  C   UNL     1      -7.561   4.983  67.665  1.00  0.00    -0.087 A  
HETATM   22  C   UNL     1     -10.088   7.243  66.302  1.00  0.00     0.088 A  
BRANCH  10  23
HETATM   23  C   UNL     1      -7.114   8.164  67.866  1.00  0.00    -0.083 C  
BRANCH  23  24
HETATM   24  C   UNL     1      -6.657   9.049  69.039  1.00  0.00    -0.048 C  
BRANCH  24  25
HETATM   25  C   UNL     1      -5.234   9.557  68.805  1.00  0.00    -0.037 C  
BRANCH  25  26
HETATM   26  C   UNL     1      -5.156  11.082  68.660  1.00  0.00    -0.040 C  
BRANCH  26  27
HETATM   27  N   UNL     1      -6.448  11.777  68.759  1.00  0.00    -0.060 NA 
HETATM   28  C   UNL     1      -5.980  14.695  68.506  1.00  0.00    -0.093 C  
HETATM   29  C   UNL     1      -5.908  13.747  67.305  1.00  0.00     0.454 C  
HETATM   30  C   UNL     1      -5.736  13.943  69.820  1.00  0.00    -0.110 C  
HETATM   31  C   UNL     1      -6.575  12.667  69.920  1.00  0.00     0.133 C  
HETATM   32  C   UNL     1      -6.765  12.502  67.521  1.00  0.00    -0.151 C  
BRANCH  28  33
HETATM   33  N   UNL     1      -7.244  15.426  68.535  1.00  0.00    -0.111 N  
HETATM   34  O   UNL     1      -6.334  17.442  67.894  1.00  0.00    -0.148 OA 
HETATM   35  C   UNL     1      -7.300  16.778  68.245  1.00  0.00    -0.183 C  
HETATM   36  H   UNL     1      -8.102  14.930  68.775  1.00  0.00     0.000 HD 
BRANCH  35  37
HETATM   37  C   UNL     1      -8.623  17.416  68.448  1.00  0.00    -0.270 A  
HETATM   38  C   UNL     1      -9.805  16.692  68.726  1.00  0.00    -0.252 A  
HETATM   39  C   UNL     1     -11.004  17.442  68.714  1.00  0.00     0.057 A  
HETATM   40  C   UNL     1      -8.655  18.809  68.206  1.00  0.00    -0.357 A  
HETATM   41  C   UNL     1      -9.854  19.506  68.203  1.00  0.00    -0.506 A  
HETATM   42  C   UNL     1     -11.034  18.819  68.443  1.00  0.00     0.441 A  
BRANCH  38  43
HETATM   43  C   UNL     1      -9.877  15.225  69.018  1.00  0.00    -0.230 A  
HETATM   44  C   UNL     1      -9.019  14.594  69.933  1.00  0.00     0.605 A  
HETATM   45  C   UNL     1     -10.043  12.414  69.540  1.00  0.00     0.883 A  
HETATM   46  C   UNL     1      -9.087  13.213  70.180  1.00  0.00     3.878 A  
HETATM   47  C   UNL     1     -10.105  10.923  69.761  1.00  0.00     0.211 C  
HETATM   48  C   UNL     1     -10.940  13.034  68.666  1.00  0.00    -0.297 A  
HETATM   49  C   UNL     1     -10.850  14.408  68.405  1.00  0.00    -0.256 A  
HETATM   50  F   UNL     1      -9.138  10.450  70.596  1.00  0.00     0.248 F  
HETATM   51  F   UNL     1      -9.970  10.218  68.601  1.00  0.00    -0.153 F  
HETATM   52  F   UNL     1     -11.291  10.523  70.300  1.00  0.00    -0.295 F  
ENDBRANCH  38  43
ENDBRANCH  35  37
ENDBRANCH  28  33
ENDBRANCH  26  27
ENDBRANCH  25  26
ENDBRANCH  24  25
ENDBRANCH  23  24
ENDBRANCH  10  23
ENDBRANCH   7  10
ENDBRANCH   3   6
TORSDOF 10
ENDMDL
MODEL      137
REMARK 921   NORMALIZED FREE ENERGY PREDICTED BY IDOCK:   16.91 KCAL/MOL
REMARK 922        TOTAL FREE ENERGY PREDICTED BY IDOCK:   23.70 KCAL/MOL
REMARK 923 INTER-LIGAND FREE ENERGY PREDICTED BY IDOCK:    5.96 KCAL/MOL
REMARK 924 INTRA-LIGAND FREE ENERGY PREDICTED BY IDOCK:   17.74 KCAL/MOL
REMARK 927      BINDING AFFINITY PREDICTED BY RF-SCORE:    0.00 PKD
ROOT
HETATM    1  F   UNL     1      -7.269   7.523  62.562  1.00  0.00    -0.072 F  
HETATM    2  C   UNL     1      -6.054   7.608  63.148  1.00  0.00    -0.055 C  
HETATM    3  C   UNL     1      -6.026   6.969  64.545  1.00  0.00    -0.037 C  
HETATM    4  F   UNL     1      -5.697   8.910  63.181  1.00  0.00    -0.071 F  
HETATM    5  F   UNL     1      -5.176   6.974  62.331  1.00  0.00    -0.029 F  
ENDROOT
BRANCH   3   6
HETATM    6  N   UNL     1      -7.293   6.426  65.037  1.00  0.00    -0.074 N  
HETATM    7  C   UNL     1      -7.322   5.535  66.093  1.00  0.00    -0.078 C  
HETATM    8  H   UNL     1      -8.167   6.710  64.594  1.00  0.00     0.000 HD 
HETATM    9  O   UNL     1      -6.276   5.129  66.600  1.00  0.00    -0.033 OA 
BRANCH   7  10
HETATM   10  C   UNL     1      -8.725   5.095  66.584  1.00  0.00    -0.109 C  
HETATM   11  C   UNL     1      -8.644   4.215  67.841  1.00  0.00    -0.107 A  
HETATM   12  C   UNL     1     -10.777   2.186  64.208  1.00  0.00     0.482 A  
HETATM   13  C   UNL     1      -8.168   4.554  69.100  1.00  0.00    -0.082 A  
HETATM   14  C   UNL     1      -9.694   2.912  66.215  1.00  0.00     0.271 A  
HETATM   15  C   UNL     1      -8.295   3.615  70.124  1.00  0.00    -0.085 A  
HETATM   16  C   UNL     1     -10.460   3.404  63.585  1.00  0.00    -0.254 A  
HETATM   17  C   UNL     1      -8.883   2.362  69.881  1.00  0.00    -0.139 A  
HETATM   18  C   UNL     1     -10.388   1.930  65.528  1.00  0.00     1.660 A  
HETATM   19  C   UNL     1      -9.388   4.139  65.584  1.00  0.00    -0.162 A  
HETATM   20  C   UNL     1      -9.352   2.025  68.607  1.00  0.00    -0.235 A  
HETATM   21  C   UNL     1      -9.755   4.393  64.270  1.00  0.00    -0.050 A  
HETATM   22  C   UNL     1      -9.236   2.956  67.589  1.00  0.00    -0.243 A  
BRANCH  10  23
HETATM   23  C   UNL     1      -9.623   6.335  66.833  1.00  0.00    -0.173 C  
BRANCH  23  24
HETATM   24  C   UNL     1      -9.937   7.183  65.587  1.00  0.00     1.101 C  
BRANCH  24  25
HETATM   25  C   UNL     1      -8.979   6.834  64.447  1.00  0.00     0.895 C  
BRANCH  25  26
HETATM   26  C   UNL     1      -8.884   7.936  63.384  1.00  0.00     0.793 C  
BRANCH  26  27
HETATM   27  N   UNL     1      -8.245   9.180  63.842  1.00  0.00    -0.163 NA 
HETATM   28  C   UNL     1     -10.296  10.875  65.151  1.00  0.00    -0.278 C  
HETATM   29  C   UNL     1      -9.713   9.628  65.824  1.00  0.00    -0.350 C  
HETATM   30  C   UNL     1     -10.160  10.796  63.626  1.00  0.00    -0.375 C  
HETATM   31  C   UNL     1      -8.747  10.397  63.193  1.00  0.00    -0.203 C  
HETATM   32  C   UNL     1      -8.313   9.313  65.304  1.00  0.00    -0.145 C  
BRANCH  28  33
HETATM   33  N   UNL     1      -9.697  12.097  65.680  1.00  0.00    -0.313 N  
HETATM   34  O   UNL     1      -8.393  11.030  67.250  1.00  0.00    -0.121 OA 
HETATM   35  C   UNL     1      -8.795  12.062  66.729  1.00  0.00    -0.198 C  
HETATM   36  H   UNL     1      -9.948  12.995  65.266  1.00  0.00     0.000 HD 
BRANCH  35  37
HETATM   37  C   UNL     1      -8.375  13.385  67.250  1.00  0.00    -0.183 A  
HETATM   38  C   UNL     1      -7.865  13.585  68.553  1.00  0.00    -0.125 A  
HETATM   39  C   UNL     1      -7.683  14.932  68.943  1.00  0.00    -0.148 A  
HETATM   40  C   UNL     1      -8.652  14.476  66.394  1.00  0.00     0.157 A  
HETATM   41  C   UNL     1      -8.460  15.783  66.819  1.00  0.00    -0.304 A  
HETATM   42  C   UNL     1      -7.988  16.013  68.102  1.00  0.00    -0.142 A  
BRANCH  38  43
HETATM   43  C   UNL     1      -7.518  12.502  69.526  1.00  0.00     0.577 A  
HETATM   44  C   UNL     1      -8.373  11.418  69.788  1.00  0.00     1.129 A  
HETATM   45  C   UNL     1      -6.819  10.454  71.403  1.00  0.00     1.310 A  
HETATM   46  C   UNL     1      -8.041  10.421  70.719  1.00  0.00     1.611 A  
HETATM   47  C   UNL     1      -6.462   9.415  72.437  1.00  0.00     0.436 C  
HETATM   48  C   UNL     1      -5.932  11.496  71.118  1.00  0.00     0.450 A  
HETATM   49  C   UNL     1      -6.282  12.502  70.206  1.00  0.00     0.020 A  
HETATM   50  F   UNL     1      -7.441   8.492  72.650  1.00  0.00    -0.143 F  
HETATM   51  F   UNL     1      -6.198   9.963  73.658  1.00  0.00     0.377 F  
HETATM   52  F   UNL     1      -5.348   8.705  72.102  1.00  0.00    -0.035 F  
ENDBRANCH  38  43
ENDBRANCH  35  37
ENDBRANCH  28  33
ENDBRANCH  26  27
ENDBRANCH  25  26
ENDBRANCH  24  25
ENDBRANCH  23  24
ENDBRANCH  10  23
ENDBRANCH   7  10
ENDBRANCH   3   6
TORSDOF 10
ENDMDL
MODEL      138
REMARK 921   NORMALIZED FREE ENERGY PREDICTED BY IDOCK:   19.64 KCAL/MOL
REMARK 922        TOTAL FREE ENERGY PREDICTED BY IDOCK:   28.02 KCAL/MOL
REMARK 923 INTER-LIGAND FREE ENERGY PREDICTED BY IDOCK:   -1.66 KCAL/MOL
REMARK 924 INTRA-LIGAND FREE ENERGY PREDICTED BY IDOCK:   29.68 KCAL/MOL
REMARK 927      BINDING AFFINITY PREDICTED BY RF-SCORE:    0.00 PKD
ROOT
HETATM    1  F   UNL     1     -10.655   5.662  73.125  1.00  0.00    -0.207 F  
HETATM    2  C   UNL     1     -11.235   4.931  72.147  1.00  0.00     0.159 C  
HETATM    3  C   UNL     1     -10.239   4.506  71.057  1.00  0.00    -0.097 C  
HETATM    4  F   UNL     1     -12.261   5.649  71.642  1.00  0.00    -0.024 F  
HETATM    5  F   UNL     1     -11.770   3.833  72.740  1.00  0.00     0.064 F  
ENDROOT
BRANCH   3   6
HETATM    6  N   UNL     1      -8.865   4.985  71.209  1.00  0.00    -0.132 N  
HETATM    7  C   UNL     1      -7.897   4.677  70.272  1.00  0.00    -0.057 C  
HETATM    8  H   UNL     1      -8.618   5.555  72.018  1.00  0.00     0.000 HD 
HETATM    9  O   UNL     1      -8.157   3.937  69.322  1.00  0.00    -0.055 OA 
BRANCH   7  10
HETATM   10  C   UNL     1      -6.500   5.311  70.491  1.00  0.00    -0.031 C  
HETATM   11  C   UNL     1      -6.078   5.277  71.968  1.00  0.00    -0.030 A  
HETATM   12  C   UNL     1      -6.228   9.565  70.111  1.00  0.00    -0.059 A  
HETATM   13  C   UNL     1      -5.844   4.169  72.771  1.00  0.00    -0.015 A  
HETATM   14  C   UNL     1      -6.112   7.531  71.365  1.00  0.00    -0.036 A  
HETATM   15  C   UNL     1      -5.360   4.385  74.062  1.00  0.00    -0.008 A  
HETATM   16  C   UNL     1      -6.648   8.854  68.976  1.00  0.00    -0.048 A  
HETATM   17  C   UNL     1      -5.126   5.688  74.533  1.00  0.00    -0.027 A  
HETATM   18  C   UNL     1      -5.964   8.906  71.318  1.00  0.00    -0.054 A  
HETATM   19  C   UNL     1      -6.525   6.820  70.216  1.00  0.00    -0.043 A  
HETATM   20  C   UNL     1      -5.373   6.800  73.720  1.00  0.00    -0.042 A  
HETATM   21  C   UNL     1      -6.805   7.469  69.022  1.00  0.00    -0.064 A  
HETATM   22  C   UNL     1      -5.845   6.591  72.436  1.00  0.00    -0.038 A  
BRANCH  10  23
HETATM   23  C   UNL     1      -5.443   4.610  69.598  1.00  0.00    -0.008 C  
BRANCH  23  24
HETATM   24  C   UNL     1      -5.327   5.156  68.163  1.00  0.00    -0.011 C  
BRANCH  24  25
HETATM   25  C   UNL     1      -6.625   5.847  67.746  1.00  0.00    -0.056 C  
BRANCH  25  26
HETATM   26  C   UNL     1      -7.828   4.896  67.714  1.00  0.00    -0.094 C  
BRANCH  26  27
HETATM   27  N   UNL     1      -9.061   5.439  68.306  1.00  0.00    -0.108 NA 
HETATM   28  C   UNL     1      -9.260   8.315  67.611  1.00  0.00    -0.137 C  
HETATM   29  C   UNL     1      -9.533   7.206  66.591  1.00  0.00    -0.219 C  
HETATM   30  C   UNL     1      -8.361   7.814  68.748  1.00  0.00    -0.128 C  
HETATM   31  C   UNL     1      -8.843   6.478  69.319  1.00  0.00    -0.132 C  
HETATM   32  C   UNL     1      -9.989   5.917  67.272  1.00  0.00    -0.153 C  
BRANCH  28  33
HETATM   33  N   UNL     1     -10.502   8.886  68.125  1.00  0.00    -0.300 N  
HETATM   34  O   UNL     1      -9.494  10.120  69.788  1.00  0.00    -0.220 OA 
HETATM   35  C   UNL     1     -10.506   9.739  69.215  1.00  0.00    -0.219 C  
HETATM   36  H   UNL     1     -11.385   8.652  67.671  1.00  0.00     0.000 HD 
BRANCH  35  37
HETATM   37  C   UNL     1     -11.848  10.130  69.711  1.00  0.00    -0.158 A  
HETATM   38  C   UNL     1     -12.445  11.383  69.442  1.00  0.00    -0.042 A  
HETATM   39  C   UNL     1     -13.645  11.655  70.137  1.00  0.00     2.213 A  
HETATM   40  C   UNL     1     -12.445   9.208  70.601  1.00  0.00     0.064 A  
HETATM   41  C   UNL     1     -13.624   9.517  71.264  1.00  0.00    -0.298 A  
HETATM   42  C   UNL     1     -14.219  10.750  71.044  1.00  0.00     2.186 A  
BRANCH  38  43
HETATM   43  C   UNL     1     -11.908  12.417  68.502  1.00  0.00    -0.352 A  
HETATM   44  C   UNL     1     -11.405  13.652  68.943  1.00  0.00    -0.332 A  
HETATM   45  C   UNL     1     -10.899  14.372  66.668  1.00  0.00    -0.304 A  
HETATM   46  C   UNL     1     -10.923  14.619  68.046  1.00  0.00    -0.274 A  
HETATM   47  C   UNL     1     -10.425  15.414  65.685  1.00  0.00    -0.372 C  
HETATM   48  C   UNL     1     -11.347  13.129  66.213  1.00  0.00    -0.348 A  
HETATM   49  C   UNL     1     -11.850  12.178  67.113  1.00  0.00    -0.292 A  
HETATM   50  F   UNL     1     -10.068  16.594  66.264  1.00  0.00    -0.268 F  
HETATM   51  F   UNL     1     -11.375  15.728  64.758  1.00  0.00    -0.379 F  
HETATM   52  F   UNL     1      -9.337  15.005  64.973  1.00  0.00    -0.081 F  
ENDBRANCH  38  43
ENDBRANCH  35  37
ENDBRANCH  28  33
ENDBRANCH  26  27
ENDBRANCH  25  26
ENDBRANCH  24  25
ENDBRANCH  23  24
ENDBRANCH  10  23
ENDBRANCH   7  10
ENDBRANCH   3   6
TORSDOF 10
ENDMDL
MODEL      139
REMARK 921   NORMALIZED FREE ENERGY PREDICTED BY IDOCK:   19.85 KCAL/MOL
REMARK 922        TOTAL FREE ENERGY PREDICTED BY IDOCK:   28.36 KCAL/MOL
REMARK 923 INTER-LIGAND FREE ENERGY PREDICTED BY IDOCK:   11.47 KCAL/MOL
REMARK 924 INTRA-LIGAND FREE ENERGY PREDICTED BY IDOCK:   16.89 KCAL/MOL
REMARK 927      BINDING AFFINITY PREDICTED BY RF-SCORE:    0.00 PKD
ROOT
HETATM    1  F   UNL     1     -12.055  14.507  69.066  1.00  0.00    -0.332 F  
HETATM    2  C   UNL     1     -12.058  15.731  68.493  1.00  0.00     0.064 C  
HETATM    3  C   UNL     1     -10.796  15.993  67.655  1.00  0.00    -0.311 C  
HETATM    4  F   UNL     1     -12.215  16.649  69.470  1.00  0.00     0.185 F  
HETATM    5  F   UNL     1     -13.159  15.794  67.703  1.00  0.00     1.692 F  
ENDROOT
BRANCH   3   6
HETATM    6  N   UNL     1      -9.789  14.932  67.647  1.00  0.00    -0.217 N  
HETATM    7  C   UNL     1     -10.029  13.719  68.264  1.00  0.00    -0.243 C  
HETATM    8  H   UNL     1      -8.896  15.090  67.179  1.00  0.00     0.000 HD 
HETATM    9  O   UNL     1     -11.073  13.529  68.889  1.00  0.00    -0.252 OA 
BRANCH   7  10
HETATM   10  C   UNL     1      -8.926  12.641  68.117  1.00  0.00    -0.199 C  
HETATM   11  C   UNL     1      -8.622  12.325  66.645  1.00  0.00    -0.099 A  
HETATM   12  C   UNL     1      -9.995   8.629  69.157  1.00  0.00    -0.193 A  
HETATM   13  C   UNL     1      -8.105  13.171  65.672  1.00  0.00     2.832 A  
HETATM   14  C   UNL     1      -9.328  10.315  67.596  1.00  0.00    -0.158 A  
HETATM   15  C   UNL     1      -7.809  12.629  64.421  1.00  0.00     6.041 A  
HETATM   16  C   UNL     1     -10.084   9.592  70.174  1.00  0.00    -0.293 A  
HETATM   17  C   UNL     1      -8.036  11.267  64.157  1.00  0.00     0.794 A  
HETATM   18  C   UNL     1      -9.622   8.987  67.856  1.00  0.00    -0.170 A  
HETATM   19  C   UNL     1      -9.410  11.277  68.627  1.00  0.00    -0.167 A  
HETATM   20  C   UNL     1      -8.565  10.423  65.139  1.00  0.00    -0.189 A  
HETATM   21  C   UNL     1      -9.796  10.931  69.915  1.00  0.00     0.484 A  
HETATM   22  C   UNL     1      -8.853  10.955  66.385  1.00  0.00    -0.178 A  
BRANCH  10  23
HETATM   23  C   UNL     1      -7.640  13.079  68.866  1.00  0.00     0.047 C  
BRANCH  23  24
HETATM   24  C   UNL     1      -7.368  12.347  70.193  1.00  0.00     1.726 C  
BRANCH  24  25
HETATM   25  C   UNL     1      -6.558  11.074  69.946  1.00  0.00    -0.142 C  
BRANCH  25  26
HETATM   26  C   UNL     1      -7.384   9.951  69.308  1.00  0.00    -0.084 C  
BRANCH  26  27
HETATM   27  N   UNL     1      -6.859   8.595  69.532  1.00  0.00    -0.044 NA 
HETATM   28  C   UNL     1      -6.669   8.121  72.453  1.00  0.00    -0.083 C  
HETATM   29  C   UNL     1      -8.008   8.121  71.709  1.00  0.00    -0.149 C  
HETATM   30  C   UNL     1      -5.611   8.926  71.690  1.00  0.00    -0.053 C  
HETATM   31  C   UNL     1      -5.557   8.550  70.208  1.00  0.00    -0.021 C  
HETATM   32  C   UNL     1      -7.833   7.751  70.238  1.00  0.00    -0.091 C  
BRANCH  28  33
HETATM   33  N   UNL     1      -6.211   6.762  72.728  1.00  0.00    -0.053 N  
HETATM   34  O   UNL     1      -7.592   5.758  71.181  1.00  0.00    -0.094 OA 
HETATM   35  C   UNL     1      -6.750   5.672  72.066  1.00  0.00    -0.063 C  
HETATM   36  H   UNL     1      -5.478   6.612  73.421  1.00  0.00     0.000 HD 
BRANCH  35  37
HETATM   37  C   UNL     1      -6.288   4.347  72.544  1.00  0.00    -0.021 A  
HETATM   38  C   UNL     1      -6.655   3.125  71.934  1.00  0.00    -0.015 A  
HETATM   39  C   UNL     1      -6.271   1.952  72.624  1.00  0.00    -0.009 A  
HETATM   40  C   UNL     1      -5.557   4.373  73.754  1.00  0.00    -0.008 A  
HETATM   41  C   UNL     1      -5.201   3.197  74.398  1.00  0.00     0.000 A  
HETATM   42  C   UNL     1      -5.571   1.983  73.841  1.00  0.00     0.000 A  
BRANCH  38  43
HETATM   43  C   UNL     1      -7.407   2.988  70.647  1.00  0.00    -0.037 A  
HETATM   44  C   UNL     1      -8.716   2.483  70.585  1.00  0.00    -0.117 A  
HETATM   45  C   UNL     1      -8.805   2.734  68.160  1.00  0.00    -0.164 A  
HETATM   46  C   UNL     1      -9.399   2.343  69.366  1.00  0.00    -0.167 A  
HETATM   47  C   UNL     1      -9.507   2.553  66.837  1.00  0.00     0.093 C  
HETATM   48  C   UNL     1      -7.523   3.288  68.207  1.00  0.00    -0.053 A  
HETATM   49  C   UNL     1      -6.837   3.402  69.424  1.00  0.00    -0.041 A  
HETATM   50  F   UNL     1     -10.726   1.954  66.938  1.00  0.00     2.306 F  
HETATM   51  F   UNL     1      -8.788   1.787  65.966  1.00  0.00    -0.106 F  
HETATM   52  F   UNL     1      -9.725   3.735  66.194  1.00  0.00    -0.180 F  
ENDBRANCH  38  43
ENDBRANCH  35  37
ENDBRANCH  28  33
ENDBRANCH  26  27
ENDBRANCH  25  26
ENDBRANCH  24  25
ENDBRANCH  23  24
ENDBRANCH  10  23
ENDBRANCH   7  10
ENDBRANCH   3   6
TORSDOF 10
ENDMDL
MODEL      140
REMARK 921   NORMALIZED FREE ENERGY PREDICTED BY IDOCK:   20.60 KCAL/MOL
REMARK 922        TOTAL FREE ENERGY PREDICTED BY IDOCK:   29.54 KCAL/MOL
REMARK 923 INTER-LIGAND FREE ENERGY PREDICTED BY IDOCK:    6.40 KCAL/MOL
REMARK 924 INTRA-LIGAND FREE ENERGY PREDICTED BY IDOCK:   23.15 KCAL/MOL
REMARK 927      BINDING AFFINITY PREDICTED BY RF-SCORE:    0.00 PKD
ROOT
HETATM    1  F   UNL     1     -10.343   6.292  69.729  1.00  0.00    -0.195 F  
HETATM    2  C   UNL     1     -11.024   5.747  68.697  1.00  0.00    -0.126 C  
HETATM    3  C   UNL     1     -10.966   6.612  67.428  1.00  0.00    -0.360 C  
HETATM    4  F   UNL     1     -12.293   5.529  69.103  1.00  0.00     2.240 F  
HETATM    5  F   UNL     1     -10.467   4.533  68.455  1.00  0.00    -0.079 F  
ENDROOT
BRANCH   3   6
HETATM    6  N   UNL     1     -10.249   7.883  67.540  1.00  0.00    -0.220 N  
HETATM    7  C   UNL     1      -9.040   8.076  66.899  1.00  0.00    -0.152 C  
HETATM    8  H   UNL     1     -10.647   8.637  68.099  1.00  0.00     0.000 HD 
HETATM    9  O   UNL     1      -8.509   7.158  66.272  1.00  0.00    -0.124 OA 
BRANCH   7  10
HETATM   10  C   UNL     1      -8.415   9.489  67.018  1.00  0.00    -0.128 C  
HETATM   11  C   UNL     1      -7.281   9.531  68.053  1.00  0.00    -0.081 A  
HETATM   12  C   UNL     1     -10.789  12.496  68.925  1.00  0.00    -0.238 A  
HETATM   13  C   UNL     1      -6.068   8.856  68.029  1.00  0.00    -0.051 A  
HETATM   14  C   UNL     1      -8.881  11.059  68.795  1.00  0.00    -0.149 A  
HETATM   15  C   UNL     1      -5.141   9.137  69.033  1.00  0.00    -0.037 A  
HETATM   16  C   UNL     1     -11.317  11.917  67.760  1.00  0.00    -0.361 A  
HETATM   17  C   UNL     1      -5.435  10.071  70.041  1.00  0.00    -0.039 A  
HETATM   18  C   UNL     1      -9.568  12.064  69.455  1.00  0.00     0.833 A  
HETATM   19  C   UNL     1      -9.413  10.489  67.617  1.00  0.00    -0.164 A  
HETATM   20  C   UNL     1      -6.663  10.741  70.063  1.00  0.00    -0.149 A  
HETATM   21  C   UNL     1     -10.632  10.900  67.096  1.00  0.00    -0.302 A  
HETATM   22  C   UNL     1      -7.583  10.472  69.064  1.00  0.00    -0.117 A  
BRANCH  10  23
HETATM   23  C   UNL     1      -7.918   9.977  65.632  1.00  0.00    -0.140 C  
BRANCH  23  24
HETATM   24  C   UNL     1      -8.977  10.677  64.761  1.00  0.00    -0.218 C  
BRANCH  24  25
HETATM   25  C   UNL     1     -10.143   9.731  64.471  1.00  0.00     0.412 C  
BRANCH  25  26
HETATM   26  C   UNL     1     -11.502  10.305  64.889  1.00  0.00     2.637 C  
BRANCH  26  27
HETATM   27  N   UNL     1     -11.439  11.618  65.552  1.00  0.00    -0.179 NA 
HETATM   28  C   UNL     1     -10.223  13.570  63.679  1.00  0.00     1.511 C  
HETATM   29  C   UNL     1     -11.658  13.059  63.512  1.00  0.00    -0.468 C  
HETATM   30  C   UNL     1      -9.374  12.582  64.488  1.00  0.00     0.526 C  
HETATM   31  C   UNL     1     -10.079  12.127  65.768  1.00  0.00    -0.247 C  
HETATM   32  C   UNL     1     -12.254  12.616  64.846  1.00  0.00    -0.471 C  
BRANCH  28  33
HETATM   33  N   UNL     1     -10.197  14.905  64.270  1.00  0.00     0.130 N  
HETATM   34  O   UNL     1      -9.930  14.171  66.437  1.00  0.00    -0.274 OA 
HETATM   35  C   UNL     1     -10.077  15.086  65.637  1.00  0.00    -0.362 C  
HETATM   36  H   UNL     1     -10.268  15.722  63.663  1.00  0.00     0.000 HD 
BRANCH  35  37
HETATM   37  C   UNL     1     -10.203  16.487  66.106  1.00  0.00    -0.360 A  
HETATM   38  C   UNL     1      -9.665  16.954  67.327  1.00  0.00    -0.251 A  
HETATM   39  C   UNL     1     -10.030  18.267  67.700  1.00  0.00    -0.348 A  
HETATM   40  C   UNL     1     -11.030  17.309  65.306  1.00  0.00     0.089 A  
HETATM   41  C   UNL     1     -11.364  18.593  65.711  1.00  0.00     1.169 A  
HETATM   42  C   UNL     1     -10.876  19.070  66.918  1.00  0.00    -0.393 A  
BRANCH  38  43
HETATM   43  C   UNL     1      -8.763  16.174  68.234  1.00  0.00    -0.180 A  
HETATM   44  C   UNL     1      -7.789  15.286  67.749  1.00  0.00    -0.161 A  
HETATM   45  C   UNL     1      -7.065  14.694  70.002  1.00  0.00     0.005 A  
HETATM   46  C   UNL     1      -6.965  14.546  68.614  1.00  0.00    -0.103 A  
HETATM   47  C   UNL     1      -6.218  13.879  70.948  1.00  0.00    -0.003 C  
HETATM   48  C   UNL     1      -7.993  15.612  70.502  1.00  0.00     1.553 A  
HETATM   49  C   UNL     1      -8.829  16.328  69.634  1.00  0.00     0.265 A  
HETATM   50  F   UNL     1      -5.398  12.989  70.324  1.00  0.00    -0.085 F  
HETATM   51  F   UNL     1      -6.968  13.144  71.820  1.00  0.00     2.481 F  
HETATM   52  F   UNL     1      -5.406  14.653  71.723  1.00  0.00    -0.142 F  
ENDBRANCH  38  43
ENDBRANCH  35  37
ENDBRANCH  28  33
ENDBRANCH  26  27
ENDBRANCH  25  26
ENDBRANCH  24  25
ENDBRANCH  23  24
ENDBRANCH  10  23
ENDBRANCH   7  10
ENDBRANCH   3   6
TORSDOF 10
ENDMDL
MODEL      141
REMARK 921   NORMALIZED FREE ENERGY PREDICTED BY IDOCK:   20.80 KCAL/MOL
REMARK 922        TOTAL FREE ENERGY PREDICTED BY IDOCK:   29.86 KCAL/MOL
REMARK 923 INTER-LIGAND FREE ENERGY PREDICTED BY IDOCK:   15.52 KCAL/MOL
REMARK 924 INTRA-LIGAND FREE ENERGY PREDICTED BY IDOCK:   14.34 KCAL/MOL
REMARK 927      BINDING AFFINITY PREDICTED BY RF-SCORE:    0.00 PKD
ROOT
HETATM    1  F   UNL     1      -6.640  11.041  69.049  1.00  0.00    -0.048 F  
HETATM    2  C   UNL     1      -7.605  11.429  69.913  1.00  0.00     0.774 C  
HETATM    3  C   UNL     1      -8.995  11.481  69.260  1.00  0.00     0.445 C  
HETATM    4  F   UNL     1      -7.244  12.622  70.432  1.00  0.00     0.785 F  
HETATM    5  F   UNL     1      -7.605  10.533  70.932  1.00  0.00     0.409 F  
ENDROOT
BRANCH   3   6
HETATM    6  N   UNL     1      -9.057  11.164  67.833  1.00  0.00    -0.146 N  
HETATM    7  C   UNL     1      -8.966   9.858  67.391  1.00  0.00    -0.135 C  
HETATM    8  H   UNL     1      -9.168  11.918  67.156  1.00  0.00     0.000 HD 
HETATM    9  O   UNL     1      -8.766   8.939  68.187  1.00  0.00    -0.133 OA 
BRANCH   7  10
HETATM   10  C   UNL     1      -9.130   9.634  65.867  1.00  0.00    -0.221 C  
HETATM   11  C   UNL     1      -9.504   8.182  65.535  1.00  0.00     0.272 A  
HETATM   12  C   UNL     1      -5.554   9.656  63.516  1.00  0.00    -0.084 A  
HETATM   13  C   UNL     1     -10.651   7.485  65.891  1.00  0.00     1.900 A  
HETATM   14  C   UNL     1      -7.484   8.587  64.440  1.00  0.00    -0.110 A  
HETATM   15  C   UNL     1     -10.823   6.198  65.380  1.00  0.00     2.479 A  
HETATM   16  C   UNL     1      -5.856  10.833  64.219  1.00  0.00     0.103 A  
HETATM   17  C   UNL     1      -9.856   5.626  64.536  1.00  0.00     1.353 A  
HETATM   18  C   UNL     1      -6.364   8.521  63.628  1.00  0.00    -0.077 A  
HETATM   19  C   UNL     1      -7.788   9.778  65.136  1.00  0.00    -0.126 A  
HETATM   20  C   UNL     1      -8.698   6.331  64.189  1.00  0.00     0.430 A  
HETATM   21  C   UNL     1      -6.979  10.901  65.043  1.00  0.00     0.337 A  
HETATM   22  C   UNL     1      -8.527   7.611  64.687  1.00  0.00     0.077 A  
BRANCH  10  23
HETATM   23  C   UNL     1     -10.176  10.621  65.286  1.00  0.00    -0.351 C  
BRANCH  23  24
HETATM   24  C   UNL     1     -10.614  10.341  63.837  1.00  0.00     0.872 C  
BRANCH  24  25
HETATM   25  C   UNL     1     -10.453  11.595  62.976  1.00  0.00    -0.256 C  
BRANCH  25  26
HETATM   26  C   UNL     1      -9.345  12.529  63.478  1.00  0.00     1.071 C  
BRANCH  26  27
HETATM   27  N   UNL     1      -9.157  12.535  64.938  1.00  0.00     0.670 NA 
HETATM   28  C   UNL     1     -11.395  14.035  66.177  1.00  0.00    -0.321 C  
HETATM   29  C   UNL     1     -11.571  12.623  65.609  1.00  0.00    -0.418 C  
HETATM   30  C   UNL     1     -10.197  14.745  65.535  1.00  0.00    -0.400 C  
HETATM   31  C   UNL     1      -8.945  13.865  65.519  1.00  0.00     1.137 C  
HETATM   32  C   UNL     1     -10.258  11.845  65.624  1.00  0.00    -0.245 C  
BRANCH  28  33
HETATM   33  N   UNL     1     -11.286  14.015  67.634  1.00  0.00    -0.297 N  
HETATM   34  O   UNL     1     -13.539  14.307  68.015  1.00  0.00     3.761 OA 
HETATM   35  C   UNL     1     -12.398  14.186  68.440  1.00  0.00     0.017 C  
HETATM   36  H   UNL     1     -10.373  13.873  68.064  1.00  0.00     0.000 HD 
BRANCH  35  37
HETATM   37  C   UNL     1     -12.118  14.281  69.894  1.00  0.00    -0.404 A  
HETATM   38  C   UNL     1     -10.860  14.648  70.425  1.00  0.00     0.056 A  
HETATM   39  C   UNL     1     -10.721  14.516  71.826  1.00  0.00     1.850 A  
HETATM   40  C   UNL     1     -13.169  13.840  70.731  1.00  0.00    -0.077 A  
HETATM   41  C   UNL     1     -12.988  13.724  72.102  1.00  0.00    -0.437 A  
HETATM   42  C   UNL     1     -11.756  14.048  72.650  1.00  0.00     1.251 A  
BRANCH  38  43
HETATM   43  C   UNL     1      -9.694  15.148  69.630  1.00  0.00    -0.145 A  
HETATM   44  C   UNL     1      -9.819  16.148  68.652  1.00  0.00    -0.226 A  
HETATM   45  C   UNL     1      -7.438  16.069  68.125  1.00  0.00    -0.132 A  
HETATM   46  C   UNL     1      -8.718  16.592  67.901  1.00  0.00    -0.188 A  
HETATM   47  C   UNL     1      -6.251  16.502  67.301  1.00  0.00    -0.174 C  
HETATM   48  C   UNL     1      -7.285  15.111  69.131  1.00  0.00    -0.163 A  
HETATM   49  C   UNL     1      -8.393  14.655  69.859  1.00  0.00     0.512 A  
HETATM   50  F   UNL     1      -6.558  17.401  66.325  1.00  0.00    -0.214 F  
HETATM   51  F   UNL     1      -5.647  15.457  66.666  1.00  0.00     0.594 F  
HETATM   52  F   UNL     1      -5.277  17.088  68.054  1.00  0.00    -0.109 F  
ENDBRANCH  38  43
ENDBRANCH  35  37
ENDBRANCH  28  33
ENDBRANCH  26  27
ENDBRANCH  25  26
ENDBRANCH  24  25
ENDBRANCH  23  24
ENDBRANCH  10  23
ENDBRANCH   7  10
ENDBRANCH   3   6
TORSDOF 10
ENDMDL
MODEL      142
REMARK 921   NORMALIZED FREE ENERGY PREDICTED BY IDOCK:   23.24 KCAL/MOL
REMARK 922        TOTAL FREE ENERGY PREDICTED BY IDOCK:   33.73 KCAL/MOL
REMARK 923 INTER-LIGAND FREE ENERGY PREDICTED BY IDOCK:   16.37 KCAL/MOL
REMARK 924 INTRA-LIGAND FREE ENERGY PREDICTED BY IDOCK:   17.37 KCAL/MOL
REMARK 927      BINDING AFFINITY PREDICTED BY RF-SCORE:    0.00 PKD
ROOT
HETATM    1  F   UNL     1     -11.234  11.161  69.945  1.00  0.00    -0.286 F  
HETATM    2  C   UNL     1     -12.503  11.193  69.480  1.00  0.00    -0.074 C  
HETATM    3  C   UNL     1     -12.609  10.723  68.021  1.00  0.00     2.736 C  
HETATM    4  F   UNL     1     -12.976  12.447  69.643  1.00  0.00     0.282 F  
HETATM    5  F   UNL     1     -13.237  10.382  70.283  1.00  0.00    -0.364 F  
ENDROOT
BRANCH   3   6
HETATM    6  N   UNL     1     -11.352  10.372  67.358  1.00  0.00    -0.252 N  
HETATM    7  C   UNL     1     -10.469   9.479  67.935  1.00  0.00    -0.241 C  
HETATM    8  H   UNL     1     -11.125  10.793  66.458  1.00  0.00     0.000 HD 
HETATM    9  O   UNL     1     -10.692   9.009  69.052  1.00  0.00    -0.215 OA 
BRANCH   7  10
HETATM   10  C   UNL     1      -9.213   9.118  67.103  1.00  0.00    -0.162 C  
HETATM   11  C   UNL     1      -8.985  10.105  65.948  1.00  0.00    -0.182 A  
HETATM   12  C   UNL     1      -9.484   5.656  64.602  1.00  0.00     0.691 A  
HETATM   13  C   UNL     1      -8.705  11.464  66.019  1.00  0.00    -0.131 A  
HETATM   14  C   UNL     1      -9.252   8.011  64.955  1.00  0.00     0.719 A  
HETATM   15  C   UNL     1      -8.427  12.139  64.830  1.00  0.00     1.624 A  
HETATM   16  C   UNL     1      -9.651   5.455  65.981  1.00  0.00    -0.149 A  
HETATM   17  C   UNL     1      -8.438  11.461  63.600  1.00  0.00     0.543 A  
HETATM   18  C   UNL     1      -9.290   6.940  64.078  1.00  0.00     2.248 A  
HETATM   19  C   UNL     1      -9.410   7.800  66.343  1.00  0.00    -0.237 A  
HETATM   20  C   UNL     1      -8.729  10.094  63.535  1.00  0.00    -0.221 A  
HETATM   21  C   UNL     1      -9.621   6.532  66.866  1.00  0.00    -0.191 A  
HETATM   22  C   UNL     1      -8.997   9.417  64.713  1.00  0.00    -0.241 A  
BRANCH  10  23
HETATM   23  C   UNL     1      -7.963   9.039  68.019  1.00  0.00    -0.101 C  
BRANCH  23  24
HETATM   24  C   UNL     1      -7.394   7.625  68.235  1.00  0.00    -0.099 C  
BRANCH  24  25
HETATM   25  C   UNL     1      -6.039   7.696  68.940  1.00  0.00    -0.035 C  
BRANCH  25  26
HETATM   26  C   UNL     1      -5.913   8.902  69.880  1.00  0.00    -0.031 C  
BRANCH  26  27
HETATM   27  N   UNL     1      -7.190   9.535  70.245  1.00  0.00    -0.101 NA 
HETATM   28  C   UNL     1      -7.017  12.435  69.650  1.00  0.00     0.249 C  
HETATM   29  C   UNL     1      -7.172  11.381  68.548  1.00  0.00    -0.093 C  
HETATM   30  C   UNL     1      -6.402  11.827  70.916  1.00  0.00     0.941 C  
HETATM   31  C   UNL     1      -7.093  10.524  71.325  1.00  0.00     1.866 C  
HETATM   32  C   UNL     1      -7.855  10.120  69.072  1.00  0.00    -0.107 C  
BRANCH  28  33
HETATM   33  N   UNL     1      -8.286  13.099  69.937  1.00  0.00     1.385 N  
HETATM   34  O   UNL     1      -8.343  14.301  67.973  1.00  0.00    -0.138 OA 
HETATM   35  C   UNL     1      -8.833  14.018  69.058  1.00  0.00     0.177 C  
HETATM   36  H   UNL     1      -8.778  12.880  70.803  1.00  0.00     0.000 HD 
BRANCH  35  37
HETATM   37  C   UNL     1     -10.050  14.712  69.543  1.00  0.00     0.004 A  
HETATM   38  C   UNL     1     -11.285  14.695  68.856  1.00  0.00    -0.285 A  
HETATM   39  C   UNL     1     -12.286  15.553  69.366  1.00  0.00    -0.233 A  
HETATM   40  C   UNL     1      -9.857  15.523  70.686  1.00  0.00     0.718 A  
HETATM   41  C   UNL     1     -10.867  16.351  71.152  1.00  0.00     0.460 A  
HETATM   42  C   UNL     1     -12.080  16.379  70.482  1.00  0.00     0.417 A  
BRANCH  38  43
HETATM   43  C   UNL     1     -11.599  13.859  67.654  1.00  0.00    -0.381 A  
HETATM   44  C   UNL     1     -12.896  13.750  67.126  1.00  0.00     0.839 A  
HETATM   45  C   UNL     1     -12.157  12.239  65.359  1.00  0.00    -0.343 A  
HETATM   46  C   UNL     1     -13.177  12.945  66.010  1.00  0.00     1.677 A  
HETATM   47  C   UNL     1     -12.445  11.337  64.184  1.00  0.00     0.920 C  
HETATM   48  C   UNL     1     -10.851  12.376  65.837  1.00  0.00    -0.305 A  
HETATM   49  C   UNL     1     -10.583  13.162  66.967  1.00  0.00    -0.259 A  
HETATM   50  F   UNL     1     -13.766  11.260  63.860  1.00  0.00     0.213 F  
HETATM   51  F   UNL     1     -12.041  10.053  64.402  1.00  0.00     3.540 F  
HETATM   52  F   UNL     1     -11.806  11.737  63.048  1.00  0.00    -0.422 F  
ENDBRANCH  38  43
ENDBRANCH  35  37
ENDBRANCH  28  33
ENDBRANCH  26  27
ENDBRANCH  25  26
ENDBRANCH  24  25
ENDBRANCH  23  24
ENDBRANCH  10  23
ENDBRANCH   7  10
ENDBRANCH   3   6
TORSDOF 10
ENDMDL
MODEL      143
REMARK 921   NORMALIZED FREE ENERGY PREDICTED BY IDOCK:   23.34 KCAL/MOL
REMARK 922        TOTAL FREE ENERGY PREDICTED BY IDOCK:   33.88 KCAL/MOL
REMARK 923 INTER-LIGAND FREE ENERGY PREDICTED BY IDOCK:   23.09 KCAL/MOL
REMARK 924 INTRA-LIGAND FREE ENERGY PREDICTED BY IDOCK:   10.79 KCAL/MOL
REMARK 927      BINDING AFFINITY PREDICTED BY RF-SCORE:    0.00 PKD
ROOT
HETATM    1  F   UNL     1      -7.768  14.480  64.796  1.00  0.00     6.797 F  
HETATM    2  C   UNL     1      -7.196  13.480  65.503  1.00  0.00     7.392 C  
HETATM    3  C   UNL     1      -6.640  13.956  66.854  1.00  0.00     1.344 C  
HETATM    4  F   UNL     1      -6.240  12.918  64.732  1.00  0.00     6.887 F  
HETATM    5  F   UNL     1      -8.154  12.540  65.702  1.00  0.00     0.768 F  
ENDROOT
BRANCH   3   6
HETATM    6  N   UNL     1      -6.762  15.386  67.140  1.00  0.00    -0.051 N  
HETATM    7  C   UNL     1      -7.804  16.128  66.620  1.00  0.00    -0.253 C  
HETATM    8  H   UNL     1      -6.067  15.840  67.733  1.00  0.00     0.000 HD 
HETATM    9  O   UNL     1      -8.617  15.614  65.850  1.00  0.00    -0.138 OA 
BRANCH   7  10
HETATM   10  C   UNL     1      -7.880  17.612  67.060  1.00  0.00    -0.239 C  
HETATM   11  C   UNL     1      -7.125  18.538  66.095  1.00  0.00    -0.301 A  
HETATM   12  C   UNL     1      -5.608  18.719  70.514  1.00  0.00    -0.214 A  
HETATM   13  C   UNL     1      -7.392  18.788  64.756  1.00  0.00     1.787 A  
HETATM   14  C   UNL     1      -6.104  18.814  68.175  1.00  0.00    -0.217 A  
HETATM   15  C   UNL     1      -6.630  19.759  64.105  1.00  0.00     0.359 A  
HETATM   16  C   UNL     1      -6.604  17.747  70.696  1.00  0.00     1.521 A  
HETATM   17  C   UNL     1      -5.617  20.454  64.788  1.00  0.00    -0.235 A  
HETATM   18  C   UNL     1      -5.346  19.254  69.247  1.00  0.00    -0.208 A  
HETATM   19  C   UNL     1      -7.112  17.843  68.368  1.00  0.00    -0.245 A  
HETATM   20  C   UNL     1      -5.348  20.190  66.135  1.00  0.00    -0.178 A  
HETATM   21  C   UNL     1      -7.365  17.295  69.619  1.00  0.00     0.396 A  
HETATM   22  C   UNL     1      -6.108  19.234  66.788  1.00  0.00    -0.170 A  
BRANCH  10  23
HETATM   23  C   UNL     1      -9.359  18.056  67.210  1.00  0.00    -0.256 C  
BRANCH  23  24
HETATM   24  C   UNL     1      -9.926  17.990  68.639  1.00  0.00    -0.396 C  
BRANCH  24  25
HETATM   25  C   UNL     1      -9.584  16.649  69.289  1.00  0.00    -0.148 C  
BRANCH  25  26
HETATM   26  C   UNL     1     -10.810  15.751  69.496  1.00  0.00    -0.287 C  
BRANCH  26  27
HETATM   27  N   UNL     1     -10.942  14.654  68.524  1.00  0.00    -0.243 NA 
HETATM   28  C   UNL     1      -8.909  12.585  69.144  1.00  0.00     0.712 C  
HETATM   29  C   UNL     1     -10.169  12.777  69.995  1.00  0.00     2.079 C  
HETATM   30  C   UNL     1      -8.558  13.867  68.379  1.00  0.00    -0.169 C  
HETATM   31  C   UNL     1      -9.771  14.461  67.660  1.00  0.00    -0.219 C  
HETATM   32  C   UNL     1     -11.306  13.392  69.183  1.00  0.00    -0.280 C  
BRANCH  28  33
HETATM   33  N   UNL     1      -9.041  11.444  68.243  1.00  0.00    -0.173 N  
HETATM   34  O   UNL     1      -8.046   9.934  69.669  1.00  0.00    -0.132 OA 
HETATM   35  C   UNL     1      -8.558  10.194  68.588  1.00  0.00    -0.123 C  
HETATM   36  H   UNL     1      -9.499  11.571  67.340  1.00  0.00     0.000 HD 
BRANCH  35  37
HETATM   37  C   UNL     1      -8.638   9.166  67.523  1.00  0.00    -0.116 A  
HETATM   38  C   UNL     1      -8.602   7.775  67.775  1.00  0.00    -0.121 A  
HETATM   39  C   UNL     1      -8.510   6.945  66.635  1.00  0.00    -0.121 A  
HETATM   40  C   UNL     1      -8.612   9.674  66.203  1.00  0.00    -0.138 A  
HETATM   41  C   UNL     1      -8.520   8.821  65.112  1.00  0.00    -0.192 A  
HETATM   42  C   UNL     1      -8.453   7.454  65.328  1.00  0.00    -0.066 A  
BRANCH  38  43
HETATM   43  C   UNL     1      -8.648   7.136  69.128  1.00  0.00    -0.133 A  
HETATM   44  C   UNL     1      -7.578   7.209  70.035  1.00  0.00    -0.091 A  
HETATM   45  C   UNL     1      -8.773   5.891  71.704  1.00  0.00    -0.136 A  
HETATM   46  C   UNL     1      -7.629   6.587  71.293  1.00  0.00    -0.094 A  
HETATM   47  C   UNL     1      -8.832   5.181  73.034  1.00  0.00    -0.120 C  
HETATM   48  C   UNL     1      -9.868   5.851  70.837  1.00  0.00    -0.224 A  
HETATM   49  C   UNL     1      -9.799   6.453  69.572  1.00  0.00    -0.176 A  
HETATM   50  F   UNL     1      -7.677   5.260  73.752  1.00  0.00    -0.096 F  
HETATM   51  F   UNL     1      -9.098   3.849  72.904  1.00  0.00    -0.104 F  
HETATM   52  F   UNL     1      -9.809   5.673  73.847  1.00  0.00    -0.149 F  
ENDBRANCH  38  43
ENDBRANCH  35  37
ENDBRANCH  28  33
ENDBRANCH  26  27
ENDBRANCH  25  26
ENDBRANCH  24  25
ENDBRANCH  23  24
ENDBRANCH  10  23
ENDBRANCH   7  10
ENDBRANCH   3   6
TORSDOF 10
ENDMDL
MODEL      144
REMARK 921   NORMALIZED FREE ENERGY PREDICTED BY IDOCK:   25.69 KCAL/MOL
REMARK 922        TOTAL FREE ENERGY PREDICTED BY IDOCK:   37.61 KCAL/MOL
REMARK 923 INTER-LIGAND FREE ENERGY PREDICTED BY IDOCK:   -5.58 KCAL/MOL
REMARK 924 INTRA-LIGAND FREE ENERGY PREDICTED BY IDOCK:   43.19 KCAL/MOL
REMARK 927      BINDING AFFINITY PREDICTED BY RF-SCORE:    0.00 PKD
ROOT
HETATM    1  F   UNL     1     -11.986  16.659  71.609  1.00  0.00    -0.422 F  
HETATM    2  C   UNL     1     -11.837  15.517  72.316  1.00  0.00    -0.467 C  
HETATM    3  C   UNL     1     -10.579  14.733  71.913  1.00  0.00     1.710 C  
HETATM    4  F   UNL     1     -12.961  14.783  72.165  1.00  0.00    -0.335 F  
HETATM    5  F   UNL     1     -11.764  15.870  73.624  1.00  0.00    -0.469 F  
ENDROOT
BRANCH   3   6
HETATM    6  N   UNL     1      -9.784  15.295  70.821  1.00  0.00     0.178 N  
HETATM    7  C   UNL     1     -10.382  15.709  69.646  1.00  0.00    -0.286 C  
HETATM    8  H   UNL     1      -8.774  15.383  70.929  1.00  0.00     0.000 HD 
HETATM    9  O   UNL     1     -11.591  15.553  69.470  1.00  0.00    -0.302 OA 
BRANCH   7  10
HETATM   10  C   UNL     1      -9.454  16.368  68.595  1.00  0.00    -0.239 C  
HETATM   11  C   UNL     1      -9.764  17.861  68.408  1.00  0.00    -0.340 A  
HETATM   12  C   UNL     1     -10.123  15.320  64.500  1.00  0.00     0.766 A  
HETATM   13  C   UNL     1      -9.654  18.886  69.338  1.00  0.00     0.014 A  
HETATM   14  C   UNL     1     -10.086  16.874  66.318  1.00  0.00    -0.335 A  
HETATM   15  C   UNL     1      -9.890  20.192  68.906  1.00  0.00    -0.192 A  
HETATM   16  C   UNL     1      -9.779  14.275  65.373  1.00  0.00    -0.135 A  
HETATM   17  C   UNL     1     -10.236  20.454  67.569  1.00  0.00    -0.421 A  
HETATM   18  C   UNL     1     -10.286  16.628  64.971  1.00  0.00     0.164 A  
HETATM   19  C   UNL     1      -9.730  15.820  67.189  1.00  0.00    -0.227 A  
HETATM   20  C   UNL     1     -10.354  19.414  66.640  1.00  0.00    -0.555 A  
HETATM   21  C   UNL     1      -9.584  14.518  66.732  1.00  0.00    -0.274 A  
HETATM   22  C   UNL     1     -10.113  18.118  67.062  1.00  0.00    -0.357 A  
BRANCH  10  23
HETATM   23  C   UNL     1      -7.966  16.156  68.981  1.00  0.00    -0.236 C  
BRANCH  23  24
HETATM   24  C   UNL     1      -7.130  15.355  67.967  1.00  0.00    -0.136 C  
BRANCH  24  25
HETATM   25  C   UNL     1      -7.830  15.314  66.609  1.00  0.00     0.097 C  
BRANCH  25  26
HETATM   26  C   UNL     1      -8.991  14.313  66.561  1.00  0.00    -0.132 C  
BRANCH  26  27
HETATM   27  N   UNL     1      -9.400  13.780  67.870  1.00  0.00    -0.203 NA 
HETATM   28  C   UNL     1      -9.874  10.865  67.604  1.00  0.00    -0.171 C  
HETATM   29  C   UNL     1      -8.466  11.467  67.623  1.00  0.00    -0.135 C  
HETATM   30  C   UNL     1     -10.914  11.902  67.161  1.00  0.00    -0.319 C  
HETATM   31  C   UNL     1     -10.760  13.230  67.906  1.00  0.00    -0.239 C  
HETATM   32  C   UNL     1      -8.434  12.795  68.376  1.00  0.00    -0.115 C  
BRANCH  28  33
HETATM   33  N   UNL     1     -10.223  10.278  68.895  1.00  0.00    -0.193 N  
HETATM   34  O   UNL     1     -11.745   8.777  68.039  1.00  0.00     1.307 OA 
HETATM   35  C   UNL     1     -11.174   9.278  68.998  1.00  0.00     0.165 C  
HETATM   36  H   UNL     1      -9.755  10.612  69.738  1.00  0.00     0.000 HD 
BRANCH  35  37
HETATM   37  C   UNL     1     -11.524   8.875  70.382  1.00  0.00    -0.182 A  
HETATM   38  C   UNL     1     -11.076   7.677  70.984  1.00  0.00    -0.273 A  
HETATM   39  C   UNL     1     -11.648   7.367  72.238  1.00  0.00    -0.333 A  
HETATM   40  C   UNL     1     -12.464   9.713  71.025  1.00  0.00    -0.382 A  
HETATM   41  C   UNL     1     -13.001   9.369  72.257  1.00  0.00    -0.479 A  
HETATM   42  C   UNL     1     -12.604   8.186  72.860  1.00  0.00     0.190 A  
BRANCH  38  43
HETATM   43  C   UNL     1     -10.069   6.735  70.399  1.00  0.00    -0.200 A  
HETATM   44  C   UNL     1      -8.811   7.161  69.944  1.00  0.00    -0.142 A  
HETATM   45  C   UNL     1      -8.177   4.901  69.278  1.00  0.00    -0.081 A  
HETATM   46  C   UNL     1      -7.886   6.267  69.379  1.00  0.00    -0.104 A  
HETATM   47  C   UNL     1      -7.214   3.932  68.638  1.00  0.00    -0.054 C  
HETATM   48  C   UNL     1      -9.403   4.450  69.774  1.00  0.00    -0.224 A  
HETATM   49  C   UNL     1     -10.331   5.352  70.313  1.00  0.00    -0.357 A  
HETATM   50  F   UNL     1      -6.084   4.518  68.153  1.00  0.00    -0.026 F  
HETATM   51  F   UNL     1      -7.768   3.266  67.584  1.00  0.00    -0.069 F  
HETATM   52  F   UNL     1      -6.791   2.966  69.502  1.00  0.00    -0.033 F  
ENDBRANCH  38  43
ENDBRANCH  35  37
ENDBRANCH  28  33
ENDBRANCH  26  27
ENDBRANCH  25  26
ENDBRANCH  24  25
ENDBRANCH  23  24
ENDBRANCH  10  23
ENDBRANCH   7  10
ENDBRANCH   3   6
TORSDOF 10
ENDMDL
MODEL      145
REMARK 921   NORMALIZED FREE ENERGY PREDICTED BY IDOCK:   26.73 KCAL/MOL
REMARK 922        TOTAL FREE ENERGY PREDICTED BY IDOCK:   39.25 KCAL/MOL
REMARK 923 INTER-LIGAND FREE ENERGY PREDICTED BY IDOCK:   -0.44 KCAL/MOL
REMARK 924 INTRA-LIGAND FREE ENERGY PREDICTED BY IDOCK:   39.68 KCAL/MOL
REMARK 927      BINDING AFFINITY PREDICTED BY RF-SCORE:    0.00 PKD
ROOT
HETATM    1  F   UNL     1      -8.059  11.392  67.682  1.00  0.00    -0.112 F  
HETATM    2  C   UNL     1      -6.839  11.967  67.596  1.00  0.00    -0.112 C  
HETATM    3  C   UNL     1      -5.701  10.935  67.576  1.00  0.00    -0.044 C  
HETATM    4  F   UNL     1      -6.714  12.837  68.621  1.00  0.00    -0.067 F  
HETATM    5  F   UNL     1      -6.825  12.694  66.451  1.00  0.00     0.357 F  
ENDROOT
BRANCH   3   6
HETATM    6  N   UNL     1      -6.093   9.531  67.702  1.00  0.00    -0.052 N  
HETATM    7  C   UNL     1      -6.707   9.065  68.849  1.00  0.00    -0.053 C  
HETATM    8  H   UNL     1      -5.911   8.887  66.932  1.00  0.00     0.000 HD 
HETATM    9  O   UNL     1      -6.878   9.809  69.815  1.00  0.00    -0.056 OA 
BRANCH   7  10
HETATM   10  C   UNL     1      -7.156   7.582  68.836  1.00  0.00    -0.080 C  
HETATM   11  C   UNL     1      -8.677   7.442  68.672  1.00  0.00    -0.128 A  
HETATM   12  C   UNL     1      -6.975   5.477  72.559  1.00  0.00    -0.083 A  
HETATM   13  C   UNL     1      -9.466   7.824  67.595  1.00  0.00    -0.168 A  
HETATM   14  C   UNL     1      -8.158   6.426  70.708  1.00  0.00    -0.120 A  
HETATM   15  C   UNL     1     -10.821   7.496  67.625  1.00  0.00    -0.197 A  
HETATM   16  C   UNL     1      -5.765   5.983  72.058  1.00  0.00    -0.031 A  
HETATM   17  C   UNL     1     -11.368   6.805  68.720  1.00  0.00    -0.102 A  
HETATM   18  C   UNL     1      -8.183   5.703  71.888  1.00  0.00    -0.119 A  
HETATM   19  C   UNL     1      -6.935   6.922  70.204  1.00  0.00    -0.066 A  
HETATM   20  C   UNL     1     -10.569   6.431  69.806  1.00  0.00    -0.309 A  
HETATM   21  C   UNL     1      -5.736   6.717  70.873  1.00  0.00    -0.027 A  
HETATM   22  C   UNL     1      -9.221   6.747  69.777  1.00  0.00    -0.146 A  
BRANCH  10  23
HETATM   23  C   UNL     1      -6.406   6.801  67.726  1.00  0.00    -0.048 C  
BRANCH  23  24
HETATM   24  C   UNL     1      -6.627   7.316  66.292  1.00  0.00    -0.052 C  
BRANCH  24  25
HETATM   25  C   UNL     1      -7.040   8.788  66.311  1.00  0.00    -0.082 C  
BRANCH  25  26
HETATM   26  C   UNL     1      -8.558   8.987  66.230  1.00  0.00    -0.128 C  
BRANCH  26  27
HETATM   27  N   UNL     1      -9.187   9.452  67.476  1.00  0.00    -0.123 NA 
HETATM   28  C   UNL     1     -10.915  11.781  66.859  1.00  0.00    -0.285 C  
HETATM   29  C   UNL     1     -11.312  10.347  66.493  1.00  0.00     0.528 C  
HETATM   30  C   UNL     1      -9.394  11.913  67.008  1.00  0.00    -0.188 C  
HETATM   31  C   UNL     1      -8.802  10.808  67.884  1.00  0.00    -0.132 C  
HETATM   32  C   UNL     1     -10.650   9.329  67.419  1.00  0.00    -0.255 C  
BRANCH  28  33
HETATM   33  N   UNL     1     -11.612  12.240  68.057  1.00  0.00    -0.329 N  
HETATM   34  O   UNL     1      -9.765  13.242  69.002  1.00  0.00     0.084 OA 
HETATM   35  C   UNL     1     -10.946  12.924  69.059  1.00  0.00    -0.197 C  
HETATM   36  H   UNL     1     -12.609  12.053  68.157  1.00  0.00     0.000 HD 
BRANCH  35  37
HETATM   37  C   UNL     1     -11.746  13.206  70.275  1.00  0.00    -0.203 A  
HETATM   38  C   UNL     1     -12.023  14.511  70.744  1.00  0.00    -0.388 A  
HETATM   39  C   UNL     1     -12.646  14.592  72.010  1.00  0.00    -0.400 A  
HETATM   40  C   UNL     1     -12.106  12.064  71.028  1.00  0.00    -0.083 A  
HETATM   41  C   UNL     1     -12.717  12.190  72.268  1.00  0.00     0.272 A  
HETATM   42  C   UNL     1     -12.974  13.457  72.768  1.00  0.00    -0.070 A  
BRANCH  38  43
HETATM   43  C   UNL     1     -11.705  15.780  70.016  1.00  0.00    -0.362 A  
HETATM   44  C   UNL     1     -12.527  16.296  69.001  1.00  0.00     0.978 A  
HETATM   45  C   UNL     1     -11.055  18.208  68.642  1.00  0.00     0.764 A  
HETATM   46  C   UNL     1     -12.203  17.478  68.314  1.00  0.00     2.991 A  
HETATM   47  C   UNL     1     -10.668  19.457  67.889  1.00  0.00    -0.310 C  
HETATM   48  C   UNL     1     -10.252  17.739  69.686  1.00  0.00     0.287 A  
HETATM   49  C   UNL     1     -10.568  16.545  70.350  1.00  0.00     0.165 A  
HETATM   50  F   UNL     1     -11.513  19.765  66.866  1.00  0.00    -0.390 F  
HETATM   51  F   UNL     1      -9.427  19.367  67.331  1.00  0.00    -0.330 F  
HETATM   52  F   UNL     1     -10.633  20.560  68.689  1.00  0.00    -0.436 F  
ENDBRANCH  38  43
ENDBRANCH  35  37
ENDBRANCH  28  33
ENDBRANCH  26  27
ENDBRANCH  25  26
ENDBRANCH  24  25
ENDBRANCH  23  24
ENDBRANCH  10  23
ENDBRANCH   7  10
ENDBRANCH   3   6
TORSDOF 10
ENDMDL
MODEL      146
REMARK 921   NORMALIZED FREE ENERGY PREDICTED BY IDOCK:   27.05 KCAL/MOL
REMARK 922        TOTAL FREE ENERGY PREDICTED BY IDOCK:   39.76 KCAL/MOL
REMARK 923 INTER-LIGAND FREE ENERGY PREDICTED BY IDOCK:    3.51 KCAL/MOL
REMARK 924 INTRA-LIGAND FREE ENERGY PREDICTED BY IDOCK:   36.25 KCAL/MOL
REMARK 927      BINDING AFFINITY PREDICTED BY RF-SCORE:    0.00 PKD
ROOT
HETATM    1  F   UNL     1      -7.279   7.524  62.568  1.00  0.00    -0.072 F  
HETATM    2  C   UNL     1      -6.077   7.580  63.183  1.00  0.00    -0.054 C  
HETATM    3  C   UNL     1      -6.104   6.961  64.589  1.00  0.00    -0.036 C  
HETATM    4  F   UNL     1      -5.680   8.870  63.207  1.00  0.00    -0.070 F  
HETATM    5  F   UNL     1      -5.200   6.906  62.397  1.00  0.00    -0.028 F  
ENDROOT
BRANCH   3   6
HETATM    6  N   UNL     1      -7.400   6.467  65.058  1.00  0.00    -0.074 N  
HETATM    7  C   UNL     1      -7.484   5.604  66.134  1.00  0.00    -0.082 C  
HETATM    8  H   UNL     1      -8.252   6.763  64.583  1.00  0.00     0.000 HD 
HETATM    9  O   UNL     1      -6.465   5.182  66.681  1.00  0.00    -0.039 OA 
BRANCH   7  10
HETATM   10  C   UNL     1      -8.912   5.215  66.594  1.00  0.00    -0.115 C  
HETATM   11  C   UNL     1      -8.894   4.385  67.887  1.00  0.00    -0.124 A  
HETATM   12  C   UNL     1     -10.955   2.260  64.268  1.00  0.00     0.702 A  
HETATM   13  C   UNL     1      -8.451   4.764  69.147  1.00  0.00    -0.087 A  
HETATM   14  C   UNL     1      -9.921   3.042  66.279  1.00  0.00     0.626 A  
HETATM   15  C   UNL     1      -8.634   3.870  70.203  1.00  0.00    -0.105 A  
HETATM   16  C   UNL     1     -10.589   3.444  63.608  1.00  0.00    -0.270 A  
HETATM   17  C   UNL     1      -9.244   2.622  69.989  1.00  0.00    -0.202 A  
HETATM   18  C   UNL     1     -10.615   2.049  65.609  1.00  0.00     2.626 A  
HETATM   19  C   UNL     1      -9.566   4.235  65.611  1.00  0.00    -0.189 A  
HETATM   20  C   UNL     1      -9.679   2.244  68.715  1.00  0.00     0.063 A  
HETATM   21  C   UNL     1      -9.883   4.444  64.276  1.00  0.00    -0.017 A  
HETATM   22  C   UNL     1      -9.507   3.131  67.665  1.00  0.00    -0.202 A  
BRANCH  10  23
HETATM   23  C   UNL     1      -9.788   6.484  66.764  1.00  0.00    -0.213 C  
BRANCH  23  24
HETATM   24  C   UNL     1      -9.996   7.317  65.486  1.00  0.00     1.418 C  
BRANCH  24  25
HETATM   25  C   UNL     1      -8.985   6.913  64.413  1.00  0.00     0.933 C  
BRANCH  25  26
HETATM   26  C   UNL     1      -8.084   8.073  63.970  1.00  0.00    -0.102 C  
BRANCH  26  27
HETATM   27  N   UNL     1      -7.143   8.550  64.996  1.00  0.00    -0.078 NA 
HETATM   28  C   UNL     1      -8.530  10.534  66.709  1.00  0.00    -0.127 C  
HETATM   29  C   UNL     1      -8.806   9.030  66.810  1.00  0.00    -0.144 C  
HETATM   30  C   UNL     1      -7.967  10.902  65.331  1.00  0.00     0.046 C  
HETATM   31  C   UNL     1      -6.821   9.979  64.911  1.00  0.00    -0.133 C  
HETATM   32  C   UNL     1      -7.605   8.208  66.349  1.00  0.00    -0.091 C  
BRANCH  28  33
HETATM   33  N   UNL     1      -7.655  10.991  67.784  1.00  0.00    -0.097 N  
HETATM   34  O   UNL     1      -7.561   8.956  68.858  1.00  0.00    -0.084 OA 
HETATM   35  C   UNL     1      -7.262  10.141  68.804  1.00  0.00    -0.081 C  
HETATM   36  H   UNL     1      -7.325  11.956  67.784  1.00  0.00     0.000 HD 
BRANCH  35  37
HETATM   37  C   UNL     1      -6.488  10.777  69.897  1.00  0.00    -0.135 A  
HETATM   38  C   UNL     1      -6.409  10.250  71.207  1.00  0.00     0.321 A  
HETATM   39  C   UNL     1      -5.778  11.075  72.166  1.00  0.00     0.923 A  
HETATM   40  C   UNL     1      -5.937  12.039  69.579  1.00  0.00    -0.100 A  
HETATM   41  C   UNL     1      -5.326  12.817  70.553  1.00  0.00    -0.141 A  
HETATM   42  C   UNL     1      -5.259  12.341  71.853  1.00  0.00     0.138 A  
BRANCH  38  43
HETATM   43  C   UNL     1      -6.939   8.918  71.641  1.00  0.00    -0.058 A  
HETATM   44  C   UNL     1      -8.227   8.471  71.306  1.00  0.00    -0.176 A  
HETATM   45  C   UNL     1      -7.916   6.367  72.500  1.00  0.00    -0.102 A  
HETATM   46  C   UNL     1      -8.716   7.227  71.738  1.00  0.00    -0.123 A  
HETATM   47  C   UNL     1      -8.437   5.045  73.009  1.00  0.00    -0.111 C  
HETATM   48  C   UNL     1      -6.612   6.771  72.799  1.00  0.00    -0.066 A  
HETATM   49  C   UNL     1      -6.140   8.025  72.386  1.00  0.00    -0.047 A  
HETATM   50  F   UNL     1      -9.738   4.805  72.685  1.00  0.00    -0.151 F  
HETATM   51  F   UNL     1      -8.367   4.945  74.367  1.00  0.00    -0.100 F  
HETATM   52  F   UNL     1      -7.731   3.984  72.525  1.00  0.00    -0.066 F  
ENDBRANCH  38  43
ENDBRANCH  35  37
ENDBRANCH  28  33
ENDBRANCH  26  27
ENDBRANCH  25  26
ENDBRANCH  24  25
ENDBRANCH  23  24
ENDBRANCH  10  23
ENDBRANCH   7  10
ENDBRANCH   3   6
TORSDOF 10
ENDMDL
MODEL      147
REMARK 921   NORMALIZED FREE ENERGY PREDICTED BY IDOCK:   27.88 KCAL/MOL
REMARK 922        TOTAL FREE ENERGY PREDICTED BY IDOCK:   41.08 KCAL/MOL
REMARK 923 INTER-LIGAND FREE ENERGY PREDICTED BY IDOCK:   29.60 KCAL/MOL
REMARK 924 INTRA-LIGAND FREE ENERGY PREDICTED BY IDOCK:   11.47 KCAL/MOL
REMARK 927      BINDING AFFINITY PREDICTED BY RF-SCORE:    0.00 PKD
ROOT
HETATM    1  F   UNL     1      -7.762  14.489  64.756  1.00  0.00     6.797 F  
HETATM    2  C   UNL     1      -7.111  13.511  65.425  1.00  0.00     8.793 C  
HETATM    3  C   UNL     1      -6.566  13.986  66.781  1.00  0.00     1.848 C  
HETATM    4  F   UNL     1      -6.131  13.039  64.624  1.00  0.00     8.013 F  
HETATM    5  F   UNL     1      -7.997  12.501  65.609  1.00  0.00     0.906 F  
ENDROOT
BRANCH   3   6
HETATM    6  N   UNL     1      -6.782  15.394  67.112  1.00  0.00    -0.051 N  
HETATM    7  C   UNL     1      -7.891  16.073  66.642  1.00  0.00    -0.231 C  
HETATM    8  H   UNL     1      -6.105  15.883  67.698  1.00  0.00     0.000 HD 
HETATM    9  O   UNL     1      -8.687  15.522  65.880  1.00  0.00    -0.172 OA 
BRANCH   7  10
HETATM   10  C   UNL     1      -8.060  17.535  67.127  1.00  0.00    -0.229 C  
HETATM   11  C   UNL     1      -7.420  18.540  66.158  1.00  0.00    -0.282 A  
HETATM   12  C   UNL     1      -5.732  18.728  70.514  1.00  0.00    -0.175 A  
HETATM   13  C   UNL     1      -7.762  18.802  64.838  1.00  0.00     2.133 A  
HETATM   14  C   UNL     1      -6.334  18.842  68.201  1.00  0.00    -0.220 A  
HETATM   15  C   UNL     1      -7.104  19.845  64.184  1.00  0.00     1.239 A  
HETATM   16  C   UNL     1      -6.643  17.678  70.710  1.00  0.00     1.856 A  
HETATM   17  C   UNL     1      -6.120  20.599  64.845  1.00  0.00    -0.311 A  
HETATM   18  C   UNL     1      -5.566  19.313  69.253  1.00  0.00    -0.231 A  
HETATM   19  C   UNL     1      -7.256  17.792  68.408  1.00  0.00    -0.250 A  
HETATM   20  C   UNL     1      -5.773  20.323  66.172  1.00  0.00    -0.198 A  
HETATM   21  C   UNL     1      -7.412  17.195  69.652  1.00  0.00     0.450 A  
HETATM   22  C   UNL     1      -6.429  19.295  66.828  1.00  0.00    -0.191 A  
BRANCH  10  23
HETATM   23  C   UNL     1      -9.561  17.859  67.349  1.00  0.00    -0.271 C  
BRANCH  23  24
HETATM   24  C   UNL     1     -10.051  17.747  68.804  1.00  0.00    -0.381 C  
BRANCH  24  25
HETATM   25  C   UNL     1      -9.529  16.461  69.447  1.00  0.00    -0.117 C  
BRANCH  25  26
HETATM   26  C   UNL     1     -10.630  15.421  69.688  1.00  0.00    -0.279 C  
BRANCH  26  27
HETATM   27  N   UNL     1     -10.643  14.303  68.731  1.00  0.00    -0.248 NA 
HETATM   28  C   UNL     1      -8.393  12.480  69.369  1.00  0.00     1.099 C  
HETATM   29  C   UNL     1      -9.663  12.543  70.223  1.00  0.00     4.156 C  
HETATM   30  C   UNL     1      -8.187  13.782  68.586  1.00  0.00    -0.077 C  
HETATM   31  C   UNL     1      -9.461  14.229  67.865  1.00  0.00    -0.212 C  
HETATM   32  C   UNL     1     -10.864  13.018  69.408  1.00  0.00     0.099 C  
BRANCH  28  33
HETATM   33  N   UNL     1      -8.401  11.319  68.484  1.00  0.00    -0.150 N  
HETATM   34  O   UNL     1      -8.579   9.766  70.175  1.00  0.00    -0.203 OA 
HETATM   35  C   UNL     1      -8.467  10.031  68.986  1.00  0.00    -0.147 C  
HETATM   36  H   UNL     1      -8.357  11.460  67.475  1.00  0.00     0.000 HD 
BRANCH  35  37
HETATM   37  C   UNL     1      -8.327   8.950  67.981  1.00  0.00    -0.121 A  
HETATM   38  C   UNL     1      -8.959   8.972  66.716  1.00  0.00    -0.160 A  
HETATM   39  C   UNL     1      -8.861   7.784  65.957  1.00  0.00    -0.189 A  
HETATM   40  C   UNL     1      -7.622   7.809  68.428  1.00  0.00    -0.109 A  
HETATM   41  C   UNL     1      -7.552   6.662  67.651  1.00  0.00    -0.106 A  
HETATM   42  C   UNL     1      -8.186   6.642  66.418  1.00  0.00    -0.117 A  
BRANCH  38  43
HETATM   43  C   UNL     1      -9.708  10.134  66.140  1.00  0.00    -0.275 A  
HETATM   44  C   UNL     1      -9.389  10.697  64.894  1.00  0.00    -0.271 A  
HETATM   45  C   UNL     1     -11.162  12.362  65.080  1.00  0.00    -0.354 A  
HETATM   46  C   UNL     1     -10.089  11.799  64.377  1.00  0.00    -0.319 A  
HETATM   47  C   UNL     1     -11.900  13.571  64.562  1.00  0.00    -0.405 C  
HETATM   48  C   UNL     1     -11.529  11.782  66.297  1.00  0.00    -0.296 A  
HETATM   49  C   UNL     1     -10.809  10.698  66.818  1.00  0.00    -0.233 A  
HETATM   50  F   UNL     1     -11.402  14.060  63.392  1.00  0.00     0.140 F  
HETATM   51  F   UNL     1     -11.875  14.614  65.440  1.00  0.00    -0.347 F  
HETATM   52  F   UNL     1     -13.219  13.319  64.328  1.00  0.00     0.007 F  
ENDBRANCH  38  43
ENDBRANCH  35  37
ENDBRANCH  28  33
ENDBRANCH  26  27
ENDBRANCH  25  26
ENDBRANCH  24  25
ENDBRANCH  23  24
ENDBRANCH  10  23
ENDBRANCH   7  10
ENDBRANCH   3   6
TORSDOF 10
ENDMDL
MODEL      148
REMARK 921   NORMALIZED FREE ENERGY PREDICTED BY IDOCK:   31.02 KCAL/MOL
REMARK 922        TOTAL FREE ENERGY PREDICTED BY IDOCK:   46.05 KCAL/MOL
REMARK 923 INTER-LIGAND FREE ENERGY PREDICTED BY IDOCK:   28.53 KCAL/MOL
REMARK 924 INTRA-LIGAND FREE ENERGY PREDICTED BY IDOCK:   17.52 KCAL/MOL
REMARK 927      BINDING AFFINITY PREDICTED BY RF-SCORE:    0.00 PKD
ROOT
HETATM    1  F   UNL     1     -11.580   4.885  67.148  1.00  0.00     1.148 F  
HETATM    2  C   UNL     1     -11.430   3.817  66.333  1.00  0.00     5.249 C  
HETATM    3  C   UNL     1     -10.316   4.018  65.295  1.00  0.00    -0.108 C  
HETATM    4  F   UNL     1     -12.623   3.565  65.753  1.00  0.00     6.110 F  
HETATM    5  F   UNL     1     -11.139   2.754  67.125  1.00  0.00     3.823 F  
ENDROOT
BRANCH   3   6
HETATM    6  N   UNL     1      -9.640   5.316  65.309  1.00  0.00    -0.363 N  
HETATM    7  C   UNL     1      -9.678   6.149  64.207  1.00  0.00     2.337 C  
HETATM    8  H   UNL     1      -9.134   5.610  66.144  1.00  0.00     0.000 HD 
HETATM    9  O   UNL     1     -10.229   5.787  63.166  1.00  0.00     2.297 OA 
BRANCH   7  10
HETATM   10  C   UNL     1      -9.001   7.534  64.367  1.00  0.00     0.919 C  
HETATM   11  C   UNL     1      -7.578   7.417  64.932  1.00  0.00    -0.105 A  
HETATM   12  C   UNL     1     -10.457  10.043  67.513  1.00  0.00    -0.307 A  
HETATM   13  C   UNL     1      -6.473   6.799  64.361  1.00  0.00    -0.038 A  
HETATM   14  C   UNL     1      -8.765   8.722  66.459  1.00  0.00    -0.137 A  
HETATM   15  C   UNL     1      -5.246   6.914  65.014  1.00  0.00    -0.027 A  
HETATM   16  C   UNL     1     -11.377   9.679  66.517  1.00  0.00     1.275 A  
HETATM   17  C   UNL     1      -5.139   7.630  66.219  1.00  0.00    -0.024 A  
HETATM   18  C   UNL     1      -9.144   9.559  67.494  1.00  0.00    -0.142 A  
HETATM   19  C   UNL     1      -9.693   8.368  65.454  1.00  0.00     0.597 A  
HETATM   20  C   UNL     1      -6.258   8.242  66.793  1.00  0.00    -0.055 A  
HETATM   21  C   UNL     1     -11.001   8.830  65.477  1.00  0.00     3.851 A  
HETATM   22  C   UNL     1      -7.476   8.137  66.144  1.00  0.00    -0.078 A  
BRANCH  10  23
HETATM   23  C   UNL     1      -8.999   8.293  63.014  1.00  0.00     0.675 C  
BRANCH  23  24
HETATM   24  C   UNL     1      -9.974   9.481  62.924  1.00  0.00     1.580 C  
BRANCH  24  25
HETATM   25  C   UNL     1      -9.984  10.267  64.235  1.00  0.00    -0.293 C  
BRANCH  25  26
HETATM   26  C   UNL     1     -10.294  11.756  64.041  1.00  0.00    -0.356 C  
BRANCH  26  27
HETATM   27  N   UNL     1     -11.028  12.384  65.152  1.00  0.00    -0.292 NA 
HETATM   28  C   UNL     1      -9.068  13.551  67.046  1.00  0.00    -0.244 C  
HETATM   29  C   UNL     1      -9.380  14.195  65.692  1.00  0.00     0.166 C  
HETATM   30  C   UNL     1      -9.397  12.054  67.037  1.00  0.00    -0.191 C  
HETATM   31  C   UNL     1     -10.787  11.772  66.463  1.00  0.00    -0.282 C  
HETATM   32  C   UNL     1     -10.782  13.832  65.208  1.00  0.00    -0.339 C  
BRANCH  28  33
HETATM   33  N   UNL     1      -9.751  14.242  68.137  1.00  0.00    -0.219 N  
HETATM   34  O   UNL     1     -11.467  12.716  68.309  1.00  0.00    -0.267 OA 
HETATM   35  C   UNL     1     -10.937  13.760  68.663  1.00  0.00    -0.266 C  
HETATM   36  H   UNL     1      -9.346  15.097  68.518  1.00  0.00     0.000 HD 
BRANCH  35  37
HETATM   37  C   UNL     1     -11.587  14.635  69.668  1.00  0.00    -0.349 A  
HETATM   38  C   UNL     1     -12.315  14.146  70.777  1.00  0.00    -0.439 A  
HETATM   39  C   UNL     1     -13.015  15.115  71.531  1.00  0.00    -0.458 A  
HETATM   40  C   UNL     1     -11.551  16.016  69.365  1.00  0.00    -0.320 A  
HETATM   41  C   UNL     1     -12.255  16.934  70.133  1.00  0.00     2.569 A  
HETATM   42  C   UNL     1     -13.002  16.481  71.209  1.00  0.00     2.180 A  
BRANCH  38  43
HETATM   43  C   UNL     1     -12.398  12.711  71.196  1.00  0.00    -0.245 A  
HETATM   44  C   UNL     1     -13.518  12.180  71.856  1.00  0.00    -0.318 A  
HETATM   45  C   UNL     1     -12.513   9.961  71.988  1.00  0.00    -0.353 A  
HETATM   46  C   UNL     1     -13.572  10.835  72.259  1.00  0.00     0.028 A  
HETATM   47  C   UNL     1     -12.534   8.524  72.450  1.00  0.00    -0.353 C  
HETATM   48  C   UNL     1     -11.412  10.458  71.285  1.00  0.00    -0.114 A  
HETATM   49  C   UNL     1     -11.355  11.807  70.908  1.00  0.00     1.270 A  
HETATM   50  F   UNL     1     -13.644   8.193  73.166  1.00  0.00     0.181 F  
HETATM   51  F   UNL     1     -11.472   8.217  73.248  1.00  0.00    -0.326 F  
HETATM   52  F   UNL     1     -12.484   7.641  71.413  1.00  0.00    -0.314 F  
ENDBRANCH  38  43
ENDBRANCH  35  37
ENDBRANCH  28  33
ENDBRANCH  26  27
ENDBRANCH  25  26
ENDBRANCH  24  25
ENDBRANCH  23  24
ENDBRANCH  10  23
ENDBRANCH   7  10
ENDBRANCH   3   6
TORSDOF 10
ENDMDL
MODEL      149
REMARK 921   NORMALIZED FREE ENERGY PREDICTED BY IDOCK:   33.00 KCAL/MOL
REMARK 922        TOTAL FREE ENERGY PREDICTED BY IDOCK:   49.20 KCAL/MOL
REMARK 923 INTER-LIGAND FREE ENERGY PREDICTED BY IDOCK:   47.03 KCAL/MOL
REMARK 924 INTRA-LIGAND FREE ENERGY PREDICTED BY IDOCK:    2.17 KCAL/MOL
REMARK 927      BINDING AFFINITY PREDICTED BY RF-SCORE:    0.00 PKD
ROOT
HETATM    1  F   UNL     1     -10.578   8.580  71.458  1.00  0.00    -0.252 F  
HETATM    2  C   UNL     1     -10.549   7.374  72.066  1.00  0.00    -0.208 C  
HETATM    3  C   UNL     1     -10.069   6.253  71.132  1.00  0.00    -0.183 C  
HETATM    4  F   UNL     1     -11.780   7.126  72.562  1.00  0.00    -0.285 F  
HETATM    5  F   UNL     1      -9.707   7.487  73.125  1.00  0.00    -0.200 F  
ENDROOT
BRANCH   3   6
HETATM    6  N   UNL     1      -9.775   6.638  69.751  1.00  0.00    -0.159 N  
HETATM    7  C   UNL     1      -8.788   7.562  69.466  1.00  0.00    -0.137 C  
HETATM    8  H   UNL     1     -10.307   6.218  68.989  1.00  0.00     0.000 HD 
HETATM    9  O   UNL     1      -8.179   8.129  70.374  1.00  0.00    -0.109 OA 
BRANCH   7  10
HETATM   10  C   UNL     1      -8.507   7.828  67.965  1.00  0.00    -0.123 C  
HETATM   11  C   UNL     1      -9.704   8.486  67.263  1.00  0.00    -0.239 A  
HETATM   12  C   UNL     1      -8.383   4.412  65.390  1.00  0.00    -0.111 A  
HETATM   13  C   UNL     1     -10.269   9.731  67.510  1.00  0.00    -0.271 A  
HETATM   14  C   UNL     1      -9.336   6.472  66.144  1.00  0.00    -0.101 A  
HETATM   15  C   UNL     1     -11.290  10.167  66.665  1.00  0.00     0.652 A  
HETATM   16  C   UNL     1      -7.442   4.454  66.431  1.00  0.00    -0.082 A  
HETATM   17  C   UNL     1     -11.735   9.362  65.603  1.00  0.00     5.947 A  
HETATM   18  C   UNL     1      -9.343   5.420  65.244  1.00  0.00     0.048 A  
HETATM   19  C   UNL     1      -8.380   6.514  67.183  1.00  0.00    -0.113 A  
HETATM   20  C   UNL     1     -11.167   8.105  65.366  1.00  0.00     6.927 A  
HETATM   21  C   UNL     1      -7.436   5.508  67.343  1.00  0.00    -0.084 A  
HETATM   22  C   UNL     1     -10.147   7.672  66.196  1.00  0.00     0.238 A  
BRANCH  10  23
HETATM   23  C   UNL     1      -7.226   8.688  67.800  1.00  0.00    -0.088 C  
BRANCH  23  24
HETATM   24  C   UNL     1      -6.743   9.402  69.075  1.00  0.00    -0.050 C  
BRANCH  24  25
HETATM   25  C   UNL     1      -5.419  10.121  68.817  1.00  0.00    -0.038 C  
BRANCH  25  26
HETATM   26  C   UNL     1      -5.495  11.631  69.074  1.00  0.00    -0.050 C  
BRANCH  26  27
HETATM   27  N   UNL     1      -6.791  12.106  69.583  1.00  0.00     0.031 NA 
HETATM   28  C   UNL     1      -6.609  15.024  70.076  1.00  0.00    -0.158 C  
HETATM   29  C   UNL     1      -6.706  14.437  68.664  1.00  0.00    -0.090 C  
HETATM   30  C   UNL     1      -6.050  13.995  71.067  1.00  0.00    -0.108 C  
HETATM   31  C   UNL     1      -6.751  12.640  70.949  1.00  0.00     2.149 C  
HETATM   32  C   UNL     1      -7.404  13.079  68.669  1.00  0.00    -0.097 C  
BRANCH  28  33
HETATM   33  N   UNL     1      -7.894  15.554  70.524  1.00  0.00     0.752 N  
HETATM   34  O   UNL     1      -7.311  17.767  70.260  1.00  0.00     1.306 OA 
HETATM   35  C   UNL     1      -8.122  16.917  70.603  1.00  0.00     4.180 C  
HETATM   36  H   UNL     1      -8.638  14.907  70.784  1.00  0.00     0.000 HD 
BRANCH  35  37
HETATM   37  C   UNL     1      -9.420  17.309  71.203  1.00  0.00     5.814 A  
HETATM   38  C   UNL     1     -10.674  16.934  70.668  1.00  0.00     0.625 A  
HETATM   39  C   UNL     1     -11.804  17.541  71.263  1.00  0.00     3.579 A  
HETATM   40  C   UNL     1      -9.325  18.213  72.286  1.00  0.00    11.407 A  
HETATM   41  C   UNL     1     -10.461  18.786  72.840  1.00  0.00     3.606 A  
HETATM   42  C   UNL     1     -11.703  18.462  72.318  1.00  0.00     5.199 A  
BRANCH  38  43
HETATM   43  C   UNL     1     -10.884  15.970  69.542  1.00  0.00    -0.317 A  
HETATM   44  C   UNL     1     -10.245  14.721  69.487  1.00  0.00    -0.091 A  
HETATM   45  C   UNL     1     -11.308  14.160  67.364  1.00  0.00    -0.346 A  
HETATM   46  C   UNL     1     -10.438  13.837  68.413  1.00  0.00    -0.256 A  
HETATM   47  C   UNL     1     -11.497  13.242  66.181  1.00  0.00    -0.328 C  
HETATM   48  C   UNL     1     -11.994  15.375  67.427  1.00  0.00     0.248 A  
HETATM   49  C   UNL     1     -11.777  16.264  68.490  1.00  0.00    -0.083 A  
HETATM   50  F   UNL     1     -10.727  12.119  66.228  1.00  0.00    -0.261 F  
HETATM   51  F   UNL     1     -11.197  13.848  64.997  1.00  0.00    -0.305 F  
HETATM   52  F   UNL     1     -12.783  12.807  66.057  1.00  0.00    -0.356 F  
ENDBRANCH  38  43
ENDBRANCH  35  37
ENDBRANCH  28  33
ENDBRANCH  26  27
ENDBRANCH  25  26
ENDBRANCH  24  25
ENDBRANCH  23  24
ENDBRANCH  10  23
ENDBRANCH   7  10
ENDBRANCH   3   6
TORSDOF 10
ENDMDL
MODEL      150
REMARK 921   NORMALIZED FREE ENERGY PREDICTED BY IDOCK:   33.05 KCAL/MOL
REMARK 922        TOTAL FREE ENERGY PREDICTED BY IDOCK:   49.28 KCAL/MOL
REMARK 923 INTER-LIGAND FREE ENERGY PREDICTED BY IDOCK:   14.55 KCAL/MOL
REMARK 924 INTRA-LIGAND FREE ENERGY PREDICTED BY IDOCK:   34.72 KCAL/MOL
REMARK 927      BINDING AFFINITY PREDICTED BY RF-SCORE:    0.00 PKD
ROOT
HETATM    1  F   UNL     1     -10.545   5.906  70.491  1.00  0.00    -0.260 F  
HETATM    2  C   UNL     1     -11.286   5.543  69.421  1.00  0.00     0.435 C  
HETATM    3  C   UNL     1     -11.130   6.512  68.238  1.00  0.00    -0.243 C  
HETATM    4  F   UNL     1     -12.571   5.435  69.820  1.00  0.00     3.178 F  
HETATM    5  F   UNL     1     -10.875   4.301  69.059  1.00  0.00     0.545 F  
ENDROOT
BRANCH   3   6
HETATM    6  N   UNL     1     -10.270   7.675  68.460  1.00  0.00    -0.195 N  
HETATM    7  C   UNL     1      -8.918   7.623  68.180  1.00  0.00    -0.126 C  
HETATM    8  H   UNL     1     -10.675   8.536  68.826  1.00  0.00     0.000 HD 
HETATM    9  O   UNL     1      -8.397   6.574  67.798  1.00  0.00    -0.118 OA 
BRANCH   7  10
HETATM   10  C   UNL     1      -8.124   8.940  68.372  1.00  0.00    -0.109 C  
HETATM   11  C   UNL     1      -7.113   8.840  69.523  1.00  0.00    -0.055 A  
HETATM   12  C   UNL     1     -10.261  12.259  70.025  1.00  0.00     1.967 A  
HETATM   13  C   UNL     1      -6.007   8.007  69.627  1.00  0.00    -0.029 A  
HETATM   14  C   UNL     1      -8.561  10.577  70.095  1.00  0.00     0.639 A  
HETATM   15  C   UNL     1      -5.164   8.170  70.727  1.00  0.00    -0.025 A  
HETATM   16  C   UNL     1     -10.734  11.745  68.807  1.00  0.00    -0.255 A  
HETATM   17  C   UNL     1      -5.435   9.146  71.701  1.00  0.00    -0.058 A  
HETATM   18  C   UNL     1      -9.173  11.672  70.682  1.00  0.00     5.777 A  
HETATM   19  C   UNL     1      -9.036  10.072  68.864  1.00  0.00    -0.159 A  
HETATM   20  C   UNL     1      -6.557   9.975  71.594  1.00  0.00     0.700 A  
HETATM   21  C   UNL     1     -10.125  10.638  68.217  1.00  0.00    -0.176 A  
HETATM   22  C   UNL     1      -7.392   9.823  70.500  1.00  0.00    -0.126 A  
BRANCH  10  23
HETATM   23  C   UNL     1      -7.420   9.343  67.050  1.00  0.00    -0.091 C  
BRANCH  23  24
HETATM   24  C   UNL     1      -8.263   9.168  65.774  1.00  0.00    -0.115 C  
BRANCH  24  25
HETATM   25  C   UNL     1      -9.196   7.964  65.909  1.00  0.00    -0.102 C  
BRANCH  25  26
HETATM   26  C   UNL     1     -10.596   8.342  66.408  1.00  0.00     0.424 C  
BRANCH  26  27
HETATM   27  N   UNL     1     -10.884   9.785  66.403  1.00  0.00     0.080 NA 
HETATM   28  C   UNL     1      -9.185  11.087  64.351  1.00  0.00    -0.158 C  
HETATM   29  C   UNL     1     -10.407  10.238  63.984  1.00  0.00     0.293 C  
HETATM   30  C   UNL     1      -8.643  10.708  65.734  1.00  0.00    -0.186 C  
HETATM   31  C   UNL     1      -9.750  10.634  66.788  1.00  0.00    -0.185 C  
HETATM   32  C   UNL     1     -11.435  10.219  65.113  1.00  0.00     2.328 C  
BRANCH  28  33
HETATM   33  N   UNL     1      -9.480  12.514  64.265  1.00  0.00    -0.341 N  
HETATM   34  O   UNL     1     -10.740  12.584  66.192  1.00  0.00    -0.254 OA 
HETATM   35  C   UNL     1     -10.277  13.143  65.206  1.00  0.00    -0.286 C  
HETATM   36  H   UNL     1      -9.092  13.059  63.495  1.00  0.00     0.000 HD 
BRANCH  35  37
HETATM   37  C   UNL     1     -10.604  14.560  64.916  1.00  0.00    -0.450 A  
HETATM   38  C   UNL     1     -10.190  15.640  65.730  1.00  0.00    -0.391 A  
HETATM   39  C   UNL     1     -10.738  16.901  65.405  1.00  0.00    -0.161 A  
HETATM   40  C   UNL     1     -11.489  14.756  63.831  1.00  0.00     0.401 A  
HETATM   41  C   UNL     1     -12.005  16.013  63.549  1.00  0.00     1.770 A  
HETATM   42  C   UNL     1     -11.641  17.086  64.346  1.00  0.00     1.154 A  
BRANCH  38  43
HETATM   43  C   UNL     1      -9.241  15.543  66.884  1.00  0.00    -0.257 A  
HETATM   44  C   UNL     1      -9.674  15.525  68.220  1.00  0.00    -0.201 A  
HETATM   45  C   UNL     1      -7.391  15.367  69.063  1.00  0.00    -0.159 A  
HETATM   46  C   UNL     1      -8.769  15.455  69.292  1.00  0.00    -0.252 A  
HETATM   47  C   UNL     1      -6.400  15.333  70.201  1.00  0.00    -0.112 C  
HETATM   48  C   UNL     1      -6.943  15.331  67.740  1.00  0.00    -0.185 A  
HETATM   49  C   UNL     1      -7.851  15.427  66.676  1.00  0.00     0.010 A  
HETATM   50  F   UNL     1      -6.974  15.428  71.433  1.00  0.00     0.919 F  
HETATM   51  F   UNL     1      -5.493  16.349  70.135  1.00  0.00    -0.147 F  
HETATM   52  F   UNL     1      -5.666  14.184  70.221  1.00  0.00    -0.099 F  
ENDBRANCH  38  43
ENDBRANCH  35  37
ENDBRANCH  28  33
ENDBRANCH  26  27
ENDBRANCH  25  26
ENDBRANCH  24  25
ENDBRANCH  23  24
ENDBRANCH  10  23
ENDBRANCH   7  10
ENDBRANCH   3   6
TORSDOF 10
ENDMDL
MODEL      151
REMARK 921   NORMALIZED FREE ENERGY PREDICTED BY IDOCK:   34.07 KCAL/MOL
REMARK 922        TOTAL FREE ENERGY PREDICTED BY IDOCK:   50.89 KCAL/MOL
REMARK 923 INTER-LIGAND FREE ENERGY PREDICTED BY IDOCK:   20.78 KCAL/MOL
REMARK 924 INTRA-LIGAND FREE ENERGY PREDICTED BY IDOCK:   30.11 KCAL/MOL
REMARK 927      BINDING AFFINITY PREDICTED BY RF-SCORE:    0.00 PKD
ROOT
HETATM    1  F   UNL     1     -13.076  11.228  64.854  1.00  0.00     1.315 F  
HETATM    2  C   UNL     1     -12.381  11.142  63.698  1.00  0.00     1.005 C  
HETATM    3  C   UNL     1     -11.544  12.400  63.418  1.00  0.00    -0.462 C  
HETATM    4  F   UNL     1     -13.255  10.884  62.702  1.00  0.00     0.883 F  
HETATM    5  F   UNL     1     -11.568  10.060  63.807  1.00  0.00     2.479 F  
ENDROOT
BRANCH   3   6
HETATM    6  N   UNL     1     -11.663  13.489  64.388  1.00  0.00    -0.390 N  
HETATM    7  C   UNL     1     -11.163  13.358  65.669  1.00  0.00    -0.292 C  
HETATM    8  H   UNL     1     -12.122  14.358  64.113  1.00  0.00     0.000 HD 
HETATM    9  O   UNL     1     -10.663  12.296  66.042  1.00  0.00    -0.249 OA 
BRANCH   7  10
HETATM   10  C   UNL     1     -11.269  14.607  66.581  1.00  0.00    -0.349 C  
HETATM   11  C   UNL     1     -10.328  15.733  66.127  1.00  0.00    -0.333 A  
HETATM   12  C   UNL     1      -9.604  14.276  70.510  1.00  0.00     2.312 A  
HETATM   13  C   UNL     1     -10.348  16.443  64.933  1.00  0.00     0.215 A  
HETATM   14  C   UNL     1      -9.680  15.198  68.303  1.00  0.00    -0.219 A  
HETATM   15  C   UNL     1      -9.454  17.503  64.786  1.00  0.00     3.830 A  
HETATM   16  C   UNL     1     -10.647  13.393  70.188  1.00  0.00     1.301 A  
HETATM   17  C   UNL     1      -8.556  17.834  65.815  1.00  0.00     0.288 A  
HETATM   18  C   UNL     1      -9.108  15.182  69.564  1.00  0.00    -0.131 A  
HETATM   19  C   UNL     1     -10.736  14.313  67.989  1.00  0.00    -0.242 A  
HETATM   20  C   UNL     1      -8.536  17.108  67.011  1.00  0.00    -0.233 A  
HETATM   21  C   UNL     1     -11.220  13.401  68.917  1.00  0.00    -0.320 A  
HETATM   22  C   UNL     1      -9.427  16.060  67.166  1.00  0.00    -0.225 A  
BRANCH  10  23
HETATM   23  C   UNL     1     -12.737  15.104  66.646  1.00  0.00     1.343 C  
BRANCH  23  24
HETATM   24  C   UNL     1     -13.804  14.062  66.267  1.00  0.00     4.067 C  
BRANCH  24  25
HETATM   25  C   UNL     1     -13.634  12.793  67.104  1.00  0.00     7.222 C  
BRANCH  25  26
HETATM   26  C   UNL     1     -12.201  12.597  67.612  1.00  0.00     0.119 C  
BRANCH  26  27
HETATM   27  N   UNL     1     -11.478  11.471  67.000  1.00  0.00    -0.496 NA 
HETATM   28  C   UNL     1      -9.315  10.616  68.840  1.00  0.00    -0.184 C  
HETATM   29  C   UNL     1     -10.790  10.298  69.106  1.00  0.00    -0.270 C  
HETATM   30  C   UNL     1      -9.169  11.837  67.924  1.00  0.00    -0.181 C  
HETATM   31  C   UNL     1     -10.070  11.747  66.691  1.00  0.00    -0.204 C  
HETATM   32  C   UNL     1     -11.596  10.251  67.810  1.00  0.00     0.381 C  
BRANCH  28  33
HETATM   33  N   UNL     1      -8.607   9.457  68.302  1.00  0.00    -0.120 N  
HETATM   34  O   UNL     1      -6.592  10.543  68.045  1.00  0.00    -0.059 OA 
HETATM   35  C   UNL     1      -7.280   9.539  67.918  1.00  0.00    -0.082 C  
HETATM   36  H   UNL     1      -9.101   8.570  68.208  1.00  0.00     0.000 HD 
BRANCH  35  37
HETATM   37  C   UNL     1      -6.733   8.326  67.263  1.00  0.00    -0.063 A  
HETATM   38  C   UNL     1      -6.304   7.181  67.973  1.00  0.00    -0.044 A  
HETATM   39  C   UNL     1      -5.647   6.191  67.207  1.00  0.00    -0.009 A  
HETATM   40  C   UNL     1      -6.536   8.441  65.868  1.00  0.00    -0.053 A  
HETATM   41  C   UNL     1      -5.885   7.445  65.154  1.00  0.00    -0.037 A  
HETATM   42  C   UNL     1      -5.425   6.323  65.827  1.00  0.00    -0.014 A  
BRANCH  38  43
HETATM   43  C   UNL     1      -6.485   6.951  69.442  1.00  0.00    -0.044 A  
HETATM   44  C   UNL     1      -5.424   7.042  70.357  1.00  0.00    -0.023 A  
HETATM   45  C   UNL     1      -6.872   6.494  72.242  1.00  0.00    -0.068 A  
HETATM   46  C   UNL     1      -5.607   6.803  71.729  1.00  0.00    -0.036 A  
HETATM   47  C   UNL     1      -7.082   6.194  73.706  1.00  0.00    -0.084 C  
HETATM   48  C   UNL     1      -7.951   6.451  71.354  1.00  0.00    -0.105 A  
HETATM   49  C   UNL     1      -7.756   6.665  69.982  1.00  0.00    -0.102 A  
HETATM   50  F   UNL     1      -5.937   6.221  74.442  1.00  0.00    -0.059 F  
HETATM   51  F   UNL     1      -7.627   4.960  73.913  1.00  0.00    -0.087 F  
HETATM   52  F   UNL     1      -7.931   7.076  74.305  1.00  0.00    -0.117 F  
ENDBRANCH  38  43
ENDBRANCH  35  37
ENDBRANCH  28  33
ENDBRANCH  26  27
ENDBRANCH  25  26
ENDBRANCH  24  25
ENDBRANCH  23  24
ENDBRANCH  10  23
ENDBRANCH   7  10
ENDBRANCH   3   6
TORSDOF 10
ENDMDL
MODEL      152
REMARK 921   NORMALIZED FREE ENERGY PREDICTED BY IDOCK:   39.92 KCAL/MOL
REMARK 922        TOTAL FREE ENERGY PREDICTED BY IDOCK:   60.16 KCAL/MOL
REMARK 923 INTER-LIGAND FREE ENERGY PREDICTED BY IDOCK:    8.62 KCAL/MOL
REMARK 924 INTRA-LIGAND FREE ENERGY PREDICTED BY IDOCK:   51.53 KCAL/MOL
REMARK 927      BINDING AFFINITY PREDICTED BY RF-SCORE:    0.00 PKD
ROOT
HETATM    1  F   UNL     1     -12.234  12.897  70.231  1.00  0.00    -0.384 F  
HETATM    2  C   UNL     1     -12.863  11.801  69.754  1.00  0.00     0.542 C  
HETATM    3  C   UNL     1     -12.297  11.338  68.402  1.00  0.00     0.476 C  
HETATM    4  F   UNL     1     -14.183  12.075  69.682  1.00  0.00     4.340 F  
HETATM    5  F   UNL     1     -12.707  10.822  70.680  1.00  0.00    -0.366 F  
ENDROOT
BRANCH   3   6
HETATM    6  N   UNL     1     -11.231  12.159  67.827  1.00  0.00    -0.256 N  
HETATM    7  C   UNL     1     -11.365  12.721  66.571  1.00  0.00    -0.322 C  
HETATM    8  H   UNL     1     -10.377  12.319  68.361  1.00  0.00     0.000 HD 
HETATM    9  O   UNL     1     -12.360  12.488  65.883  1.00  0.00    -0.626 OA 
BRANCH   7  10
HETATM   10  C   UNL     1     -10.211  13.641  66.102  1.00  0.00    -0.306 C  
HETATM   11  C   UNL     1      -8.832  13.052  66.438  1.00  0.00     0.083 A  
HETATM   12  C   UNL     1      -9.621  17.270  68.293  1.00  0.00    -0.288 A  
HETATM   13  C   UNL     1      -8.260  11.877  65.967  1.00  0.00     0.335 A  
HETATM   14  C   UNL     1      -8.937  15.103  67.545  1.00  0.00    -0.187 A  
HETATM   15  C   UNL     1      -6.942  11.598  66.330  1.00  0.00     0.243 A  
HETATM   16  C   UNL     1     -10.863  17.108  67.659  1.00  0.00    -0.241 A  
HETATM   17  C   UNL     1      -6.222  12.480  67.154  1.00  0.00    -0.042 A  
HETATM   18  C   UNL     1      -8.650  16.262  68.245  1.00  0.00    -0.196 A  
HETATM   19  C   UNL     1     -10.185  14.951  66.900  1.00  0.00    -0.254 A  
HETATM   20  C   UNL     1      -6.809  13.657  67.632  1.00  0.00    -0.185 A  
HETATM   21  C   UNL     1     -11.158  15.939  66.958  1.00  0.00    -0.119 A  
HETATM   22  C   UNL     1      -8.114  13.943  67.268  1.00  0.00    -0.162 A  
BRANCH  10  23
HETATM   23  C   UNL     1     -10.334  13.930  64.583  1.00  0.00    -0.366 C  
BRANCH  23  24
HETATM   24  C   UNL     1     -11.754  13.805  64.001  1.00  0.00    -0.364 C  
BRANCH  24  25
HETATM   25  C   UNL     1     -12.619  12.908  64.887  1.00  0.00    -0.525 C  
BRANCH  25  26
HETATM   26  C   UNL     1     -11.818  12.196  65.984  1.00  0.00    -0.257 C  
BRANCH  26  27
HETATM   27  N   UNL     1     -10.534  11.630  65.542  1.00  0.00    -0.264 NA 
HETATM   28  C   UNL     1     -10.687   8.673  65.719  1.00  0.00     2.205 C  
HETATM   29  C   UNL     1     -11.396   9.465  64.616  1.00  0.00     7.045 C  
HETATM   30  C   UNL     1     -10.427   9.550  66.951  1.00  0.00    -0.279 C  
HETATM   31  C   UNL     1      -9.801  10.896  66.580  1.00  0.00    -0.198 C  
HETATM   32  C   UNL     1     -10.698  10.796  64.343  1.00  0.00    -0.050 C  
BRANCH  28  33
HETATM   33  N   UNL     1      -9.454   8.062  65.229  1.00  0.00    -0.060 N  
HETATM   34  O   UNL     1     -10.052   5.909  65.789  1.00  0.00     0.156 OA 
HETATM   35  C   UNL     1      -9.234   6.700  65.338  1.00  0.00     0.396 C  
HETATM   36  H   UNL     1      -8.742   8.650  64.798  1.00  0.00     0.000 HD 
BRANCH  35  37
HETATM   37  C   UNL     1      -7.886   6.240  64.927  1.00  0.00    -0.113 A  
HETATM   38  C   UNL     1      -6.687   6.709  65.512  1.00  0.00    -0.051 A  
HETATM   39  C   UNL     1      -5.491   6.300  64.879  1.00  0.00    -0.018 A  
HETATM   40  C   UNL     1      -7.867   5.390  63.796  1.00  0.00    -0.097 A  
HETATM   41  C   UNL     1      -6.669   5.013  63.206  1.00  0.00    -0.033 A  
HETATM   42  C   UNL     1      -5.478   5.481  63.739  1.00  0.00    -0.013 A  
BRANCH  38  43
HETATM   43  C   UNL     1      -6.597   7.591  66.719  1.00  0.00    -0.057 A  
HETATM   44  C   UNL     1      -7.477   7.473  67.808  1.00  0.00    -0.101 A  
HETATM   45  C   UNL     1      -6.397   9.304  69.005  1.00  0.00    -0.043 A  
HETATM   46  C   UNL     1      -7.391   8.322  68.924  1.00  0.00    -0.090 A  
HETATM   47  C   UNL     1      -6.314  10.252  70.176  1.00  0.00    -0.117 C  
HETATM   48  C   UNL     1      -5.479   9.402  67.955  1.00  0.00    -0.037 A  
HETATM   49  C   UNL     1      -5.587   8.568  66.833  1.00  0.00    -0.037 A  
HETATM   50  F   UNL     1      -7.301  10.076  71.097  1.00  0.00     0.033 F  
HETATM   51  F   UNL     1      -6.391  11.560  69.795  1.00  0.00    -0.090 F  
HETATM   52  F   UNL     1      -5.141  10.137  70.861  1.00  0.00    -0.040 F  
ENDBRANCH  38  43
ENDBRANCH  35  37
ENDBRANCH  28  33
ENDBRANCH  26  27
ENDBRANCH  25  26
ENDBRANCH  24  25
ENDBRANCH  23  24
ENDBRANCH  10  23
ENDBRANCH   7  10
ENDBRANCH   3   6
TORSDOF 10
ENDMDL
MODEL      153
REMARK 921   NORMALIZED FREE ENERGY PREDICTED BY IDOCK:   41.01 KCAL/MOL
REMARK 922        TOTAL FREE ENERGY PREDICTED BY IDOCK:   61.88 KCAL/MOL
REMARK 923 INTER-LIGAND FREE ENERGY PREDICTED BY IDOCK:   32.31 KCAL/MOL
REMARK 924 INTRA-LIGAND FREE ENERGY PREDICTED BY IDOCK:   29.57 KCAL/MOL
REMARK 927      BINDING AFFINITY PREDICTED BY RF-SCORE:    0.00 PKD
ROOT
HETATM    1  F   UNL     1     -13.498  18.922  66.392  1.00  0.00     8.062 F  
HETATM    2  C   UNL     1     -12.974  19.949  67.096  1.00  0.00     5.444 C  
HETATM    3  C   UNL     1     -11.764  19.527  67.944  1.00  0.00     1.799 C  
HETATM    4  F   UNL     1     -13.958  20.484  67.850  1.00  0.00     2.134 F  
HETATM    5  F   UNL     1     -12.601  20.894  66.196  1.00  0.00     2.867 F  
ENDROOT
BRANCH   3   6
HETATM    6  N   UNL     1     -11.405  18.109  67.905  1.00  0.00     0.236 N  
HETATM    7  C   UNL     1     -11.186  17.465  66.702  1.00  0.00     0.656 C  
HETATM    8  H   UNL     1     -11.316  17.589  68.778  1.00  0.00     0.000 HD 
HETATM    9  O   UNL     1     -11.351  18.056  65.635  1.00  0.00     0.449 OA 
BRANCH   7  10
HETATM   10  C   UNL     1     -10.727  15.987  66.787  1.00  0.00    -0.259 C  
HETATM   11  C   UNL     1      -9.227  15.867  67.093  1.00  0.00    -0.222 A  
HETATM   12  C   UNL     1     -10.544  13.810  63.107  1.00  0.00     3.273 A  
HETATM   13  C   UNL     1      -8.545  16.278  68.231  1.00  0.00    -0.196 A  
HETATM   14  C   UNL     1      -9.546  14.806  65.039  1.00  0.00     0.348 A  
HETATM   15  C   UNL     1      -7.189  15.963  68.332  1.00  0.00    -0.121 A  
HETATM   16  C   UNL     1     -11.800  14.312  63.483  1.00  0.00     0.411 A  
HETATM   17  C   UNL     1      -6.537  15.257  67.307  1.00  0.00    -0.010 A  
HETATM   18  C   UNL     1      -9.405  14.061  63.881  1.00  0.00     4.832 A  
HETATM   19  C   UNL     1     -10.815  15.299  65.418  1.00  0.00    -0.399 A  
HETATM   20  C   UNL     1      -7.229  14.854  66.160  1.00  0.00     3.298 A  
HETATM   21  C   UNL     1     -11.945  15.069  64.645  1.00  0.00    -0.363 A  
HETATM   22  C   UNL     1      -8.577  15.157  66.058  1.00  0.00     0.385 A  
BRANCH  10  23
HETATM   23  C   UNL     1     -11.571  15.220  67.838  1.00  0.00    -0.301 C  
BRANCH  23  24
HETATM   24  C   UNL     1     -11.963  16.029  69.087  1.00  0.00    -0.187 C  
BRANCH  24  25
HETATM   25  C   UNL     1     -10.881  17.058  69.420  1.00  0.00    -0.092 C  
BRANCH  25  26
HETATM   26  C   UNL     1     -10.250  16.840  70.801  1.00  0.00     1.687 C  
BRANCH  26  27
HETATM   27  N   UNL     1      -9.978  15.434  71.140  1.00  0.00     0.973 NA 
HETATM   28  C   UNL     1     -12.073  13.737  69.904  1.00  0.00    -0.348 C  
HETATM   29  C   UNL     1     -10.947  14.376  69.084  1.00  0.00    -0.288 C  
HETATM   30  C   UNL     1     -12.315  14.508  71.207  1.00  0.00    -0.418 C  
HETATM   31  C   UNL     1     -11.014  14.794  71.960  1.00  0.00     0.902 C  
HETATM   32  C   UNL     1      -9.708  14.633  69.938  1.00  0.00     0.443 C  
BRANCH  28  33
HETATM   33  N   UNL     1     -11.811  12.323  70.161  1.00  0.00    -0.493 N  
HETATM   34  O   UNL     1     -13.343  12.133  71.870  1.00  0.00    -0.463 OA 
HETATM   35  C   UNL     1     -12.470  11.640  71.168  1.00  0.00    -0.307 C  
HETATM   36  H   UNL     1     -11.128  11.830  69.586  1.00  0.00     0.000 HD 
BRANCH  35  37
HETATM   37  C   UNL     1     -12.005  10.252  71.404  1.00  0.00    -0.419 A  
HETATM   38  C   UNL     1     -11.147   9.555  70.522  1.00  0.00    -0.342 A  
HETATM   39  C   UNL     1     -10.949   8.185  70.809  1.00  0.00    -0.261 A  
HETATM   40  C   UNL     1     -12.594   9.608  72.516  1.00  0.00    -0.043 A  
HETATM   41  C   UNL     1     -12.372   8.261  72.761  1.00  0.00    -0.128 A  
HETATM   42  C   UNL     1     -11.559   7.543  71.897  1.00  0.00    -0.312 A  
BRANCH  38  43
HETATM   43  C   UNL     1     -10.457  10.147  69.332  1.00  0.00    -0.254 A  
HETATM   44  C   UNL     1      -9.574  11.235  69.434  1.00  0.00     0.282 A  
HETATM   45  C   UNL     1      -9.166  11.257  67.029  1.00  0.00    -0.173 A  
HETATM   46  C   UNL     1      -8.951  11.791  68.305  1.00  0.00    -0.180 A  
HETATM   47  C   UNL     1      -8.539  11.866  65.799  1.00  0.00     0.308 C  
HETATM   48  C   UNL     1     -10.000  10.142  66.913  1.00  0.00    -0.259 A  
HETATM   49  C   UNL     1     -10.639   9.607  68.042  1.00  0.00    -0.292 A  
HETATM   50  F   UNL     1      -7.794  12.977  66.055  1.00  0.00     0.833 F  
HETATM   51  F   UNL     1      -9.466  12.246  64.874  1.00  0.00    -0.147 F  
HETATM   52  F   UNL     1      -7.707  11.001  65.153  1.00  0.00    -0.033 F  
ENDBRANCH  38  43
ENDBRANCH  35  37
ENDBRANCH  28  33
ENDBRANCH  26  27
ENDBRANCH  25  26
ENDBRANCH  24  25
ENDBRANCH  23  24
ENDBRANCH  10  23
ENDBRANCH   7  10
ENDBRANCH   3   6
TORSDOF 10
ENDMDL
MODEL      154
REMARK 921   NORMALIZED FREE ENERGY PREDICTED BY IDOCK:   43.80 KCAL/MOL
REMARK 922        TOTAL FREE ENERGY PREDICTED BY IDOCK:   66.31 KCAL/MOL
REMARK 923 INTER-LIGAND FREE ENERGY PREDICTED BY IDOCK:    6.63 KCAL/MOL
REMARK 924 INTRA-LIGAND FREE ENERGY PREDICTED BY IDOCK:   59.67 KCAL/MOL
REMARK 927      BINDING AFFINITY PREDICTED BY RF-SCORE:    0.00 PKD
ROOT
HETATM    1  F   UNL     1     -11.923  11.461  68.570  1.00  0.00    -0.360 F  
HETATM    2  C   UNL     1     -12.240  11.900  69.808  1.00  0.00    -0.174 C  
HETATM    3  C   UNL     1     -11.522  11.112  70.915  1.00  0.00     0.389 C  
HETATM    4  F   UNL     1     -13.583  11.846  69.939  1.00  0.00     1.114 F  
HETATM    5  F   UNL     1     -11.885  13.208  69.866  1.00  0.00    -0.343 F  
ENDROOT
BRANCH   3   6
HETATM    6  N   UNL     1     -10.671  10.005  70.478  1.00  0.00    -0.329 N  
HETATM    7  C   UNL     1      -9.359  10.224  70.100  1.00  0.00     0.240 C  
HETATM    8  H   UNL     1     -11.050   9.059  70.452  1.00  0.00     0.000 HD 
HETATM    9  O   UNL     1      -8.900  11.366  70.062  1.00  0.00     1.375 OA 
BRANCH   7  10
HETATM   10  C   UNL     1      -8.528   8.967  69.739  1.00  0.00    -0.131 C  
HETATM   11  C   UNL     1      -7.790   9.129  68.402  1.00  0.00    -0.102 A  
HETATM   12  C   UNL     1     -10.713   5.483  68.552  1.00  0.00    -0.161 A  
HETATM   13  C   UNL     1      -6.795  10.040  68.073  1.00  0.00    -0.068 A  
HETATM   14  C   UNL     1      -9.194   7.285  68.136  1.00  0.00    -0.132 A  
HETATM   15  C   UNL     1      -6.191   9.928  66.820  1.00  0.00    -0.064 A  
HETATM   16  C   UNL     1     -10.957   5.973  69.844  1.00  0.00    -0.458 A  
HETATM   17  C   UNL     1      -6.588   8.925  65.919  1.00  0.00    -0.057 A  
HETATM   18  C   UNL     1      -9.833   6.142  67.685  1.00  0.00    -0.131 A  
HETATM   19  C   UNL     1      -9.437   7.766  69.442  1.00  0.00    -0.156 A  
HETATM   20  C   UNL     1      -7.598   8.017  66.254  1.00  0.00    -0.090 A  
HETATM   21  C   UNL     1     -10.322   7.128  70.300  1.00  0.00    -0.214 A  
HETATM   22  C   UNL     1      -8.194   8.118  67.500  1.00  0.00    -0.123 A  
BRANCH  10  23
HETATM   23  C   UNL     1      -7.535   8.630  70.882  1.00  0.00    -0.083 C  
BRANCH  23  24
HETATM   24  C   UNL     1      -6.499   7.539  70.556  1.00  0.00    -0.038 C  
BRANCH  24  25
HETATM   25  C   UNL     1      -5.393   8.102  69.663  1.00  0.00    -0.026 C  
BRANCH  25  26
HETATM   26  C   UNL     1      -5.706   9.505  69.130  1.00  0.00    -0.035 C  
BRANCH  26  27
HETATM   27  N   UNL     1      -6.483  10.354  70.047  1.00  0.00    -0.109 NA 
HETATM   28  C   UNL     1      -7.707  12.562  68.492  1.00  0.00    -0.113 C  
HETATM   29  C   UNL     1      -8.233  11.125  68.426  1.00  0.00    -0.144 C  
HETATM   30  C   UNL     1      -6.239  12.595  68.933  1.00  0.00    -0.081 C  
HETATM   31  C   UNL     1      -5.988  11.730  70.170  1.00  0.00    -0.162 C  
HETATM   32  C   UNL     1      -7.912  10.351  69.702  1.00  0.00    -0.118 C  
BRANCH  28  33
HETATM   33  N   UNL     1      -8.542  13.399  69.350  1.00  0.00     0.230 N  
HETATM   34  O   UNL     1      -9.169  14.854  67.679  1.00  0.00    -0.183 OA 
HETATM   35  C   UNL     1      -9.192  14.515  68.854  1.00  0.00    -0.118 C  
HETATM   36  H   UNL     1      -8.647  13.154  70.334  1.00  0.00     0.000 HD 
BRANCH  35  37
HETATM   37  C   UNL     1      -9.889  15.345  69.866  1.00  0.00    -0.191 A  
HETATM   38  C   UNL     1     -10.035  16.747  69.762  1.00  0.00     0.181 A  
HETATM   39  C   UNL     1     -10.568  17.398  70.898  1.00  0.00     1.735 A  
HETATM   40  C   UNL     1     -10.286  14.651  71.033  1.00  0.00     1.474 A  
HETATM   41  C   UNL     1     -10.804  15.330  72.126  1.00  0.00     0.435 A  
HETATM   42  C   UNL     1     -10.932  16.709  72.065  1.00  0.00     1.277 A  
BRANCH  38  43
HETATM   43  C   UNL     1      -9.668  17.571  68.566  1.00  0.00    -0.319 A  
HETATM   44  C   UNL     1      -8.759  17.128  67.592  1.00  0.00    -0.213 A  
HETATM   45  C   UNL     1      -8.988  19.184  66.300  1.00  0.00    -0.320 A  
HETATM   46  C   UNL     1      -8.411  17.922  66.487  1.00  0.00    -0.284 A  
HETATM   47  C   UNL     1      -8.596  20.070  65.142  1.00  0.00     1.196 C  
HETATM   48  C   UNL     1      -9.934  19.621  67.230  1.00  0.00    -0.518 A  
HETATM   49  C   UNL     1     -10.258  18.833  68.344  1.00  0.00    -0.413 A  
HETATM   50  F   UNL     1      -7.627  19.538  64.346  1.00  0.00     1.024 F  
HETATM   51  F   UNL     1      -8.119  21.281  65.549  1.00  0.00     0.880 F  
HETATM   52  F   UNL     1      -9.645  20.346  64.317  1.00  0.00     1.647 F  
ENDBRANCH  38  43
ENDBRANCH  35  37
ENDBRANCH  28  33
ENDBRANCH  26  27
ENDBRANCH  25  26
ENDBRANCH  24  25
ENDBRANCH  23  24
ENDBRANCH  10  23
ENDBRANCH   7  10
ENDBRANCH   3   6
TORSDOF 10
ENDMDL
MODEL      155
REMARK 921   NORMALIZED FREE ENERGY PREDICTED BY IDOCK:   49.79 KCAL/MOL
REMARK 922        TOTAL FREE ENERGY PREDICTED BY IDOCK:   75.80 KCAL/MOL
REMARK 923 INTER-LIGAND FREE ENERGY PREDICTED BY IDOCK:   57.52 KCAL/MOL
REMARK 924 INTRA-LIGAND FREE ENERGY PREDICTED BY IDOCK:   18.28 KCAL/MOL
REMARK 927      BINDING AFFINITY PREDICTED BY RF-SCORE:    0.00 PKD
ROOT
HETATM    1  F   UNL     1     -13.191  13.158  65.651  1.00  0.00    -0.322 F  
HETATM    2  C   UNL     1     -12.948  12.303  66.670  1.00  0.00     3.171 C  
HETATM    3  C   UNL     1     -11.859  12.817  67.624  1.00  0.00    -0.339 C  
HETATM    4  F   UNL     1     -12.631  11.102  66.141  1.00  0.00     1.641 F  
HETATM    5  F   UNL     1     -14.117  12.148  67.342  1.00  0.00     8.364 F  
ENDROOT
BRANCH   3   6
HETATM    6  N   UNL     1     -11.230  14.089  67.269  1.00  0.00    -0.302 N  
HETATM    7  C   UNL     1     -11.430  15.220  68.038  1.00  0.00    -0.341 C  
HETATM    8  H   UNL     1     -10.636  14.142  66.442  1.00  0.00     0.000 HD 
HETATM    9  O   UNL     1     -12.194  15.195  69.003  1.00  0.00    -0.231 OA 
BRANCH   7  10
HETATM   10  C   UNL     1     -10.645  16.488  67.615  1.00  0.00    -0.321 C  
HETATM   11  C   UNL     1      -9.275  16.572  68.303  1.00  0.00    -0.214 A  
HETATM   12  C   UNL     1     -12.066  20.231  69.128  1.00  0.00     5.445 A  
HETATM   13  C   UNL     1      -8.195  15.707  68.182  1.00  0.00    -0.144 A  
HETATM   14  C   UNL     1     -10.434  18.490  68.952  1.00  0.00     0.021 A  
HETATM   15  C   UNL     1      -7.005  16.048  68.824  1.00  0.00    -0.139 A  
HETATM   16  C   UNL     1     -12.951  19.496  68.323  1.00  0.00     7.691 A  
HETATM   17  C   UNL     1      -6.909  17.231  69.578  1.00  0.00    -0.080 A  
HETATM   18  C   UNL     1     -10.801  19.727  69.454  1.00  0.00     1.044 A  
HETATM   19  C   UNL     1     -11.326  17.761  68.135  1.00  0.00     0.600 A  
HETATM   20  C   UNL     1      -8.004  18.093  69.703  1.00  0.00     0.767 A  
HETATM   21  C   UNL     1     -12.588  18.247  67.822  1.00  0.00     5.546 A  
HETATM   22  C   UNL     1      -9.185  17.763  69.060  1.00  0.00    -0.045 A  
BRANCH  10  23
HETATM   23  C   UNL     1     -10.494  16.540  66.072  1.00  0.00    -0.320 C  
BRANCH  23  24
HETATM   24  C   UNL     1      -9.747  17.769  65.524  1.00  0.00     0.566 C  
BRANCH  24  25
HETATM   25  C   UNL     1      -8.295  17.413  65.203  1.00  0.00     2.700 C  
BRANCH  25  26
HETATM   26  C   UNL     1      -8.057  15.902  65.095  1.00  0.00     4.483 C  
BRANCH  26  27
HETATM   27  N   UNL     1      -8.739  15.095  66.118  1.00  0.00    -0.100 NA 
HETATM   28  C   UNL     1      -8.972  12.308  65.133  1.00  0.00     0.690 C  
HETATM   29  C   UNL     1      -7.646  12.893  65.627  1.00  0.00     3.787 C  
HETATM   30  C   UNL     1      -9.930  13.415  64.675  1.00  0.00    -0.132 C  
HETATM   31  C   UNL     1     -10.034  14.547  65.699  1.00  0.00    -0.347 C  
HETATM   32  C   UNL     1      -7.870  14.025  66.627  1.00  0.00     0.773 C  
BRANCH  28  33
HETATM   33  N   UNL     1      -9.589  11.452  66.143  1.00  0.00    -0.210 N  
HETATM   34  O   UNL     1      -9.862   9.642  64.745  1.00  0.00    -0.184 OA 
HETATM   35  C   UNL     1     -10.014  10.170  65.838  1.00  0.00    -0.267 C  
HETATM   36  H   UNL     1      -9.708  11.806  67.092  1.00  0.00     0.000 HD 
BRANCH  35  37
HETATM   37  C   UNL     1     -10.744   9.470  66.922  1.00  0.00    -0.184 A  
HETATM   38  C   UNL     1     -10.833   8.062  67.022  1.00  0.00    -0.113 A  
HETATM   39  C   UNL     1     -11.713   7.569  68.012  1.00  0.00     1.539 A  
HETATM   40  C   UNL     1     -11.477  10.315  67.788  1.00  0.00     0.044 A  
HETATM   41  C   UNL     1     -12.331   9.787  68.746  1.00  0.00     2.018 A  
HETATM   42  C   UNL     1     -12.462   8.411  68.849  1.00  0.00     4.222 A  
BRANCH  38  43
HETATM   43  C   UNL     1     -10.084   7.083  66.172  1.00  0.00     0.265 A  
HETATM   44  C   UNL     1      -9.149   6.180  66.705  1.00  0.00    -0.146 A  
HETATM   45  C   UNL     1      -8.666   5.232  64.510  1.00  0.00    -0.072 A  
HETATM   46  C   UNL     1      -8.440   5.281  65.890  1.00  0.00    -0.124 A  
HETATM   47  C   UNL     1      -7.885   4.302  63.613  1.00  0.00    -0.083 C  
HETATM   48  C   UNL     1      -9.631   6.085  63.968  1.00  0.00     1.939 A  
HETATM   49  C   UNL     1     -10.316   6.997  64.784  1.00  0.00     5.134 A  
HETATM   50  F   UNL     1      -6.944   3.568  64.268  1.00  0.00    -0.044 F  
HETATM   51  F   UNL     1      -7.217   4.968  62.627  1.00  0.00    -0.038 F  
HETATM   52  F   UNL     1      -8.683   3.401  62.973  1.00  0.00    -0.089 F  
ENDBRANCH  38  43
ENDBRANCH  35  37
ENDBRANCH  28  33
ENDBRANCH  26  27
ENDBRANCH  25  26
ENDBRANCH  24  25
ENDBRANCH  23  24
ENDBRANCH  10  23
ENDBRANCH   7  10
ENDBRANCH   3   6
TORSDOF 10
ENDMDL
MODEL      156
REMARK 921   NORMALIZED FREE ENERGY PREDICTED BY IDOCK:   51.51 KCAL/MOL
REMARK 922        TOTAL FREE ENERGY PREDICTED BY IDOCK:   78.52 KCAL/MOL
REMARK 923 INTER-LIGAND FREE ENERGY PREDICTED BY IDOCK:   23.80 KCAL/MOL
REMARK 924 INTRA-LIGAND FREE ENERGY PREDICTED BY IDOCK:   54.72 KCAL/MOL
REMARK 927      BINDING AFFINITY PREDICTED BY RF-SCORE:    0.00 PKD
ROOT
HETATM    1  F   UNL     1     -11.615  13.448  66.694  1.00  0.00    -0.316 F  
HETATM    2  C   UNL     1     -12.961  13.469  66.806  1.00  0.00     1.084 C  
HETATM    3  C   UNL     1     -13.449  12.928  68.159  1.00  0.00     6.115 C  
HETATM    4  F   UNL     1     -13.477  12.776  65.769  1.00  0.00     0.569 F  
HETATM    5  F   UNL     1     -13.350  14.761  66.657  1.00  0.00     0.769 F  
ENDROOT
BRANCH   3   6
HETATM    6  N   UNL     1     -12.418  12.437  69.074  1.00  0.00     0.253 N  
HETATM    7  C   UNL     1     -12.601  11.270  69.791  1.00  0.00    -0.025 C  
HETATM    8  H   UNL     1     -11.551  12.964  69.183  1.00  0.00     0.000 HD 
HETATM    9  O   UNL     1     -13.664  10.653  69.724  1.00  0.00     0.645 OA 
BRANCH   7  10
HETATM   10  C   UNL     1     -11.407  10.803  70.662  1.00  0.00    -0.202 C  
HETATM   11  C   UNL     1     -10.192  10.407  69.808  1.00  0.00    -0.228 A  
HETATM   12  C   UNL     1     -11.788   6.994  72.576  1.00  0.00    -0.150 A  
HETATM   13  C   UNL     1      -9.432  11.211  68.968  1.00  0.00    -0.074 A  
HETATM   14  C   UNL     1     -10.775   8.497  71.014  1.00  0.00    -0.278 A  
HETATM   15  C   UNL     1      -8.300  10.652  68.374  1.00  0.00    -0.127 A  
HETATM   16  C   UNL     1     -12.733   7.973  72.921  1.00  0.00     0.326 A  
HETATM   17  C   UNL     1      -7.949   9.313  68.616  1.00  0.00    -0.100 A  
HETATM   18  C   UNL     1     -10.805   7.248  71.612  1.00  0.00    -0.246 A  
HETATM   19  C   UNL     1     -11.723   9.481  71.374  1.00  0.00    -0.465 A  
HETATM   20  C   UNL     1      -8.725   8.507  69.457  1.00  0.00    -0.136 A  
HETATM   21  C   UNL     1     -12.711   9.229  72.315  1.00  0.00    -0.435 A  
HETATM   22  C   UNL     1      -9.845   9.059  70.056  1.00  0.00    -0.203 A  
BRANCH  10  23
HETATM   23  C   UNL     1     -11.027  11.900  71.691  1.00  0.00     5.625 C  
BRANCH  23  24
HETATM   24  C   UNL     1     -11.733  13.254  71.501  1.00  0.00     1.345 C  
BRANCH  24  25
HETATM   25  C   UNL     1     -11.875  13.581  70.014  1.00  0.00    -0.371 C  
BRANCH  25  26
HETATM   26  C   UNL     1     -10.991  14.752  69.569  1.00  0.00    -0.266 C  
BRANCH  26  27
HETATM   27  N   UNL     1      -9.792  14.366  68.808  1.00  0.00    -0.232 NA 
HETATM   28  C   UNL     1     -10.375  11.869  67.319  1.00  0.00    -0.205 C  
HETATM   29  C   UNL     1     -10.936  13.228  66.890  1.00  0.00    -0.298 C  
HETATM   30  C   UNL     1     -10.021  11.862  68.811  1.00  0.00    -0.105 C  
HETATM   31  C   UNL     1      -9.198  13.087  69.215  1.00  0.00     0.931 C  
HETATM   32  C   UNL     1     -10.047  14.376  67.361  1.00  0.00    -0.243 C  
BRANCH  28  33
HETATM   33  N   UNL     1      -9.233  11.478  66.497  1.00  0.00    -0.189 N  
HETATM   34  O   UNL     1      -9.798  12.809  64.705  1.00  0.00    -0.161 OA 
HETATM   35  C   UNL     1      -9.061  11.979  65.219  1.00  0.00     0.278 C  
HETATM   36  H   UNL     1      -8.547  10.823  66.874  1.00  0.00     0.000 HD 
BRANCH  35  37
HETATM   37  C   UNL     1      -7.936  11.390  64.452  1.00  0.00     1.126 A  
HETATM   38  C   UNL     1      -7.663  10.004  64.406  1.00  0.00    -0.145 A  
HETATM   39  C   UNL     1      -6.452   9.635  63.776  1.00  0.00    -0.111 A  
HETATM   40  C   UNL     1      -7.055  12.332  63.873  1.00  0.00     6.420 A  
HETATM   41  C   UNL     1      -5.875  11.925  63.264  1.00  0.00     3.134 A  
HETATM   42  C   UNL     1      -5.565  10.575  63.229  1.00  0.00    -0.152 A  
BRANCH  38  43
HETATM   43  C   UNL     1      -8.539   8.927  64.967  1.00  0.00    -0.202 A  
HETATM   44  C   UNL     1      -9.523   9.181  65.936  1.00  0.00    -0.326 A  
HETATM   45  C   UNL     1     -10.187   6.835  66.020  1.00  0.00     0.533 A  
HETATM   46  C   UNL     1     -10.323   8.155  66.466  1.00  0.00    -0.162 A  
HETATM   47  C   UNL     1     -11.008   5.713  66.607  1.00  0.00    -0.091 C  
HETATM   48  C   UNL     1      -9.250   6.571  65.018  1.00  0.00     0.664 A  
HETATM   49  C   UNL     1      -8.437   7.595  64.512  1.00  0.00     0.119 A  
HETATM   50  F   UNL     1     -11.842   6.107  67.609  1.00  0.00     0.097 F  
HETATM   51  F   UNL     1     -10.234   4.722  67.137  1.00  0.00    -0.204 F  
HETATM   52  F   UNL     1     -11.801   5.105  65.681  1.00  0.00     0.216 F  
ENDBRANCH  38  43
ENDBRANCH  35  37
ENDBRANCH  28  33
ENDBRANCH  26  27
ENDBRANCH  25  26
ENDBRANCH  24  25
ENDBRANCH  23  24
ENDBRANCH  10  23
ENDBRANCH   7  10
ENDBRANCH   3   6
TORSDOF 10
ENDMDL
MODEL      157
REMARK 921   NORMALIZED FREE ENERGY PREDICTED BY IDOCK:   55.79 KCAL/MOL
REMARK 922        TOTAL FREE ENERGY PREDICTED BY IDOCK:   85.31 KCAL/MOL
REMARK 923 INTER-LIGAND FREE ENERGY PREDICTED BY IDOCK:   47.28 KCAL/MOL
REMARK 924 INTRA-LIGAND FREE ENERGY PREDICTED BY IDOCK:   38.03 KCAL/MOL
REMARK 927      BINDING AFFINITY PREDICTED BY RF-SCORE:    0.00 PKD
ROOT
HETATM    1  F   UNL     1     -12.046  14.554  69.045  1.00  0.00    -0.332 F  
HETATM    2  C   UNL     1     -12.295  15.805  68.599  1.00  0.00     0.391 C  
HETATM    3  C   UNL     1     -11.109  16.405  67.828  1.00  0.00    -0.199 C  
HETATM    4  F   UNL     1     -12.645  16.564  69.659  1.00  0.00     0.298 F  
HETATM    5  F   UNL     1     -13.381  15.726  67.788  1.00  0.00     2.350 F  
ENDROOT
BRANCH   3   6
HETATM    6  N   UNL     1      -9.905  15.577  67.741  1.00  0.00    -0.213 N  
HETATM    7  C   UNL     1      -9.923  14.252  68.134  1.00  0.00    -0.230 C  
HETATM    8  H   UNL     1      -9.040  15.984  67.386  1.00  0.00     0.000 HD 
HETATM    9  O   UNL     1     -10.939  13.758  68.626  1.00  0.00    -0.249 OA 
BRANCH   7  10
HETATM   10  C   UNL     1      -8.615  13.451  67.916  1.00  0.00    -0.184 C  
HETATM   11  C   UNL     1      -8.074  13.609  66.487  1.00  0.00     0.713 A  
HETATM   12  C   UNL     1      -8.968   9.190  67.725  1.00  0.00    -0.132 A  
HETATM   13  C   UNL     1      -7.624  14.763  65.859  1.00  0.00     3.831 A  
HETATM   14  C   UNL     1      -8.470  11.327  66.772  1.00  0.00    -0.161 A  
HETATM   15  C   UNL     1      -7.073  14.643  64.583  1.00  0.00    17.040 A  
HETATM   16  C   UNL     1      -9.375   9.806  68.919  1.00  0.00    -0.158 A  
HETATM   17  C   UNL     1      -6.985  13.390  63.954  1.00  0.00    18.940 A  
HETATM   18  C   UNL     1      -8.519   9.950  66.639  1.00  0.00    -0.126 A  
HETATM   19  C   UNL     1      -8.872  11.940  67.980  1.00  0.00    -0.177 A  
HETATM   20  C   UNL     1      -7.449  12.233  64.589  1.00  0.00     4.924 A  
HETATM   21  C   UNL     1      -9.335  11.194  69.055  1.00  0.00    -0.065 A  
HETATM   22  C   UNL     1      -7.989  12.345  65.859  1.00  0.00     1.298 A  
BRANCH  10  23
HETATM   23  C   UNL     1      -7.547  13.868  68.961  1.00  0.00    -0.002 C  
BRANCH  23  24
HETATM   24  C   UNL     1      -7.400  12.923  70.167  1.00  0.00     1.664 C  
BRANCH  24  25
HETATM   25  C   UNL     1      -6.622  11.667  69.771  1.00  0.00    -0.071 C  
BRANCH  25  26
HETATM   26  C   UNL     1      -7.406  10.748  68.825  1.00  0.00    -0.104 C  
BRANCH  26  27
HETATM   27  N   UNL     1      -7.014   9.331  68.877  1.00  0.00    -0.063 NA 
HETATM   28  C   UNL     1      -7.381   8.344  71.649  1.00  0.00    -0.098 C  
HETATM   29  C   UNL     1      -8.563   8.598  70.707  1.00  0.00    -0.197 C  
HETATM   30  C   UNL     1      -6.156   9.167  71.235  1.00  0.00    -0.070 C  
HETATM   31  C   UNL     1      -5.860   9.049  69.738  1.00  0.00    -0.032 C  
HETATM   32  C   UNL     1      -8.150   8.472  69.243  1.00  0.00    -0.113 C  
BRANCH  28  33
HETATM   33  N   UNL     1      -7.064   6.921  71.737  1.00  0.00    -0.073 N  
HETATM   34  O   UNL     1      -7.667   6.437  69.568  1.00  0.00    -0.096 OA 
HETATM   35  C   UNL     1      -7.269   6.070  70.665  1.00  0.00    -0.080 C  
HETATM   36  H   UNL     1      -6.685   6.547  72.607  1.00  0.00     0.000 HD 
BRANCH  35  37
HETATM   37  C   UNL     1      -7.034   4.632  70.942  1.00  0.00    -0.037 A  
HETATM   38  C   UNL     1      -7.113   3.623  69.956  1.00  0.00    -0.041 A  
HETATM   39  C   UNL     1      -7.036   2.293  70.427  1.00  0.00    -0.033 A  
HETATM   40  C   UNL     1      -6.858   4.311  72.308  1.00  0.00    -0.046 A  
HETATM   41  C   UNL     1      -6.787   2.990  72.727  1.00  0.00    -0.027 A  
HETATM   42  C   UNL     1      -6.892   1.977  71.787  1.00  0.00    -0.019 A  
BRANCH  38  43
HETATM   43  C   UNL     1      -7.275   3.857  68.485  1.00  0.00    -0.055 A  
HETATM   44  C   UNL     1      -7.227   2.815  67.544  1.00  0.00    -0.053 A  
HETATM   45  C   UNL     1      -7.581   4.349  65.681  1.00  0.00    -0.085 A  
HETATM   46  C   UNL     1      -7.361   3.054  66.167  1.00  0.00    -0.071 A  
HETATM   47  C   UNL     1      -7.685   4.632  64.202  1.00  0.00    -0.078 C  
HETATM   48  C   UNL     1      -7.685   5.391  66.606  1.00  0.00    -0.100 A  
HETATM   49  C   UNL     1      -7.525   5.148  67.977  1.00  0.00    -0.076 A  
HETATM   50  F   UNL     1      -7.513   3.532  63.418  1.00  0.00    -0.053 F  
HETATM   51  F   UNL     1      -6.759   5.539  63.778  1.00  0.00    -0.031 F  
HETATM   52  F   UNL     1      -8.896   5.152  63.854  1.00  0.00    -0.145 F  
ENDBRANCH  38  43
ENDBRANCH  35  37
ENDBRANCH  28  33
ENDBRANCH  26  27
ENDBRANCH  25  26
ENDBRANCH  24  25
ENDBRANCH  23  24
ENDBRANCH  10  23
ENDBRANCH   7  10
ENDBRANCH   3   6
TORSDOF 10
ENDMDL
MODEL      158
REMARK 921   NORMALIZED FREE ENERGY PREDICTED BY IDOCK:   68.68 KCAL/MOL
REMARK 922        TOTAL FREE ENERGY PREDICTED BY IDOCK:  105.73 KCAL/MOL
REMARK 923 INTER-LIGAND FREE ENERGY PREDICTED BY IDOCK:   42.68 KCAL/MOL
REMARK 924 INTRA-LIGAND FREE ENERGY PREDICTED BY IDOCK:   63.06 KCAL/MOL
REMARK 927      BINDING AFFINITY PREDICTED BY RF-SCORE:    0.00 PKD
ROOT
HETATM    1  F   UNL     1     -11.316  11.226  69.977  1.00  0.00    -0.311 F  
HETATM    2  C   UNL     1     -12.453  11.271  69.248  1.00  0.00     0.065 C  
HETATM    3  C   UNL     1     -12.188  11.179  67.736  1.00  0.00     0.817 C  
HETATM    4  F   UNL     1     -13.116  12.400  69.577  1.00  0.00     0.566 F  
HETATM    5  F   UNL     1     -13.220  10.226  69.648  1.00  0.00    -0.012 F  
ENDROOT
BRANCH   3   6
HETATM    6  N   UNL     1     -10.786  11.112  67.324  1.00  0.00    -0.243 N  
HETATM    7  C   UNL     1      -9.943  10.140  67.829  1.00  0.00    -0.168 C  
HETATM    8  H   UNL     1     -10.426  11.792  66.655  1.00  0.00     0.000 HD 
HETATM    9  O   UNL     1     -10.339   9.350  68.687  1.00  0.00    -0.192 OA 
BRANCH   7  10
HETATM   10  C   UNL     1      -8.503  10.113  67.257  1.00  0.00    -0.125 C  
HETATM   11  C   UNL     1      -8.403  10.855  65.916  1.00  0.00    -0.149 A  
HETATM   12  C   UNL     1      -7.104   6.368  65.728  1.00  0.00    -0.062 A  
HETATM   13  C   UNL     1      -8.617  12.203  65.659  1.00  0.00     0.602 A  
HETATM   14  C   UNL     1      -7.752   8.657  65.479  1.00  0.00    -0.092 A  
HETATM   15  C   UNL     1      -8.360  12.675  64.372  1.00  0.00     3.796 A  
HETATM   16  C   UNL     1      -7.456   6.405  67.087  1.00  0.00    -0.084 A  
HETATM   17  C   UNL     1      -7.904  11.806  63.366  1.00  0.00     1.986 A  
HETATM   18  C   UNL     1      -7.257   7.495  64.913  1.00  0.00    -0.070 A  
HETATM   19  C   UNL     1      -8.094   8.691  66.849  1.00  0.00    -0.098 A  
HETATM   20  C   UNL     1      -7.699  10.447  63.630  1.00  0.00    -0.050 A  
HETATM   21  C   UNL     1      -7.962   7.572  67.660  1.00  0.00    -0.117 A  
HETATM   22  C   UNL     1      -7.945   9.975  64.908  1.00  0.00    -0.140 A  
BRANCH  10  23
HETATM   23  C   UNL     1      -7.501  10.695  68.288  1.00  0.00    -0.091 C  
BRANCH  23  24
HETATM   24  C   UNL     1      -6.560   9.669  68.945  1.00  0.00    -0.046 C  
BRANCH  24  25
HETATM   25  C   UNL     1      -5.843  10.290  70.144  1.00  0.00    -0.064 C  
BRANCH  25  26
HETATM   26  C   UNL     1      -6.644  11.421  70.802  1.00  0.00     1.018 C  
BRANCH  26  27
HETATM   27  N   UNL     1      -7.980  11.646  70.228  1.00  0.00     1.934 NA 
HETATM   28  C   UNL     1      -8.161  14.464  69.321  1.00  0.00     0.124 C  
HETATM   29  C   UNL     1      -7.358  13.407  68.555  1.00  0.00    -0.111 C  
HETATM   30  C   UNL     1      -8.331  14.071  70.793  1.00  0.00     3.944 C  
HETATM   31  C   UNL     1      -8.799  12.623  70.955  1.00  0.00    10.122 C  
HETATM   32  C   UNL     1      -7.900  12.002  68.804  1.00  0.00    -0.033 C  
BRANCH  28  33
HETATM   33  N   UNL     1      -9.451  14.720  68.684  1.00  0.00    -0.209 N  
HETATM   34  O   UNL     1      -8.562  15.347  66.654  1.00  0.00    -0.255 OA 
HETATM   35  C   UNL     1      -9.532  15.178  67.381  1.00  0.00    -0.204 C  
HETATM   36  H   UNL     1     -10.309  14.558  69.212  1.00  0.00     0.000 HD 
BRANCH  35  37
HETATM   37  C   UNL     1     -10.896  15.525  66.914  1.00  0.00    -0.301 A  
HETATM   38  C   UNL     1     -11.650  14.716  66.033  1.00  0.00    -0.328 A  
HETATM   39  C   UNL     1     -12.853  15.283  65.553  1.00  0.00     0.952 A  
HETATM   40  C   UNL     1     -11.348  16.807  67.302  1.00  0.00     0.361 A  
HETATM   41  C   UNL     1     -12.536  17.325  66.805  1.00  0.00     4.888 A  
HETATM   42  C   UNL     1     -13.283  16.568  65.917  1.00  0.00     6.547 A  
BRANCH  38  43
HETATM   43  C   UNL     1     -11.272  13.339  65.580  1.00  0.00    -0.304 A  
HETATM   44  C   UNL     1     -12.160  12.502  64.886  1.00  0.00    -0.499 A  
HETATM   45  C   UNL     1     -10.512  10.709  64.740  1.00  0.00    -0.280 A  
HETATM   46  C   UNL     1     -11.797  11.206  64.486  1.00  0.00     0.611 A  
HETATM   47  C   UNL     1     -10.116   9.305  64.356  1.00  0.00     1.791 C  
HETATM   48  C   UNL     1      -9.597  11.547  65.384  1.00  0.00    -0.249 A  
HETATM   49  C   UNL     1      -9.976  12.830  65.803  1.00  0.00    -0.259 A  
HETATM   50  F   UNL     1     -11.122   8.586  63.784  1.00  0.00     8.072 F  
HETATM   51  F   UNL     1      -9.696   8.570  65.425  1.00  0.00    -0.130 F  
HETATM   52  F   UNL     1      -9.086   9.278  63.463  1.00  0.00    -0.241 F  
ENDBRANCH  38  43
ENDBRANCH  35  37
ENDBRANCH  28  33
ENDBRANCH  26  27
ENDBRANCH  25  26
ENDBRANCH  24  25
ENDBRANCH  23  24
ENDBRANCH  10  23
ENDBRANCH   7  10
ENDBRANCH   3   6
TORSDOF 10
ENDMDL
MODEL      159
REMARK 921   NORMALIZED FREE ENERGY PREDICTED BY IDOCK:   68.88 KCAL/MOL
REMARK 922        TOTAL FREE ENERGY PREDICTED BY IDOCK:  106.05 KCAL/MOL
REMARK 923 INTER-LIGAND FREE ENERGY PREDICTED BY IDOCK:   67.36 KCAL/MOL
REMARK 924 INTRA-LIGAND FREE ENERGY PREDICTED BY IDOCK:   38.69 KCAL/MOL
REMARK 927      BINDING AFFINITY PREDICTED BY RF-SCORE:    0.00 PKD
ROOT
HETATM    1  F   UNL     1      -9.938   6.907  70.325  1.00  0.00    -0.176 F  
HETATM    2  C   UNL     1     -10.641   6.586  69.217  1.00  0.00    -0.247 C  
HETATM    3  C   UNL     1     -10.863   7.791  68.289  1.00  0.00     0.062 C  
HETATM    4  F   UNL     1     -11.807   6.029  69.609  1.00  0.00    -0.430 F  
HETATM    5  F   UNL     1      -9.937   5.626  68.567  1.00  0.00    -0.145 F  
ENDROOT
BRANCH   3   6
HETATM    6  N   UNL     1     -10.342   9.076  68.756  1.00  0.00    -0.212 N  
HETATM    7  C   UNL     1      -8.994   9.371  68.668  1.00  0.00    -0.132 C  
HETATM    8  H   UNL     1     -10.982   9.764  69.152  1.00  0.00     0.000 HD 
HETATM    9  O   UNL     1      -8.195   8.530  68.254  1.00  0.00    -0.120 OA 
BRANCH   7  10
HETATM   10  C   UNL     1      -8.570  10.793  69.113  1.00  0.00    -0.097 C  
HETATM   11  C   UNL     1      -7.761  10.770  70.419  1.00  0.00     1.155 A  
HETATM   12  C   UNL     1     -11.657  13.348  70.616  1.00  0.00     0.191 A  
HETATM   13  C   UNL     1      -6.524  10.187  70.656  1.00  0.00    -0.086 A  
HETATM   14  C   UNL     1      -9.647  12.073  70.857  1.00  0.00     8.075 A  
HETATM   15  C   UNL     1      -5.930  10.390  71.902  1.00  0.00     0.621 A  
HETATM   16  C   UNL     1     -11.795  12.899  69.293  1.00  0.00    -0.363 A  
HETATM   17  C   UNL     1      -6.574  11.157  72.887  1.00  0.00     5.102 A  
HETATM   18  C   UNL     1     -10.583  12.931  71.410  1.00  0.00     6.650 A  
HETATM   19  C   UNL     1      -9.786  11.633  69.522  1.00  0.00     0.666 A  
HETATM   20  C   UNL     1      -7.826  11.734  72.645  1.00  0.00    16.827 A  
HETATM   21  C   UNL     1     -10.859  12.029  68.734  1.00  0.00    -0.267 A  
HETATM   22  C   UNL     1      -8.415  11.542  71.407  1.00  0.00    10.374 A  
BRANCH  10  23
HETATM   23  C   UNL     1      -7.775  11.497  67.982  1.00  0.00    -0.119 C  
BRANCH  23  24
HETATM   24  C   UNL     1      -7.919  10.868  66.585  1.00  0.00    -0.148 C  
BRANCH  24  25
HETATM   25  C   UNL     1      -8.393   9.419  66.696  1.00  0.00    -0.119 C  
BRANCH  25  26
HETATM   26  C   UNL     1      -9.885   9.298  67.029  1.00  0.00    -0.198 C  
BRANCH  26  27
HETATM   27  N   UNL     1     -10.707  10.440  66.599  1.00  0.00    -0.174 NA 
HETATM   28  C   UNL     1      -9.149  12.057  64.662  1.00  0.00     0.544 C  
HETATM   29  C   UNL     1      -9.769  10.707  64.289  1.00  0.00    -0.372 C  
HETATM   30  C   UNL     1      -8.929  12.166  66.176  1.00  0.00    -0.043 C  
HETATM   31  C   UNL     1     -10.169  11.753  66.971  1.00  0.00    -0.214 C  
HETATM   32  C   UNL     1     -10.985  10.389  65.157  1.00  0.00     0.604 C  
BRANCH  28  33
HETATM   33  N   UNL     1      -9.948  13.170  64.157  1.00  0.00    -0.593 N  
HETATM   34  O   UNL     1     -11.393  13.222  65.950  1.00  0.00    -0.302 OA 
HETATM   35  C   UNL     1     -11.045  13.645  64.856  1.00  0.00    -0.351 C  
HETATM   36  H   UNL     1      -9.693  13.607  63.271  1.00  0.00     0.000 HD 
BRANCH  35  37
HETATM   37  C   UNL     1     -11.841  14.683  64.158  1.00  0.00    -0.263 A  
HETATM   38  C   UNL     1     -11.845  16.047  64.531  1.00  0.00    -0.027 A  
HETATM   39  C   UNL     1     -12.793  16.863  63.874  1.00  0.00     5.913 A  
HETATM   40  C   UNL     1     -12.719  14.192  63.165  1.00  0.00     1.290 A  
HETATM   41  C   UNL     1     -13.636  15.029  62.545  1.00  0.00     6.735 A  
HETATM   42  C   UNL     1     -13.684  16.365  62.910  1.00  0.00     8.872 A  
BRANCH  38  43
HETATM   43  C   UNL     1     -10.943  16.671  65.551  1.00  0.00    -0.063 A  
HETATM   44  C   UNL     1      -9.714  16.102  65.922  1.00  0.00    -0.374 A  
HETATM   45  C   UNL     1      -9.252  17.892  67.513  1.00  0.00    -0.249 A  
HETATM   46  C   UNL     1      -8.889  16.689  66.895  1.00  0.00    -0.235 A  
HETATM   47  C   UNL     1      -8.400  18.518  68.591  1.00  0.00    -0.304 C  
HETATM   48  C   UNL     1     -10.447  18.501  67.119  1.00  0.00    -0.446 A  
HETATM   49  C   UNL     1     -11.277  17.896  66.165  1.00  0.00     0.847 A  
HETATM   50  F   UNL     1      -7.294  17.789  68.909  1.00  0.00    -0.249 F  
HETATM   51  F   UNL     1      -9.081  18.690  69.760  1.00  0.00     0.294 F  
HETATM   52  F   UNL     1      -7.944  19.755  68.244  1.00  0.00    -0.340 F  
ENDBRANCH  38  43
ENDBRANCH  35  37
ENDBRANCH  28  33
ENDBRANCH  26  27
ENDBRANCH  25  26
ENDBRANCH  24  25
ENDBRANCH  23  24
ENDBRANCH  10  23
ENDBRANCH   7  10
ENDBRANCH   3   6
TORSDOF 10
ENDMDL
MODEL      160
REMARK 921   NORMALIZED FREE ENERGY PREDICTED BY IDOCK:   77.99 KCAL/MOL
REMARK 922        TOTAL FREE ENERGY PREDICTED BY IDOCK:  120.48 KCAL/MOL
REMARK 923 INTER-LIGAND FREE ENERGY PREDICTED BY IDOCK:   51.67 KCAL/MOL
REMARK 924 INTRA-LIGAND FREE ENERGY PREDICTED BY IDOCK:   68.81 KCAL/MOL
REMARK 927      BINDING AFFINITY PREDICTED BY RF-SCORE:    0.00 PKD
ROOT
HETATM    1  F   UNL     1     -13.285  11.043  64.861  1.00  0.00     2.362 F  
HETATM    2  C   UNL     1     -12.623  10.891  63.693  1.00  0.00     2.436 C  
HETATM    3  C   UNL     1     -11.662  12.055  63.403  1.00  0.00    -0.426 C  
HETATM    4  F   UNL     1     -13.538  10.735  62.712  1.00  0.00     1.799 F  
HETATM    5  F   UNL     1     -11.929   9.729  63.781  1.00  0.00     4.938 F  
ENDROOT
BRANCH   3   6
HETATM    6  N   UNL     1     -11.648  13.145  64.380  1.00  0.00    -0.358 N  
HETATM    7  C   UNL     1     -11.697  12.884  65.736  1.00  0.00    -0.390 C  
HETATM    8  H   UNL     1     -11.601  14.110  64.055  1.00  0.00     0.000 HD 
HETATM    9  O   UNL     1     -11.819  11.730  66.149  1.00  0.00    -0.477 OA 
BRANCH   7  10
HETATM   10  C   UNL     1     -11.588  14.111  66.677  1.00  0.00    -0.399 C  
HETATM   11  C   UNL     1     -10.132  14.560  66.871  1.00  0.00    -0.257 A  
HETATM   12  C   UNL     1     -12.334  13.425  70.835  1.00  0.00    -0.436 A  
HETATM   13  C   UNL     1      -9.248  15.050  65.918  1.00  0.00    -0.158 A  
HETATM   14  C   UNL     1     -10.920  14.015  68.998  1.00  0.00    -0.287 A  
HETATM   15  C   UNL     1      -8.001  15.501  66.351  1.00  0.00     0.159 A  
HETATM   16  C   UNL     1     -13.388  13.150  69.949  1.00  0.00     1.636 A  
HETATM   17  C   UNL     1      -7.651  15.450  67.711  1.00  0.00    -0.167 A  
HETATM   18  C   UNL     1     -11.088  13.853  70.363  1.00  0.00     0.375 A  
HETATM   19  C   UNL     1     -11.988  13.746  68.113  1.00  0.00    -0.394 A  
HETATM   20  C   UNL     1      -8.544  14.946  68.664  1.00  0.00    -0.168 A  
HETATM   21  C   UNL     1     -13.220  13.304  68.574  1.00  0.00     3.347 A  
HETATM   22  C   UNL     1      -9.786  14.506  68.241  1.00  0.00    -0.229 A  
BRANCH  10  23
HETATM   23  C   UNL     1     -12.462  15.277  66.147  1.00  0.00     0.896 C  
BRANCH  23  24
HETATM   24  C   UNL     1     -13.357  14.936  64.942  1.00  0.00     1.242 C  
BRANCH  24  25
HETATM   25  C   UNL     1     -14.009  13.566  65.131  1.00  0.00     2.987 C  
BRANCH  25  26
HETATM   26  C   UNL     1     -13.425  12.780  66.312  1.00  0.00     3.876 C  
BRANCH  26  27
HETATM   27  N   UNL     1     -12.464  11.730  65.939  1.00  0.00     0.523 NA 
HETATM   28  C   UNL     1     -12.344   9.732  68.127  1.00  0.00     3.737 C  
HETATM   29  C   UNL     1     -13.530   9.819  67.161  1.00  0.00    17.076 C  
HETATM   30  C   UNL     1     -11.593  11.067  68.202  1.00  0.00    -0.345 C  
HETATM   31  C   UNL     1     -11.291  11.639  66.815  1.00  0.00    -0.286 C  
HETATM   32  C   UNL     1     -13.119  10.420  65.820  1.00  0.00    11.559 C  
BRANCH  28  33
HETATM   33  N   UNL     1     -11.447   8.634  67.775  1.00  0.00     0.450 N  
HETATM   34  O   UNL     1      -9.511   9.855  68.027  1.00  0.00    -0.134 OA 
HETATM   35  C   UNL     1     -10.076   8.810  67.730  1.00  0.00    -0.207 C  
HETATM   36  H   UNL     1     -11.841   7.718  67.558  1.00  0.00     0.000 HD 
BRANCH  35  37
HETATM   37  C   UNL     1      -9.303   7.650  67.225  1.00  0.00    -0.174 A  
HETATM   38  C   UNL     1      -8.990   6.517  68.011  1.00  0.00    -0.116 A  
HETATM   39  C   UNL     1      -8.098   5.589  67.427  1.00  0.00    -0.101 A  
HETATM   40  C   UNL     1      -8.769   7.811  65.925  1.00  0.00    -0.175 A  
HETATM   41  C   UNL     1      -7.896   6.875  65.391  1.00  0.00    -0.115 A  
HETATM   42  C   UNL     1      -7.546   5.768  66.149  1.00  0.00    -0.090 A  
BRANCH  38  43
HETATM   43  C   UNL     1      -9.518   6.241  69.385  1.00  0.00    -0.148 A  
HETATM   44  C   UNL     1      -8.737   5.645  70.389  1.00  0.00    -0.135 A  
HETATM   45  C   UNL     1     -10.570   5.722  71.997  1.00  0.00    -0.276 A  
HETATM   46  C   UNL     1      -9.254   5.374  71.666  1.00  0.00    -0.166 A  
HETATM   47  C   UNL     1     -11.157   5.402  73.350  1.00  0.00    -0.271 C  
HETATM   48  C   UNL     1     -11.346   6.364  71.028  1.00  0.00    -0.386 A  
HETATM   49  C   UNL     1     -10.831   6.607  69.747  1.00  0.00    -0.337 A  
HETATM   50  F   UNL     1     -10.306   4.730  74.174  1.00  0.00    -0.186 F  
HETATM   51  F   UNL     1     -12.277   4.629  73.264  1.00  0.00    -0.348 F  
HETATM   52  F   UNL     1     -11.532   6.519  74.035  1.00  0.00     0.416 F  
ENDBRANCH  38  43
ENDBRANCH  35  37
ENDBRANCH  28  33
ENDBRANCH  26  27
ENDBRANCH  25  26
ENDBRANCH  24  25
ENDBRANCH  23  24
ENDBRANCH  10  23
ENDBRANCH   7  10
ENDBRANCH   3   6
TORSDOF 10
ENDMDL
MODEL      161
REMARK 921   NORMALIZED FREE ENERGY PREDICTED BY IDOCK:   81.01 KCAL/MOL
REMARK 922        TOTAL FREE ENERGY PREDICTED BY IDOCK:  125.26 KCAL/MOL
REMARK 923 INTER-LIGAND FREE ENERGY PREDICTED BY IDOCK:  105.85 KCAL/MOL
REMARK 924 INTRA-LIGAND FREE ENERGY PREDICTED BY IDOCK:   19.41 KCAL/MOL
REMARK 927      BINDING AFFINITY PREDICTED BY RF-SCORE:    0.00 PKD
ROOT
HETATM    1  F   UNL     1     -12.799  11.043  71.574  1.00  0.00    -0.451 F  
HETATM    2  C   UNL     1     -11.910  12.049  71.424  1.00  0.00     1.144 C  
HETATM    3  C   UNL     1     -10.944  11.813  70.252  1.00  0.00     0.838 C  
HETATM    4  F   UNL     1     -11.255  12.205  72.595  1.00  0.00     5.220 F  
HETATM    5  F   UNL     1     -12.626  13.181  71.213  1.00  0.00    -0.416 F  
ENDROOT
BRANCH   3   6
HETATM    6  N   UNL     1     -11.094  10.549  69.530  1.00  0.00    -0.249 N  
HETATM    7  C   UNL     1     -10.586   9.372  70.044  1.00  0.00    -0.235 C  
HETATM    8  H   UNL     1     -11.581  10.538  68.633  1.00  0.00     0.000 HD 
HETATM    9  O   UNL     1      -9.939   9.373  71.092  1.00  0.00    -0.289 OA 
BRANCH   7  10
HETATM   10  C   UNL     1     -10.880   8.083  69.235  1.00  0.00    -0.072 C  
HETATM   11  C   UNL     1     -12.070   7.301  69.811  1.00  0.00     0.491 A  
HETATM   12  C   UNL     1      -8.080   4.871  69.637  1.00  0.00    -0.073 A  
HETATM   13  C   UNL     1     -13.397   7.700  69.904  1.00  0.00     2.919 A  
HETATM   14  C   UNL     1     -10.245   5.852  69.914  1.00  0.00    -0.280 A  
HETATM   15  C   UNL     1     -14.330   6.771  70.368  1.00  0.00     2.920 A  
HETATM   16  C   UNL     1      -7.587   6.080  69.121  1.00  0.00    -0.090 A  
HETATM   17  C   UNL     1     -13.930   5.475  70.736  1.00  0.00     6.761 A  
HETATM   18  C   UNL     1      -9.414   4.752  70.044  1.00  0.00    -0.240 A  
HETATM   19  C   UNL     1      -9.744   7.062  69.385  1.00  0.00    -0.159 A  
HETATM   20  C   UNL     1     -12.590   5.084  70.647  1.00  0.00     7.032 A  
HETATM   21  C   UNL     1      -8.418   7.192  68.996  1.00  0.00    -0.129 A  
HETATM   22  C   UNL     1     -11.662   5.999  70.179  1.00  0.00     0.099 A  
BRANCH  10  23
HETATM   23  C   UNL     1     -11.113   8.426  67.740  1.00  0.00     0.321 C  
BRANCH  23  24
HETATM   24  C   UNL     1     -12.536   8.894  67.385  1.00  0.00     8.655 C  
BRANCH  24  25
HETATM   25  C   UNL     1     -12.567  10.410  67.190  1.00  0.00     6.064 C  
BRANCH  25  26
HETATM   26  C   UNL     1     -12.539  11.187  68.511  1.00  0.00     1.174 C  
BRANCH  26  27
HETATM   27  N   UNL     1     -12.005  12.555  68.412  1.00  0.00    -0.290 NA 
HETATM   28  C   UNL     1      -9.713  12.545  66.530  1.00  0.00    -0.246 C  
HETATM   29  C   UNL     1     -11.165  12.440  66.052  1.00  0.00    -0.374 C  
HETATM   30  C   UNL     1      -9.573  12.079  67.984  1.00  0.00    -0.199 C  
HETATM   31  C   UNL     1     -10.628  12.708  68.896  1.00  0.00    -0.124 C  
HETATM   32  C   UNL     1     -12.130  13.082  67.046  1.00  0.00    -0.267 C  
BRANCH  28  33
HETATM   33  N   UNL     1      -9.187  13.895  66.348  1.00  0.00    -0.464 N  
HETATM   34  O   UNL     1     -11.032  14.959  67.226  1.00  0.00    -0.305 OA 
HETATM   35  C   UNL     1      -9.929  15.010  66.698  1.00  0.00    -0.256 C  
HETATM   36  H   UNL     1      -8.254  14.019  65.956  1.00  0.00     0.000 HD 
BRANCH  35  37
HETATM   37  C   UNL     1      -9.327  16.314  66.331  1.00  0.00    -0.322 A  
HETATM   38  C   UNL     1      -8.931  17.287  67.278  1.00  0.00    -0.233 A  
HETATM   39  C   UNL     1      -8.542  18.539  66.750  1.00  0.00    -0.290 A  
HETATM   40  C   UNL     1      -9.301  16.587  64.944  1.00  0.00     2.287 A  
HETATM   41  C   UNL     1      -8.912  17.832  64.469  1.00  0.00     6.740 A  
HETATM   42  C   UNL     1      -8.547  18.816  65.374  1.00  0.00     1.326 A  
BRANCH  38  43
HETATM   43  C   UNL     1      -8.900  17.091  68.762  1.00  0.00    -0.244 A  
HETATM   44  C   UNL     1      -9.133  18.139  69.668  1.00  0.00     0.851 A  
HETATM   45  C   UNL     1      -8.823  16.676  71.595  1.00  0.00     8.988 A  
HETATM   46  C   UNL     1      -9.080  17.943  71.058  1.00  0.00     6.488 A  
HETATM   47  C   UNL     1      -8.721  16.454  73.084  1.00  0.00    17.111 C  
HETATM   48  C   UNL     1      -8.641  15.610  70.710  1.00  0.00     2.411 A  
HETATM   49  C   UNL     1      -8.669  15.818  69.324  1.00  0.00    -0.261 A  
HETATM   50  F   UNL     1      -8.868  17.589  73.821  1.00  0.00    10.554 F  
HETATM   51  F   UNL     1      -7.519  15.926  73.452  1.00  0.00     7.258 F  
HETATM   52  F   UNL     1      -9.663  15.584  73.548  1.00  0.00     4.755 F  
ENDBRANCH  38  43
ENDBRANCH  35  37
ENDBRANCH  28  33
ENDBRANCH  26  27
ENDBRANCH  25  26
ENDBRANCH  24  25
ENDBRANCH  23  24
ENDBRANCH  10  23
ENDBRANCH   7  10
ENDBRANCH   3   6
TORSDOF 10
ENDMDL
MODEL      162
REMARK 921   NORMALIZED FREE ENERGY PREDICTED BY IDOCK:   81.29 KCAL/MOL
REMARK 922        TOTAL FREE ENERGY PREDICTED BY IDOCK:  125.70 KCAL/MOL
REMARK 923 INTER-LIGAND FREE ENERGY PREDICTED BY IDOCK:   96.97 KCAL/MOL
REMARK 924 INTRA-LIGAND FREE ENERGY PREDICTED BY IDOCK:   28.73 KCAL/MOL
REMARK 927      BINDING AFFINITY PREDICTED BY RF-SCORE:    0.00 PKD
ROOT
HETATM    1  F   UNL     1     -13.734  18.592  66.894  1.00  0.00     7.299 F  
HETATM    2  C   UNL     1     -13.254  19.566  67.698  1.00  0.00     6.898 C  
HETATM    3  C   UNL     1     -11.943  19.165  68.393  1.00  0.00     3.786 C  
HETATM    4  F   UNL     1     -14.219  19.888  68.586  1.00  0.00     5.312 F  
HETATM    5  F   UNL     1     -13.050  20.657  66.918  1.00  0.00     2.622 F  
ENDROOT
BRANCH   3   6
HETATM    6  N   UNL     1     -11.455  17.812  68.129  1.00  0.00     0.378 N  
HETATM    7  C   UNL     1     -11.924  17.084  67.052  1.00  0.00     2.169 C  
HETATM    8  H   UNL     1     -10.758  17.399  68.749  1.00  0.00     0.000 HD 
HETATM    9  O   UNL     1     -12.812  17.537  66.328  1.00  0.00     6.739 OA 
BRANCH   7  10
HETATM   10  C   UNL     1     -11.272  15.698  66.821  1.00  0.00    -0.083 C  
HETATM   11  C   UNL     1      -9.877  15.815  66.188  1.00  0.00    -0.341 A  
HETATM   12  C   UNL     1     -12.914  13.290  63.687  1.00  0.00     0.509 A  
HETATM   13  C   UNL     1      -8.738  16.406  66.719  1.00  0.00    -0.258 A  
HETATM   14  C   UNL     1     -11.155  14.565  64.689  1.00  0.00    -0.356 A  
HETATM   15  C   UNL     1      -7.547  16.295  66.002  1.00  0.00     0.558 A  
HETATM   16  C   UNL     1     -13.778  13.636  64.737  1.00  0.00     2.066 A  
HETATM   17  C   UNL     1      -7.509  15.612  64.774  1.00  0.00    10.602 A  
HETATM   18  C   UNL     1     -11.596  13.760  63.653  1.00  0.00     0.011 A  
HETATM   19  C   UNL     1     -12.027  14.900  65.749  1.00  0.00    -0.052 A  
HETATM   20  C   UNL     1      -8.663  15.027  64.241  1.00  0.00     8.405 A  
HETATM   21  C   UNL     1     -13.340  14.453  65.780  1.00  0.00     0.735 A  
HETATM   22  C   UNL     1      -9.846  15.127  64.954  1.00  0.00     0.116 A  
BRANCH  10  23
HETATM   23  C   UNL     1     -11.211  14.902  68.151  1.00  0.00    -0.310 C  
BRANCH  23  24
HETATM   24  C   UNL     1     -10.527  15.628  69.323  1.00  0.00    -0.247 C  
BRANCH  24  25
HETATM   25  C   UNL     1     -10.035  17.008  68.884  1.00  0.00    -0.285 C  
BRANCH  25  26
HETATM   26  C   UNL     1      -8.531  17.208  69.110  1.00  0.00     0.003 C  
BRANCH  26  27
HETATM   27  N   UNL     1      -7.743  15.966  69.154  1.00  0.00    -0.209 NA 
HETATM   28  C   UNL     1      -8.892  14.185  71.229  1.00  0.00     6.085 C  
HETATM   29  C   UNL     1      -9.571  14.408  69.873  1.00  0.00     0.774 C  
HETATM   30  C   UNL     1      -7.966  15.355  71.583  1.00  0.00     4.723 C  
HETATM   31  C   UNL     1      -7.043  15.733  70.423  1.00  0.00     0.738 C  
HETATM   32  C   UNL     1      -8.560  14.798  68.797  1.00  0.00    -0.170 C  
BRANCH  28  33
HETATM   33  N   UNL     1      -8.181  12.910  71.267  1.00  0.00     9.209 N  
HETATM   34  O   UNL     1      -7.112  13.327  73.264  1.00  0.00     4.194 OA 
HETATM   35  C   UNL     1      -7.310  12.603  72.298  1.00  0.00    10.361 C  
HETATM   36  H   UNL     1      -8.329  12.233  70.519  1.00  0.00     0.000 HD 
BRANCH  35  37
HETATM   37  C   UNL     1      -6.556  11.337  72.135  1.00  0.00     4.207 A  
HETATM   38  C   UNL     1      -6.632  10.525  70.980  1.00  0.00     0.494 A  
HETATM   39  C   UNL     1      -5.988   9.269  71.066  1.00  0.00    -0.064 A  
HETATM   40  C   UNL     1      -5.850  10.913  73.285  1.00  0.00     1.740 A  
HETATM   41  C   UNL     1      -5.232   9.671  73.326  1.00  0.00    -0.025 A  
HETATM   42  C   UNL     1      -5.314   8.840  72.220  1.00  0.00    -0.053 A  
BRANCH  38  43
HETATM   43  C   UNL     1      -7.332  10.888  69.708  1.00  0.00    -0.016 A  
HETATM   44  C   UNL     1      -7.172  12.138  69.087  1.00  0.00     0.022 A  
HETATM   45  C   UNL     1      -8.698  11.547  67.278  1.00  0.00    -0.151 A  
HETATM   46  C   UNL     1      -7.852  12.470  67.904  1.00  0.00    -0.144 A  
HETATM   47  C   UNL     1      -9.470  11.899  66.030  1.00  0.00    -0.229 C  
HETATM   48  C   UNL     1      -8.830  10.279  67.852  1.00  0.00    -0.122 A  
HETATM   49  C   UNL     1      -8.167   9.963  69.047  1.00  0.00    -0.124 A  
HETATM   50  F   UNL     1      -9.285  13.182  65.613  1.00  0.00    -0.056 F  
HETATM   51  F   UNL     1     -10.816  11.750  66.190  1.00  0.00    -0.285 F  
HETATM   52  F   UNL     1      -9.136  11.111  64.969  1.00  0.00    -0.201 F  
ENDBRANCH  38  43
ENDBRANCH  35  37
ENDBRANCH  28  33
ENDBRANCH  26  27
ENDBRANCH  25  26
ENDBRANCH  24  25
ENDBRANCH  23  24
ENDBRANCH  10  23
ENDBRANCH   7  10
ENDBRANCH   3   6
TORSDOF 10
ENDMDL
MODEL      163
REMARK 921   NORMALIZED FREE ENERGY PREDICTED BY IDOCK:   90.47 KCAL/MOL
REMARK 922        TOTAL FREE ENERGY PREDICTED BY IDOCK:  140.26 KCAL/MOL
REMARK 923 INTER-LIGAND FREE ENERGY PREDICTED BY IDOCK:    9.90 KCAL/MOL
REMARK 924 INTRA-LIGAND FREE ENERGY PREDICTED BY IDOCK:  130.36 KCAL/MOL
REMARK 927      BINDING AFFINITY PREDICTED BY RF-SCORE:    0.00 PKD
ROOT
HETATM    1  F   UNL     1     -10.537   3.935  71.403  1.00  0.00    -0.077 F  
HETATM    2  C   UNL     1     -10.550   2.874  70.567  1.00  0.00     2.164 C  
HETATM    3  C   UNL     1      -9.477   2.973  69.470  1.00  0.00    -0.103 C  
HETATM    4  F   UNL     1     -11.792   2.764  70.050  1.00  0.00     7.740 F  
HETATM    5  F   UNL     1     -10.334   1.770  71.326  1.00  0.00    -0.167 F  
ENDROOT
BRANCH   3   6
HETATM    6  N   UNL     1      -8.664   4.189  69.464  1.00  0.00    -0.079 N  
HETATM    7  C   UNL     1      -7.652   4.362  68.539  1.00  0.00    -0.064 C  
HETATM    8  H   UNL     1      -8.846   4.919  70.153  1.00  0.00     0.000 HD 
HETATM    9  O   UNL     1      -7.372   3.467  67.741  1.00  0.00    -0.058 OA 
BRANCH   7  10
HETATM   10  C   UNL     1      -6.914   5.725  68.573  1.00  0.00    -0.068 C  
HETATM   11  C   UNL     1      -6.478   6.108  69.995  1.00  0.00    -0.039 A  
HETATM   12  C   UNL     1      -9.295   9.225  67.944  1.00  0.00    -0.143 A  
HETATM   13  C   UNL     1      -5.577   5.454  70.824  1.00  0.00    -0.009 A  
HETATM   14  C   UNL     1      -7.903   7.813  69.282  1.00  0.00    -0.116 A  
HETATM   15  C   UNL     1      -5.253   6.052  72.043  1.00  0.00    -0.022 A  
HETATM   16  C   UNL     1      -9.260   8.288  66.900  1.00  0.00    -0.197 A  
HETATM   17  C   UNL     1      -5.831   7.278  72.416  1.00  0.00    -0.037 A  
HETATM   18  C   UNL     1      -8.621   8.989  69.148  1.00  0.00    -0.133 A  
HETATM   19  C   UNL     1      -7.863   6.879  68.223  1.00  0.00    -0.118 A  
HETATM   20  C   UNL     1      -6.745   7.926  71.579  1.00  0.00    -0.047 A  
HETATM   21  C   UNL     1      -8.544   7.099  67.034  1.00  0.00    -0.122 A  
HETATM   22  C   UNL     1      -7.063   7.341  70.365  1.00  0.00    -0.065 A  
BRANCH  10  23
HETATM   23  C   UNL     1      -5.700   5.705  67.607  1.00  0.00    -0.013 C  
BRANCH  23  24
HETATM   24  C   UNL     1      -6.042   5.856  66.114  1.00  0.00    -0.032 C  
BRANCH  24  25
HETATM   25  C   UNL     1      -7.541   5.656  65.885  1.00  0.00    -0.086 C  
BRANCH  25  26
HETATM   26  C   UNL     1      -8.192   4.744  66.933  1.00  0.00    -0.107 C  
BRANCH  26  27
HETATM   27  N   UNL     1      -9.124   5.423  67.848  1.00  0.00    -0.108 NA 
HETATM   28  C   UNL     1      -9.981   7.978  66.610  1.00  0.00    -0.256 C  
HETATM   29  C   UNL     1     -10.504   6.620  66.131  1.00  0.00     0.463 C  
HETATM   30  C   UNL     1      -8.629   7.831  67.320  1.00  0.00    -0.128 C  
HETATM   31  C   UNL     1      -8.643   6.710  68.362  1.00  0.00    -0.124 C  
HETATM   32  C   UNL     1     -10.455   5.576  67.244  1.00  0.00    -0.236 C  
BRANCH  28  33
HETATM   33  N   UNL     1     -10.957   8.660  67.455  1.00  0.00    -0.428 N  
HETATM   34  O   UNL     1      -9.562  10.402  68.023  1.00  0.00    -0.141 OA 
HETATM   35  C   UNL     1     -10.638   9.828  68.124  1.00  0.00    -0.231 C  
HETATM   36  H   UNL     1     -11.893   8.267  67.553  1.00  0.00     0.000 HD 
BRANCH  35  37
HETATM   37  C   UNL     1     -11.679  10.333  69.051  1.00  0.00    -0.083 A  
HETATM   38  C   UNL     1     -12.314  11.588  68.906  1.00  0.00     0.070 A  
HETATM   39  C   UNL     1     -13.149  11.984  69.975  1.00  0.00     0.908 A  
HETATM   40  C   UNL     1     -11.903   9.525  70.190  1.00  0.00    -0.036 A  
HETATM   41  C   UNL     1     -12.732   9.953  71.217  1.00  0.00    -0.482 A  
HETATM   42  C   UNL     1     -13.345  11.192  71.118  1.00  0.00     0.051 A  
BRANCH  38  43
HETATM   43  C   UNL     1     -12.163  12.507  67.733  1.00  0.00     0.119 A  
HETATM   44  C   UNL     1     -13.148  12.634  66.741  1.00  0.00     3.044 A  
HETATM   45  C   UNL     1     -11.829  14.269  65.501  1.00  0.00    -0.363 A  
HETATM   46  C   UNL     1     -12.982  13.486  65.637  1.00  0.00    -0.231 A  
HETATM   47  C   UNL     1     -11.613  15.158  64.301  1.00  0.00    -0.184 C  
HETATM   48  C   UNL     1     -10.860  14.195  66.505  1.00  0.00    -0.298 A  
HETATM   49  C   UNL     1     -11.022  13.324  67.591  1.00  0.00    -0.281 A  
HETATM   50  F   UNL     1     -12.614  15.091  63.379  1.00  0.00     0.024 F  
HETATM   51  F   UNL     1     -10.467  14.856  63.627  1.00  0.00     1.213 F  
HETATM   52  F   UNL     1     -11.506  16.475  64.638  1.00  0.00    -0.388 F  
ENDBRANCH  38  43
ENDBRANCH  35  37
ENDBRANCH  28  33
ENDBRANCH  26  27
ENDBRANCH  25  26
ENDBRANCH  24  25
ENDBRANCH  23  24
ENDBRANCH  10  23
ENDBRANCH   7  10
ENDBRANCH   3   6
TORSDOF 10
ENDMDL
