MODEL        1
REMARK 921   NORMALIZED FREE ENERGY PREDICTED BY IDOCK:   -5.75 KCAL/MOL
REMARK 922        TOTAL FREE ENERGY PREDICTED BY IDOCK:   -8.02 KCAL/MOL
REMARK 923 INTER-LIGAND FREE ENERGY PREDICTED BY IDOCK:   -7.43 KCAL/MOL
REMARK 924 INTRA-LIGAND FREE ENERGY PREDICTED BY IDOCK:   -0.59 KCAL/MOL
REMARK 927      BINDING AFFINITY PREDICTED BY RF-SCORE:    0.00 PKD
ROOT
HETATM    1 CL   UNL     1     -10.476  19.999  67.322  1.00  0.00    -0.534 Cl 
HETATM    2  C   UNL     1     -10.296  18.823  65.993  1.00  0.00    -0.422 C  
HETATM    3  C   UNL     1     -10.911  17.483  66.382  1.00  0.00     0.061 C  
ENDROOT
BRANCH   3   4
HETATM    4  N   UNL     1     -10.758  16.466  65.336  1.00  0.00    -0.352 N  
BRANCH   4   5
HETATM    5  N   UNL     1     -11.297  16.670  64.061  1.00  0.00    -1.530 NA 
HETATM    6  H   UNL     1     -10.910  17.339  63.395  1.00  0.00     0.000 HD 
HETATM    7  O   UNL     1     -12.283  15.968  63.811  1.00  0.00    -1.269 OA 
HETATM    8  H   UNL     1     -12.649  16.106  62.945  1.00  0.00     0.000 HD 
ENDBRANCH   4   5
BRANCH   4   9
HETATM    9  C   UNL     1      -9.914  15.383  65.575  1.00  0.00    -0.344 C  
HETATM   10  O   UNL     1      -9.021  15.424  66.422  1.00  0.00    -0.281 OA 
BRANCH   9  11
HETATM   11  N   UNL     1     -10.103  14.269  64.779  1.00  0.00    -0.588 N  
HETATM   12  H   UNL     1     -10.024  14.366  63.767  1.00  0.00     0.000 HD 
BRANCH  11  13
HETATM   13  C   UNL     1     -10.413  12.956  65.343  1.00  0.00    -0.292 C  
HETATM   14  C   UNL     1     -11.866  12.847  65.820  1.00  0.00    -0.469 C  
HETATM   15  C   UNL     1     -12.875  12.777  64.674  1.00  0.00    -0.355 C  
HETATM   16  C   UNL     1     -12.523  11.725  63.626  1.00  0.00    -0.482 C  
HETATM   17  C   UNL     1     -11.068  11.789  63.172  1.00  0.00    -0.251 C  
HETATM   18  C   UNL     1     -10.090  11.841  64.343  1.00  0.00    -0.319 C  
ENDBRANCH  11  13
ENDBRANCH   9  11
ENDBRANCH   4   9
ENDBRANCH   3   4
TORSDOF 5
ENDMDL
MODEL        2
REMARK 921   NORMALIZED FREE ENERGY PREDICTED BY IDOCK:   -5.64 KCAL/MOL
REMARK 922        TOTAL FREE ENERGY PREDICTED BY IDOCK:   -7.88 KCAL/MOL
REMARK 923 INTER-LIGAND FREE ENERGY PREDICTED BY IDOCK:   -7.41 KCAL/MOL
REMARK 924 INTRA-LIGAND FREE ENERGY PREDICTED BY IDOCK:   -0.47 KCAL/MOL
REMARK 927      BINDING AFFINITY PREDICTED BY RF-SCORE:    0.00 PKD
ROOT
HETATM    1 CL   UNL     1      -9.414  19.833  67.480  1.00  0.00    -0.429 Cl 
HETATM    2  C   UNL     1     -10.437  18.764  66.485  1.00  0.00    -0.427 C  
HETATM    3  C   UNL     1      -9.916  17.332  66.534  1.00  0.00    -0.305 C  
ENDROOT
BRANCH   3   4
HETATM    4  N   UNL     1     -10.701  16.415  65.702  1.00  0.00    -0.312 N  
BRANCH   4   5
HETATM    5  N   UNL     1     -10.916  16.692  64.346  1.00  0.00    -1.151 NA 
HETATM    6  H   UNL     1     -10.218  17.143  63.755  1.00  0.00     0.000 HD 
HETATM    7  O   UNL     1     -12.026  16.344  63.929  1.00  0.00    -1.341 OA 
HETATM    8  H   UNL     1     -12.172  16.531  63.010  1.00  0.00     0.000 HD 
ENDBRANCH   4   5
BRANCH   4   9
HETATM    9  C   UNL     1     -11.070  15.180  66.231  1.00  0.00    -0.309 C  
HETATM   10  O   UNL     1     -11.504  15.063  67.378  1.00  0.00    -0.341 OA 
BRANCH   9  11
HETATM   11  N   UNL     1     -10.885  14.081  65.414  1.00  0.00    -0.313 N  
HETATM   12  H   UNL     1     -10.105  14.079  64.758  1.00  0.00     0.000 HD 
BRANCH  11  13
HETATM   13  C   UNL     1     -11.774  12.920  65.461  1.00  0.00    -0.383 C  
HETATM   14  C   UNL     1     -11.939  12.249  64.091  1.00  0.00    -0.518 C  
HETATM   15  C   UNL     1     -10.694  11.486  63.639  1.00  0.00    -0.491 C  
HETATM   16  C   UNL     1     -10.156  10.529  64.698  1.00  0.00    -0.408 C  
HETATM   17  C   UNL     1     -10.028  11.167  66.078  1.00  0.00    -0.280 C  
HETATM   18  C   UNL     1     -11.295  11.905  66.503  1.00  0.00    -0.403 C  
ENDBRANCH  11  13
ENDBRANCH   9  11
ENDBRANCH   4   9
ENDBRANCH   3   4
TORSDOF 5
ENDMDL
MODEL        3
REMARK 921   NORMALIZED FREE ENERGY PREDICTED BY IDOCK:   -5.61 KCAL/MOL
REMARK 922        TOTAL FREE ENERGY PREDICTED BY IDOCK:   -7.84 KCAL/MOL
REMARK 923 INTER-LIGAND FREE ENERGY PREDICTED BY IDOCK:   -7.35 KCAL/MOL
REMARK 924 INTRA-LIGAND FREE ENERGY PREDICTED BY IDOCK:   -0.50 KCAL/MOL
REMARK 927      BINDING AFFINITY PREDICTED BY RF-SCORE:    0.00 PKD
ROOT
HETATM    1 CL   UNL     1     -10.626  11.017  63.381  1.00  0.00    -0.348 Cl 
HETATM    2  C   UNL     1     -11.326  12.633  63.662  1.00  0.00    -0.481 C  
HETATM    3  C   UNL     1     -10.453  13.431  64.625  1.00  0.00    -0.411 C  
ENDROOT
BRANCH   3   4
HETATM    4  N   UNL     1     -11.004  14.758  64.920  1.00  0.00    -0.404 N  
BRANCH   4   5
HETATM    5  N   UNL     1     -11.945  15.344  64.066  1.00  0.00    -0.949 NA 
HETATM    6  H   UNL     1     -12.822  14.888  63.811  1.00  0.00     0.000 HD 
HETATM    7  O   UNL     1     -11.623  16.461  63.648  1.00  0.00    -1.514 OA 
HETATM    8  H   UNL     1     -12.261  16.859  63.068  1.00  0.00     0.000 HD 
ENDBRANCH   4   5
BRANCH   4   9
HETATM    9  C   UNL     1     -10.716  15.342  66.152  1.00  0.00    -0.314 C  
HETATM   10  O   UNL     1     -11.075  14.836  67.216  1.00  0.00    -0.312 OA 
BRANCH   9  11
HETATM   11  N   UNL     1     -10.040  16.547  66.118  1.00  0.00    -0.331 N  
HETATM   12  H   UNL     1      -9.711  16.903  65.221  1.00  0.00     0.000 HD 
BRANCH  11  13
HETATM   13  C   UNL     1      -9.783  17.328  67.327  1.00  0.00    -0.262 C  
HETATM   14  C   UNL     1      -8.334  17.826  67.410  1.00  0.00    -0.227 C  
HETATM   15  C   UNL     1      -8.025  18.949  66.420  1.00  0.00    -0.300 C  
HETATM   16  C   UNL     1      -9.039  20.088  66.465  1.00  0.00    -0.452 C  
HETATM   17  C   UNL     1     -10.487  19.608  66.428  1.00  0.00    -0.618 C  
HETATM   18  C   UNL     1     -10.763  18.500  67.442  1.00  0.00    -0.424 C  
ENDBRANCH  11  13
ENDBRANCH   9  11
ENDBRANCH   4   9
ENDBRANCH   3   4
TORSDOF 5
ENDMDL
MODEL        4
REMARK 921   NORMALIZED FREE ENERGY PREDICTED BY IDOCK:   -5.52 KCAL/MOL
REMARK 922        TOTAL FREE ENERGY PREDICTED BY IDOCK:   -7.72 KCAL/MOL
REMARK 923 INTER-LIGAND FREE ENERGY PREDICTED BY IDOCK:   -7.25 KCAL/MOL
REMARK 924 INTRA-LIGAND FREE ENERGY PREDICTED BY IDOCK:   -0.47 KCAL/MOL
REMARK 927      BINDING AFFINITY PREDICTED BY RF-SCORE:    0.00 PKD
ROOT
HETATM    1 CL   UNL     1     -11.978  13.115  68.743  1.00  0.00    -0.350 Cl 
HETATM    2  C   UNL     1     -12.130  13.759  67.087  1.00  0.00    -0.378 C  
HETATM    3  C   UNL     1     -10.806  14.358  66.625  1.00  0.00    -0.304 C  
ENDROOT
BRANCH   3   4
HETATM    4  N   UNL     1     -10.886  14.936  65.279  1.00  0.00    -0.359 N  
BRANCH   4   5
HETATM    5  N   UNL     1     -11.219  14.137  64.179  1.00  0.00    -0.590 NA 
HETATM    6  H   UNL     1     -10.630  13.371  63.852  1.00  0.00     0.000 HD 
HETATM    7  O   UNL     1     -12.289  14.439  63.639  1.00  0.00    -1.051 OA 
HETATM    8  H   UNL     1     -12.515  13.898  62.893  1.00  0.00     0.000 HD 
ENDBRANCH   4   5
BRANCH   4   9
HETATM    9  C   UNL     1     -10.807  16.320  65.140  1.00  0.00    -0.318 C  
HETATM   10  O   UNL     1     -11.299  16.910  64.177  1.00  0.00    -1.208 OA 
BRANCH   9  11
HETATM   11  N   UNL     1     -10.111  16.998  66.122  1.00  0.00    -0.322 N  
HETATM   12  H   UNL     1      -9.161  16.702  66.347  1.00  0.00     0.000 HD 
BRANCH  11  13
HETATM   13  C   UNL     1     -10.692  18.126  66.849  1.00  0.00    -0.224 C  
HETATM   14  C   UNL     1     -10.220  18.193  68.307  1.00  0.00    -0.402 C  
HETATM   15  C   UNL     1      -8.764  18.637  68.451  1.00  0.00    -0.361 C  
HETATM   16  C   UNL     1      -8.442  19.909  67.673  1.00  0.00    -0.374 C  
HETATM   17  C   UNL     1      -8.944  19.878  66.232  1.00  0.00    -0.419 C  
HETATM   18  C   UNL     1     -10.406  19.448  66.130  1.00  0.00    -0.595 C  
ENDBRANCH  11  13
ENDBRANCH   9  11
ENDBRANCH   4   9
ENDBRANCH   3   4
TORSDOF 5
ENDMDL
MODEL        5
REMARK 921   NORMALIZED FREE ENERGY PREDICTED BY IDOCK:   -5.52 KCAL/MOL
REMARK 922        TOTAL FREE ENERGY PREDICTED BY IDOCK:   -7.72 KCAL/MOL
REMARK 923 INTER-LIGAND FREE ENERGY PREDICTED BY IDOCK:   -7.06 KCAL/MOL
REMARK 924 INTRA-LIGAND FREE ENERGY PREDICTED BY IDOCK:   -0.66 KCAL/MOL
REMARK 927      BINDING AFFINITY PREDICTED BY RF-SCORE:    0.00 PKD
ROOT
HETATM    1 CL   UNL     1      -9.509  19.834  66.873  1.00  0.00    -0.444 Cl 
HETATM    2  C   UNL     1     -10.561  18.702  65.984  1.00  0.00    -0.365 C  
HETATM    3  C   UNL     1      -9.976  17.294  66.017  1.00  0.00    -0.233 C  
ENDROOT
BRANCH   3   4
HETATM    4  N   UNL     1     -10.785  16.327  65.268  1.00  0.00    -0.381 N  
BRANCH   4   5
HETATM    5  N   UNL     1     -11.382  16.688  64.054  1.00  0.00    -1.530 NA 
HETATM    6  H   UNL     1     -11.030  17.444  63.466  1.00  0.00     0.000 HD 
HETATM    7  O   UNL     1     -12.374  16.013  63.758  1.00  0.00    -1.167 OA 
HETATM    8  H   UNL     1     -12.780  16.258  62.935  1.00  0.00     0.000 HD 
ENDBRANCH   4   5
BRANCH   4   9
HETATM    9  C   UNL     1     -10.796  14.998  65.685  1.00  0.00    -0.349 C  
HETATM   10  O   UNL     1     -10.250  14.104  65.037  1.00  0.00    -0.394 OA 
BRANCH   9  11
HETATM   11  N   UNL     1     -11.489  14.725  66.849  1.00  0.00    -0.358 N  
HETATM   12  H   UNL     1     -12.420  15.121  66.973  1.00  0.00     0.000 HD 
BRANCH  11  13
HETATM   13  C   UNL     1     -10.929  13.886  67.908  1.00  0.00    -0.250 C  
HETATM   14  C   UNL     1      -9.610  14.440  68.464  1.00  0.00    -0.217 C  
HETATM   15  C   UNL     1      -9.795  15.691  69.323  1.00  0.00    -0.269 C  
HETATM   16  C   UNL     1     -10.862  15.527  70.402  1.00  0.00    -0.356 C  
HETATM   17  C   UNL     1     -12.166  14.936  69.876  1.00  0.00    -0.354 C  
HETATM   18  C   UNL     1     -11.943  13.679  69.037  1.00  0.00    -0.392 C  
ENDBRANCH  11  13
ENDBRANCH   9  11
ENDBRANCH   4   9
ENDBRANCH   3   4
TORSDOF 5
ENDMDL
MODEL        6
REMARK 921   NORMALIZED FREE ENERGY PREDICTED BY IDOCK:   -5.50 KCAL/MOL
REMARK 922        TOTAL FREE ENERGY PREDICTED BY IDOCK:   -7.70 KCAL/MOL
REMARK 923 INTER-LIGAND FREE ENERGY PREDICTED BY IDOCK:   -7.23 KCAL/MOL
REMARK 924 INTRA-LIGAND FREE ENERGY PREDICTED BY IDOCK:   -0.46 KCAL/MOL
REMARK 927      BINDING AFFINITY PREDICTED BY RF-SCORE:    0.00 PKD
ROOT
HETATM    1 CL   UNL     1     -11.896  12.067  68.235  1.00  0.00    -0.385 Cl 
HETATM    2  C   UNL     1     -11.629  12.690  66.586  1.00  0.00    -0.381 C  
HETATM    3  C   UNL     1     -11.382  14.194  66.618  1.00  0.00    -0.344 C  
ENDROOT
BRANCH   3   4
HETATM    4  N   UNL     1     -11.192  14.765  65.281  1.00  0.00    -0.350 N  
BRANCH   4   5
HETATM    5  N   UNL     1     -11.394  13.983  64.137  1.00  0.00    -0.605 NA 
HETATM    6  H   UNL     1     -10.749  13.248  63.848  1.00  0.00     0.000 HD 
HETATM    7  O   UNL     1     -12.421  14.262  63.509  1.00  0.00    -1.095 OA 
HETATM    8  H   UNL     1     -12.559  13.732  62.734  1.00  0.00     0.000 HD 
ENDBRANCH   4   5
BRANCH   4   9
HETATM    9  C   UNL     1     -10.989  16.139  65.163  1.00  0.00    -0.316 C  
HETATM   10  O   UNL     1     -11.267  16.755  64.133  1.00  0.00    -1.155 OA 
BRANCH   9  11
HETATM   11  N   UNL     1     -10.419  16.772  66.250  1.00  0.00    -0.292 N  
HETATM   12  H   UNL     1     -10.652  16.447  67.188  1.00  0.00     0.000 HD 
BRANCH  11  13
HETATM   13  C   UNL     1      -9.494  17.894  66.099  1.00  0.00    -0.153 C  
HETATM   14  C   UNL     1     -10.209  19.252  66.101  1.00  0.00    -0.549 C  
HETATM   15  C   UNL     1     -10.734  19.656  67.478  1.00  0.00    -0.537 C  
HETATM   16  C   UNL     1      -9.684  19.546  68.579  1.00  0.00    -0.503 C  
HETATM   17  C   UNL     1      -8.932  18.219  68.565  1.00  0.00    -0.329 C  
HETATM   18  C   UNL     1      -8.407  17.857  67.178  1.00  0.00    -0.239 C  
ENDBRANCH  11  13
ENDBRANCH   9  11
ENDBRANCH   4   9
ENDBRANCH   3   4
TORSDOF 5
ENDMDL
MODEL        7
REMARK 921   NORMALIZED FREE ENERGY PREDICTED BY IDOCK:   -5.46 KCAL/MOL
REMARK 922        TOTAL FREE ENERGY PREDICTED BY IDOCK:   -7.65 KCAL/MOL
REMARK 923 INTER-LIGAND FREE ENERGY PREDICTED BY IDOCK:   -7.11 KCAL/MOL
REMARK 924 INTRA-LIGAND FREE ENERGY PREDICTED BY IDOCK:   -0.55 KCAL/MOL
REMARK 927      BINDING AFFINITY PREDICTED BY RF-SCORE:    0.00 PKD
ROOT
HETATM    1 CL   UNL     1     -12.899  11.639  63.316  1.00  0.00    -0.384 Cl 
HETATM    2  C   UNL     1     -11.802  13.037  63.464  1.00  0.00    -0.516 C  
HETATM    3  C   UNL     1     -12.281  13.975  64.567  1.00  0.00    -0.434 C  
ENDROOT
BRANCH   3   4
HETATM    4  N   UNL     1     -11.433  15.164  64.707  1.00  0.00    -0.406 N  
BRANCH   4   5
HETATM    5  N   UNL     1     -11.641  16.285  63.895  1.00  0.00    -1.573 NA 
HETATM    6  H   UNL     1     -12.050  16.226  62.962  1.00  0.00     0.000 HD 
HETATM    7  O   UNL     1     -11.284  17.352  64.406  1.00  0.00    -0.978 OA 
HETATM    8  H   UNL     1     -11.425  18.113  63.855  1.00  0.00     0.000 HD 
ENDBRANCH   4   5
BRANCH   4   9
HETATM    9  C   UNL     1     -10.545  15.230  65.778  1.00  0.00    -0.347 C  
HETATM   10  O   UNL     1      -9.336  15.398  65.616  1.00  0.00    -0.296 OA 
BRANCH   9  11
HETATM   11  N   UNL     1     -11.087  15.056  67.038  1.00  0.00    -0.330 N  
HETATM   12  H   UNL     1     -12.096  15.140  67.157  1.00  0.00     0.000 HD 
BRANCH  11  13
HETATM   13  C   UNL     1     -10.259  14.754  68.205  1.00  0.00    -0.228 C  
HETATM   14  C   UNL     1     -10.411  15.796  69.320  1.00  0.00    -0.245 C  
HETATM   15  C   UNL     1     -11.754  15.714  70.045  1.00  0.00    -0.369 C  
HETATM   16  C   UNL     1     -12.100  14.303  70.511  1.00  0.00    -0.413 C  
HETATM   17  C   UNL     1     -11.913  13.246  69.427  1.00  0.00    -0.356 C  
HETATM   18  C   UNL     1     -10.554  13.349  68.738  1.00  0.00    -0.230 C  
ENDBRANCH  11  13
ENDBRANCH   9  11
ENDBRANCH   4   9
ENDBRANCH   3   4
TORSDOF 5
ENDMDL
MODEL        8
REMARK 921   NORMALIZED FREE ENERGY PREDICTED BY IDOCK:   -5.41 KCAL/MOL
REMARK 922        TOTAL FREE ENERGY PREDICTED BY IDOCK:   -7.58 KCAL/MOL
REMARK 923 INTER-LIGAND FREE ENERGY PREDICTED BY IDOCK:   -6.93 KCAL/MOL
REMARK 924 INTRA-LIGAND FREE ENERGY PREDICTED BY IDOCK:   -0.65 KCAL/MOL
REMARK 927      BINDING AFFINITY PREDICTED BY RF-SCORE:    0.00 PKD
ROOT
HETATM    1 CL   UNL     1      -8.627  17.351  65.972  1.00  0.00    -0.178 Cl 
HETATM    2  C   UNL     1     -10.306  16.774  65.811  1.00  0.00    -0.305 C  
HETATM    3  C   UNL     1     -10.328  15.330  65.322  1.00  0.00    -0.401 C  
ENDROOT
BRANCH   3   4
HETATM    4  N   UNL     1     -11.689  14.816  65.136  1.00  0.00    -0.355 N  
BRANCH   4   5
HETATM    5  N   UNL     1     -12.391  15.072  63.952  1.00  0.00    -1.059 NA 
HETATM    6  H   UNL     1     -12.782  15.987  63.726  1.00  0.00     0.000 HD 
HETATM    7  O   UNL     1     -12.497  14.093  63.205  1.00  0.00    -1.146 OA 
HETATM    8  H   UNL     1     -12.973  14.266  62.402  1.00  0.00     0.000 HD 
ENDBRANCH   4   5
BRANCH   4   9
HETATM    9  C   UNL     1     -12.200  13.920  66.073  1.00  0.00    -0.462 C  
HETATM   10  O   UNL     1     -12.538  12.775  65.767  1.00  0.00    -0.562 OA 
BRANCH   9  11
HETATM   11  N   UNL     1     -12.347  14.394  67.362  1.00  0.00    -0.600 N  
HETATM   12  H   UNL     1     -12.976  15.179  67.530  1.00  0.00     0.000 HD 
BRANCH  11  13
HETATM   13  C   UNL     1     -11.628  13.808  68.493  1.00  0.00    -0.338 C  
HETATM   14  C   UNL     1     -10.303  14.524  68.785  1.00  0.00    -0.243 C  
HETATM   15  C   UNL     1     -10.489  15.908  69.407  1.00  0.00    -0.265 C  
HETATM   16  C   UNL     1     -11.431  15.906  70.608  1.00  0.00    -0.426 C  
HETATM   17  C   UNL     1     -12.736  15.160  70.350  1.00  0.00    -0.378 C  
HETATM   18  C   UNL     1     -12.510  13.776  69.745  1.00  0.00    -0.216 C  
ENDBRANCH  11  13
ENDBRANCH   9  11
ENDBRANCH   4   9
ENDBRANCH   3   4
TORSDOF 5
ENDMDL
MODEL        9
REMARK 921   NORMALIZED FREE ENERGY PREDICTED BY IDOCK:   -5.34 KCAL/MOL
REMARK 922        TOTAL FREE ENERGY PREDICTED BY IDOCK:   -7.49 KCAL/MOL
REMARK 923 INTER-LIGAND FREE ENERGY PREDICTED BY IDOCK:   -6.78 KCAL/MOL
REMARK 924 INTRA-LIGAND FREE ENERGY PREDICTED BY IDOCK:   -0.71 KCAL/MOL
REMARK 927      BINDING AFFINITY PREDICTED BY RF-SCORE:    0.00 PKD
ROOT
HETATM    1 CL   UNL     1     -11.880  13.702  68.818  1.00  0.00    -0.379 Cl 
HETATM    2  C   UNL     1     -12.148  13.955  67.074  1.00  0.00    -0.415 C  
HETATM    3  C   UNL     1     -10.919  14.590  66.433  1.00  0.00    -0.324 C  
ENDROOT
BRANCH   3   4
HETATM    4  N   UNL     1     -11.100  14.854  65.001  1.00  0.00    -0.391 N  
BRANCH   4   5
HETATM    5  N   UNL     1     -10.819  16.118  64.470  1.00  0.00    -0.892 NA 
HETATM    6  H   UNL     1      -9.921  16.586  64.596  1.00  0.00     0.000 HD 
HETATM    7  O   UNL     1     -11.754  16.619  63.835  1.00  0.00    -1.487 OA 
HETATM    8  H   UNL     1     -11.564  17.476  63.474  1.00  0.00     0.000 HD 
ENDBRANCH   4   5
BRANCH   4   9
HETATM    9  C   UNL     1     -11.375  13.783  64.153  1.00  0.00    -0.256 C  
HETATM   10  O   UNL     1     -12.457  13.669  63.575  1.00  0.00    -0.736 OA 
BRANCH   9  11
HETATM   11  N   UNL     1     -10.384  12.829  64.025  1.00  0.00    -0.496 N  
HETATM   12  H   UNL     1      -9.411  13.132  63.978  1.00  0.00     0.000 HD 
BRANCH  11  13
HETATM   13  C   UNL     1     -10.686  11.400  63.954  1.00  0.00    -0.397 C  
HETATM   14  C   UNL     1      -9.674  10.626  63.100  1.00  0.00    -0.375 C  
HETATM   15  C   UNL     1      -8.308  10.474  63.769  1.00  0.00    -0.101 C  
HETATM   16  C   UNL     1      -8.394   9.944  65.197  1.00  0.00    -0.152 C  
HETATM   17  C   UNL     1      -9.428  10.673  66.050  1.00  0.00    -0.233 C  
HETATM   18  C   UNL     1     -10.783  10.790  65.356  1.00  0.00    -0.149 C  
ENDBRANCH  11  13
ENDBRANCH   9  11
ENDBRANCH   4   9
ENDBRANCH   3   4
TORSDOF 5
ENDMDL
MODEL       10
REMARK 921   NORMALIZED FREE ENERGY PREDICTED BY IDOCK:   -5.32 KCAL/MOL
REMARK 922        TOTAL FREE ENERGY PREDICTED BY IDOCK:   -7.47 KCAL/MOL
REMARK 923 INTER-LIGAND FREE ENERGY PREDICTED BY IDOCK:   -7.06 KCAL/MOL
REMARK 924 INTRA-LIGAND FREE ENERGY PREDICTED BY IDOCK:   -0.41 KCAL/MOL
REMARK 927      BINDING AFFINITY PREDICTED BY RF-SCORE:    0.00 PKD
ROOT
HETATM    1 CL   UNL     1     -12.943  11.728  63.412  1.00  0.00    -0.438 Cl 
HETATM    2  C   UNL     1     -11.770  13.062  63.564  1.00  0.00    -0.471 C  
HETATM    3  C   UNL     1     -12.266  14.096  64.569  1.00  0.00    -0.445 C  
ENDROOT
BRANCH   3   4
HETATM    4  N   UNL     1     -11.354  15.236  64.705  1.00  0.00    -0.389 N  
BRANCH   4   5
HETATM    5  N   UNL     1     -11.469  16.345  63.857  1.00  0.00    -1.618 NA 
HETATM    6  H   UNL     1     -11.641  16.261  62.855  1.00  0.00     0.000 HD 
HETATM    7  O   UNL     1     -11.344  17.433  64.429  1.00  0.00    -0.949 OA 
HETATM    8  H   UNL     1     -11.422  18.185  63.854  1.00  0.00     0.000 HD 
ENDBRANCH   4   5
BRANCH   4   9
HETATM    9  C   UNL     1     -10.497  15.280  65.802  1.00  0.00    -0.349 C  
HETATM   10  O   UNL     1     -10.496  16.223  66.594  1.00  0.00    -0.300 OA 
BRANCH   9  11
HETATM   11  N   UNL     1      -9.615  14.225  65.936  1.00  0.00    -0.488 N  
HETATM   12  H   UNL     1      -9.071  13.930  65.125  1.00  0.00     0.000 HD 
BRANCH  11  13
HETATM   13  C   UNL     1      -9.435  13.518  67.204  1.00  0.00    -0.244 C  
HETATM   14  C   UNL     1     -10.768  13.166  67.876  1.00  0.00    -0.249 C  
HETATM   15  C   UNL     1     -11.525  12.044  67.167  1.00  0.00    -0.401 C  
HETATM   16  C   UNL     1     -10.664  10.814  66.897  1.00  0.00    -0.309 C  
HETATM   17  C   UNL     1      -9.315  11.148  66.269  1.00  0.00    -0.216 C  
HETATM   18  C   UNL     1      -8.580  12.261  67.014  1.00  0.00    -0.191 C  
ENDBRANCH  11  13
ENDBRANCH   9  11
ENDBRANCH   4   9
ENDBRANCH   3   4
TORSDOF 5
ENDMDL
MODEL       11
REMARK 921   NORMALIZED FREE ENERGY PREDICTED BY IDOCK:   -5.31 KCAL/MOL
REMARK 922        TOTAL FREE ENERGY PREDICTED BY IDOCK:   -7.45 KCAL/MOL
REMARK 923 INTER-LIGAND FREE ENERGY PREDICTED BY IDOCK:   -6.80 KCAL/MOL
REMARK 924 INTRA-LIGAND FREE ENERGY PREDICTED BY IDOCK:   -0.65 KCAL/MOL
REMARK 927      BINDING AFFINITY PREDICTED BY RF-SCORE:    0.00 PKD
ROOT
HETATM    1 CL   UNL     1     -10.144  10.903  63.183  1.00  0.00    -0.359 Cl 
HETATM    2  C   UNL     1     -11.237  12.244  63.613  1.00  0.00    -0.466 C  
HETATM    3  C   UNL     1     -10.488  13.309  64.405  1.00  0.00    -0.404 C  
ENDROOT
BRANCH   3   4
HETATM    4  N   UNL     1     -11.351  14.421  64.817  1.00  0.00    -0.377 N  
BRANCH   4   5
HETATM    5  N   UNL     1     -12.008  15.204  63.860  1.00  0.00    -0.927 NA 
HETATM    6  H   UNL     1     -12.787  14.857  63.300  1.00  0.00     0.000 HD 
HETATM    7  O   UNL     1     -11.562  16.351  63.753  1.00  0.00    -1.605 OA 
HETATM    8  H   UNL     1     -12.007  16.882  63.104  1.00  0.00     0.000 HD 
ENDBRANCH   4   5
BRANCH   4   9
HETATM    9  C   UNL     1     -11.653  14.568  66.169  1.00  0.00    -0.365 C  
HETATM   10  O   UNL     1     -12.319  13.734  66.785  1.00  0.00    -0.403 OA 
BRANCH   9  11
HETATM   11  N   UNL     1     -11.201  15.723  66.778  1.00  0.00    -0.112 N  
HETATM   12  H   UNL     1     -11.864  16.476  66.962  1.00  0.00     0.000 HD 
BRANCH  11  13
HETATM   13  C   UNL     1      -9.803  15.901  67.167  1.00  0.00    -0.231 C  
HETATM   14  C   UNL     1      -9.045  16.845  66.225  1.00  0.00    -0.302 C  
HETATM   15  C   UNL     1      -9.448  18.310  66.386  1.00  0.00    -0.290 C  
HETATM   16  C   UNL     1      -9.423  18.786  67.835  1.00  0.00    -0.339 C  
HETATM   17  C   UNL     1     -10.135  17.836  68.794  1.00  0.00    -0.381 C  
HETATM   18  C   UNL     1      -9.694  16.385  68.616  1.00  0.00    -0.239 C  
ENDBRANCH  11  13
ENDBRANCH   9  11
ENDBRANCH   4   9
ENDBRANCH   3   4
TORSDOF 5
ENDMDL
MODEL       12
REMARK 921   NORMALIZED FREE ENERGY PREDICTED BY IDOCK:   -5.26 KCAL/MOL
REMARK 922        TOTAL FREE ENERGY PREDICTED BY IDOCK:   -7.39 KCAL/MOL
REMARK 923 INTER-LIGAND FREE ENERGY PREDICTED BY IDOCK:   -6.91 KCAL/MOL
REMARK 924 INTRA-LIGAND FREE ENERGY PREDICTED BY IDOCK:   -0.48 KCAL/MOL
REMARK 927      BINDING AFFINITY PREDICTED BY RF-SCORE:    0.00 PKD
ROOT
HETATM    1 CL   UNL     1     -12.654  11.845  63.503  1.00  0.00    -0.655 Cl 
HETATM    2  C   UNL     1     -12.401  12.942  64.885  1.00  0.00    -0.475 C  
HETATM    3  C   UNL     1     -11.524  14.120  64.476  1.00  0.00    -0.372 C  
ENDROOT
BRANCH   3   4
HETATM    4  N   UNL     1     -11.253  15.037  65.588  1.00  0.00    -0.341 N  
BRANCH   4   5
HETATM    5  N   UNL     1     -11.176  14.560  66.902  1.00  0.00    -0.326 NA 
HETATM    6  H   UNL     1     -10.420  13.959  67.230  1.00  0.00     0.000 HD 
HETATM    7  O   UNL     1     -12.104  14.929  67.629  1.00  0.00    -0.516 OA 
HETATM    8  H   UNL     1     -12.053  14.605  68.520  1.00  0.00     0.000 HD 
ENDBRANCH   4   5
BRANCH   4   9
HETATM    9  C   UNL     1     -10.891  16.351  65.299  1.00  0.00    -0.258 C  
HETATM   10  O   UNL     1     -11.206  16.899  64.242  1.00  0.00    -1.204 OA 
BRANCH   9  11
HETATM   11  N   UNL     1     -10.121  17.000  66.246  1.00  0.00    -0.310 N  
HETATM   12  H   UNL     1      -9.156  16.700  66.387  1.00  0.00     0.000 HD 
BRANCH  11  13
HETATM   13  C   UNL     1     -10.645  18.102  67.051  1.00  0.00    -0.328 C  
HETATM   14  C   UNL     1     -10.017  18.161  68.449  1.00  0.00    -0.392 C  
HETATM   15  C   UNL     1      -8.565  18.639  68.440  1.00  0.00    -0.366 C  
HETATM   16  C   UNL     1      -8.362  19.930  67.652  1.00  0.00    -0.362 C  
HETATM   17  C   UNL     1      -9.018  19.907  66.275  1.00  0.00    -0.419 C  
HETATM   18  C   UNL     1     -10.472  19.441  66.327  1.00  0.00    -0.586 C  
ENDBRANCH  11  13
ENDBRANCH   9  11
ENDBRANCH   4   9
ENDBRANCH   3   4
TORSDOF 5
ENDMDL
MODEL       13
REMARK 921   NORMALIZED FREE ENERGY PREDICTED BY IDOCK:   -5.18 KCAL/MOL
REMARK 922        TOTAL FREE ENERGY PREDICTED BY IDOCK:   -7.29 KCAL/MOL
REMARK 923 INTER-LIGAND FREE ENERGY PREDICTED BY IDOCK:   -6.71 KCAL/MOL
REMARK 924 INTRA-LIGAND FREE ENERGY PREDICTED BY IDOCK:   -0.58 KCAL/MOL
REMARK 927      BINDING AFFINITY PREDICTED BY RF-SCORE:    0.00 PKD
ROOT
HETATM    1 CL   UNL     1     -11.148  11.598  67.214  1.00  0.00    -0.324 Cl 
HETATM    2  C   UNL     1     -11.884  12.893  66.234  1.00  0.00    -0.416 C  
HETATM    3  C   UNL     1     -10.844  13.515  65.307  1.00  0.00    -0.310 C  
ENDROOT
BRANCH   3   4
HETATM    4  N   UNL     1     -11.389  14.614  64.503  1.00  0.00    -0.345 N  
BRANCH   4   5
HETATM    5  N   UNL     1     -12.441  14.387  63.607  1.00  0.00    -1.086 NA 
HETATM    6  H   UNL     1     -13.310  14.920  63.627  1.00  0.00     0.000 HD 
HETATM    7  O   UNL     1     -12.224  13.485  62.791  1.00  0.00    -0.814 OA 
HETATM    8  H   UNL     1     -12.937  13.331  62.183  1.00  0.00     0.000 HD 
ENDBRANCH   4   5
BRANCH   4   9
HETATM    9  C   UNL     1     -10.971  15.915  64.777  1.00  0.00    -0.375 C  
HETATM   10  O   UNL     1     -11.411  16.886  64.160  1.00  0.00    -1.208 OA 
BRANCH   9  11
HETATM   11  N   UNL     1     -10.004  16.057  65.753  1.00  0.00    -0.342 N  
HETATM   12  H   UNL     1      -9.108  15.584  65.633  1.00  0.00     0.000 HD 
BRANCH  11  13
HETATM   13  C   UNL     1     -10.222  16.864  66.952  1.00  0.00    -0.296 C  
HETATM   14  C   UNL     1     -10.869  16.065  68.091  1.00  0.00    -0.322 C  
HETATM   15  C   UNL     1      -9.917  15.060  68.740  1.00  0.00    -0.228 C  
HETATM   16  C   UNL     1      -8.578  15.672  69.141  1.00  0.00    -0.251 C  
HETATM   17  C   UNL     1      -7.941  16.508  68.035  1.00  0.00    -0.161 C  
HETATM   18  C   UNL     1      -8.916  17.511  67.424  1.00  0.00    -0.230 C  
ENDBRANCH  11  13
ENDBRANCH   9  11
ENDBRANCH   4   9
ENDBRANCH   3   4
TORSDOF 5
ENDMDL
MODEL       14
REMARK 921   NORMALIZED FREE ENERGY PREDICTED BY IDOCK:   -5.14 KCAL/MOL
REMARK 922        TOTAL FREE ENERGY PREDICTED BY IDOCK:   -7.23 KCAL/MOL
REMARK 923 INTER-LIGAND FREE ENERGY PREDICTED BY IDOCK:   -6.96 KCAL/MOL
REMARK 924 INTRA-LIGAND FREE ENERGY PREDICTED BY IDOCK:   -0.28 KCAL/MOL
REMARK 927      BINDING AFFINITY PREDICTED BY RF-SCORE:    0.00 PKD
ROOT
HETATM    1 CL   UNL     1     -11.932  13.053  63.703  1.00  0.00    -0.579 Cl 
HETATM    2  C   UNL     1     -12.487  13.148  65.395  1.00  0.00    -0.481 C  
HETATM    3  C   UNL     1     -11.421  12.600  66.337  1.00  0.00    -0.356 C  
ENDROOT
BRANCH   3   4
HETATM    4  N   UNL     1     -11.842  12.621  67.741  1.00  0.00    -0.348 N  
BRANCH   4   5
HETATM    5  N   UNL     1     -12.171  11.432  68.403  1.00  0.00    -0.522 NA 
HETATM    6  H   UNL     1     -12.727  11.409  69.258  1.00  0.00     0.000 HD 
HETATM    7  O   UNL     1     -11.729  10.413  67.862  1.00  0.00    -0.714 OA 
HETATM    8  H   UNL     1     -11.952   9.606  68.311  1.00  0.00     0.000 HD 
ENDBRANCH   4   5
BRANCH   4   9
HETATM    9  C   UNL     1     -11.731  13.812  68.456  1.00  0.00    -0.356 C  
HETATM   10  O   UNL     1     -10.885  14.664  68.180  1.00  0.00    -0.243 OA 
BRANCH   9  11
HETATM   11  N   UNL     1     -12.596  13.973  69.521  1.00  0.00    -0.407 N  
HETATM   12  H   UNL     1     -13.559  14.254  69.336  1.00  0.00     0.000 HD 
BRANCH  11  13
HETATM   13  C   UNL     1     -12.175  13.754  70.904  1.00  0.00    -0.349 C  
HETATM   14  C   UNL     1     -11.589  15.017  71.548  1.00  0.00    -0.409 C  
HETATM   15  C   UNL     1     -12.642  16.079  71.863  1.00  0.00    -0.433 C  
HETATM   16  C   UNL     1     -13.839  15.531  72.634  1.00  0.00    -0.654 C  
HETATM   17  C   UNL     1     -14.408  14.249  72.032  1.00  0.00    -0.629 C  
HETATM   18  C   UNL     1     -13.329  13.206  71.748  1.00  0.00    -0.477 C  
ENDBRANCH  11  13
ENDBRANCH   9  11
ENDBRANCH   4   9
ENDBRANCH   3   4
TORSDOF 5
ENDMDL
MODEL       15
REMARK 921   NORMALIZED FREE ENERGY PREDICTED BY IDOCK:   -5.13 KCAL/MOL
REMARK 922        TOTAL FREE ENERGY PREDICTED BY IDOCK:   -7.23 KCAL/MOL
REMARK 923 INTER-LIGAND FREE ENERGY PREDICTED BY IDOCK:   -6.61 KCAL/MOL
REMARK 924 INTRA-LIGAND FREE ENERGY PREDICTED BY IDOCK:   -0.62 KCAL/MOL
REMARK 927      BINDING AFFINITY PREDICTED BY RF-SCORE:    0.00 PKD
ROOT
HETATM    1 CL   UNL     1     -10.596  20.092  67.922  1.00  0.00    -0.455 Cl 
HETATM    2  C   UNL     1     -10.716  18.348  67.568  1.00  0.00    -0.365 C  
HETATM    3  C   UNL     1      -9.876  17.994  66.346  1.00  0.00    -0.340 C  
ENDROOT
BRANCH   3   4
HETATM    4  N   UNL     1      -9.968  16.575  65.988  1.00  0.00    -0.331 N  
BRANCH   4   5
HETATM    5  N   UNL     1      -9.426  15.592  66.825  1.00  0.00    -0.230 NA 
HETATM    6  H   UNL     1      -9.735  15.451  67.787  1.00  0.00     0.000 HD 
HETATM    7  O   UNL     1      -8.538  14.913  66.298  1.00  0.00    -0.445 OA 
HETATM    8  H   UNL     1      -8.170  14.247  66.866  1.00  0.00     0.000 HD 
ENDBRANCH   4   5
BRANCH   4   9
HETATM    9  C   UNL     1     -10.762  16.209  64.903  1.00  0.00    -0.274 C  
HETATM   10  O   UNL     1     -11.492  17.015  64.325  1.00  0.00    -1.124 OA 
BRANCH   9  11
HETATM   11  N   UNL     1     -10.720  14.879  64.531  1.00  0.00    -0.601 N  
HETATM   12  H   UNL     1      -9.818  14.455  64.313  1.00  0.00     0.000 HD 
BRANCH  11  13
HETATM   13  C   UNL     1     -11.928  14.059  64.440  1.00  0.00    -0.454 C  
HETATM   14  C   UNL     1     -11.636  12.631  63.960  1.00  0.00    -0.486 C  
HETATM   15  C   UNL     1     -10.932  11.773  65.011  1.00  0.00    -0.357 C  
HETATM   16  C   UNL     1     -11.620  11.803  66.372  1.00  0.00    -0.237 C  
HETATM   17  C   UNL     1     -11.959  13.213  66.846  1.00  0.00    -0.421 C  
HETATM   18  C   UNL     1     -12.676  14.035  65.777  1.00  0.00    -0.487 C  
ENDBRANCH  11  13
ENDBRANCH   9  11
ENDBRANCH   4   9
ENDBRANCH   3   4
TORSDOF 5
ENDMDL
MODEL       16
REMARK 921   NORMALIZED FREE ENERGY PREDICTED BY IDOCK:   -5.13 KCAL/MOL
REMARK 922        TOTAL FREE ENERGY PREDICTED BY IDOCK:   -7.22 KCAL/MOL
REMARK 923 INTER-LIGAND FREE ENERGY PREDICTED BY IDOCK:   -6.55 KCAL/MOL
REMARK 924 INTRA-LIGAND FREE ENERGY PREDICTED BY IDOCK:   -0.67 KCAL/MOL
REMARK 927      BINDING AFFINITY PREDICTED BY RF-SCORE:    0.00 PKD
ROOT
HETATM    1 CL   UNL     1      -8.658  20.306  67.420  1.00  0.00    -0.413 Cl 
HETATM    2  C   UNL     1      -8.951  18.891  66.376  1.00  0.00    -0.310 C  
HETATM    3  C   UNL     1     -10.347  18.328  66.621  1.00  0.00    -0.381 C  
ENDROOT
BRANCH   3   4
HETATM    4  N   UNL     1     -10.627  17.137  65.812  1.00  0.00    -0.278 N  
BRANCH   4   5
HETATM    5  N   UNL     1     -11.261  17.254  64.569  1.00  0.00    -0.924 NA 
HETATM    6  H   UNL     1     -11.710  18.114  64.254  1.00  0.00     0.000 HD 
HETATM    7  O   UNL     1     -11.229  16.224  63.887  1.00  0.00    -1.264 OA 
HETATM    8  H   UNL     1     -11.659  16.303  63.044  1.00  0.00     0.000 HD 
ENDBRANCH   4   5
BRANCH   4   9
HETATM    9  C   UNL     1     -10.090  15.916  66.212  1.00  0.00    -0.301 C  
HETATM   10  O   UNL     1      -9.274  15.303  65.522  1.00  0.00    -0.140 OA 
BRANCH   9  11
HETATM   11  N   UNL     1     -10.553  15.403  67.409  1.00  0.00    -0.283 N  
HETATM   12  H   UNL     1      -9.941  15.426  68.225  1.00  0.00     0.000 HD 
BRANCH  11  13
HETATM   13  C   UNL     1     -11.891  14.828  67.542  1.00  0.00    -0.301 C  
HETATM   14  C   UNL     1     -12.236  13.866  66.398  1.00  0.00    -0.487 C  
HETATM   15  C   UNL     1     -11.478  12.541  66.474  1.00  0.00    -0.418 C  
HETATM   16  C   UNL     1     -11.566  11.875  67.844  1.00  0.00    -0.393 C  
HETATM   17  C   UNL     1     -11.269  12.828  68.998  1.00  0.00    -0.317 C  
HETATM   18  C   UNL     1     -12.056  14.133  68.897  1.00  0.00    -0.339 C  
ENDBRANCH  11  13
ENDBRANCH   9  11
ENDBRANCH   4   9
ENDBRANCH   3   4
TORSDOF 5
ENDMDL
MODEL       17
REMARK 921   NORMALIZED FREE ENERGY PREDICTED BY IDOCK:   -5.12 KCAL/MOL
REMARK 922        TOTAL FREE ENERGY PREDICTED BY IDOCK:   -7.20 KCAL/MOL
REMARK 923 INTER-LIGAND FREE ENERGY PREDICTED BY IDOCK:   -6.50 KCAL/MOL
REMARK 924 INTRA-LIGAND FREE ENERGY PREDICTED BY IDOCK:   -0.70 KCAL/MOL
REMARK 927      BINDING AFFINITY PREDICTED BY RF-SCORE:    0.00 PKD
ROOT
HETATM    1 CL   UNL     1      -9.763  10.697  62.624  1.00  0.00    -0.279 Cl 
HETATM    2  C   UNL     1     -10.168  12.197  63.499  1.00  0.00    -0.424 C  
HETATM    3  C   UNL     1     -11.633  12.188  63.921  1.00  0.00    -0.448 C  
ENDROOT
BRANCH   3   4
HETATM    4  N   UNL     1     -12.029  13.419  64.614  1.00  0.00    -0.381 N  
BRANCH   4   5
HETATM    5  N   UNL     1     -12.519  14.515  63.894  1.00  0.00    -1.031 NA 
HETATM    6  H   UNL     1     -13.439  14.522  63.453  1.00  0.00     0.000 HD 
HETATM    7  O   UNL     1     -11.740  15.472  63.838  1.00  0.00    -0.903 OA 
HETATM    8  H   UNL     1     -12.072  16.216  63.349  1.00  0.00     0.000 HD 
ENDBRANCH   4   5
BRANCH   4   9
HETATM    9  C   UNL     1     -12.086  13.414  66.006  1.00  0.00    -0.438 C  
HETATM   10  O   UNL     1     -12.204  12.372  66.652  1.00  0.00    -0.562 OA 
BRANCH   9  11
HETATM   11  N   UNL     1     -12.045  14.647  66.627  1.00  0.00    -0.345 N  
HETATM   12  H   UNL     1     -12.728  15.356  66.363  1.00  0.00     0.000 HD 
BRANCH  11  13
HETATM   13  C   UNL     1     -11.052  14.968  67.652  1.00  0.00    -0.316 C  
HETATM   14  C   UNL     1      -9.629  14.567  67.240  1.00  0.00    -0.226 C  
HETATM   15  C   UNL     1      -9.040  15.464  66.152  1.00  0.00    -0.339 C  
HETATM   16  C   UNL     1      -9.159  16.951  66.468  1.00  0.00    -0.302 C  
HETATM   17  C   UNL     1     -10.557  17.361  66.922  1.00  0.00    -0.216 C  
HETATM   18  C   UNL     1     -11.106  16.454  68.021  1.00  0.00    -0.292 C  
ENDBRANCH  11  13
ENDBRANCH   9  11
ENDBRANCH   4   9
ENDBRANCH   3   4
TORSDOF 5
ENDMDL
MODEL       18
REMARK 921   NORMALIZED FREE ENERGY PREDICTED BY IDOCK:   -5.11 KCAL/MOL
REMARK 922        TOTAL FREE ENERGY PREDICTED BY IDOCK:   -7.20 KCAL/MOL
REMARK 923 INTER-LIGAND FREE ENERGY PREDICTED BY IDOCK:   -6.74 KCAL/MOL
REMARK 924 INTRA-LIGAND FREE ENERGY PREDICTED BY IDOCK:   -0.45 KCAL/MOL
REMARK 927      BINDING AFFINITY PREDICTED BY RF-SCORE:    0.00 PKD
ROOT
HETATM    1 CL   UNL     1     -10.641  15.259  69.667  1.00  0.00    -0.266 Cl 
HETATM    2  C   UNL     1     -11.004  16.307  68.271  1.00  0.00    -0.348 C  
HETATM    3  C   UNL     1     -10.349  15.757  67.009  1.00  0.00    -0.292 C  
ENDROOT
BRANCH   3   4
HETATM    4  N   UNL     1     -10.586  16.603  65.834  1.00  0.00    -0.291 N  
BRANCH   4   5
HETATM    5  N   UNL     1     -10.180  17.943  65.828  1.00  0.00    -0.608 NA 
HETATM    6  H   UNL     1      -9.394  18.286  66.380  1.00  0.00     0.000 HD 
HETATM    7  O   UNL     1     -10.858  18.673  65.098  1.00  0.00    -0.551 OA 
HETATM    8  H   UNL     1     -10.584  19.582  65.094  1.00  0.00     0.000 HD 
ENDBRANCH   4   5
BRANCH   4   9
HETATM    9  C   UNL     1     -11.049  16.007  64.663  1.00  0.00    -0.332 C  
HETATM   10  O   UNL     1     -11.782  16.603  63.872  1.00  0.00    -1.153 OA 
BRANCH   9  11
HETATM   11  N   UNL     1     -10.679  14.693  64.453  1.00  0.00    -0.558 N  
HETATM   12  H   UNL     1      -9.697  14.435  64.554  1.00  0.00     0.000 HD 
BRANCH  11  13
HETATM   13  C   UNL     1     -11.649  13.659  64.092  1.00  0.00    -0.352 C  
HETATM   14  C   UNL     1     -10.992  12.438  63.436  1.00  0.00    -0.442 C  
HETATM   15  C   UNL     1     -10.195  11.580  64.419  1.00  0.00    -0.350 C  
HETATM   16  C   UNL     1     -10.981  11.218  65.675  1.00  0.00    -0.201 C  
HETATM   17  C   UNL     1     -11.678  12.413  66.317  1.00  0.00    -0.457 C  
HETATM   18  C   UNL     1     -12.477  13.236  65.309  1.00  0.00    -0.543 C  
ENDBRANCH  11  13
ENDBRANCH   9  11
ENDBRANCH   4   9
ENDBRANCH   3   4
TORSDOF 5
ENDMDL
MODEL       19
REMARK 921   NORMALIZED FREE ENERGY PREDICTED BY IDOCK:   -5.07 KCAL/MOL
REMARK 922        TOTAL FREE ENERGY PREDICTED BY IDOCK:   -7.14 KCAL/MOL
REMARK 923 INTER-LIGAND FREE ENERGY PREDICTED BY IDOCK:   -6.59 KCAL/MOL
REMARK 924 INTRA-LIGAND FREE ENERGY PREDICTED BY IDOCK:   -0.56 KCAL/MOL
REMARK 927      BINDING AFFINITY PREDICTED BY RF-SCORE:    0.00 PKD
ROOT
HETATM    1 CL   UNL     1     -11.783  12.816  63.969  1.00  0.00    -0.451 Cl 
HETATM    2  C   UNL     1     -11.387  12.108  65.557  1.00  0.00    -0.344 C  
HETATM    3  C   UNL     1     -12.062  12.897  66.674  1.00  0.00    -0.289 C  
ENDROOT
BRANCH   3   4
HETATM    4  N   UNL     1     -11.739  12.378  68.007  1.00  0.00    -0.348 N  
BRANCH   4   5
HETATM    5  N   UNL     1     -11.942  11.028  68.314  1.00  0.00    -0.757 NA 
HETATM    6  H   UNL     1     -11.571  10.268  67.743  1.00  0.00     0.000 HD 
HETATM    7  O   UNL     1     -12.609  10.835  69.336  1.00  0.00    -0.632 OA 
HETATM    8  H   UNL     1     -12.747   9.919  69.544  1.00  0.00     0.000 HD 
ENDBRANCH   4   5
BRANCH   4   9
HETATM    9  C   UNL     1     -11.059  13.204  68.900  1.00  0.00    -0.266 C  
HETATM   10  O   UNL     1      -9.949  13.672  68.643  1.00  0.00    -0.224 OA 
BRANCH   9  11
HETATM   11  N   UNL     1     -11.678  13.441  70.112  1.00  0.00    -0.505 N  
HETATM   12  H   UNL     1     -11.547  12.774  70.872  1.00  0.00     0.000 HD 
BRANCH  11  13
HETATM   13  C   UNL     1     -12.515  14.618  70.341  1.00  0.00    -0.352 C  
HETATM   14  C   UNL     1     -13.814  14.282  71.085  1.00  0.00    -0.199 C  
HETATM   15  C   UNL     1     -13.596  13.946  72.560  1.00  0.00    -0.680 C  
HETATM   16  C   UNL     1     -12.753  14.984  73.295  1.00  0.00    -0.635 C  
HETATM   17  C   UNL     1     -11.478  15.363  72.548  1.00  0.00    -0.441 C  
HETATM   18  C   UNL     1     -11.737  15.709  71.083  1.00  0.00    -0.461 C  
ENDBRANCH  11  13
ENDBRANCH   9  11
ENDBRANCH   4   9
ENDBRANCH   3   4
TORSDOF 5
ENDMDL
MODEL       20
REMARK 921   NORMALIZED FREE ENERGY PREDICTED BY IDOCK:   -5.02 KCAL/MOL
REMARK 922        TOTAL FREE ENERGY PREDICTED BY IDOCK:   -7.09 KCAL/MOL
REMARK 923 INTER-LIGAND FREE ENERGY PREDICTED BY IDOCK:   -7.37 KCAL/MOL
REMARK 924 INTRA-LIGAND FREE ENERGY PREDICTED BY IDOCK:    0.29 KCAL/MOL
REMARK 927      BINDING AFFINITY PREDICTED BY RF-SCORE:    0.00 PKD
ROOT
HETATM    1 CL   UNL     1      -8.286  16.774  66.463  1.00  0.00    -0.296 Cl 
HETATM    2  C   UNL     1     -10.013  16.428  66.189  1.00  0.00    -0.339 C  
HETATM    3  C   UNL     1     -10.183  15.087  65.484  1.00  0.00    -0.378 C  
ENDROOT
BRANCH   3   4
HETATM    4  N   UNL     1     -11.586  14.770  65.201  1.00  0.00    -0.362 N  
BRANCH   4   5
HETATM    5  N   UNL     1     -12.224  15.305  64.075  1.00  0.00    -0.930 NA 
HETATM    6  H   UNL     1     -13.012  14.848  63.615  1.00  0.00     0.000 HD 
HETATM    7  O   UNL     1     -11.748  16.377  63.686  1.00  0.00    -1.520 OA 
HETATM    8  H   UNL     1     -12.180  16.739  62.922  1.00  0.00     0.000 HD 
ENDBRANCH   4   5
BRANCH   4   9
HETATM    9  C   UNL     1     -12.217  13.788  65.961  1.00  0.00    -0.457 C  
HETATM   10  O   UNL     1     -12.571  12.712  65.477  1.00  0.00    -0.634 OA 
BRANCH   9  11
HETATM   11  N   UNL     1     -12.463  14.098  67.285  1.00  0.00    -0.532 N  
HETATM   12  H   UNL     1     -13.418  14.313  67.572  1.00  0.00     0.000 HD 
BRANCH  11  13
HETATM   13  C   UNL     1     -11.399  14.129  68.287  1.00  0.00    -0.291 C  
HETATM   14  C   UNL     1     -11.822  14.850  69.574  1.00  0.00    -0.360 C  
HETATM   15  C   UNL     1     -12.817  14.051  70.415  1.00  0.00    -0.231 C  
HETATM   16  C   UNL     1     -12.374  12.613  70.668  1.00  0.00    -0.375 C  
HETATM   17  C   UNL     1     -11.908  11.894  69.406  1.00  0.00    -0.389 C  
HETATM   18  C   UNL     1     -10.902  12.715  68.602  1.00  0.00    -0.281 C  
ENDBRANCH  11  13
ENDBRANCH   9  11
ENDBRANCH   4   9
ENDBRANCH   3   4
TORSDOF 5
ENDMDL
MODEL       21
REMARK 921   NORMALIZED FREE ENERGY PREDICTED BY IDOCK:   -4.97 KCAL/MOL
REMARK 922        TOTAL FREE ENERGY PREDICTED BY IDOCK:   -7.02 KCAL/MOL
REMARK 923 INTER-LIGAND FREE ENERGY PREDICTED BY IDOCK:   -6.46 KCAL/MOL
REMARK 924 INTRA-LIGAND FREE ENERGY PREDICTED BY IDOCK:   -0.56 KCAL/MOL
REMARK 927      BINDING AFFINITY PREDICTED BY RF-SCORE:    0.00 PKD
ROOT
HETATM    1 CL   UNL     1     -13.117   9.166  72.523  1.00  0.00    -0.485 Cl 
HETATM    2  C   UNL     1     -12.077   9.891  71.269  1.00  0.00    -0.394 C  
HETATM    3  C   UNL     1     -12.860  10.917  70.456  1.00  0.00    -0.220 C  
ENDROOT
BRANCH   3   4
HETATM    4  N   UNL     1     -12.060  11.519  69.384  1.00  0.00    -0.304 N  
BRANCH   4   5
HETATM    5  N   UNL     1     -11.971  10.902  68.130  1.00  0.00    -0.796 NA 
HETATM    6  H   UNL     1     -12.765  10.822  67.495  1.00  0.00     0.000 HD 
HETATM    7  O   UNL     1     -10.848  10.463  67.861  1.00  0.00    -0.237 OA 
HETATM    8  H   UNL     1     -10.787  10.045  67.010  1.00  0.00     0.000 HD 
ENDBRANCH   4   5
BRANCH   4   9
HETATM    9  C   UNL     1     -11.544  12.799  69.572  1.00  0.00    -0.276 C  
HETATM   10  O   UNL     1     -10.690  13.277  68.824  1.00  0.00    -0.247 OA 
BRANCH   9  11
HETATM   11  N   UNL     1     -12.011  13.495  70.671  1.00  0.00    -0.512 N  
HETATM   12  H   UNL     1     -12.167  12.991  71.544  1.00  0.00     0.000 HD 
BRANCH  11  13
HETATM   13  C   UNL     1     -12.288  14.930  70.622  1.00  0.00    -0.344 C  
HETATM   14  C   UNL     1     -13.772  15.251  70.843  1.00  0.00    -0.363 C  
HETATM   15  C   UNL     1     -14.226  15.045  72.288  1.00  0.00    -0.594 C  
HETATM   16  C   UNL     1     -13.321  15.730  73.307  1.00  0.00    -0.649 C  
HETATM   17  C   UNL     1     -11.838  15.458  73.076  1.00  0.00    -0.532 C  
HETATM   18  C   UNL     1     -11.418  15.691  71.627  1.00  0.00    -0.506 C  
ENDBRANCH  11  13
ENDBRANCH   9  11
ENDBRANCH   4   9
ENDBRANCH   3   4
TORSDOF 5
ENDMDL
MODEL       22
REMARK 921   NORMALIZED FREE ENERGY PREDICTED BY IDOCK:   -4.97 KCAL/MOL
REMARK 922        TOTAL FREE ENERGY PREDICTED BY IDOCK:   -7.02 KCAL/MOL
REMARK 923 INTER-LIGAND FREE ENERGY PREDICTED BY IDOCK:   -6.40 KCAL/MOL
REMARK 924 INTRA-LIGAND FREE ENERGY PREDICTED BY IDOCK:   -0.61 KCAL/MOL
REMARK 927      BINDING AFFINITY PREDICTED BY RF-SCORE:    0.00 PKD
ROOT
HETATM    1 CL   UNL     1     -11.125  13.100  64.327  1.00  0.00    -0.401 Cl 
HETATM    2  C   UNL     1     -10.528  13.902  65.804  1.00  0.00    -0.307 C  
HETATM    3  C   UNL     1     -11.376  13.504  67.006  1.00  0.00    -0.324 C  
ENDROOT
BRANCH   3   4
HETATM    4  N   UNL     1     -10.949  14.166  68.244  1.00  0.00    -0.244 N  
BRANCH   4   5
HETATM    5  N   UNL     1      -9.749  13.804  68.867  1.00  0.00    -0.415 NA 
HETATM    6  H   UNL     1      -9.465  12.833  69.000  1.00  0.00     0.000 HD 
HETATM    7  O   UNL     1      -9.066  14.762  69.243  1.00  0.00    -0.355 OA 
HETATM    8  H   UNL     1      -8.252  14.517  69.666  1.00  0.00     0.000 HD 
ENDBRANCH   4   5
BRANCH   4   9
HETATM    9  C   UNL     1     -11.659  15.280  68.685  1.00  0.00    -0.354 C  
HETATM   10  O   UNL     1     -11.383  16.421  68.312  1.00  0.00    -0.350 OA 
BRANCH   9  11
HETATM   11  N   UNL     1     -12.669  15.045  69.599  1.00  0.00    -0.599 N  
HETATM   12  H   UNL     1     -13.608  15.387  69.396  1.00  0.00     0.000 HD 
BRANCH  11  13
HETATM   13  C   UNL     1     -12.433  14.321  70.847  1.00  0.00    -0.354 C  
HETATM   14  C   UNL     1     -11.440  15.041  71.768  1.00  0.00    -0.376 C  
HETATM   15  C   UNL     1     -12.019  16.300  72.414  1.00  0.00    -0.630 C  
HETATM   16  C   UNL     1     -13.371  16.067  73.080  1.00  0.00    -0.624 C  
HETATM   17  C   UNL     1     -14.358  15.312  72.195  1.00  0.00    -0.651 C  
HETATM   18  C   UNL     1     -13.750  14.052  71.582  1.00  0.00    -0.419 C  
ENDBRANCH  11  13
ENDBRANCH   9  11
ENDBRANCH   4   9
ENDBRANCH   3   4
TORSDOF 5
ENDMDL
MODEL       23
REMARK 921   NORMALIZED FREE ENERGY PREDICTED BY IDOCK:   -4.90 KCAL/MOL
REMARK 922        TOTAL FREE ENERGY PREDICTED BY IDOCK:   -6.93 KCAL/MOL
REMARK 923 INTER-LIGAND FREE ENERGY PREDICTED BY IDOCK:   -6.33 KCAL/MOL
REMARK 924 INTRA-LIGAND FREE ENERGY PREDICTED BY IDOCK:   -0.59 KCAL/MOL
REMARK 927      BINDING AFFINITY PREDICTED BY RF-SCORE:    0.00 PKD
ROOT
HETATM    1 CL   UNL     1     -13.369  16.001  73.555  1.00  0.00    -0.605 Cl 
HETATM    2  C   UNL     1     -13.095  15.594  71.841  1.00  0.00    -0.464 C  
HETATM    3  C   UNL     1     -11.700  16.030  71.407  1.00  0.00    -0.473 C  
ENDROOT
BRANCH   3   4
HETATM    4  N   UNL     1     -11.434  15.752  69.992  1.00  0.00    -0.328 N  
BRANCH   4   5
HETATM    5  N   UNL     1     -12.435  15.218  69.171  1.00  0.00    -0.602 NA 
HETATM    6  H   UNL     1     -13.415  15.172  69.451  1.00  0.00     0.000 HD 
HETATM    7  O   UNL     1     -12.028  14.806  68.080  1.00  0.00    -0.492 OA 
HETATM    8  H   UNL     1     -12.706  14.443  67.523  1.00  0.00     0.000 HD 
ENDBRANCH   4   5
BRANCH   4   9
HETATM    9  C   UNL     1     -10.237  16.197  69.435  1.00  0.00    -0.266 C  
HETATM   10  O   UNL     1      -9.214  15.511  69.448  1.00  0.00    -0.257 OA 
BRANCH   9  11
HETATM   11  N   UNL     1     -10.243  17.472  68.902  1.00  0.00    -0.358 N  
HETATM   12  H   UNL     1     -11.043  18.078  69.082  1.00  0.00     0.000 HD 
BRANCH  11  13
HETATM   13  C   UNL     1      -9.139  17.980  68.089  1.00  0.00    -0.276 C  
HETATM   14  C   UNL     1      -9.342  17.720  66.591  1.00  0.00    -0.296 C  
HETATM   15  C   UNL     1     -10.425  18.601  65.967  1.00  0.00    -0.456 C  
HETATM   16  C   UNL     1     -10.253  20.083  66.286  1.00  0.00    -0.595 C  
HETATM   17  C   UNL     1     -10.005  20.357  67.766  1.00  0.00    -0.477 C  
HETATM   18  C   UNL     1      -8.906  19.471  68.350  1.00  0.00    -0.389 C  
ENDBRANCH  11  13
ENDBRANCH   9  11
ENDBRANCH   4   9
ENDBRANCH   3   4
TORSDOF 5
ENDMDL
MODEL       24
REMARK 921   NORMALIZED FREE ENERGY PREDICTED BY IDOCK:   -4.89 KCAL/MOL
REMARK 922        TOTAL FREE ENERGY PREDICTED BY IDOCK:   -6.91 KCAL/MOL
REMARK 923 INTER-LIGAND FREE ENERGY PREDICTED BY IDOCK:   -6.27 KCAL/MOL
REMARK 924 INTRA-LIGAND FREE ENERGY PREDICTED BY IDOCK:   -0.64 KCAL/MOL
REMARK 927      BINDING AFFINITY PREDICTED BY RF-SCORE:    0.00 PKD
ROOT
HETATM    1 CL   UNL     1     -10.842  19.623  66.410  1.00  0.00    -0.504 Cl 
HETATM    2  C   UNL     1     -10.376  17.958  66.849  1.00  0.00    -0.355 C  
HETATM    3  C   UNL     1     -10.984  17.573  68.193  1.00  0.00    -0.124 C  
ENDROOT
BRANCH   3   4
HETATM    4  N   UNL     1     -10.601  16.223  68.620  1.00  0.00    -0.278 N  
BRANCH   4   5
HETATM    5  N   UNL     1      -9.351  15.988  69.204  1.00  0.00    -0.241 NA 
HETATM    6  H   UNL     1      -8.721  16.740  69.486  1.00  0.00     0.000 HD 
HETATM    7  O   UNL     1      -9.076  14.792  69.348  1.00  0.00    -0.388 OA 
HETATM    8  H   UNL     1      -8.228  14.633  69.744  1.00  0.00     0.000 HD 
ENDBRANCH   4   5
BRANCH   4   9
HETATM    9  C   UNL     1     -11.567  15.218  68.606  1.00  0.00    -0.354 C  
HETATM   10  O   UNL     1     -11.635  14.389  67.698  1.00  0.00    -0.332 OA 
BRANCH   9  11
HETATM   11  N   UNL     1     -12.475  15.223  69.648  1.00  0.00    -0.591 N  
HETATM   12  H   UNL     1     -13.315  15.796  69.567  1.00  0.00     0.000 HD 
BRANCH  11  13
HETATM   13  C   UNL     1     -12.270  14.433  70.861  1.00  0.00    -0.342 C  
HETATM   14  C   UNL     1     -11.415  15.165  71.903  1.00  0.00    -0.457 C  
HETATM   15  C   UNL     1     -12.148  16.323  72.581  1.00  0.00    -0.628 C  
HETATM   16  C   UNL     1     -13.520  15.932  73.121  1.00  0.00    -0.650 C  
HETATM   17  C   UNL     1     -14.369  15.164  72.112  1.00  0.00    -0.647 C  
HETATM   18  C   UNL     1     -13.610  14.006  71.469  1.00  0.00    -0.382 C  
ENDBRANCH  11  13
ENDBRANCH   9  11
ENDBRANCH   4   9
ENDBRANCH   3   4
TORSDOF 5
ENDMDL
MODEL       25
REMARK 921   NORMALIZED FREE ENERGY PREDICTED BY IDOCK:   -4.83 KCAL/MOL
REMARK 922        TOTAL FREE ENERGY PREDICTED BY IDOCK:   -6.84 KCAL/MOL
REMARK 923 INTER-LIGAND FREE ENERGY PREDICTED BY IDOCK:   -6.62 KCAL/MOL
REMARK 924 INTRA-LIGAND FREE ENERGY PREDICTED BY IDOCK:   -0.22 KCAL/MOL
REMARK 927      BINDING AFFINITY PREDICTED BY RF-SCORE:    0.00 PKD
ROOT
HETATM    1 CL   UNL     1     -10.214   6.874  71.429  1.00  0.00    -0.209 Cl 
HETATM    2  C   UNL     1     -11.627   7.914  71.112  1.00  0.00    -0.280 C  
HETATM    3  C   UNL     1     -11.617   9.123  72.041  1.00  0.00    -0.301 C  
ENDROOT
BRANCH   3   4
HETATM    4  N   UNL     1     -12.780   9.995  71.848  1.00  0.00    -0.405 N  
BRANCH   4   5
HETATM    5  N   UNL     1     -13.948   9.801  72.595  1.00  0.00    -0.611 NA 
HETATM    6  H   UNL     1     -14.774  10.391  72.496  1.00  0.00     0.000 HD 
HETATM    7  O   UNL     1     -13.890   8.853  73.386  1.00  0.00    -1.192 OA 
HETATM    8  H   UNL     1     -14.682   8.721  73.893  1.00  0.00     0.000 HD 
ENDBRANCH   4   5
BRANCH   4   9
HETATM    9  C   UNL     1     -12.641  11.127  71.048  1.00  0.00    -0.403 C  
HETATM   10  O   UNL     1     -12.440  11.050  69.835  1.00  0.00    -0.299 OA 
BRANCH   9  11
HETATM   11  N   UNL     1     -12.700  12.348  71.693  1.00  0.00    -0.250 N  
HETATM   12  H   UNL     1     -12.349  12.418  72.648  1.00  0.00     0.000 HD 
BRANCH  11  13
HETATM   13  C   UNL     1     -13.250  13.541  71.050  1.00  0.00    -0.076 C  
HETATM   14  C   UNL     1     -14.145  14.357  71.991  1.00  0.00    -0.620 C  
HETATM   15  C   UNL     1     -13.365  15.099  73.076  1.00  0.00    -0.586 C  
HETATM   16  C   UNL     1     -12.197  15.913  72.527  1.00  0.00    -0.597 C  
HETATM   17  C   UNL     1     -11.320  15.130  71.555  1.00  0.00    -0.388 C  
HETATM   18  C   UNL     1     -12.133  14.418  70.476  1.00  0.00    -0.404 C  
ENDBRANCH  11  13
ENDBRANCH   9  11
ENDBRANCH   4   9
ENDBRANCH   3   4
TORSDOF 5
ENDMDL
MODEL       26
REMARK 921   NORMALIZED FREE ENERGY PREDICTED BY IDOCK:   -4.83 KCAL/MOL
REMARK 922        TOTAL FREE ENERGY PREDICTED BY IDOCK:   -6.84 KCAL/MOL
REMARK 923 INTER-LIGAND FREE ENERGY PREDICTED BY IDOCK:   -6.29 KCAL/MOL
REMARK 924 INTRA-LIGAND FREE ENERGY PREDICTED BY IDOCK:   -0.55 KCAL/MOL
REMARK 927      BINDING AFFINITY PREDICTED BY RF-SCORE:    0.00 PKD
ROOT
HETATM    1 CL   UNL     1      -6.004  17.105  66.409  1.00  0.00    -0.229 Cl 
HETATM    2  C   UNL     1      -7.727  17.562  66.394  1.00  0.00    -0.297 C  
HETATM    3  C   UNL     1      -8.604  16.328  66.209  1.00  0.00    -0.339 C  
ENDROOT
BRANCH   3   4
HETATM    4  N   UNL     1     -10.033  16.652  66.152  1.00  0.00    -0.323 N  
BRANCH   4   5
HETATM    5  N   UNL     1     -10.641  17.372  67.187  1.00  0.00    -0.306 NA 
HETATM    6  H   UNL     1     -10.889  16.953  68.083  1.00  0.00     0.000 HD 
HETATM    7  O   UNL     1     -10.852  18.560  66.921  1.00  0.00    -0.337 OA 
HETATM    8  H   UNL     1     -11.265  19.049  67.622  1.00  0.00     0.000 HD 
ENDBRANCH   4   5
BRANCH   4   9
HETATM    9  C   UNL     1     -10.731  16.396  64.973  1.00  0.00    -0.259 C  
HETATM   10  O   UNL     1     -11.388  17.266  64.400  1.00  0.00    -1.052 OA 
BRANCH   9  11
HETATM   11  N   UNL     1     -10.682  15.099  64.500  1.00  0.00    -0.597 N  
HETATM   12  H   UNL     1      -9.801  14.741  64.131  1.00  0.00     0.000 HD 
BRANCH  11  13
HETATM   13  C   UNL     1     -11.853  14.223  64.511  1.00  0.00    -0.442 C  
HETATM   14  C   UNL     1     -11.543  12.818  63.979  1.00  0.00    -0.488 C  
HETATM   15  C   UNL     1     -10.702  11.980  64.941  1.00  0.00    -0.346 C  
HETATM   16  C   UNL     1     -11.255  11.958  66.363  1.00  0.00    -0.387 C  
HETATM   17  C   UNL     1     -11.611  13.344  66.893  1.00  0.00    -0.404 C  
HETATM   18  C   UNL     1     -12.466  14.145  65.913  1.00  0.00    -0.479 C  
ENDBRANCH  11  13
ENDBRANCH   9  11
ENDBRANCH   4   9
ENDBRANCH   3   4
TORSDOF 5
ENDMDL
MODEL       27
REMARK 921   NORMALIZED FREE ENERGY PREDICTED BY IDOCK:   -4.82 KCAL/MOL
REMARK 922        TOTAL FREE ENERGY PREDICTED BY IDOCK:   -6.82 KCAL/MOL
REMARK 923 INTER-LIGAND FREE ENERGY PREDICTED BY IDOCK:   -6.39 KCAL/MOL
REMARK 924 INTRA-LIGAND FREE ENERGY PREDICTED BY IDOCK:   -0.43 KCAL/MOL
REMARK 927      BINDING AFFINITY PREDICTED BY RF-SCORE:    0.00 PKD
ROOT
HETATM    1 CL   UNL     1     -10.051  10.113  65.900  1.00  0.00    -0.331 Cl 
HETATM    2  C   UNL     1     -10.440  11.821  65.571  1.00  0.00    -0.267 C  
HETATM    3  C   UNL     1     -11.757  12.205  66.236  1.00  0.00    -0.320 C  
ENDROOT
BRANCH   3   4
HETATM    4  N   UNL     1     -12.144  13.594  65.966  1.00  0.00    -0.414 N  
BRANCH   4   5
HETATM    5  N   UNL     1     -13.023  13.898  64.919  1.00  0.00    -0.713 NA 
HETATM    6  H   UNL     1     -13.944  13.469  64.827  1.00  0.00     0.000 HD 
HETATM    7  O   UNL     1     -12.586  14.730  64.117  1.00  0.00    -0.784 OA 
HETATM    8  H   UNL     1     -13.182  14.936  63.407  1.00  0.00     0.000 HD 
ENDBRANCH   4   5
BRANCH   4   9
HETATM    9  C   UNL     1     -11.772  14.581  66.876  1.00  0.00    -0.382 C  
HETATM   10  O   UNL     1     -10.997  15.490  66.575  1.00  0.00    -0.312 OA 
BRANCH   9  11
HETATM   11  N   UNL     1     -12.286  14.466  68.153  1.00  0.00    -0.590 N  
HETATM   12  H   UNL     1     -13.273  14.672  68.308  1.00  0.00     0.000 HD 
BRANCH  11  13
HETATM   13  C   UNL     1     -11.462  14.057  69.290  1.00  0.00    -0.295 C  
HETATM   14  C   UNL     1     -10.494  15.159  69.741  1.00  0.00    -0.248 C  
HETATM   15  C   UNL     1     -11.190  16.320  70.451  1.00  0.00    -0.336 C  
HETATM   16  C   UNL     1     -12.125  15.869  71.569  1.00  0.00    -0.533 C  
HETATM   17  C   UNL     1     -13.065  14.742  71.150  1.00  0.00    -0.443 C  
HETATM   18  C   UNL     1     -12.333  13.593  70.461  1.00  0.00    -0.425 C  
ENDBRANCH  11  13
ENDBRANCH   9  11
ENDBRANCH   4   9
ENDBRANCH   3   4
TORSDOF 5
ENDMDL
MODEL       28
REMARK 921   NORMALIZED FREE ENERGY PREDICTED BY IDOCK:   -4.78 KCAL/MOL
REMARK 922        TOTAL FREE ENERGY PREDICTED BY IDOCK:   -6.77 KCAL/MOL
REMARK 923 INTER-LIGAND FREE ENERGY PREDICTED BY IDOCK:   -6.09 KCAL/MOL
REMARK 924 INTRA-LIGAND FREE ENERGY PREDICTED BY IDOCK:   -0.68 KCAL/MOL
REMARK 927      BINDING AFFINITY PREDICTED BY RF-SCORE:    0.00 PKD
ROOT
HETATM    1 CL   UNL     1     -12.412  10.100  71.601  1.00  0.00    -0.501 Cl 
HETATM    2  C   UNL     1     -13.021  11.775  71.544  1.00  0.00    -0.341 C  
HETATM    3  C   UNL     1     -12.213  12.602  70.550  1.00  0.00    -0.299 C  
ENDROOT
BRANCH   3   4
HETATM    4  N   UNL     1     -12.650  14.001  70.491  1.00  0.00    -0.341 N  
BRANCH   4   5
HETATM    5  N   UNL     1     -13.658  14.468  71.342  1.00  0.00    -0.379 NA 
HETATM    6  H   UNL     1     -13.962  13.960  72.173  1.00  0.00     0.000 HD 
HETATM    7  O   UNL     1     -14.149  15.549  70.998  1.00  0.00    -0.810 OA 
HETATM    8  H   UNL     1     -14.834  15.866  71.575  1.00  0.00     0.000 HD 
ENDBRANCH   4   5
BRANCH   4   9
HETATM    9  C   UNL     1     -11.922  14.896  69.710  1.00  0.00    -0.323 C  
HETATM   10  O   UNL     1     -11.140  15.710  70.205  1.00  0.00    -0.276 OA 
BRANCH   9  11
HETATM   11  N   UNL     1     -12.153  14.854  68.349  1.00  0.00    -0.573 N  
HETATM   12  H   UNL     1     -13.104  14.980  68.005  1.00  0.00     0.000 HD 
BRANCH  11  13
HETATM   13  C   UNL     1     -11.076  14.633  67.385  1.00  0.00    -0.326 C  
HETATM   14  C   UNL     1     -10.556  13.189  67.402  1.00  0.00    -0.247 C  
HETATM   15  C   UNL     1     -11.534  12.187  66.790  1.00  0.00    -0.418 C  
HETATM   16  C   UNL     1     -12.045  12.608  65.415  1.00  0.00    -0.516 C  
HETATM   17  C   UNL     1     -12.525  14.055  65.367  1.00  0.00    -0.520 C  
HETATM   18  C   UNL     1     -11.515  15.029  65.972  1.00  0.00    -0.221 C  
ENDBRANCH  11  13
ENDBRANCH   9  11
ENDBRANCH   4   9
ENDBRANCH   3   4
TORSDOF 5
ENDMDL
MODEL       29
REMARK 921   NORMALIZED FREE ENERGY PREDICTED BY IDOCK:   -4.77 KCAL/MOL
REMARK 922        TOTAL FREE ENERGY PREDICTED BY IDOCK:   -6.75 KCAL/MOL
REMARK 923 INTER-LIGAND FREE ENERGY PREDICTED BY IDOCK:   -6.15 KCAL/MOL
REMARK 924 INTRA-LIGAND FREE ENERGY PREDICTED BY IDOCK:   -0.60 KCAL/MOL
REMARK 927      BINDING AFFINITY PREDICTED BY RF-SCORE:    0.00 PKD
ROOT
HETATM    1 CL   UNL     1      -8.547  10.041  65.149  1.00  0.00    -0.156 Cl 
HETATM    2  C   UNL     1     -10.170  10.732  64.889  1.00  0.00    -0.320 C  
HETATM    3  C   UNL     1     -10.112  11.855  63.859  1.00  0.00    -0.370 C  
ENDROOT
BRANCH   3   4
HETATM    4  N   UNL     1     -11.418  12.484  63.634  1.00  0.00    -0.457 N  
BRANCH   4   5
HETATM    5  N   UNL     1     -12.526  11.712  63.268  1.00  0.00    -0.900 NA 
HETATM    6  H   UNL     1     -12.544  11.128  62.431  1.00  0.00     0.000 HD 
HETATM    7  O   UNL     1     -13.482  11.798  64.046  1.00  0.00    -0.493 OA 
HETATM    8  H   UNL     1     -14.235  11.274  63.798  1.00  0.00     0.000 HD 
ENDBRANCH   4   5
BRANCH   4   9
HETATM    9  C   UNL     1     -11.580  13.827  63.968  1.00  0.00    -0.275 C  
HETATM   10  O   UNL     1     -12.572  14.471  63.625  1.00  0.00    -0.798 OA 
BRANCH   9  11
HETATM   11  N   UNL     1     -10.547  14.414  64.673  1.00  0.00    -0.588 N  
HETATM   12  H   UNL     1      -9.587  14.141  64.462  1.00  0.00     0.000 HD 
BRANCH  11  13
HETATM   13  C   UNL     1     -10.785  15.416  65.712  1.00  0.00    -0.351 C  
HETATM   14  C   UNL     1     -11.339  14.803  67.005  1.00  0.00    -0.358 C  
HETATM   15  C   UNL     1     -10.300  13.999  67.786  1.00  0.00    -0.236 C  
HETATM   16  C   UNL     1      -8.996  14.759  68.011  1.00  0.00    -0.174 C  
HETATM   17  C   UNL     1      -8.453  15.412  66.744  1.00  0.00    -0.307 C  
HETATM   18  C   UNL     1      -9.514  16.220  66.000  1.00  0.00    -0.369 C  
ENDBRANCH  11  13
ENDBRANCH   9  11
ENDBRANCH   4   9
ENDBRANCH   3   4
TORSDOF 5
ENDMDL
MODEL       30
REMARK 921   NORMALIZED FREE ENERGY PREDICTED BY IDOCK:   -4.76 KCAL/MOL
REMARK 922        TOTAL FREE ENERGY PREDICTED BY IDOCK:   -6.74 KCAL/MOL
REMARK 923 INTER-LIGAND FREE ENERGY PREDICTED BY IDOCK:   -6.21 KCAL/MOL
REMARK 924 INTRA-LIGAND FREE ENERGY PREDICTED BY IDOCK:   -0.53 KCAL/MOL
REMARK 927      BINDING AFFINITY PREDICTED BY RF-SCORE:    0.00 PKD
ROOT
HETATM    1 CL   UNL     1      -9.126  10.107  62.938  1.00  0.00    -0.266 Cl 
HETATM    2  C   UNL     1      -9.859  11.672  63.378  1.00  0.00    -0.404 C  
HETATM    3  C   UNL     1     -11.284  11.469  63.881  1.00  0.00    -0.355 C  
ENDROOT
BRANCH   3   4
HETATM    4  N   UNL     1     -11.948  12.732  64.223  1.00  0.00    -0.377 N  
BRANCH   4   5
HETATM    5  N   UNL     1     -12.452  13.566  63.219  1.00  0.00    -0.983 NA 
HETATM    6  H   UNL     1     -12.967  13.213  62.412  1.00  0.00     0.000 HD 
HETATM    7  O   UNL     1     -12.218  14.766  63.393  1.00  0.00    -0.865 OA 
HETATM    8  H   UNL     1     -12.560  15.333  62.712  1.00  0.00     0.000 HD 
ENDBRANCH   4   5
BRANCH   4   9
HETATM    9  C   UNL     1     -12.232  12.997  65.561  1.00  0.00    -0.469 C  
HETATM   10  O   UNL     1     -12.902  13.971  65.907  1.00  0.00    -0.484 OA 
BRANCH   9  11
HETATM   11  N   UNL     1     -11.687  12.130  66.489  1.00  0.00    -0.362 N  
HETATM   12  H   UNL     1     -11.800  11.126  66.353  1.00  0.00     0.000 HD 
BRANCH  11  13
HETATM   13  C   UNL     1     -10.953  12.607  67.661  1.00  0.00    -0.241 C  
HETATM   14  C   UNL     1     -11.796  12.564  68.942  1.00  0.00    -0.346 C  
HETATM   15  C   UNL     1     -12.033  11.146  69.462  1.00  0.00    -0.425 C  
HETATM   16  C   UNL     1     -10.752  10.325  69.576  1.00  0.00    -0.280 C  
HETATM   17  C   UNL     1      -9.879  10.392  68.327  1.00  0.00    -0.169 C  
HETATM   18  C   UNL     1      -9.650  11.824  67.848  1.00  0.00    -0.187 C  
ENDBRANCH  11  13
ENDBRANCH   9  11
ENDBRANCH   4   9
ENDBRANCH   3   4
TORSDOF 5
ENDMDL
MODEL       31
REMARK 921   NORMALIZED FREE ENERGY PREDICTED BY IDOCK:   -4.76 KCAL/MOL
REMARK 922        TOTAL FREE ENERGY PREDICTED BY IDOCK:   -6.74 KCAL/MOL
REMARK 923 INTER-LIGAND FREE ENERGY PREDICTED BY IDOCK:   -6.44 KCAL/MOL
REMARK 924 INTRA-LIGAND FREE ENERGY PREDICTED BY IDOCK:   -0.30 KCAL/MOL
REMARK 927      BINDING AFFINITY PREDICTED BY RF-SCORE:    0.00 PKD
ROOT
HETATM    1 CL   UNL     1      -8.990   8.406  72.006  1.00  0.00    -0.267 Cl 
HETATM    2  C   UNL     1     -10.545   9.167  71.580  1.00  0.00    -0.358 C  
HETATM    3  C   UNL     1     -10.414   9.955  70.280  1.00  0.00    -0.291 C  
ENDROOT
BRANCH   3   4
HETATM    4  N   UNL     1     -11.658  10.633  69.902  1.00  0.00    -0.289 N  
BRANCH   4   5
HETATM    5  N   UNL     1     -12.126  10.577  68.584  1.00  0.00    -0.791 NA 
HETATM    6  H   UNL     1     -12.508   9.728  68.166  1.00  0.00     0.000 HD 
HETATM    7  O   UNL     1     -12.037  11.646  67.970  1.00  0.00    -0.597 OA 
HETATM    8  H   UNL     1     -12.355  11.609  67.076  1.00  0.00     0.000 HD 
ENDBRANCH   4   5
BRANCH   4   9
HETATM    9  C   UNL     1     -12.457  11.174  70.907  1.00  0.00    -0.409 C  
HETATM   10  O   UNL     1     -13.381  10.541  71.420  1.00  0.00    -0.337 OA 
BRANCH   9  11
HETATM   11  N   UNL     1     -12.186  12.479  71.272  1.00  0.00    -0.241 N  
HETATM   12  H   UNL     1     -11.280  12.698  71.684  1.00  0.00     0.000 HD 
BRANCH  11  13
HETATM   13  C   UNL     1     -13.159  13.555  71.088  1.00  0.00    -0.212 C  
HETATM   14  C   UNL     1     -13.877  13.930  72.391  1.00  0.00    -0.668 C  
HETATM   15  C   UNL     1     -12.984  14.682  73.378  1.00  0.00    -0.483 C  
HETATM   16  C   UNL     1     -12.256  15.866  72.749  1.00  0.00    -0.604 C  
HETATM   17  C   UNL     1     -11.573  15.523  71.429  1.00  0.00    -0.481 C  
HETATM   18  C   UNL     1     -12.500  14.789  70.463  1.00  0.00    -0.411 C  
ENDBRANCH  11  13
ENDBRANCH   9  11
ENDBRANCH   4   9
ENDBRANCH   3   4
TORSDOF 5
ENDMDL
MODEL       32
REMARK 921   NORMALIZED FREE ENERGY PREDICTED BY IDOCK:   -4.74 KCAL/MOL
REMARK 922        TOTAL FREE ENERGY PREDICTED BY IDOCK:   -6.72 KCAL/MOL
REMARK 923 INTER-LIGAND FREE ENERGY PREDICTED BY IDOCK:   -6.06 KCAL/MOL
REMARK 924 INTRA-LIGAND FREE ENERGY PREDICTED BY IDOCK:   -0.66 KCAL/MOL
REMARK 927      BINDING AFFINITY PREDICTED BY RF-SCORE:    0.00 PKD
ROOT
HETATM    1 CL   UNL     1      -7.186  12.832  67.997  1.00  0.00    -0.101 Cl 
HETATM    2  C   UNL     1      -8.869  13.189  67.528  1.00  0.00    -0.199 C  
HETATM    3  C   UNL     1      -9.429  14.325  68.377  1.00  0.00    -0.213 C  
ENDROOT
BRANCH   3   4
HETATM    4  N   UNL     1     -10.826  14.635  68.058  1.00  0.00    -0.252 N  
BRANCH   4   5
HETATM    5  N   UNL     1     -11.572  13.787  67.229  1.00  0.00    -0.341 NA 
HETATM    6  H   UNL     1     -11.252  12.858  66.956  1.00  0.00     0.000 HD 
HETATM    7  O   UNL     1     -12.650  14.263  66.859  1.00  0.00    -0.565 OA 
HETATM    8  H   UNL     1     -13.156  13.688  66.297  1.00  0.00     0.000 HD 
ENDBRANCH   4   5
BRANCH   4   9
HETATM    9  C   UNL     1     -11.451  15.679  68.735  1.00  0.00    -0.376 C  
HETATM   10  O   UNL     1     -11.117  16.854  68.579  1.00  0.00    -0.327 OA 
BRANCH   9  11
HETATM   11  N   UNL     1     -12.445  15.325  69.628  1.00  0.00    -0.591 N  
HETATM   12  H   UNL     1     -13.399  15.641  69.456  1.00  0.00     0.000 HD 
BRANCH  11  13
HETATM   13  C   UNL     1     -12.172  14.512  70.812  1.00  0.00    -0.333 C  
HETATM   14  C   UNL     1     -11.293  15.240  71.837  1.00  0.00    -0.447 C  
HETATM   15  C   UNL     1     -12.026  16.361  72.573  1.00  0.00    -0.579 C  
HETATM   16  C   UNL     1     -13.365  15.923  73.157  1.00  0.00    -0.681 C  
HETATM   17  C   UNL     1     -14.235  15.158  72.165  1.00  0.00    -0.656 C  
HETATM   18  C   UNL     1     -13.474  14.035  71.462  1.00  0.00    -0.404 C  
ENDBRANCH  11  13
ENDBRANCH   9  11
ENDBRANCH   4   9
ENDBRANCH   3   4
TORSDOF 5
ENDMDL
MODEL       33
REMARK 921   NORMALIZED FREE ENERGY PREDICTED BY IDOCK:   -4.73 KCAL/MOL
REMARK 922        TOTAL FREE ENERGY PREDICTED BY IDOCK:   -6.71 KCAL/MOL
REMARK 923 INTER-LIGAND FREE ENERGY PREDICTED BY IDOCK:   -6.40 KCAL/MOL
REMARK 924 INTRA-LIGAND FREE ENERGY PREDICTED BY IDOCK:   -0.30 KCAL/MOL
REMARK 927      BINDING AFFINITY PREDICTED BY RF-SCORE:    0.00 PKD
ROOT
HETATM    1 CL   UNL     1     -11.883  12.827  68.768  1.00  0.00    -0.350 Cl 
HETATM    2  C   UNL     1     -10.764  13.555  67.586  1.00  0.00    -0.248 C  
HETATM    3  C   UNL     1     -11.500  14.559  66.704  1.00  0.00    -0.366 C  
ENDROOT
BRANCH   3   4
HETATM    4  N   UNL     1     -10.632  15.161  65.688  1.00  0.00    -0.331 N  
BRANCH   4   5
HETATM    5  N   UNL     1     -11.115  15.415  64.398  1.00  0.00    -0.700 NA 
HETATM    6  H   UNL     1     -11.374  14.674  63.747  1.00  0.00     0.000 HD 
HETATM    7  O   UNL     1     -11.201  16.616  64.118  1.00  0.00    -1.410 OA 
HETATM    8  H   UNL     1     -11.529  16.788  63.243  1.00  0.00     0.000 HD 
ENDBRANCH   4   5
BRANCH   4   9
HETATM    9  C   UNL     1      -9.384  15.645  66.075  1.00  0.00    -0.349 C  
HETATM   10  O   UNL     1      -8.423  14.898  66.265  1.00  0.00    -0.012 OA 
BRANCH   9  11
HETATM   11  N   UNL     1      -9.288  17.009  66.275  1.00  0.00    -0.262 N  
HETATM   12  H   UNL     1      -9.128  17.616  65.471  1.00  0.00     0.000 HD 
BRANCH  11  13
HETATM   13  C   UNL     1      -9.407  17.610  67.603  1.00  0.00    -0.246 C  
HETATM   14  C   UNL     1      -8.190  18.468  67.973  1.00  0.00    -0.286 C  
HETATM   15  C   UNL     1      -8.123  19.785  67.202  1.00  0.00    -0.327 C  
HETATM   16  C   UNL     1      -9.429  20.573  67.242  1.00  0.00    -0.559 C  
HETATM   17  C   UNL     1     -10.656  19.726  66.919  1.00  0.00    -0.588 C  
HETATM   18  C   UNL     1     -10.697  18.427  67.721  1.00  0.00    -0.371 C  
ENDBRANCH  11  13
ENDBRANCH   9  11
ENDBRANCH   4   9
ENDBRANCH   3   4
TORSDOF 5
ENDMDL
MODEL       34
REMARK 921   NORMALIZED FREE ENERGY PREDICTED BY IDOCK:   -4.70 KCAL/MOL
REMARK 922        TOTAL FREE ENERGY PREDICTED BY IDOCK:   -6.67 KCAL/MOL
REMARK 923 INTER-LIGAND FREE ENERGY PREDICTED BY IDOCK:   -6.29 KCAL/MOL
REMARK 924 INTRA-LIGAND FREE ENERGY PREDICTED BY IDOCK:   -0.38 KCAL/MOL
REMARK 927      BINDING AFFINITY PREDICTED BY RF-SCORE:    0.00 PKD
ROOT
HETATM    1 CL   UNL     1      -9.884  12.051  66.647  1.00  0.00    -0.213 Cl 
HETATM    2  C   UNL     1     -10.267  11.158  68.141  1.00  0.00    -0.181 C  
HETATM    3  C   UNL     1     -11.600  11.627  68.715  1.00  0.00    -0.313 C  
ENDROOT
BRANCH   3   4
HETATM    4  N   UNL     1     -11.946  10.949  69.968  1.00  0.00    -0.320 N  
BRANCH   4   5
HETATM    5  N   UNL     1     -11.569   9.618  70.186  1.00  0.00    -0.403 NA 
HETATM    6  H   UNL     1     -10.641   9.261  69.957  1.00  0.00     0.000 HD 
HETATM    7  O   UNL     1     -12.457   8.914  70.678  1.00  0.00    -0.493 OA 
HETATM    8  H   UNL     1     -12.201   8.012  70.825  1.00  0.00     0.000 HD 
ENDBRANCH   4   5
BRANCH   4   9
HETATM    9  C   UNL     1     -12.491  11.700  71.007  1.00  0.00    -0.334 C  
HETATM   10  O   UNL     1     -13.256  11.209  71.839  1.00  0.00    -0.470 OA 
BRANCH   9  11
HETATM   11  N   UNL     1     -12.162  13.042  71.035  1.00  0.00    -0.421 N  
HETATM   12  H   UNL     1     -11.178  13.309  71.011  1.00  0.00     0.000 HD 
BRANCH  11  13
HETATM   13  C   UNL     1     -13.179  14.091  71.097  1.00  0.00    -0.267 C  
HETATM   14  C   UNL     1     -13.711  14.312  72.518  1.00  0.00    -0.608 C  
HETATM   15  C   UNL     1     -12.706  15.003  73.439  1.00  0.00    -0.654 C  
HETATM   16  C   UNL     1     -12.107  16.269  72.834  1.00  0.00    -0.625 C  
HETATM   17  C   UNL     1     -11.613  16.080  71.404  1.00  0.00    -0.520 C  
HETATM   18  C   UNL     1     -12.650  15.403  70.510  1.00  0.00    -0.471 C  
ENDBRANCH  11  13
ENDBRANCH   9  11
ENDBRANCH   4   9
ENDBRANCH   3   4
TORSDOF 5
ENDMDL
MODEL       35
REMARK 921   NORMALIZED FREE ENERGY PREDICTED BY IDOCK:   -4.70 KCAL/MOL
REMARK 922        TOTAL FREE ENERGY PREDICTED BY IDOCK:   -6.67 KCAL/MOL
REMARK 923 INTER-LIGAND FREE ENERGY PREDICTED BY IDOCK:   -6.14 KCAL/MOL
REMARK 924 INTRA-LIGAND FREE ENERGY PREDICTED BY IDOCK:   -0.52 KCAL/MOL
REMARK 927      BINDING AFFINITY PREDICTED BY RF-SCORE:    0.00 PKD
ROOT
HETATM    1 CL   UNL     1     -13.026  13.993  71.262  1.00  0.00    -0.410 Cl 
HETATM    2  C   UNL     1     -13.222  12.440  72.116  1.00  0.00    -0.385 C  
HETATM    3  C   UNL     1     -12.874  11.278  71.192  1.00  0.00    -0.352 C  
ENDROOT
BRANCH   3   4
HETATM    4  N   UNL     1     -13.054   9.971  71.834  1.00  0.00    -0.442 N  
BRANCH   4   5
HETATM    5  N   UNL     1     -14.282   9.625  72.411  1.00  0.00    -0.435 NA 
HETATM    6  H   UNL     1     -15.177   9.958  72.052  1.00  0.00     0.000 HD 
HETATM    7  O   UNL     1     -14.187   8.882  73.394  1.00  0.00    -1.241 OA 
HETATM    8  H   UNL     1     -15.019   8.647  73.785  1.00  0.00     0.000 HD 
ENDBRANCH   4   5
BRANCH   4   9
HETATM    9  C   UNL     1     -12.050   9.015  71.699  1.00  0.00    -0.352 C  
HETATM   10  O   UNL     1     -11.467   8.536  72.672  1.00  0.00    -0.351 OA 
BRANCH   9  11
HETATM   11  N   UNL     1     -11.710   8.659  70.407  1.00  0.00    -0.472 N  
HETATM   12  H   UNL     1     -12.413   8.738  69.673  1.00  0.00     0.000 HD 
BRANCH  11  13
HETATM   13  C   UNL     1     -10.375   8.172  70.061  1.00  0.00    -0.215 C  
HETATM   14  C   UNL     1     -10.325   6.647  69.910  1.00  0.00    -0.232 C  
HETATM   15  C   UNL     1     -11.018   6.142  68.644  1.00  0.00    -0.415 C  
HETATM   16  C   UNL     1     -10.568   6.871  67.381  1.00  0.00    -0.373 C  
HETATM   17  C   UNL     1     -10.569   8.389  67.528  1.00  0.00    -0.285 C  
HETATM   18  C   UNL     1      -9.854   8.856  68.794  1.00  0.00    -0.182 C  
ENDBRANCH  11  13
ENDBRANCH   9  11
ENDBRANCH   4   9
ENDBRANCH   3   4
TORSDOF 5
ENDMDL
MODEL       36
REMARK 921   NORMALIZED FREE ENERGY PREDICTED BY IDOCK:   -4.67 KCAL/MOL
REMARK 922        TOTAL FREE ENERGY PREDICTED BY IDOCK:   -6.62 KCAL/MOL
REMARK 923 INTER-LIGAND FREE ENERGY PREDICTED BY IDOCK:   -6.24 KCAL/MOL
REMARK 924 INTRA-LIGAND FREE ENERGY PREDICTED BY IDOCK:   -0.38 KCAL/MOL
REMARK 927      BINDING AFFINITY PREDICTED BY RF-SCORE:    0.00 PKD
ROOT
HETATM    1 CL   UNL     1     -11.196  11.351  63.554  1.00  0.00    -0.425 Cl 
HETATM    2  C   UNL     1     -10.372  12.830  64.113  1.00  0.00    -0.376 C  
HETATM    3  C   UNL     1     -11.392  13.863  64.580  1.00  0.00    -0.372 C  
ENDROOT
BRANCH   3   4
HETATM    4  N   UNL     1     -10.769  15.117  65.017  1.00  0.00    -0.416 N  
BRANCH   4   5
HETATM    5  N   UNL     1     -11.058  16.321  64.365  1.00  0.00    -1.111 NA 
HETATM    6  H   UNL     1     -10.521  17.176  64.515  1.00  0.00     0.000 HD 
HETATM    7  O   UNL     1     -12.020  16.260  63.592  1.00  0.00    -1.356 OA 
HETATM    8  H   UNL     1     -12.216  17.077  63.150  1.00  0.00     0.000 HD 
ENDBRANCH   4   5
BRANCH   4   9
HETATM    9  C   UNL     1     -10.033  15.120  66.200  1.00  0.00    -0.295 C  
HETATM   10  O   UNL     1     -10.461  14.614  67.238  1.00  0.00    -0.262 OA 
BRANCH   9  11
HETATM   11  N   UNL     1      -8.809  15.760  66.161  1.00  0.00    -0.338 N  
HETATM   12  H   UNL     1      -8.142  15.505  65.433  1.00  0.00     0.000 HD 
BRANCH  11  13
HETATM   13  C   UNL     1      -8.439  16.791  67.131  1.00  0.00    -0.186 C  
HETATM   14  C   UNL     1      -7.233  16.388  67.989  1.00  0.00    -0.145 C  
HETATM   15  C   UNL     1      -5.912  16.404  67.219  1.00  0.00    -0.193 C  
HETATM   16  C   UNL     1      -5.678  17.702  66.453  1.00  0.00    -0.241 C  
HETATM   17  C   UNL     1      -6.884  18.143  65.629  1.00  0.00    -0.241 C  
HETATM   18  C   UNL     1      -8.181  18.131  66.435  1.00  0.00    -0.282 C  
ENDBRANCH  11  13
ENDBRANCH   9  11
ENDBRANCH   4   9
ENDBRANCH   3   4
TORSDOF 5
ENDMDL
MODEL       37
REMARK 921   NORMALIZED FREE ENERGY PREDICTED BY IDOCK:   -4.66 KCAL/MOL
REMARK 922        TOTAL FREE ENERGY PREDICTED BY IDOCK:   -6.62 KCAL/MOL
REMARK 923 INTER-LIGAND FREE ENERGY PREDICTED BY IDOCK:   -6.00 KCAL/MOL
REMARK 924 INTRA-LIGAND FREE ENERGY PREDICTED BY IDOCK:   -0.62 KCAL/MOL
REMARK 927      BINDING AFFINITY PREDICTED BY RF-SCORE:    0.00 PKD
ROOT
HETATM    1 CL   UNL     1     -11.765  12.201  64.241  1.00  0.00    -0.437 Cl 
HETATM    2  C   UNL     1     -10.888  12.508  65.763  1.00  0.00    -0.276 C  
HETATM    3  C   UNL     1     -11.869  12.791  66.895  1.00  0.00    -0.371 C  
ENDROOT
BRANCH   3   4
HETATM    4  N   UNL     1     -11.197  13.087  68.165  1.00  0.00    -0.256 N  
BRANCH   4   5
HETATM    5  N   UNL     1     -10.221  14.088  68.237  1.00  0.00    -0.242 NA 
HETATM    6  H   UNL     1     -10.272  14.952  67.696  1.00  0.00     0.000 HD 
HETATM    7  O   UNL     1      -9.292  13.835  69.012  1.00  0.00    -0.399 OA 
HETATM    8  H   UNL     1      -8.630  14.513  69.061  1.00  0.00     0.000 HD 
ENDBRANCH   4   5
BRANCH   4   9
HETATM    9  C   UNL     1     -11.673  12.489  69.329  1.00  0.00    -0.321 C  
HETATM   10  O   UNL     1     -11.989  11.299  69.372  1.00  0.00    -0.310 OA 
BRANCH   9  11
HETATM   11  N   UNL     1     -11.814  13.312  70.430  1.00  0.00    -0.536 N  
HETATM   12  H   UNL     1     -11.084  13.313  71.142  1.00  0.00     0.000 HD 
BRANCH  11  13
HETATM   13  C   UNL     1     -12.977  14.181  70.608  1.00  0.00    -0.228 C  
HETATM   14  C   UNL     1     -13.727  13.902  71.916  1.00  0.00    -0.521 C  
HETATM   15  C   UNL     1     -12.973  14.379  73.158  1.00  0.00    -0.517 C  
HETATM   16  C   UNL     1     -12.496  15.825  73.054  1.00  0.00    -0.581 C  
HETATM   17  C   UNL     1     -11.786  16.132  71.739  1.00  0.00    -0.581 C  
HETATM   18  C   UNL     1     -12.576  15.657  70.521  1.00  0.00    -0.423 C  
ENDBRANCH  11  13
ENDBRANCH   9  11
ENDBRANCH   4   9
ENDBRANCH   3   4
TORSDOF 5
ENDMDL
MODEL       38
REMARK 921   NORMALIZED FREE ENERGY PREDICTED BY IDOCK:   -4.66 KCAL/MOL
REMARK 922        TOTAL FREE ENERGY PREDICTED BY IDOCK:   -6.62 KCAL/MOL
REMARK 923 INTER-LIGAND FREE ENERGY PREDICTED BY IDOCK:   -6.01 KCAL/MOL
REMARK 924 INTRA-LIGAND FREE ENERGY PREDICTED BY IDOCK:   -0.61 KCAL/MOL
REMARK 927      BINDING AFFINITY PREDICTED BY RF-SCORE:    0.00 PKD
ROOT
HETATM    1 CL   UNL     1     -12.394  15.581  74.239  1.00  0.00    -0.790 Cl 
HETATM    2  C   UNL     1     -12.454  15.905  72.486  1.00  0.00    -0.477 C  
HETATM    3  C   UNL     1     -12.432  14.598  71.702  1.00  0.00    -0.345 C  
ENDROOT
BRANCH   3   4
HETATM    4  N   UNL     1     -12.442  14.808  70.251  1.00  0.00    -0.344 N  
BRANCH   4   5
HETATM    5  N   UNL     1     -12.633  16.089  69.718  1.00  0.00    -0.529 NA 
HETATM    6  H   UNL     1     -13.526  16.581  69.766  1.00  0.00     0.000 HD 
HETATM    7  O   UNL     1     -11.628  16.571  69.185  1.00  0.00    -0.205 OA 
HETATM    8  H   UNL     1     -11.758  17.439  68.824  1.00  0.00     0.000 HD 
ENDBRANCH   4   5
BRANCH   4   9
HETATM    9  C   UNL     1     -12.075  13.752  69.419  1.00  0.00    -0.328 C  
HETATM   10  O   UNL     1     -11.561  12.723  69.857  1.00  0.00    -0.260 OA 
BRANCH   9  11
HETATM   11  N   UNL     1     -12.281  13.936  68.065  1.00  0.00    -0.489 N  
HETATM   12  H   UNL     1     -13.061  14.516  67.759  1.00  0.00     0.000 HD 
BRANCH  11  13
HETATM   13  C   UNL     1     -11.415  13.324  67.057  1.00  0.00    -0.339 C  
HETATM   14  C   UNL     1     -12.152  13.041  65.741  1.00  0.00    -0.510 C  
HETATM   15  C   UNL     1     -12.467  14.305  64.942  1.00  0.00    -0.403 C  
HETATM   16  C   UNL     1     -11.257  15.215  64.752  1.00  0.00    -0.396 C  
HETATM   17  C   UNL     1     -10.486  15.471  66.043  1.00  0.00    -0.335 C  
HETATM   18  C   UNL     1     -10.174  14.185  66.805  1.00  0.00    -0.262 C  
ENDBRANCH  11  13
ENDBRANCH   9  11
ENDBRANCH   4   9
ENDBRANCH   3   4
TORSDOF 5
ENDMDL
MODEL       39
REMARK 921   NORMALIZED FREE ENERGY PREDICTED BY IDOCK:   -4.64 KCAL/MOL
REMARK 922        TOTAL FREE ENERGY PREDICTED BY IDOCK:   -6.59 KCAL/MOL
REMARK 923 INTER-LIGAND FREE ENERGY PREDICTED BY IDOCK:   -6.02 KCAL/MOL
REMARK 924 INTRA-LIGAND FREE ENERGY PREDICTED BY IDOCK:   -0.57 KCAL/MOL
REMARK 927      BINDING AFFINITY PREDICTED BY RF-SCORE:    0.00 PKD
ROOT
HETATM    1 CL   UNL     1      -9.580  10.711  63.039  1.00  0.00    -0.351 Cl 
HETATM    2  C   UNL     1     -10.982  11.721  63.482  1.00  0.00    -0.424 C  
HETATM    3  C   UNL     1     -10.517  13.035  64.099  1.00  0.00    -0.372 C  
ENDROOT
BRANCH   3   4
HETATM    4  N   UNL     1     -11.633  13.890  64.517  1.00  0.00    -0.382 N  
BRANCH   4   5
HETATM    5  N   UNL     1     -12.809  13.327  65.026  1.00  0.00    -0.727 NA 
HETATM    6  H   UNL     1     -13.019  12.331  64.963  1.00  0.00     0.000 HD 
HETATM    7  O   UNL     1     -13.571  14.142  65.557  1.00  0.00    -0.685 OA 
HETATM    8  H   UNL     1     -14.369  13.761  65.902  1.00  0.00     0.000 HD 
ENDBRANCH   4   5
BRANCH   4   9
HETATM    9  C   UNL     1     -11.435  15.268  64.573  1.00  0.00    -0.315 C  
HETATM   10  O   UNL     1     -12.218  16.063  64.052  1.00  0.00    -0.792 OA 
BRANCH   9  11
HETATM   11  N   UNL     1     -10.288  15.700  65.211  1.00  0.00    -0.386 N  
HETATM   12  H   UNL     1      -9.415  15.736  64.686  1.00  0.00     0.000 HD 
BRANCH  11  13
HETATM   13  C   UNL     1     -10.286  16.106  66.616  1.00  0.00    -0.296 C  
HETATM   14  C   UNL     1      -9.143  15.465  67.413  1.00  0.00    -0.206 C  
HETATM   15  C   UNL     1      -7.770  16.043  67.073  1.00  0.00    -0.264 C  
HETATM   16  C   UNL     1      -7.731  17.568  67.117  1.00  0.00    -0.228 C  
HETATM   17  C   UNL     1      -8.886  18.223  66.366  1.00  0.00    -0.256 C  
HETATM   18  C   UNL     1     -10.242  17.632  66.745  1.00  0.00    -0.335 C  
ENDBRANCH  11  13
ENDBRANCH   9  11
ENDBRANCH   4   9
ENDBRANCH   3   4
TORSDOF 5
ENDMDL
MODEL       40
REMARK 921   NORMALIZED FREE ENERGY PREDICTED BY IDOCK:   -4.64 KCAL/MOL
REMARK 922        TOTAL FREE ENERGY PREDICTED BY IDOCK:   -6.58 KCAL/MOL
REMARK 923 INTER-LIGAND FREE ENERGY PREDICTED BY IDOCK:   -6.08 KCAL/MOL
REMARK 924 INTRA-LIGAND FREE ENERGY PREDICTED BY IDOCK:   -0.51 KCAL/MOL
REMARK 927      BINDING AFFINITY PREDICTED BY RF-SCORE:    0.00 PKD
ROOT
HETATM    1 CL   UNL     1     -12.895  14.085  65.235  1.00  0.00    -0.481 Cl 
HETATM    2  C   UNL     1     -12.174  13.640  66.804  1.00  0.00    -0.369 C  
HETATM    3  C   UNL     1     -11.156  14.690  67.239  1.00  0.00    -0.328 C  
ENDROOT
BRANCH   3   4
HETATM    4  N   UNL     1     -10.505  14.354  68.509  1.00  0.00    -0.247 N  
BRANCH   4   5
HETATM    5  N   UNL     1     -10.059  13.050  68.757  1.00  0.00    -0.423 NA 
HETATM    6  H   UNL     1      -9.181  12.685  68.388  1.00  0.00     0.000 HD 
HETATM    7  O   UNL     1     -10.822  12.381  69.462  1.00  0.00    -0.457 OA 
HETATM    8  H   UNL     1     -10.520  11.496  69.631  1.00  0.00     0.000 HD 
ENDBRANCH   4   5
BRANCH   4   9
HETATM    9  C   UNL     1     -10.171  15.386  69.383  1.00  0.00    -0.262 C  
HETATM   10  O   UNL     1      -9.442  16.320  69.045  1.00  0.00    -0.239 OA 
BRANCH   9  11
HETATM   11  N   UNL     1     -10.668  15.289  70.668  1.00  0.00    -0.503 N  
HETATM   12  H   UNL     1     -10.159  14.730  71.353  1.00  0.00     0.000 HD 
BRANCH  11  13
HETATM   13  C   UNL     1     -11.901  15.960  71.078  1.00  0.00    -0.428 C  
HETATM   14  C   UNL     1     -13.159  15.208  70.627  1.00  0.00    -0.385 C  
HETATM   15  C   UNL     1     -13.406  13.919  71.411  1.00  0.00    -0.363 C  
HETATM   16  C   UNL     1     -13.351  14.114  72.923  1.00  0.00    -0.532 C  
HETATM   17  C   UNL     1     -12.127  14.899  73.386  1.00  0.00    -0.408 C  
HETATM   18  C   UNL     1     -11.924  16.188  72.593  1.00  0.00    -0.653 C  
ENDBRANCH  11  13
ENDBRANCH   9  11
ENDBRANCH   4   9
ENDBRANCH   3   4
TORSDOF 5
ENDMDL
MODEL       41
REMARK 921   NORMALIZED FREE ENERGY PREDICTED BY IDOCK:   -4.63 KCAL/MOL
REMARK 922        TOTAL FREE ENERGY PREDICTED BY IDOCK:   -6.58 KCAL/MOL
REMARK 923 INTER-LIGAND FREE ENERGY PREDICTED BY IDOCK:   -6.02 KCAL/MOL
REMARK 924 INTRA-LIGAND FREE ENERGY PREDICTED BY IDOCK:   -0.56 KCAL/MOL
REMARK 927      BINDING AFFINITY PREDICTED BY RF-SCORE:    0.00 PKD
ROOT
HETATM    1 CL   UNL     1     -12.193  12.999  63.342  1.00  0.00    -0.607 Cl 
HETATM    2  C   UNL     1     -11.910  12.268  64.944  1.00  0.00    -0.358 C  
HETATM    3  C   UNL     1     -12.278  13.252  66.050  1.00  0.00    -0.424 C  
ENDROOT
BRANCH   3   4
HETATM    4  N   UNL     1     -12.029  12.714  67.392  1.00  0.00    -0.319 N  
BRANCH   4   5
HETATM    5  N   UNL     1     -11.614  11.387  67.561  1.00  0.00    -0.558 NA 
HETATM    6  H   UNL     1     -10.816  10.989  67.067  1.00  0.00     0.000 HD 
HETATM    7  O   UNL     1     -12.300  10.741  68.360  1.00  0.00    -0.813 OA 
HETATM    8  H   UNL     1     -12.020   9.841  68.475  1.00  0.00     0.000 HD 
ENDBRANCH   4   5
BRANCH   4   9
HETATM    9  C   UNL     1     -12.032  13.590  68.475  1.00  0.00    -0.344 C  
HETATM   10  O   UNL     1     -12.135  13.193  69.637  1.00  0.00    -0.301 OA 
BRANCH   9  11
HETATM   11  N   UNL     1     -11.954  14.937  68.177  1.00  0.00    -0.545 N  
HETATM   12  H   UNL     1     -12.756  15.393  67.742  1.00  0.00     0.000 HD 
BRANCH  11  13
HETATM   13  C   UNL     1     -10.759  15.729  68.465  1.00  0.00    -0.274 C  
HETATM   14  C   UNL     1      -9.466  14.916  68.323  1.00  0.00    -0.210 C  
HETATM   15  C   UNL     1      -9.108  14.600  66.871  1.00  0.00    -0.272 C  
HETATM   16  C   UNL     1      -9.131  15.826  65.964  1.00  0.00    -0.361 C  
HETATM   17  C   UNL     1     -10.391  16.671  66.124  1.00  0.00    -0.340 C  
HETATM   18  C   UNL     1     -10.707  16.982  67.585  1.00  0.00    -0.295 C  
ENDBRANCH  11  13
ENDBRANCH   9  11
ENDBRANCH   4   9
ENDBRANCH   3   4
TORSDOF 5
ENDMDL
MODEL       42
REMARK 921   NORMALIZED FREE ENERGY PREDICTED BY IDOCK:   -4.63 KCAL/MOL
REMARK 922        TOTAL FREE ENERGY PREDICTED BY IDOCK:   -6.57 KCAL/MOL
REMARK 923 INTER-LIGAND FREE ENERGY PREDICTED BY IDOCK:   -6.01 KCAL/MOL
REMARK 924 INTRA-LIGAND FREE ENERGY PREDICTED BY IDOCK:   -0.56 KCAL/MOL
REMARK 927      BINDING AFFINITY PREDICTED BY RF-SCORE:    0.00 PKD
ROOT
HETATM    1 CL   UNL     1      -9.085   6.789  72.097  1.00  0.00    -0.137 Cl 
HETATM    2  C   UNL     1     -10.676   7.346  71.517  1.00  0.00    -0.222 C  
HETATM    3  C   UNL     1     -11.231   8.425  72.441  1.00  0.00    -0.368 C  
ENDROOT
BRANCH   3   4
HETATM    4  N   UNL     1     -12.559   8.894  72.029  1.00  0.00    -0.366 N  
BRANCH   4   5
HETATM    5  N   UNL     1     -13.714   8.239  72.472  1.00  0.00    -0.590 NA 
HETATM    6  H   UNL     1     -14.063   7.380  72.047  1.00  0.00     0.000 HD 
HETATM    7  O   UNL     1     -14.275   8.793  73.424  1.00  0.00    -1.173 OA 
HETATM    8  H   UNL     1     -15.059   8.349  73.725  1.00  0.00     0.000 HD 
ENDBRANCH   4   5
BRANCH   4   9
HETATM    9  C   UNL     1     -12.658  10.104  71.345  1.00  0.00    -0.422 C  
HETATM   10  O   UNL     1     -13.159  11.105  71.857  1.00  0.00    -0.488 OA 
BRANCH   9  11
HETATM   11  N   UNL     1     -12.202  10.112  70.041  1.00  0.00    -0.494 N  
HETATM   12  H   UNL     1     -12.772   9.677  69.316  1.00  0.00     0.000 HD 
BRANCH  11  13
HETATM   13  C   UNL     1     -10.928  10.725  69.667  1.00  0.00    -0.264 C  
HETATM   14  C   UNL     1     -10.127   9.865  68.681  1.00  0.00    -0.191 C  
HETATM   15  C   UNL     1     -10.721   9.849  67.273  1.00  0.00    -0.304 C  
HETATM   16  C   UNL     1     -11.016  11.243  66.728  1.00  0.00    -0.339 C  
HETATM   17  C   UNL     1     -11.774  12.128  67.713  1.00  0.00    -0.390 C  
HETATM   18  C   UNL     1     -11.142  12.133  69.103  1.00  0.00    -0.263 C  
ENDBRANCH  11  13
ENDBRANCH   9  11
ENDBRANCH   4   9
ENDBRANCH   3   4
TORSDOF 5
ENDMDL
MODEL       43
REMARK 921   NORMALIZED FREE ENERGY PREDICTED BY IDOCK:   -4.61 KCAL/MOL
REMARK 922        TOTAL FREE ENERGY PREDICTED BY IDOCK:   -6.56 KCAL/MOL
REMARK 923 INTER-LIGAND FREE ENERGY PREDICTED BY IDOCK:   -6.21 KCAL/MOL
REMARK 924 INTRA-LIGAND FREE ENERGY PREDICTED BY IDOCK:   -0.35 KCAL/MOL
REMARK 927      BINDING AFFINITY PREDICTED BY RF-SCORE:    0.00 PKD
ROOT
HETATM    1 CL   UNL     1      -9.249  17.439  68.218  1.00  0.00    -0.263 Cl 
HETATM    2  C   UNL     1     -10.475  16.897  67.042  1.00  0.00    -0.281 C  
HETATM    3  C   UNL     1      -9.964  15.692  66.259  1.00  0.00    -0.295 C  
ENDROOT
BRANCH   3   4
HETATM    4  N   UNL     1     -10.921  15.227  65.250  1.00  0.00    -0.372 N  
BRANCH   4   5
HETATM    5  N   UNL     1     -11.146  15.971  64.086  1.00  0.00    -1.068 NA 
HETATM    6  H   UNL     1     -10.403  16.467  63.593  1.00  0.00     0.000 HD 
HETATM    7  O   UNL     1     -12.322  15.975  63.707  1.00  0.00    -1.167 OA 
HETATM    8  H   UNL     1     -12.475  16.480  62.918  1.00  0.00     0.000 HD 
ENDBRANCH   4   5
BRANCH   4   9
HETATM    9  C   UNL     1     -11.461  13.949  65.379  1.00  0.00    -0.312 C  
HETATM   10  O   UNL     1     -12.626  13.764  65.736  1.00  0.00    -0.484 OA 
BRANCH   9  11
HETATM   11  N   UNL     1     -10.608  12.892  65.125  1.00  0.00    -0.294 N  
HETATM   12  H   UNL     1     -10.633  12.447  64.208  1.00  0.00     0.000 HD 
BRANCH  11  13
HETATM   13  C   UNL     1      -9.670  12.392  66.130  1.00  0.00    -0.246 C  
HETATM   14  C   UNL     1     -10.325  12.201  67.504  1.00  0.00    -0.219 C  
HETATM   15  C   UNL     1     -11.277  11.007  67.558  1.00  0.00    -0.372 C  
HETATM   16  C   UNL     1     -10.660   9.719  67.020  1.00  0.00    -0.269 C  
HETATM   17  C   UNL     1      -9.965   9.900  65.674  1.00  0.00    -0.353 C  
HETATM   18  C   UNL     1      -9.009  11.091  65.663  1.00  0.00    -0.212 C  
ENDBRANCH  11  13
ENDBRANCH   9  11
ENDBRANCH   4   9
ENDBRANCH   3   4
TORSDOF 5
ENDMDL
MODEL       44
REMARK 921   NORMALIZED FREE ENERGY PREDICTED BY IDOCK:   -4.61 KCAL/MOL
REMARK 922        TOTAL FREE ENERGY PREDICTED BY IDOCK:   -6.55 KCAL/MOL
REMARK 923 INTER-LIGAND FREE ENERGY PREDICTED BY IDOCK:   -5.96 KCAL/MOL
REMARK 924 INTRA-LIGAND FREE ENERGY PREDICTED BY IDOCK:   -0.58 KCAL/MOL
REMARK 927      BINDING AFFINITY PREDICTED BY RF-SCORE:    0.00 PKD
ROOT
HETATM    1 CL   UNL     1     -12.737  15.961  73.586  1.00  0.00    -0.661 Cl 
HETATM    2  C   UNL     1     -12.467  14.865  72.206  1.00  0.00    -0.341 C  
HETATM    3  C   UNL     1     -12.013  15.653  70.982  1.00  0.00    -0.400 C  
ENDROOT
BRANCH   3   4
HETATM    4  N   UNL     1     -11.811  14.802  69.804  1.00  0.00    -0.298 N  
BRANCH   4   5
HETATM    5  N   UNL     1     -11.889  13.408  69.911  1.00  0.00    -0.385 NA 
HETATM    6  H   UNL     1     -12.698  12.927  70.304  1.00  0.00     0.000 HD 
HETATM    7  O   UNL     1     -10.892  12.812  69.489  1.00  0.00    -0.442 OA 
HETATM    8  H   UNL     1     -10.944  11.867  69.561  1.00  0.00     0.000 HD 
ENDBRANCH   4   5
BRANCH   4   9
HETATM    9  C   UNL     1     -11.726  15.404  68.551  1.00  0.00    -0.338 C  
HETATM   10  O   UNL     1     -11.380  16.578  68.411  1.00  0.00    -0.348 OA 
BRANCH   9  11
HETATM   11  N   UNL     1     -12.091  14.626  67.469  1.00  0.00    -0.567 N  
HETATM   12  H   UNL     1     -12.747  13.859  67.612  1.00  0.00     0.000 HD 
BRANCH  11  13
HETATM   13  C   UNL     1     -11.567  14.869  66.125  1.00  0.00    -0.228 C  
HETATM   14  C   UNL     1     -10.106  14.423  65.973  1.00  0.00    -0.338 C  
HETATM   15  C   UNL     1      -9.938  12.904  65.944  1.00  0.00    -0.273 C  
HETATM   16  C   UNL     1     -10.867  12.215  64.950  1.00  0.00    -0.352 C  
HETATM   17  C   UNL     1     -12.316  12.678  65.056  1.00  0.00    -0.561 C  
HETATM   18  C   UNL     1     -12.446  14.199  65.064  1.00  0.00    -0.434 C  
ENDBRANCH  11  13
ENDBRANCH   9  11
ENDBRANCH   4   9
ENDBRANCH   3   4
TORSDOF 5
ENDMDL
MODEL       45
REMARK 921   NORMALIZED FREE ENERGY PREDICTED BY IDOCK:   -4.61 KCAL/MOL
REMARK 922        TOTAL FREE ENERGY PREDICTED BY IDOCK:   -6.55 KCAL/MOL
REMARK 923 INTER-LIGAND FREE ENERGY PREDICTED BY IDOCK:   -5.98 KCAL/MOL
REMARK 924 INTRA-LIGAND FREE ENERGY PREDICTED BY IDOCK:   -0.57 KCAL/MOL
REMARK 927      BINDING AFFINITY PREDICTED BY RF-SCORE:    0.00 PKD
ROOT
HETATM    1 CL   UNL     1     -12.251  12.431  64.988  1.00  0.00    -0.491 Cl 
HETATM    2  C   UNL     1     -11.906  12.840  66.689  1.00  0.00    -0.393 C  
HETATM    3  C   UNL     1     -12.001  14.346  66.904  1.00  0.00    -0.399 C  
ENDROOT
BRANCH   3   4
HETATM    4  N   UNL     1     -11.689  14.742  68.281  1.00  0.00    -0.318 N  
BRANCH   4   5
HETATM    5  N   UNL     1     -12.545  14.394  69.333  1.00  0.00    -0.532 NA 
HETATM    6  H   UNL     1     -12.778  13.427  69.561  1.00  0.00     0.000 HD 
HETATM    7  O   UNL     1     -12.995  15.359  69.960  1.00  0.00    -0.646 OA 
HETATM    8  H   UNL     1     -13.576  15.123  70.673  1.00  0.00     0.000 HD 
ENDBRANCH   4   5
BRANCH   4   9
HETATM    9  C   UNL     1     -10.444  15.305  68.550  1.00  0.00    -0.235 C  
HETATM   10  O   UNL     1      -9.446  14.615  68.762  1.00  0.00    -0.204 OA 
BRANCH   9  11
HETATM   11  N   UNL     1     -10.392  16.685  68.607  1.00  0.00    -0.284 N  
HETATM   12  H   UNL     1     -11.145  17.188  69.076  1.00  0.00     0.000 HD 
BRANCH  11  13
HETATM   13  C   UNL     1      -9.291  17.447  68.018  1.00  0.00    -0.276 C  
HETATM   14  C   UNL     1      -9.296  17.398  66.484  1.00  0.00    -0.288 C  
HETATM   15  C   UNL     1     -10.421  18.221  65.857  1.00  0.00    -0.324 C  
HETATM   16  C   UNL     1     -10.497  19.646  66.398  1.00  0.00    -0.618 C  
HETATM   17  C   UNL     1     -10.449  19.717  67.921  1.00  0.00    -0.556 C  
HETATM   18  C   UNL     1      -9.303  18.897  68.510  1.00  0.00    -0.412 C  
ENDBRANCH  11  13
ENDBRANCH   9  11
ENDBRANCH   4   9
ENDBRANCH   3   4
TORSDOF 5
ENDMDL
MODEL       46
REMARK 921   NORMALIZED FREE ENERGY PREDICTED BY IDOCK:   -4.59 KCAL/MOL
REMARK 922        TOTAL FREE ENERGY PREDICTED BY IDOCK:   -6.52 KCAL/MOL
REMARK 923 INTER-LIGAND FREE ENERGY PREDICTED BY IDOCK:   -5.86 KCAL/MOL
REMARK 924 INTRA-LIGAND FREE ENERGY PREDICTED BY IDOCK:   -0.66 KCAL/MOL
REMARK 927      BINDING AFFINITY PREDICTED BY RF-SCORE:    0.00 PKD
ROOT
HETATM    1 CL   UNL     1     -10.361  18.030  65.961  1.00  0.00    -0.379 Cl 
HETATM    2  C   UNL     1     -10.288  16.249  65.981  1.00  0.00    -0.349 C  
HETATM    3  C   UNL     1     -11.024  15.672  64.777  1.00  0.00    -0.400 C  
ENDROOT
BRANCH   3   4
HETATM    4  N   UNL     1     -11.026  14.205  64.765  1.00  0.00    -0.391 N  
BRANCH   4   5
HETATM    5  N   UNL     1      -9.920  13.496  64.282  1.00  0.00    -0.752 NA 
HETATM    6  H   UNL     1      -8.995  13.553  64.709  1.00  0.00     0.000 HD 
HETATM    7  O   UNL     1     -10.161  12.795  63.293  1.00  0.00    -0.482 OA 
HETATM    8  H   UNL     1      -9.411  12.314  62.965  1.00  0.00     0.000 HD 
ENDBRANCH   4   5
BRANCH   4   9
HETATM    9  C   UNL     1     -12.062  13.532  65.409  1.00  0.00    -0.415 C  
HETATM   10  O   UNL     1     -13.227  13.930  65.365  1.00  0.00    -0.750 OA 
BRANCH   9  11
HETATM   11  N   UNL     1     -11.710  12.412  66.137  1.00  0.00    -0.403 N  
HETATM   12  H   UNL     1     -11.404  11.577  65.639  1.00  0.00     0.000 HD 
BRANCH  11  13
HETATM   13  C   UNL     1     -11.761  12.387  67.598  1.00  0.00    -0.346 C  
HETATM   14  C   UNL     1     -11.640  10.968  68.168  1.00  0.00    -0.345 C  
HETATM   15  C   UNL     1     -10.232  10.385  68.042  1.00  0.00    -0.199 C  
HETATM   16  C   UNL     1      -9.145  11.320  68.564  1.00  0.00    -0.173 C  
HETATM   17  C   UNL     1      -9.276  12.748  68.042  1.00  0.00    -0.208 C  
HETATM   18  C   UNL     1     -10.690  13.302  68.200  1.00  0.00    -0.264 C  
ENDBRANCH  11  13
ENDBRANCH   9  11
ENDBRANCH   4   9
ENDBRANCH   3   4
TORSDOF 5
ENDMDL
MODEL       47
REMARK 921   NORMALIZED FREE ENERGY PREDICTED BY IDOCK:   -4.55 KCAL/MOL
REMARK 922        TOTAL FREE ENERGY PREDICTED BY IDOCK:   -6.48 KCAL/MOL
REMARK 923 INTER-LIGAND FREE ENERGY PREDICTED BY IDOCK:   -5.91 KCAL/MOL
REMARK 924 INTRA-LIGAND FREE ENERGY PREDICTED BY IDOCK:   -0.57 KCAL/MOL
REMARK 927      BINDING AFFINITY PREDICTED BY RF-SCORE:    0.00 PKD
ROOT
HETATM    1 CL   UNL     1     -11.453  10.933  67.763  1.00  0.00    -0.367 Cl 
HETATM    2  C   UNL     1     -11.774  12.210  68.965  1.00  0.00    -0.322 C  
HETATM    3  C   UNL     1     -11.887  13.568  68.281  1.00  0.00    -0.366 C  
ENDROOT
BRANCH   3   4
HETATM    4  N   UNL     1     -12.115  14.663  69.231  1.00  0.00    -0.298 N  
BRANCH   4   5
HETATM    5  N   UNL     1     -13.202  14.625  70.112  1.00  0.00    -0.481 NA 
HETATM    6  H   UNL     1     -13.695  13.764  70.348  1.00  0.00     0.000 HD 
HETATM    7  O   UNL     1     -13.512  15.726  70.580  1.00  0.00    -0.777 OA 
HETATM    8  H   UNL     1     -14.249  15.701  71.178  1.00  0.00     0.000 HD 
ENDBRANCH   4   5
BRANCH   4   9
HETATM    9  C   UNL     1     -11.136  15.644  69.368  1.00  0.00    -0.303 C  
HETATM   10  O   UNL     1     -10.358  15.663  70.324  1.00  0.00    -0.307 OA 
BRANCH   9  11
HETATM   11  N   UNL     1     -11.106  16.624  68.395  1.00  0.00    -0.350 N  
HETATM   12  H   UNL     1     -11.987  16.970  68.016  1.00  0.00     0.000 HD 
BRANCH  11  13
HETATM   13  C   UNL     1      -9.851  17.181  67.891  1.00  0.00    -0.283 C  
HETATM   14  C   UNL     1      -9.839  17.318  66.363  1.00  0.00    -0.310 C  
HETATM   15  C   UNL     1     -10.737  18.443  65.849  1.00  0.00    -0.209 C  
HETATM   16  C   UNL     1     -10.500  19.773  66.557  1.00  0.00    -0.615 C  
HETATM   17  C   UNL     1     -10.464  19.650  68.078  1.00  0.00    -0.537 C  
HETATM   18  C   UNL     1      -9.544  18.528  68.553  1.00  0.00    -0.388 C  
ENDBRANCH  11  13
ENDBRANCH   9  11
ENDBRANCH   4   9
ENDBRANCH   3   4
TORSDOF 5
ENDMDL
MODEL       48
REMARK 921   NORMALIZED FREE ENERGY PREDICTED BY IDOCK:   -4.55 KCAL/MOL
REMARK 922        TOTAL FREE ENERGY PREDICTED BY IDOCK:   -6.48 KCAL/MOL
REMARK 923 INTER-LIGAND FREE ENERGY PREDICTED BY IDOCK:   -6.00 KCAL/MOL
REMARK 924 INTRA-LIGAND FREE ENERGY PREDICTED BY IDOCK:   -0.48 KCAL/MOL
REMARK 927      BINDING AFFINITY PREDICTED BY RF-SCORE:    0.00 PKD
ROOT
HETATM    1 CL   UNL     1     -13.826  14.795  72.469  1.00  0.00    -0.554 Cl 
HETATM    2  C   UNL     1     -12.903  14.350  71.009  1.00  0.00    -0.353 C  
HETATM    3  C   UNL     1     -12.631  12.850  70.988  1.00  0.00    -0.287 C  
ENDROOT
BRANCH   3   4
HETATM    4  N   UNL     1     -11.841  12.435  69.824  1.00  0.00    -0.331 N  
BRANCH   4   5
HETATM    5  N   UNL     1     -10.725  13.177  69.420  1.00  0.00    -0.432 NA 
HETATM    6  H   UNL     1     -10.660  14.188  69.536  1.00  0.00     0.000 HD 
HETATM    7  O   UNL     1      -9.826  12.500  68.909  1.00  0.00    -0.419 OA 
HETATM    8  H   UNL     1      -9.068  13.003  68.635  1.00  0.00     0.000 HD 
ENDBRANCH   4   5
BRANCH   4   9
HETATM    9  C   UNL     1     -12.106  11.196  69.243  1.00  0.00    -0.308 C  
HETATM   10  O   UNL     1     -12.016  11.011  68.029  1.00  0.00    -0.623 OA 
BRANCH   9  11
HETATM   11  N   UNL     1     -12.517  10.191  70.098  1.00  0.00    -0.523 N  
HETATM   12  H   UNL     1     -13.462   9.819  70.003  1.00  0.00     0.000 HD 
BRANCH  11  13
HETATM   13  C   UNL     1     -11.641   9.645  71.134  1.00  0.00    -0.381 C  
HETATM   14  C   UNL     1     -12.357   8.633  72.037  1.00  0.00    -0.435 C  
HETATM   15  C   UNL     1     -12.643   7.301  71.344  1.00  0.00    -0.423 C  
HETATM   16  C   UNL     1     -11.419   6.706  70.654  1.00  0.00    -0.420 C  
HETATM   17  C   UNL     1     -10.668   7.711  69.786  1.00  0.00    -0.243 C  
HETATM   18  C   UNL     1     -10.385   9.022  70.517  1.00  0.00    -0.266 C  
ENDBRANCH  11  13
ENDBRANCH   9  11
ENDBRANCH   4   9
ENDBRANCH   3   4
TORSDOF 5
ENDMDL
MODEL       49
REMARK 921   NORMALIZED FREE ENERGY PREDICTED BY IDOCK:   -4.54 KCAL/MOL
REMARK 922        TOTAL FREE ENERGY PREDICTED BY IDOCK:   -6.47 KCAL/MOL
REMARK 923 INTER-LIGAND FREE ENERGY PREDICTED BY IDOCK:   -5.86 KCAL/MOL
REMARK 924 INTRA-LIGAND FREE ENERGY PREDICTED BY IDOCK:   -0.61 KCAL/MOL
REMARK 927      BINDING AFFINITY PREDICTED BY RF-SCORE:    0.00 PKD
ROOT
HETATM    1 CL   UNL     1      -9.364  14.311  67.411  1.00  0.00    -0.197 Cl 
HETATM    2  C   UNL     1      -9.910  12.738  68.049  1.00  0.00    -0.226 C  
HETATM    3  C   UNL     1     -11.432  12.693  68.123  1.00  0.00    -0.313 C  
ENDROOT
BRANCH   3   4
HETATM    4  N   UNL     1     -11.934  11.431  68.677  1.00  0.00    -0.304 N  
BRANCH   4   5
HETATM    5  N   UNL     1     -11.785  10.233  67.968  1.00  0.00    -0.680 NA 
HETATM    6  H   UNL     1     -12.273  10.043  67.092  1.00  0.00     0.000 HD 
HETATM    7  O   UNL     1     -11.012   9.426  68.496  1.00  0.00    -0.422 OA 
HETATM    8  H   UNL     1     -10.911   8.613  68.015  1.00  0.00     0.000 HD 
ENDBRANCH   4   5
BRANCH   4   9
HETATM    9  C   UNL     1     -12.393  11.413  69.993  1.00  0.00    -0.237 C  
HETATM   10  O   UNL     1     -12.201  12.354  70.765  1.00  0.00    -0.369 OA 
BRANCH   9  11
HETATM   11  N   UNL     1     -13.041  10.264  70.403  1.00  0.00    -0.546 N  
HETATM   12  H   UNL     1     -13.622   9.759  69.733  1.00  0.00     0.000 HD 
BRANCH  11  13
HETATM   13  C   UNL     1     -12.922   9.749  71.766  1.00  0.00    -0.438 C  
HETATM   14  C   UNL     1     -14.155   8.947  72.203  1.00  0.00    -0.497 C  
HETATM   15  C   UNL     1     -14.263   7.584  71.520  1.00  0.00    -0.580 C  
HETATM   16  C   UNL     1     -12.977   6.768  71.600  1.00  0.00    -0.292 C  
HETATM   17  C   UNL     1     -11.733   7.562  71.211  1.00  0.00    -0.312 C  
HETATM   18  C   UNL     1     -11.651   8.909  71.925  1.00  0.00    -0.442 C  
ENDBRANCH  11  13
ENDBRANCH   9  11
ENDBRANCH   4   9
ENDBRANCH   3   4
TORSDOF 5
ENDMDL
MODEL       50
REMARK 921   NORMALIZED FREE ENERGY PREDICTED BY IDOCK:   -4.52 KCAL/MOL
REMARK 922        TOTAL FREE ENERGY PREDICTED BY IDOCK:   -6.44 KCAL/MOL
REMARK 923 INTER-LIGAND FREE ENERGY PREDICTED BY IDOCK:   -5.79 KCAL/MOL
REMARK 924 INTRA-LIGAND FREE ENERGY PREDICTED BY IDOCK:   -0.65 KCAL/MOL
REMARK 927      BINDING AFFINITY PREDICTED BY RF-SCORE:    0.00 PKD
ROOT
HETATM    1 CL   UNL     1     -11.463  12.294  63.534  1.00  0.00    -0.541 Cl 
HETATM    2  C   UNL     1     -11.981  13.148  65.012  1.00  0.00    -0.383 C  
HETATM    3  C   UNL     1     -10.822  13.946  65.599  1.00  0.00    -0.292 C  
ENDROOT
BRANCH   3   4
HETATM    4  N   UNL     1     -11.184  14.640  66.839  1.00  0.00    -0.334 N  
BRANCH   4   5
HETATM    5  N   UNL     1     -12.403  14.372  67.475  1.00  0.00    -0.600 NA 
HETATM    6  H   UNL     1     -13.218  14.010  66.981  1.00  0.00     0.000 HD 
HETATM    7  O   UNL     1     -12.404  14.613  68.687  1.00  0.00    -0.583 OA 
HETATM    8  H   UNL     1     -13.230  14.432  69.119  1.00  0.00     0.000 HD 
ENDBRANCH   4   5
BRANCH   4   9
HETATM    9  C   UNL     1     -10.224  15.427  67.470  1.00  0.00    -0.244 C  
HETATM   10  O   UNL     1      -9.254  14.937  68.050  1.00  0.00    -0.179 OA 
BRANCH   9  11
HETATM   11  N   UNL     1     -10.436  16.792  67.448  1.00  0.00    -0.314 N  
HETATM   12  H   UNL     1     -10.934  17.227  68.224  1.00  0.00     0.000 HD 
BRANCH  11  13
HETATM   13  C   UNL     1      -9.968  17.634  66.347  1.00  0.00    -0.334 C  
HETATM   14  C   UNL     1     -10.645  19.010  66.328  1.00  0.00    -0.493 C  
HETATM   15  C   UNL     1     -10.173  19.931  67.452  1.00  0.00    -0.565 C  
HETATM   16  C   UNL     1      -8.654  20.029  67.552  1.00  0.00    -0.401 C  
HETATM   17  C   UNL     1      -7.959  18.671  67.528  1.00  0.00    -0.256 C  
HETATM   18  C   UNL     1      -8.444  17.785  66.382  1.00  0.00    -0.270 C  
ENDBRANCH  11  13
ENDBRANCH   9  11
ENDBRANCH   4   9
ENDBRANCH   3   4
TORSDOF 5
ENDMDL
MODEL       51
REMARK 921   NORMALIZED FREE ENERGY PREDICTED BY IDOCK:   -4.52 KCAL/MOL
REMARK 922        TOTAL FREE ENERGY PREDICTED BY IDOCK:   -6.44 KCAL/MOL
REMARK 923 INTER-LIGAND FREE ENERGY PREDICTED BY IDOCK:   -5.77 KCAL/MOL
REMARK 924 INTRA-LIGAND FREE ENERGY PREDICTED BY IDOCK:   -0.66 KCAL/MOL
REMARK 927      BINDING AFFINITY PREDICTED BY RF-SCORE:    0.00 PKD
ROOT
HETATM    1 CL   UNL     1     -12.832  14.083  65.285  1.00  0.00    -0.481 Cl 
HETATM    2  C   UNL     1     -11.738  12.916  66.073  1.00  0.00    -0.404 C  
HETATM    3  C   UNL     1     -11.903  12.971  67.588  1.00  0.00    -0.351 C  
ENDROOT
BRANCH   3   4
HETATM    4  N   UNL     1     -10.997  12.055  68.289  1.00  0.00    -0.219 N  
BRANCH   4   5
HETATM    5  N   UNL     1      -9.856  12.541  68.938  1.00  0.00    -0.422 NA 
HETATM    6  H   UNL     1      -9.824  13.452  69.396  1.00  0.00     0.000 HD 
HETATM    7  O   UNL     1      -8.890  11.771  68.906  1.00  0.00    -0.368 OA 
HETATM    8  H   UNL     1      -8.115  12.100  69.345  1.00  0.00     0.000 HD 
ENDBRANCH   4   5
BRANCH   4   9
HETATM    9  C   UNL     1     -11.387  10.728  68.458  1.00  0.00    -0.295 C  
HETATM   10  O   UNL     1     -10.944   9.822  67.751  1.00  0.00    -0.274 OA 
BRANCH   9  11
HETATM   11  N   UNL     1     -12.331  10.484  69.436  1.00  0.00    -0.539 N  
HETATM   12  H   UNL     1     -13.299  10.322  69.158  1.00  0.00     0.000 HD 
BRANCH  11  13
HETATM   13  C   UNL     1     -11.987  10.448  70.857  1.00  0.00    -0.377 C  
HETATM   14  C   UNL     1     -13.208  10.208  71.753  1.00  0.00    -0.542 C  
HETATM   15  C   UNL     1     -13.741   8.777  71.677  1.00  0.00    -0.437 C  
HETATM   16  C   UNL     1     -12.658   7.721  71.869  1.00  0.00    -0.339 C  
HETATM   17  C   UNL     1     -11.416   7.968  71.018  1.00  0.00    -0.300 C  
HETATM   18  C   UNL     1     -10.903   9.402  71.133  1.00  0.00    -0.427 C  
ENDBRANCH  11  13
ENDBRANCH   9  11
ENDBRANCH   4   9
ENDBRANCH   3   4
TORSDOF 5
ENDMDL
MODEL       52
REMARK 921   NORMALIZED FREE ENERGY PREDICTED BY IDOCK:   -4.49 KCAL/MOL
REMARK 922        TOTAL FREE ENERGY PREDICTED BY IDOCK:   -6.40 KCAL/MOL
REMARK 923 INTER-LIGAND FREE ENERGY PREDICTED BY IDOCK:   -5.85 KCAL/MOL
REMARK 924 INTRA-LIGAND FREE ENERGY PREDICTED BY IDOCK:   -0.55 KCAL/MOL
REMARK 927      BINDING AFFINITY PREDICTED BY RF-SCORE:    0.00 PKD
ROOT
HETATM    1 CL   UNL     1      -9.861   6.124  71.416  1.00  0.00    -0.194 Cl 
HETATM    2  C   UNL     1     -11.081   7.161  72.201  1.00  0.00    -0.248 C  
HETATM    3  C   UNL     1     -11.369   8.388  71.343  1.00  0.00    -0.264 C  
ENDROOT
BRANCH   3   4
HETATM    4  N   UNL     1     -12.341   9.295  71.961  1.00  0.00    -0.371 N  
BRANCH   4   5
HETATM    5  N   UNL     1     -13.075   8.895  73.084  1.00  0.00    -0.731 NA 
HETATM    6  H   UNL     1     -12.638   8.527  73.929  1.00  0.00     0.000 HD 
HETATM    7  O   UNL     1     -14.298   9.026  72.963  1.00  0.00    -1.108 OA 
HETATM    8  H   UNL     1     -14.795   8.754  73.724  1.00  0.00     0.000 HD 
ENDBRANCH   4   5
BRANCH   4   9
HETATM    9  C   UNL     1     -12.390  10.619  71.529  1.00  0.00    -0.310 C  
HETATM   10  O   UNL     1     -13.213  11.422  71.971  1.00  0.00    -0.503 OA 
BRANCH   9  11
HETATM   11  N   UNL     1     -11.489  10.978  70.544  1.00  0.00    -0.446 N  
HETATM   12  H   UNL     1     -10.500  11.045  70.781  1.00  0.00     0.000 HD 
BRANCH  11  13
HETATM   13  C   UNL     1     -11.910  11.265  69.173  1.00  0.00    -0.355 C  
HETATM   14  C   UNL     1     -11.874  12.763  68.847  1.00  0.00    -0.351 C  
HETATM   15  C   UNL     1     -10.457  13.316  68.703  1.00  0.00    -0.242 C  
HETATM   16  C   UNL     1      -9.581  12.492  67.764  1.00  0.00    -0.203 C  
HETATM   17  C   UNL     1      -9.639  10.994  68.045  1.00  0.00    -0.175 C  
HETATM   18  C   UNL     1     -11.070  10.475  68.165  1.00  0.00    -0.346 C  
ENDBRANCH  11  13
ENDBRANCH   9  11
ENDBRANCH   4   9
ENDBRANCH   3   4
TORSDOF 5
ENDMDL
MODEL       53
REMARK 921   NORMALIZED FREE ENERGY PREDICTED BY IDOCK:   -4.48 KCAL/MOL
REMARK 922        TOTAL FREE ENERGY PREDICTED BY IDOCK:   -6.39 KCAL/MOL
REMARK 923 INTER-LIGAND FREE ENERGY PREDICTED BY IDOCK:   -6.29 KCAL/MOL
REMARK 924 INTRA-LIGAND FREE ENERGY PREDICTED BY IDOCK:   -0.10 KCAL/MOL
REMARK 927      BINDING AFFINITY PREDICTED BY RF-SCORE:    0.00 PKD
ROOT
HETATM    1 CL   UNL     1     -11.030   9.693  67.867  1.00  0.00    -0.267 Cl 
HETATM    2  C   UNL     1     -11.156  11.299  67.102  1.00  0.00    -0.301 C  
HETATM    3  C   UNL     1     -11.497  12.360  68.143  1.00  0.00    -0.318 C  
ENDROOT
BRANCH   3   4
HETATM    4  N   UNL     1     -11.649  13.697  67.559  1.00  0.00    -0.329 N  
BRANCH   4   5
HETATM    5  N   UNL     1     -11.808  13.857  66.178  1.00  0.00    -0.380 NA 
HETATM    6  H   UNL     1     -11.043  13.733  65.514  1.00  0.00     0.000 HD 
HETATM    7  O   UNL     1     -12.954  14.161  65.832  1.00  0.00    -0.486 OA 
HETATM    8  H   UNL     1     -13.062  14.270  64.895  1.00  0.00     0.000 HD 
ENDBRANCH   4   5
BRANCH   4   9
HETATM    9  C   UNL     1     -11.818  14.784  68.414  1.00  0.00    -0.286 C  
HETATM   10  O   UNL     1     -11.273  15.869  68.207  1.00  0.00    -0.334 OA 
BRANCH   9  11
HETATM   11  N   UNL     1     -12.598  14.571  69.534  1.00  0.00    -0.560 N  
HETATM   12  H   UNL     1     -13.596  14.775  69.486  1.00  0.00     0.000 HD 
BRANCH  11  13
HETATM   13  C   UNL     1     -12.039  14.061  70.786  1.00  0.00    -0.345 C  
HETATM   14  C   UNL     1     -11.292  15.141  71.580  1.00  0.00    -0.388 C  
HETATM   15  C   UNL     1     -12.222  16.170  72.221  1.00  0.00    -0.577 C  
HETATM   16  C   UNL     1     -13.359  15.540  73.018  1.00  0.00    -0.650 C  
HETATM   17  C   UNL     1     -14.086  14.433  72.261  1.00  0.00    -0.609 C  
HETATM   18  C   UNL     1     -13.126  13.414  71.649  1.00  0.00    -0.463 C  
ENDBRANCH  11  13
ENDBRANCH   9  11
ENDBRANCH   4   9
ENDBRANCH   3   4
TORSDOF 5
ENDMDL
MODEL       54
REMARK 921   NORMALIZED FREE ENERGY PREDICTED BY IDOCK:   -4.47 KCAL/MOL
REMARK 922        TOTAL FREE ENERGY PREDICTED BY IDOCK:   -6.37 KCAL/MOL
REMARK 923 INTER-LIGAND FREE ENERGY PREDICTED BY IDOCK:   -5.77 KCAL/MOL
REMARK 924 INTRA-LIGAND FREE ENERGY PREDICTED BY IDOCK:   -0.60 KCAL/MOL
REMARK 927      BINDING AFFINITY PREDICTED BY RF-SCORE:    0.00 PKD
ROOT
HETATM    1 CL   UNL     1     -13.642   9.405  72.398  1.00  0.00    -0.520 Cl 
HETATM    2  C   UNL     1     -13.006  10.898  71.658  1.00  0.00    -0.464 C  
HETATM    3  C   UNL     1     -12.332  10.586  70.326  1.00  0.00    -0.298 C  
ENDROOT
BRANCH   3   4
HETATM    4  N   UNL     1     -11.757  11.776  69.691  1.00  0.00    -0.321 N  
BRANCH   4   5
HETATM    5  N   UNL     1     -11.830  13.025  70.320  1.00  0.00    -0.532 NA 
HETATM    6  H   UNL     1     -12.516  13.241  71.044  1.00  0.00     0.000 HD 
HETATM    7  O   UNL     1     -10.991  13.841  69.924  1.00  0.00    -0.458 OA 
HETATM    8  H   UNL     1     -11.040  14.688  70.350  1.00  0.00     0.000 HD 
ENDBRANCH   4   5
BRANCH   4   9
HETATM    9  C   UNL     1     -10.980  11.614  68.546  1.00  0.00    -0.220 C  
HETATM   10  O   UNL     1      -9.792  11.294  68.601  1.00  0.00    -0.197 OA 
BRANCH   9  11
HETATM   11  N   UNL     1     -11.602  11.871  67.339  1.00  0.00    -0.316 N  
HETATM   12  H   UNL     1     -12.441  11.345  67.095  1.00  0.00     0.000 HD 
BRANCH  11  13
HETATM   13  C   UNL     1     -11.096  12.872  66.401  1.00  0.00    -0.285 C  
HETATM   14  C   UNL     1     -10.070  12.293  65.418  1.00  0.00    -0.292 C  
HETATM   15  C   UNL     1     -10.695  11.380  64.363  1.00  0.00    -0.405 C  
HETATM   16  C   UNL     1     -11.893  12.006  63.657  1.00  0.00    -0.602 C  
HETATM   17  C   UNL     1     -12.902  12.627  64.618  1.00  0.00    -0.361 C  
HETATM   18  C   UNL     1     -12.245  13.546  65.645  1.00  0.00    -0.500 C  
ENDBRANCH  11  13
ENDBRANCH   9  11
ENDBRANCH   4   9
ENDBRANCH   3   4
TORSDOF 5
ENDMDL
MODEL       55
REMARK 921   NORMALIZED FREE ENERGY PREDICTED BY IDOCK:   -4.47 KCAL/MOL
REMARK 922        TOTAL FREE ENERGY PREDICTED BY IDOCK:   -6.37 KCAL/MOL
REMARK 923 INTER-LIGAND FREE ENERGY PREDICTED BY IDOCK:   -5.78 KCAL/MOL
REMARK 924 INTRA-LIGAND FREE ENERGY PREDICTED BY IDOCK:   -0.59 KCAL/MOL
REMARK 927      BINDING AFFINITY PREDICTED BY RF-SCORE:    0.00 PKD
ROOT
HETATM    1 CL   UNL     1      -7.736  14.935  67.688  1.00  0.00    -0.176 Cl 
HETATM    2  C   UNL     1      -8.959  13.669  67.403  1.00  0.00    -0.218 C  
HETATM    3  C   UNL     1      -9.969  13.638  68.545  1.00  0.00    -0.208 C  
ENDROOT
BRANCH   3   4
HETATM    4  N   UNL     1     -10.979  12.587  68.378  1.00  0.00    -0.235 N  
BRANCH   4   5
HETATM    5  N   UNL     1     -11.038  11.837  67.198  1.00  0.00    -0.279 NA 
HETATM    6  H   UNL     1     -10.258  11.273  66.860  1.00  0.00     0.000 HD 
HETATM    7  O   UNL     1     -12.116  11.918  66.600  1.00  0.00    -0.587 OA 
HETATM    8  H   UNL     1     -12.156  11.410  65.799  1.00  0.00     0.000 HD 
ENDBRANCH   4   5
BRANCH   4   9
HETATM    9  C   UNL     1     -11.754  12.224  69.478  1.00  0.00    -0.332 C  
HETATM   10  O   UNL     1     -12.357  11.151  69.527  1.00  0.00    -0.301 OA 
BRANCH   9  11
HETATM   11  N   UNL     1     -11.845  13.150  70.499  1.00  0.00    -0.535 N  
HETATM   12  H   UNL     1     -11.069  13.239  71.155  1.00  0.00     0.000 HD 
BRANCH  11  13
HETATM   13  C   UNL     1     -13.018  14.007  70.669  1.00  0.00    -0.196 C  
HETATM   14  C   UNL     1     -13.713  13.793  72.020  1.00  0.00    -0.572 C  
HETATM   15  C   UNL     1     -12.924  14.358  73.201  1.00  0.00    -0.517 C  
HETATM   16  C   UNL     1     -12.481  15.803  72.993  1.00  0.00    -0.581 C  
HETATM   17  C   UNL     1     -11.827  16.044  71.635  1.00  0.00    -0.582 C  
HETATM   18  C   UNL     1     -12.652  15.482  70.479  1.00  0.00    -0.462 C  
ENDBRANCH  11  13
ENDBRANCH   9  11
ENDBRANCH   4   9
ENDBRANCH   3   4
TORSDOF 5
ENDMDL
MODEL       56
REMARK 921   NORMALIZED FREE ENERGY PREDICTED BY IDOCK:   -4.45 KCAL/MOL
REMARK 922        TOTAL FREE ENERGY PREDICTED BY IDOCK:   -6.35 KCAL/MOL
REMARK 923 INTER-LIGAND FREE ENERGY PREDICTED BY IDOCK:   -5.69 KCAL/MOL
REMARK 924 INTRA-LIGAND FREE ENERGY PREDICTED BY IDOCK:   -0.66 KCAL/MOL
REMARK 927      BINDING AFFINITY PREDICTED BY RF-SCORE:    0.00 PKD
ROOT
HETATM    1 CL   UNL     1     -10.303  19.600  69.038  1.00  0.00    -0.343 Cl 
HETATM    2  C   UNL     1      -9.611  18.264  68.081  1.00  0.00    -0.304 C  
HETATM    3  C   UNL     1     -10.295  18.174  66.721  1.00  0.00    -0.365 C  
ENDROOT
BRANCH   3   4
HETATM    4  N   UNL     1      -9.788  17.065  65.905  1.00  0.00    -0.225 N  
BRANCH   4   5
HETATM    5  N   UNL     1      -8.429  16.727  65.929  1.00  0.00    -0.476 NA 
HETATM    6  H   UNL     1      -7.699  17.339  65.564  1.00  0.00     0.000 HD 
HETATM    7  O   UNL     1      -8.192  15.623  66.430  1.00  0.00    -0.309 OA 
HETATM    8  H   UNL     1      -7.271  15.393  66.446  1.00  0.00     0.000 HD 
ENDBRANCH   4   5
BRANCH   4   9
HETATM    9  C   UNL     1     -10.703  16.242  65.253  1.00  0.00    -0.332 C  
HETATM   10  O   UNL     1     -11.390  16.643  64.313  1.00  0.00    -1.116 OA 
BRANCH   9  11
HETATM   11  N   UNL     1     -10.831  14.956  65.742  1.00  0.00    -0.326 N  
HETATM   12  H   UNL     1     -10.126  14.262  65.497  1.00  0.00     0.000 HD 
BRANCH  11  13
HETATM   13  C   UNL     1     -11.946  14.559  66.602  1.00  0.00    -0.338 C  
HETATM   14  C   UNL     1     -12.156  13.040  66.630  1.00  0.00    -0.386 C  
HETATM   15  C   UNL     1     -11.073  12.295  67.410  1.00  0.00    -0.333 C  
HETATM   16  C   UNL     1     -10.822  12.877  68.798  1.00  0.00    -0.277 C  
HETATM   17  C   UNL     1     -10.655  14.393  68.795  1.00  0.00    -0.256 C  
HETATM   18  C   UNL     1     -11.764  15.104  68.022  1.00  0.00    -0.304 C  
ENDBRANCH  11  13
ENDBRANCH   9  11
ENDBRANCH   4   9
ENDBRANCH   3   4
TORSDOF 5
ENDMDL
MODEL       57
REMARK 921   NORMALIZED FREE ENERGY PREDICTED BY IDOCK:   -4.43 KCAL/MOL
REMARK 922        TOTAL FREE ENERGY PREDICTED BY IDOCK:   -6.31 KCAL/MOL
REMARK 923 INTER-LIGAND FREE ENERGY PREDICTED BY IDOCK:   -6.02 KCAL/MOL
REMARK 924 INTRA-LIGAND FREE ENERGY PREDICTED BY IDOCK:   -0.30 KCAL/MOL
REMARK 927      BINDING AFFINITY PREDICTED BY RF-SCORE:    0.00 PKD
ROOT
HETATM    1 CL   UNL     1     -13.194  11.595  71.887  1.00  0.00    -0.559 Cl 
HETATM    2  C   UNL     1     -13.189  13.347  71.556  1.00  0.00    -0.312 C  
HETATM    3  C   UNL     1     -12.284  13.662  70.370  1.00  0.00    -0.363 C  
ENDROOT
BRANCH   3   4
HETATM    4  N   UNL     1     -12.214  15.097  70.076  1.00  0.00    -0.336 N  
BRANCH   4   5
HETATM    5  N   UNL     1     -12.715  16.035  70.987  1.00  0.00    -0.567 NA 
HETATM    6  H   UNL     1     -13.706  16.270  71.052  1.00  0.00     0.000 HD 
HETATM    7  O   UNL     1     -11.854  16.554  71.705  1.00  0.00    -0.665 OA 
HETATM    8  H   UNL     1     -12.193  17.190  72.322  1.00  0.00     0.000 HD 
ENDBRANCH   4   5
BRANCH   4   9
HETATM    9  C   UNL     1     -11.479  15.519  68.971  1.00  0.00    -0.352 C  
HETATM   10  O   UNL     1     -11.123  14.740  68.086  1.00  0.00    -0.259 OA 
BRANCH   9  11
HETATM   11  N   UNL     1     -11.132  16.856  68.936  1.00  0.00    -0.238 N  
HETATM   12  H   UNL     1     -11.798  17.548  69.279  1.00  0.00     0.000 HD 
BRANCH  11  13
HETATM   13  C   UNL     1      -9.840  17.311  68.424  1.00  0.00    -0.309 C  
HETATM   14  C   UNL     1      -9.771  17.282  66.891  1.00  0.00    -0.275 C  
HETATM   15  C   UNL     1     -10.606  18.376  66.228  1.00  0.00    -0.343 C  
HETATM   16  C   UNL     1     -10.341  19.766  66.799  1.00  0.00    -0.604 C  
HETATM   17  C   UNL     1     -10.362  19.805  68.324  1.00  0.00    -0.536 C  
HETATM   18  C   UNL     1      -9.503  18.709  68.951  1.00  0.00    -0.297 C  
ENDBRANCH  11  13
ENDBRANCH   9  11
ENDBRANCH   4   9
ENDBRANCH   3   4
TORSDOF 5
ENDMDL
MODEL       58
REMARK 921   NORMALIZED FREE ENERGY PREDICTED BY IDOCK:   -4.41 KCAL/MOL
REMARK 922        TOTAL FREE ENERGY PREDICTED BY IDOCK:   -6.29 KCAL/MOL
REMARK 923 INTER-LIGAND FREE ENERGY PREDICTED BY IDOCK:   -5.69 KCAL/MOL
REMARK 924 INTRA-LIGAND FREE ENERGY PREDICTED BY IDOCK:   -0.60 KCAL/MOL
REMARK 927      BINDING AFFINITY PREDICTED BY RF-SCORE:    0.00 PKD
ROOT
HETATM    1 CL   UNL     1      -9.127  18.652  68.578  1.00  0.00    -0.350 Cl 
HETATM    2  C   UNL     1     -10.279  17.392  68.064  1.00  0.00    -0.345 C  
HETATM    3  C   UNL     1      -9.588  16.374  67.163  1.00  0.00    -0.235 C  
ENDROOT
BRANCH   3   4
HETATM    4  N   UNL     1     -10.501  15.333  66.680  1.00  0.00    -0.284 N  
BRANCH   4   5
HETATM    5  N   UNL     1     -11.414  14.727  67.551  1.00  0.00    -0.344 NA 
HETATM    6  H   UNL     1     -11.187  14.496  68.519  1.00  0.00     0.000 HD 
HETATM    7  O   UNL     1     -12.518  14.497  67.047  1.00  0.00    -0.547 OA 
HETATM    8  H   UNL     1     -13.138  14.086  67.638  1.00  0.00     0.000 HD 
ENDBRANCH   4   5
BRANCH   4   9
HETATM    9  C   UNL     1     -10.573  15.089  65.310  1.00  0.00    -0.397 C  
HETATM   10  O   UNL     1     -11.027  15.919  64.521  1.00  0.00    -0.527 OA 
BRANCH   9  11
HETATM   11  N   UNL     1     -10.145  13.846  64.883  1.00  0.00    -0.606 N  
HETATM   12  H   UNL     1      -9.148  13.692  64.735  1.00  0.00     0.000 HD 
BRANCH  11  13
HETATM   13  C   UNL     1     -11.077  12.746  64.638  1.00  0.00    -0.318 C  
HETATM   14  C   UNL     1     -10.941  12.163  63.225  1.00  0.00    -0.398 C  
HETATM   15  C   UNL     1      -9.664  11.346  63.029  1.00  0.00    -0.393 C  
HETATM   16  C   UNL     1      -9.447  10.299  64.117  1.00  0.00    -0.358 C  
HETATM   17  C   UNL     1      -9.622  10.850  65.529  1.00  0.00    -0.266 C  
HETATM   18  C   UNL     1     -10.915  11.646  65.691  1.00  0.00    -0.322 C  
ENDBRANCH  11  13
ENDBRANCH   9  11
ENDBRANCH   4   9
ENDBRANCH   3   4
TORSDOF 5
ENDMDL
MODEL       59
REMARK 921   NORMALIZED FREE ENERGY PREDICTED BY IDOCK:   -4.41 KCAL/MOL
REMARK 922        TOTAL FREE ENERGY PREDICTED BY IDOCK:   -6.29 KCAL/MOL
REMARK 923 INTER-LIGAND FREE ENERGY PREDICTED BY IDOCK:   -5.93 KCAL/MOL
REMARK 924 INTRA-LIGAND FREE ENERGY PREDICTED BY IDOCK:   -0.37 KCAL/MOL
REMARK 927      BINDING AFFINITY PREDICTED BY RF-SCORE:    0.00 PKD
ROOT
HETATM    1 CL   UNL     1      -9.060  17.925  68.576  1.00  0.00    -0.288 Cl 
HETATM    2  C   UNL     1     -10.649  17.123  68.679  1.00  0.00    -0.352 C  
HETATM    3  C   UNL     1     -10.615  16.004  69.714  1.00  0.00    -0.323 C  
ENDROOT
BRANCH   3   4
HETATM    4  N   UNL     1     -11.890  15.285  69.812  1.00  0.00    -0.311 N  
BRANCH   4   5
HETATM    5  N   UNL     1     -12.980  15.858  70.478  1.00  0.00    -0.713 NA 
HETATM    6  H   UNL     1     -13.799  16.222  69.990  1.00  0.00     0.000 HD 
HETATM    7  O   UNL     1     -12.865  15.885  71.708  1.00  0.00    -0.455 OA 
HETATM    8  H   UNL     1     -13.604  16.273  72.160  1.00  0.00     0.000 HD 
ENDBRANCH   4   5
BRANCH   4   9
HETATM    9  C   UNL     1     -12.055  14.112  69.079  1.00  0.00    -0.313 C  
HETATM   10  O   UNL     1     -12.072  13.003  69.614  1.00  0.00    -0.297 OA 
BRANCH   9  11
HETATM   11  N   UNL     1     -12.158  14.254  67.708  1.00  0.00    -0.576 N  
HETATM   12  H   UNL     1     -12.940  14.785  67.324  1.00  0.00     0.000 HD 
BRANCH  11  13
HETATM   13  C   UNL     1     -11.184  13.666  66.790  1.00  0.00    -0.314 C  
HETATM   14  C   UNL     1     -11.724  12.420  66.076  1.00  0.00    -0.469 C  
HETATM   15  C   UNL     1     -12.776  12.740  65.016  1.00  0.00    -0.455 C  
HETATM   16  C   UNL     1     -12.337  13.829  64.041  1.00  0.00    -0.370 C  
HETATM   17  C   UNL     1     -11.756  15.058  64.732  1.00  0.00    -0.370 C  
HETATM   18  C   UNL     1     -10.696  14.700  65.772  1.00  0.00    -0.321 C  
ENDBRANCH  11  13
ENDBRANCH   9  11
ENDBRANCH   4   9
ENDBRANCH   3   4
TORSDOF 5
ENDMDL
MODEL       60
REMARK 921   NORMALIZED FREE ENERGY PREDICTED BY IDOCK:   -4.39 KCAL/MOL
REMARK 922        TOTAL FREE ENERGY PREDICTED BY IDOCK:   -6.27 KCAL/MOL
REMARK 923 INTER-LIGAND FREE ENERGY PREDICTED BY IDOCK:   -5.60 KCAL/MOL
REMARK 924 INTRA-LIGAND FREE ENERGY PREDICTED BY IDOCK:   -0.67 KCAL/MOL
REMARK 927      BINDING AFFINITY PREDICTED BY RF-SCORE:    0.00 PKD
ROOT
HETATM    1 CL   UNL     1     -10.677  19.512  66.787  1.00  0.00    -0.576 Cl 
HETATM    2  C   UNL     1     -10.403  17.755  66.658  1.00  0.00    -0.345 C  
HETATM    3  C   UNL     1     -10.410  17.112  68.040  1.00  0.00    -0.353 C  
ENDROOT
BRANCH   3   4
HETATM    4  N   UNL     1     -10.152  15.669  67.995  1.00  0.00    -0.223 N  
BRANCH   4   5
HETATM    5  N   UNL     1      -8.927  15.151  68.433  1.00  0.00    -0.177 NA 
HETATM    6  H   UNL     1      -8.062  15.690  68.424  1.00  0.00     0.000 HD 
HETATM    7  O   UNL     1      -8.986  13.983  68.832  1.00  0.00    -0.364 OA 
HETATM    8  H   UNL     1      -8.156  13.631  69.130  1.00  0.00     0.000 HD 
ENDBRANCH   4   5
BRANCH   4   9
HETATM    9  C   UNL     1     -11.204  14.811  67.685  1.00  0.00    -0.323 C  
HETATM   10  O   UNL     1     -12.147  14.627  68.456  1.00  0.00    -0.284 OA 
BRANCH   9  11
HETATM   11  N   UNL     1     -11.117  14.141  66.479  1.00  0.00    -0.312 N  
HETATM   12  H   UNL     1     -10.464  14.480  65.773  1.00  0.00     0.000 HD 
BRANCH  11  13
HETATM   13  C   UNL     1     -11.931  12.962  66.184  1.00  0.00    -0.429 C  
HETATM   14  C   UNL     1     -12.648  13.064  64.832  1.00  0.00    -0.490 C  
HETATM   15  C   UNL     1     -11.707  12.918  63.637  1.00  0.00    -0.572 C  
HETATM   16  C   UNL     1     -10.803  11.693  63.728  1.00  0.00    -0.493 C  
HETATM   17  C   UNL     1     -10.115  11.550  65.083  1.00  0.00    -0.313 C  
HETATM   18  C   UNL     1     -11.089  11.684  66.252  1.00  0.00    -0.345 C  
ENDBRANCH  11  13
ENDBRANCH   9  11
ENDBRANCH   4   9
ENDBRANCH   3   4
TORSDOF 5
ENDMDL
MODEL       61
REMARK 921   NORMALIZED FREE ENERGY PREDICTED BY IDOCK:   -4.38 KCAL/MOL
REMARK 922        TOTAL FREE ENERGY PREDICTED BY IDOCK:   -6.26 KCAL/MOL
REMARK 923 INTER-LIGAND FREE ENERGY PREDICTED BY IDOCK:   -5.65 KCAL/MOL
REMARK 924 INTRA-LIGAND FREE ENERGY PREDICTED BY IDOCK:   -0.62 KCAL/MOL
REMARK 927      BINDING AFFINITY PREDICTED BY RF-SCORE:    0.00 PKD
ROOT
HETATM    1 CL   UNL     1     -13.014  15.877  71.619  1.00  0.00    -0.478 Cl 
HETATM    2  C   UNL     1     -12.434  14.241  71.213  1.00  0.00    -0.365 C  
HETATM    3  C   UNL     1     -12.141  14.136  69.720  1.00  0.00    -0.354 C  
ENDROOT
BRANCH   3   4
HETATM    4  N   UNL     1     -11.694  12.796  69.324  1.00  0.00    -0.307 N  
BRANCH   4   5
HETATM    5  N   UNL     1     -11.379  11.835  70.292  1.00  0.00    -0.463 NA 
HETATM    6  H   UNL     1     -11.831  11.801  71.207  1.00  0.00     0.000 HD 
HETATM    7  O   UNL     1     -10.507  11.032  69.944  1.00  0.00    -0.446 OA 
HETATM    8  H   UNL     1     -10.293  10.381  70.600  1.00  0.00     0.000 HD 
ENDBRANCH   4   5
BRANCH   4   9
HETATM    9  C   UNL     1     -11.766  12.437  67.980  1.00  0.00    -0.356 C  
HETATM   10  O   UNL     1     -12.048  11.293  67.622  1.00  0.00    -0.600 OA 
BRANCH   9  11
HETATM   11  N   UNL     1     -11.463  13.425  67.062  1.00  0.00    -0.321 N  
HETATM   12  H   UNL     1     -12.099  14.215  66.959  1.00  0.00     0.000 HD 
BRANCH  11  13
HETATM   13  C   UNL     1     -10.258  13.374  66.235  1.00  0.00    -0.298 C  
HETATM   14  C   UNL     1     -10.379  14.225  64.964  1.00  0.00    -0.448 C  
HETATM   15  C   UNL     1     -10.329  15.728  65.237  1.00  0.00    -0.387 C  
HETATM   16  C   UNL     1      -9.147  16.143  66.108  1.00  0.00    -0.382 C  
HETATM   17  C   UNL     1      -8.984  15.279  67.355  1.00  0.00    -0.194 C  
HETATM   18  C   UNL     1      -9.022  13.785  67.041  1.00  0.00    -0.247 C  
ENDBRANCH  11  13
ENDBRANCH   9  11
ENDBRANCH   4   9
ENDBRANCH   3   4
TORSDOF 5
ENDMDL
MODEL       62
REMARK 921   NORMALIZED FREE ENERGY PREDICTED BY IDOCK:   -4.37 KCAL/MOL
REMARK 922        TOTAL FREE ENERGY PREDICTED BY IDOCK:   -6.24 KCAL/MOL
REMARK 923 INTER-LIGAND FREE ENERGY PREDICTED BY IDOCK:   -5.61 KCAL/MOL
REMARK 924 INTRA-LIGAND FREE ENERGY PREDICTED BY IDOCK:   -0.63 KCAL/MOL
REMARK 927      BINDING AFFINITY PREDICTED BY RF-SCORE:    0.00 PKD
ROOT
HETATM    1 CL   UNL     1     -12.328  12.647  65.268  1.00  0.00    -0.541 Cl 
HETATM    2  C   UNL     1     -11.601  13.005  66.856  1.00  0.00    -0.366 C  
HETATM    3  C   UNL     1     -11.546  14.511  67.089  1.00  0.00    -0.388 C  
ENDROOT
BRANCH   3   4
HETATM    4  N   UNL     1     -10.922  14.863  68.369  1.00  0.00    -0.252 N  
BRANCH   4   5
HETATM    5  N   UNL     1      -9.898  14.071  68.903  1.00  0.00    -0.402 NA 
HETATM    6  H   UNL     1      -9.815  13.072  68.716  1.00  0.00     0.000 HD 
HETATM    7  O   UNL     1      -9.103  14.689  69.620  1.00  0.00    -0.406 OA 
HETATM    8  H   UNL     1      -8.408  14.152  69.982  1.00  0.00     0.000 HD 
ENDBRANCH   4   5
BRANCH   4   9
HETATM    9  C   UNL     1     -11.233  16.090  68.950  1.00  0.00    -0.353 C  
HETATM   10  O   UNL     1     -11.699  16.177  70.086  1.00  0.00    -0.303 OA 
BRANCH   9  11
HETATM   11  N   UNL     1     -11.029  17.210  68.167  1.00  0.00    -0.314 N  
HETATM   12  H   UNL     1     -11.411  17.228  67.221  1.00  0.00     0.000 HD 
BRANCH  11  13
HETATM   13  C   UNL     1     -10.284  18.372  68.651  1.00  0.00    -0.339 C  
HETATM   14  C   UNL     1      -8.767  18.145  68.638  1.00  0.00    -0.280 C  
HETATM   15  C   UNL     1      -8.169  18.140  67.231  1.00  0.00    -0.234 C  
HETATM   16  C   UNL     1      -8.587  19.345  66.394  1.00  0.00    -0.372 C  
HETATM   17  C   UNL     1     -10.089  19.612  66.431  1.00  0.00    -0.573 C  
HETATM   18  C   UNL     1     -10.647  19.628  67.852  1.00  0.00    -0.492 C  
ENDBRANCH  11  13
ENDBRANCH   9  11
ENDBRANCH   4   9
ENDBRANCH   3   4
TORSDOF 5
ENDMDL
MODEL       63
REMARK 921   NORMALIZED FREE ENERGY PREDICTED BY IDOCK:   -4.36 KCAL/MOL
REMARK 922        TOTAL FREE ENERGY PREDICTED BY IDOCK:   -6.23 KCAL/MOL
REMARK 923 INTER-LIGAND FREE ENERGY PREDICTED BY IDOCK:   -5.71 KCAL/MOL
REMARK 924 INTRA-LIGAND FREE ENERGY PREDICTED BY IDOCK:   -0.51 KCAL/MOL
REMARK 927      BINDING AFFINITY PREDICTED BY RF-SCORE:    0.00 PKD
ROOT
HETATM    1 CL   UNL     1     -11.582  14.747  68.083  1.00  0.00    -0.342 Cl 
HETATM    2  C   UNL     1     -11.382  14.381  66.349  1.00  0.00    -0.350 C  
HETATM    3  C   UNL     1     -12.039  13.049  66.007  1.00  0.00    -0.432 C  
ENDROOT
BRANCH   3   4
HETATM    4  N   UNL     1     -11.872  12.681  64.597  1.00  0.00    -0.359 N  
BRANCH   4   5
HETATM    5  N   UNL     1     -12.767  13.150  63.628  1.00  0.00    -0.701 NA 
HETATM    6  H   UNL     1     -13.662  12.700  63.436  1.00  0.00     0.000 HD 
HETATM    7  O   UNL     1     -12.377  14.156  63.025  1.00  0.00    -1.070 OA 
HETATM    8  H   UNL     1     -12.983  14.475  62.368  1.00  0.00     0.000 HD 
ENDBRANCH   4   5
BRANCH   4   9
HETATM    9  C   UNL     1     -10.711  12.013  64.213  1.00  0.00    -0.336 C  
HETATM   10  O   UNL     1      -9.954  12.461  63.351  1.00  0.00    -0.398 OA 
BRANCH   9  11
HETATM   11  N   UNL     1     -10.470  10.797  64.823  1.00  0.00    -0.311 N  
HETATM   12  H   UNL     1     -10.957   9.969  64.481  1.00  0.00     0.000 HD 
BRANCH  11  13
HETATM   13  C   UNL     1      -9.540  10.659  65.943  1.00  0.00    -0.205 C  
HETATM   14  C   UNL     1     -10.197  10.037  67.182  1.00  0.00    -0.284 C  
HETATM   15  C   UNL     1     -10.488   8.544  67.025  1.00  0.00    -0.362 C  
HETATM   16  C   UNL     1      -9.284   7.744  66.536  1.00  0.00    -0.229 C  
HETATM   17  C   UNL     1      -8.591   8.373  65.331  1.00  0.00    -0.193 C  
HETATM   18  C   UNL     1      -8.301   9.859  65.531  1.00  0.00    -0.143 C  
ENDBRANCH  11  13
ENDBRANCH   9  11
ENDBRANCH   4   9
ENDBRANCH   3   4
TORSDOF 5
ENDMDL
MODEL       64
REMARK 921   NORMALIZED FREE ENERGY PREDICTED BY IDOCK:   -4.36 KCAL/MOL
REMARK 922        TOTAL FREE ENERGY PREDICTED BY IDOCK:   -6.23 KCAL/MOL
REMARK 923 INTER-LIGAND FREE ENERGY PREDICTED BY IDOCK:   -5.64 KCAL/MOL
REMARK 924 INTRA-LIGAND FREE ENERGY PREDICTED BY IDOCK:   -0.58 KCAL/MOL
REMARK 927      BINDING AFFINITY PREDICTED BY RF-SCORE:    0.00 PKD
ROOT
HETATM    1 CL   UNL     1      -7.913   9.209  63.859  1.00  0.00    -0.134 Cl 
HETATM    2  C   UNL     1      -9.168  10.395  63.415  1.00  0.00    -0.285 C  
HETATM    3  C   UNL     1     -10.055  10.706  64.616  1.00  0.00    -0.349 C  
ENDROOT
BRANCH   3   4
HETATM    4  N   UNL     1     -11.129  11.652  64.296  1.00  0.00    -0.343 N  
BRANCH   4   5
HETATM    5  N   UNL     1     -11.810  11.570  63.075  1.00  0.00    -0.897 NA 
HETATM    6  H   UNL     1     -11.379  11.207  62.224  1.00  0.00     0.000 HD 
HETATM    7  O   UNL     1     -12.976  11.975  63.117  1.00  0.00    -0.752 OA 
HETATM    8  H   UNL     1     -13.438  11.919  62.289  1.00  0.00     0.000 HD 
ENDBRANCH   4   5
BRANCH   4   9
HETATM    9  C   UNL     1     -11.585  12.510  65.294  1.00  0.00    -0.364 C  
HETATM   10  O   UNL     1     -12.361  12.135  66.175  1.00  0.00    -0.536 OA 
BRANCH   9  11
HETATM   11  N   UNL     1     -11.153  13.820  65.223  1.00  0.00    -0.304 N  
HETATM   12  H   UNL     1     -11.722  14.500  64.719  1.00  0.00     0.000 HD 
BRANCH  11  13
HETATM   13  C   UNL     1      -9.908  14.263  65.849  1.00  0.00    -0.298 C  
HETATM   14  C   UNL     1      -9.696  15.778  65.732  1.00  0.00    -0.372 C  
HETATM   15  C   UNL     1     -10.629  16.589  66.631  1.00  0.00    -0.216 C  
HETATM   16  C   UNL     1     -10.637  16.109  68.079  1.00  0.00    -0.304 C  
HETATM   17  C   UNL     1     -10.802  14.598  68.213  1.00  0.00    -0.249 C  
HETATM   18  C   UNL     1      -9.843  13.822  67.314  1.00  0.00    -0.241 C  
ENDBRANCH  11  13
ENDBRANCH   9  11
ENDBRANCH   4   9
ENDBRANCH   3   4
TORSDOF 5
ENDMDL
MODEL       65
REMARK 921   NORMALIZED FREE ENERGY PREDICTED BY IDOCK:   -4.35 KCAL/MOL
REMARK 922        TOTAL FREE ENERGY PREDICTED BY IDOCK:   -6.21 KCAL/MOL
REMARK 923 INTER-LIGAND FREE ENERGY PREDICTED BY IDOCK:   -5.86 KCAL/MOL
REMARK 924 INTRA-LIGAND FREE ENERGY PREDICTED BY IDOCK:   -0.35 KCAL/MOL
REMARK 927      BINDING AFFINITY PREDICTED BY RF-SCORE:    0.00 PKD
ROOT
HETATM    1 CL   UNL     1     -11.710  12.012  68.288  1.00  0.00    -0.388 Cl 
HETATM    2  C   UNL     1     -10.858  12.918  67.011  1.00  0.00    -0.260 C  
HETATM    3  C   UNL     1     -11.833  13.336  65.915  1.00  0.00    -0.393 C  
ENDROOT
BRANCH   3   4
HETATM    4  N   UNL     1     -11.176  14.055  64.818  1.00  0.00    -0.359 N  
BRANCH   4   5
HETATM    5  N   UNL     1     -10.326  13.382  63.933  1.00  0.00    -0.668 NA 
HETATM    6  H   UNL     1      -9.310  13.466  63.968  1.00  0.00     0.000 HD 
HETATM    7  O   UNL     1     -10.913  12.676  63.107  1.00  0.00    -0.669 OA 
HETATM    8  H   UNL     1     -10.337  12.219  62.506  1.00  0.00     0.000 HD 
ENDBRANCH   4   5
BRANCH   4   9
HETATM    9  C   UNL     1     -11.554  15.371  64.560  1.00  0.00    -0.296 C  
HETATM   10  O   UNL     1     -12.583  15.647  63.941  1.00  0.00    -0.697 OA 
BRANCH   9  11
HETATM   11  N   UNL     1     -10.691  16.357  65.001  1.00  0.00    -0.344 N  
HETATM   12  H   UNL     1     -10.292  17.003  64.320  1.00  0.00     0.000 HD 
BRANCH  11  13
HETATM   13  C   UNL     1     -10.333  16.502  66.411  1.00  0.00    -0.311 C  
HETATM   14  C   UNL     1      -8.925  15.976  66.718  1.00  0.00    -0.275 C  
HETATM   15  C   UNL     1      -7.813  16.871  66.172  1.00  0.00    -0.277 C  
HETATM   16  C   UNL     1      -7.983  18.340  66.547  1.00  0.00    -0.294 C  
HETATM   17  C   UNL     1      -9.390  18.869  66.290  1.00  0.00    -0.297 C  
HETATM   18  C   UNL     1     -10.473  17.958  66.865  1.00  0.00    -0.334 C  
ENDBRANCH  11  13
ENDBRANCH   9  11
ENDBRANCH   4   9
ENDBRANCH   3   4
TORSDOF 5
ENDMDL
MODEL       66
REMARK 921   NORMALIZED FREE ENERGY PREDICTED BY IDOCK:   -4.34 KCAL/MOL
REMARK 922        TOTAL FREE ENERGY PREDICTED BY IDOCK:   -6.21 KCAL/MOL
REMARK 923 INTER-LIGAND FREE ENERGY PREDICTED BY IDOCK:   -5.66 KCAL/MOL
REMARK 924 INTRA-LIGAND FREE ENERGY PREDICTED BY IDOCK:   -0.54 KCAL/MOL
REMARK 927      BINDING AFFINITY PREDICTED BY RF-SCORE:    0.00 PKD
ROOT
HETATM    1 CL   UNL     1      -9.024   3.152  66.116  1.00  0.00    -0.142 Cl 
HETATM    2  C   UNL     1     -10.006   4.597  66.471  1.00  0.00    -0.242 C  
HETATM    3  C   UNL     1      -9.912   4.956  67.950  1.00  0.00    -0.123 C  
ENDROOT
BRANCH   3   4
HETATM    4  N   UNL     1     -10.733   6.118  68.304  1.00  0.00    -0.263 N  
BRANCH   4   5
HETATM    5  N   UNL     1     -11.324   6.902  67.306  1.00  0.00    -0.704 NA 
HETATM    6  H   UNL     1     -12.082   6.565  66.713  1.00  0.00     0.000 HD 
HETATM    7  O   UNL     1     -10.848   8.038  67.207  1.00  0.00    -0.491 OA 
HETATM    8  H   UNL     1     -11.249   8.571  66.531  1.00  0.00     0.000 HD 
ENDBRANCH   4   5
BRANCH   4   9
HETATM    9  C   UNL     1     -11.065   6.320  69.642  1.00  0.00    -0.412 C  
HETATM   10  O   UNL     1     -10.908   5.444  70.494  1.00  0.00    -0.239 OA 
BRANCH   9  11
HETATM   11  N   UNL     1     -11.622   7.544  69.960  1.00  0.00    -0.488 N  
HETATM   12  H   UNL     1     -12.428   7.872  69.428  1.00  0.00     0.000 HD 
BRANCH  11  13
HETATM   13  C   UNL     1     -11.093   8.383  71.034  1.00  0.00    -0.258 C  
HETATM   14  C   UNL     1     -10.861   9.833  70.589  1.00  0.00    -0.396 C  
HETATM   15  C   UNL     1     -12.158  10.618  70.390  1.00  0.00    -0.430 C  
HETATM   16  C   UNL     1     -13.112  10.515  71.576  1.00  0.00    -0.532 C  
HETATM   17  C   UNL     1     -13.320   9.083  72.060  1.00  0.00    -0.494 C  
HETATM   18  C   UNL     1     -12.004   8.337  72.265  1.00  0.00    -0.448 C  
ENDBRANCH  11  13
ENDBRANCH   9  11
ENDBRANCH   4   9
ENDBRANCH   3   4
TORSDOF 5
ENDMDL
MODEL       67
REMARK 921   NORMALIZED FREE ENERGY PREDICTED BY IDOCK:   -4.32 KCAL/MOL
REMARK 922        TOTAL FREE ENERGY PREDICTED BY IDOCK:   -6.18 KCAL/MOL
REMARK 923 INTER-LIGAND FREE ENERGY PREDICTED BY IDOCK:   -5.52 KCAL/MOL
REMARK 924 INTRA-LIGAND FREE ENERGY PREDICTED BY IDOCK:   -0.66 KCAL/MOL
REMARK 927      BINDING AFFINITY PREDICTED BY RF-SCORE:    0.00 PKD
ROOT
HETATM    1 CL   UNL     1     -13.669  15.202  72.108  1.00  0.00    -0.520 Cl 
HETATM    2  C   UNL     1     -12.274  14.377  71.365  1.00  0.00    -0.352 C  
HETATM    3  C   UNL     1     -12.283  14.573  69.853  1.00  0.00    -0.328 C  
ENDROOT
BRANCH   3   4
HETATM    4  N   UNL     1     -11.175  13.883  69.186  1.00  0.00    -0.262 N  
BRANCH   4   5
HETATM    5  N   UNL     1      -9.870  14.382  69.272  1.00  0.00    -0.419 NA 
HETATM    6  H   UNL     1      -9.663  15.357  69.490  1.00  0.00     0.000 HD 
HETATM    7  O   UNL     1      -8.991  13.540  69.062  1.00  0.00    -0.372 OA 
HETATM    8  H   UNL     1      -8.105  13.878  69.121  1.00  0.00     0.000 HD 
ENDBRANCH   4   5
BRANCH   4   9
HETATM    9  C   UNL     1     -11.409  12.629  68.624  1.00  0.00    -0.291 C  
HETATM   10  O   UNL     1     -11.075  11.587  69.188  1.00  0.00    -0.233 OA 
BRANCH   9  11
HETATM   11  N   UNL     1     -12.000  12.616  67.375  1.00  0.00    -0.319 N  
HETATM   12  H   UNL     1     -12.679  11.886  67.158  1.00  0.00     0.000 HD 
BRANCH  11  13
HETATM   13  C   UNL     1     -11.684  13.615  66.354  1.00  0.00    -0.373 C  
HETATM   14  C   UNL     1     -10.290  13.415  65.746  1.00  0.00    -0.296 C  
HETATM   15  C   UNL     1     -10.203  12.201  64.822  1.00  0.00    -0.310 C  
HETATM   16  C   UNL     1     -11.310  12.163  63.772  1.00  0.00    -0.529 C  
HETATM   17  C   UNL     1     -12.700  12.404  64.353  1.00  0.00    -0.434 C  
HETATM   18  C   UNL     1     -12.752  13.634  65.257  1.00  0.00    -0.478 C  
ENDBRANCH  11  13
ENDBRANCH   9  11
ENDBRANCH   4   9
ENDBRANCH   3   4
TORSDOF 5
ENDMDL
MODEL       68
REMARK 921   NORMALIZED FREE ENERGY PREDICTED BY IDOCK:   -4.31 KCAL/MOL
REMARK 922        TOTAL FREE ENERGY PREDICTED BY IDOCK:   -6.17 KCAL/MOL
REMARK 923 INTER-LIGAND FREE ENERGY PREDICTED BY IDOCK:   -5.56 KCAL/MOL
REMARK 924 INTRA-LIGAND FREE ENERGY PREDICTED BY IDOCK:   -0.61 KCAL/MOL
REMARK 927      BINDING AFFINITY PREDICTED BY RF-SCORE:    0.00 PKD
ROOT
HETATM    1 CL   UNL     1      -9.889  19.580  68.205  1.00  0.00    -0.478 Cl 
HETATM    2  C   UNL     1     -10.486  17.948  67.803  1.00  0.00    -0.400 C  
HETATM    3  C   UNL     1     -10.465  17.054  69.038  1.00  0.00    -0.337 C  
ENDROOT
BRANCH   3   4
HETATM    4  N   UNL     1     -10.912  15.687  68.755  1.00  0.00    -0.264 N  
BRANCH   4   5
HETATM    5  N   UNL     1     -12.277  15.379  68.712  1.00  0.00    -0.593 NA 
HETATM    6  H   UNL     1     -12.927  15.827  68.066  1.00  0.00     0.000 HD 
HETATM    7  O   UNL     1     -12.627  14.518  69.527  1.00  0.00    -0.558 OA 
HETATM    8  H   UNL     1     -13.553  14.309  69.499  1.00  0.00     0.000 HD 
ENDBRANCH   4   5
BRANCH   4   9
HETATM    9  C   UNL     1      -9.970  14.745  68.347  1.00  0.00    -0.223 C  
HETATM   10  O   UNL     1      -8.801  14.780  68.735  1.00  0.00    -0.175 OA 
BRANCH   9  11
HETATM   11  N   UNL     1     -10.403  13.789  67.449  1.00  0.00    -0.251 N  
HETATM   12  H   UNL     1     -10.864  12.952  67.804  1.00  0.00     0.000 HD 
BRANCH  11  13
HETATM   13  C   UNL     1     -10.222  13.940  66.006  1.00  0.00    -0.310 C  
HETATM   14  C   UNL     1     -10.061  12.593  65.289  1.00  0.00    -0.271 C  
HETATM   15  C   UNL     1     -11.359  11.792  65.209  1.00  0.00    -0.284 C  
HETATM   16  C   UNL     1     -12.536  12.602  64.673  1.00  0.00    -0.538 C  
HETATM   17  C   UNL     1     -12.685  13.964  65.345  1.00  0.00    -0.525 C  
HETATM   18  C   UNL     1     -11.372  14.743  65.390  1.00  0.00    -0.356 C  
ENDBRANCH  11  13
ENDBRANCH   9  11
ENDBRANCH   4   9
ENDBRANCH   3   4
TORSDOF 5
ENDMDL
MODEL       69
REMARK 921   NORMALIZED FREE ENERGY PREDICTED BY IDOCK:   -4.31 KCAL/MOL
REMARK 922        TOTAL FREE ENERGY PREDICTED BY IDOCK:   -6.17 KCAL/MOL
REMARK 923 INTER-LIGAND FREE ENERGY PREDICTED BY IDOCK:   -5.57 KCAL/MOL
REMARK 924 INTRA-LIGAND FREE ENERGY PREDICTED BY IDOCK:   -0.60 KCAL/MOL
REMARK 927      BINDING AFFINITY PREDICTED BY RF-SCORE:    0.00 PKD
ROOT
HETATM    1 CL   UNL     1     -12.929  11.839  63.452  1.00  0.00    -0.438 Cl 
HETATM    2  C   UNL     1     -11.621  12.418  64.516  1.00  0.00    -0.348 C  
HETATM    3  C   UNL     1     -11.919  13.832  65.004  1.00  0.00    -0.383 C  
ENDROOT
BRANCH   3   4
HETATM    4  N   UNL     1     -10.854  14.372  65.856  1.00  0.00    -0.297 N  
BRANCH   4   5
HETATM    5  N   UNL     1      -9.509  14.121  65.559  1.00  0.00    -0.519 NA 
HETATM    6  H   UNL     1      -9.210  13.617  64.724  1.00  0.00     0.000 HD 
HETATM    7  O   UNL     1      -8.715  14.563  66.397  1.00  0.00    -0.458 OA 
HETATM    8  H   UNL     1      -7.803  14.393  66.196  1.00  0.00     0.000 HD 
ENDBRANCH   4   5
BRANCH   4   9
HETATM    9  C   UNL     1     -11.192  15.287  66.850  1.00  0.00    -0.256 C  
HETATM   10  O   UNL     1     -10.887  16.479  66.775  1.00  0.00    -0.217 OA 
BRANCH   9  11
HETATM   11  N   UNL     1     -11.855  14.781  67.952  1.00  0.00    -0.483 N  
HETATM   12  H   UNL     1     -12.875  14.765  67.950  1.00  0.00     0.000 HD 
BRANCH  11  13
HETATM   13  C   UNL     1     -11.142  14.269  69.121  1.00  0.00    -0.262 C  
HETATM   14  C   UNL     1     -10.359  15.362  69.860  1.00  0.00    -0.298 C  
HETATM   15  C   UNL     1     -11.256  16.333  70.627  1.00  0.00    -0.310 C  
HETATM   16  C   UNL     1     -12.272  15.633  71.524  1.00  0.00    -0.487 C  
HETATM   17  C   UNL     1     -13.029  14.513  70.818  1.00  0.00    -0.403 C  
HETATM   18  C   UNL     1     -12.100  13.553  70.078  1.00  0.00    -0.411 C  
ENDBRANCH  11  13
ENDBRANCH   9  11
ENDBRANCH   4   9
ENDBRANCH   3   4
TORSDOF 5
ENDMDL
MODEL       70
REMARK 921   NORMALIZED FREE ENERGY PREDICTED BY IDOCK:   -4.31 KCAL/MOL
REMARK 922        TOTAL FREE ENERGY PREDICTED BY IDOCK:   -6.17 KCAL/MOL
REMARK 923 INTER-LIGAND FREE ENERGY PREDICTED BY IDOCK:   -5.70 KCAL/MOL
REMARK 924 INTRA-LIGAND FREE ENERGY PREDICTED BY IDOCK:   -0.47 KCAL/MOL
REMARK 927      BINDING AFFINITY PREDICTED BY RF-SCORE:    0.00 PKD
ROOT
HETATM    1 CL   UNL     1     -12.612   9.301  72.092  1.00  0.00    -0.449 Cl 
HETATM    2  C   UNL     1     -12.936  10.749  71.103  1.00  0.00    -0.371 C  
HETATM    3  C   UNL     1     -11.746  11.054  70.200  1.00  0.00    -0.356 C  
ENDROOT
BRANCH   3   4
HETATM    4  N   UNL     1     -11.946  12.260  69.389  1.00  0.00    -0.286 N  
BRANCH   4   5
HETATM    5  N   UNL     1     -12.155  13.502  70.001  1.00  0.00    -0.339 NA 
HETATM    6  H   UNL     1     -13.085  13.884  70.177  1.00  0.00     0.000 HD 
HETATM    7  O   UNL     1     -11.116  14.096  70.309  1.00  0.00    -0.473 OA 
HETATM    8  H   UNL     1     -11.258  14.939  70.723  1.00  0.00     0.000 HD 
ENDBRANCH   4   5
BRANCH   4   9
HETATM    9  C   UNL     1     -11.740  12.184  68.014  1.00  0.00    -0.344 C  
HETATM   10  O   UNL     1     -11.793  11.115  67.403  1.00  0.00    -0.570 OA 
BRANCH   9  11
HETATM   11  N   UNL     1     -11.430  13.367  67.371  1.00  0.00    -0.315 N  
HETATM   12  H   UNL     1     -11.849  14.234  67.706  1.00  0.00     0.000 HD 
BRANCH  11  13
HETATM   13  C   UNL     1     -10.521  13.415  66.226  1.00  0.00    -0.289 C  
HETATM   14  C   UNL     1     -11.257  13.308  64.884  1.00  0.00    -0.338 C  
HETATM   15  C   UNL     1     -12.043  14.569  64.524  1.00  0.00    -0.501 C  
HETATM   16  C   UNL     1     -11.216  15.846  64.638  1.00  0.00    -0.361 C  
HETATM   17  C   UNL     1     -10.442  15.949  65.949  1.00  0.00    -0.373 C  
HETATM   18  C   UNL     1      -9.656  14.678  66.266  1.00  0.00    -0.333 C  
ENDBRANCH  11  13
ENDBRANCH   9  11
ENDBRANCH   4   9
ENDBRANCH   3   4
TORSDOF 5
ENDMDL
MODEL       71
REMARK 921   NORMALIZED FREE ENERGY PREDICTED BY IDOCK:   -4.31 KCAL/MOL
REMARK 922        TOTAL FREE ENERGY PREDICTED BY IDOCK:   -6.16 KCAL/MOL
REMARK 923 INTER-LIGAND FREE ENERGY PREDICTED BY IDOCK:   -5.56 KCAL/MOL
REMARK 924 INTRA-LIGAND FREE ENERGY PREDICTED BY IDOCK:   -0.60 KCAL/MOL
REMARK 927      BINDING AFFINITY PREDICTED BY RF-SCORE:    0.00 PKD
ROOT
HETATM    1 CL   UNL     1      -8.249   8.932  68.949  1.00  0.00    -0.116 Cl 
HETATM    2  C   UNL     1      -9.419  10.226  69.322  1.00  0.00    -0.215 C  
HETATM    3  C   UNL     1     -10.679  10.063  68.479  1.00  0.00    -0.231 C  
ENDROOT
BRANCH   3   4
HETATM    4  N   UNL     1     -11.661  11.125  68.720  1.00  0.00    -0.316 N  
BRANCH   4   5
HETATM    5  N   UNL     1     -12.144  11.902  67.660  1.00  0.00    -0.528 NA 
HETATM    6  H   UNL     1     -12.960  12.509  67.744  1.00  0.00     0.000 HD 
HETATM    7  O   UNL     1     -11.497  11.789  66.614  1.00  0.00    -0.399 OA 
HETATM    8  H   UNL     1     -11.824  12.315  65.895  1.00  0.00     0.000 HD 
ENDBRANCH   4   5
BRANCH   4   9
HETATM    9  C   UNL     1     -12.242  11.225  69.982  1.00  0.00    -0.314 C  
HETATM   10  O   UNL     1     -12.082  12.214  70.700  1.00  0.00    -0.365 OA 
BRANCH   9  11
HETATM   11  N   UNL     1     -12.977  10.136  70.409  1.00  0.00    -0.585 N  
HETATM   12  H   UNL     1     -13.607   9.677  69.751  1.00  0.00     0.000 HD 
BRANCH  11  13
HETATM   13  C   UNL     1     -12.881   9.620  71.774  1.00  0.00    -0.421 C  
HETATM   14  C   UNL     1     -14.077   8.739  72.157  1.00  0.00    -0.519 C  
HETATM   15  C   UNL     1     -14.069   7.376  71.465  1.00  0.00    -0.541 C  
HETATM   16  C   UNL     1     -12.738   6.643  71.593  1.00  0.00    -0.280 C  
HETATM   17  C   UNL     1     -11.533   7.517  71.259  1.00  0.00    -0.298 C  
HETATM   18  C   UNL     1     -11.566   8.862  71.982  1.00  0.00    -0.435 C  
ENDBRANCH  11  13
ENDBRANCH   9  11
ENDBRANCH   4   9
ENDBRANCH   3   4
TORSDOF 5
ENDMDL
MODEL       72
REMARK 921   NORMALIZED FREE ENERGY PREDICTED BY IDOCK:   -4.30 KCAL/MOL
REMARK 922        TOTAL FREE ENERGY PREDICTED BY IDOCK:   -6.16 KCAL/MOL
REMARK 923 INTER-LIGAND FREE ENERGY PREDICTED BY IDOCK:   -5.61 KCAL/MOL
REMARK 924 INTRA-LIGAND FREE ENERGY PREDICTED BY IDOCK:   -0.55 KCAL/MOL
REMARK 927      BINDING AFFINITY PREDICTED BY RF-SCORE:    0.00 PKD
ROOT
HETATM    1 CL   UNL     1     -13.602  15.705  73.096  1.00  0.00    -0.612 Cl 
HETATM    2  C   UNL     1     -13.249  15.469  71.364  1.00  0.00    -0.510 C  
HETATM    3  C   UNL     1     -11.836  14.927  71.178  1.00  0.00    -0.337 C  
ENDROOT
BRANCH   3   4
HETATM    4  N   UNL     1     -11.480  14.748  69.767  1.00  0.00    -0.277 N  
BRANCH   4   5
HETATM    5  N   UNL     1     -10.741  15.726  69.090  1.00  0.00    -0.230 NA 
HETATM    6  H   UNL     1      -9.742  15.866  69.237  1.00  0.00     0.000 HD 
HETATM    7  O   UNL     1     -11.406  16.405  68.300  1.00  0.00    -0.350 OA 
HETATM    8  H   UNL     1     -10.906  17.069  67.841  1.00  0.00     0.000 HD 
ENDBRANCH   4   5
BRANCH   4   9
HETATM    9  C   UNL     1     -11.725  13.516  69.166  1.00  0.00    -0.327 C  
HETATM   10  O   UNL     1     -12.065  13.420  67.985  1.00  0.00    -0.342 OA 
BRANCH   9  11
HETATM   11  N   UNL     1     -11.608  12.402  69.975  1.00  0.00    -0.525 N  
HETATM   12  H   UNL     1     -11.222  12.512  70.912  1.00  0.00     0.000 HD 
BRANCH  11  13
HETATM   13  C   UNL     1     -12.020  11.071  69.531  1.00  0.00    -0.342 C  
HETATM   14  C   UNL     1     -10.838  10.102  69.398  1.00  0.00    -0.274 C  
HETATM   15  C   UNL     1     -10.267   9.657  70.744  1.00  0.00    -0.330 C  
HETATM   16  C   UNL     1     -11.332   9.151  71.712  1.00  0.00    -0.451 C  
HETATM   17  C   UNL     1     -12.537  10.081  71.823  1.00  0.00    -0.504 C  
HETATM   18  C   UNL     1     -13.090  10.490  70.460  1.00  0.00    -0.198 C  
ENDBRANCH  11  13
ENDBRANCH   9  11
ENDBRANCH   4   9
ENDBRANCH   3   4
TORSDOF 5
ENDMDL
MODEL       73
REMARK 921   NORMALIZED FREE ENERGY PREDICTED BY IDOCK:   -4.29 KCAL/MOL
REMARK 922        TOTAL FREE ENERGY PREDICTED BY IDOCK:   -6.14 KCAL/MOL
REMARK 923 INTER-LIGAND FREE ENERGY PREDICTED BY IDOCK:   -5.79 KCAL/MOL
REMARK 924 INTRA-LIGAND FREE ENERGY PREDICTED BY IDOCK:   -0.35 KCAL/MOL
REMARK 927      BINDING AFFINITY PREDICTED BY RF-SCORE:    0.00 PKD
ROOT
HETATM    1 CL   UNL     1     -13.251  14.193  72.705  1.00  0.00    -0.583 Cl 
HETATM    2  C   UNL     1     -13.501  12.535  72.099  1.00  0.00    -0.422 C  
HETATM    3  C   UNL     1     -12.520  12.226  70.973  1.00  0.00    -0.263 C  
ENDROOT
BRANCH   3   4
HETATM    4  N   UNL     1     -12.707  10.884  70.412  1.00  0.00    -0.285 N  
BRANCH   4   5
HETATM    5  N   UNL     1     -12.526  10.653  69.043  1.00  0.00    -0.740 NA 
HETATM    6  H   UNL     1     -12.715   9.752  68.603  1.00  0.00     0.000 HD 
HETATM    7  O   UNL     1     -12.118  11.635  68.414  1.00  0.00    -0.522 OA 
HETATM    8  H   UNL     1     -11.995  11.479  67.485  1.00  0.00     0.000 HD 
ENDBRANCH   4   5
BRANCH   4   9
HETATM    9  C   UNL     1     -12.884   9.812  71.285  1.00  0.00    -0.377 C  
HETATM   10  O   UNL     1     -13.964   9.230  71.395  1.00  0.00    -0.318 OA 
BRANCH   9  11
HETATM   11  N   UNL     1     -11.793   9.460  72.055  1.00  0.00    -0.322 N  
HETATM   12  H   UNL     1     -11.767   9.745  73.034  1.00  0.00     0.000 HD 
BRANCH  11  13
HETATM   13  C   UNL     1     -10.673   8.691  71.512  1.00  0.00    -0.282 C  
HETATM   14  C   UNL     1      -9.661   8.282  72.590  1.00  0.00    -0.357 C  
HETATM   15  C   UNL     1     -10.179   7.185  73.519  1.00  0.00    -0.394 C  
HETATM   16  C   UNL     1     -10.755   5.986  72.772  1.00  0.00    -0.269 C  
HETATM   17  C   UNL     1     -11.731   6.376  71.666  1.00  0.00    -0.367 C  
HETATM   18  C   UNL     1     -11.173   7.461  70.748  1.00  0.00    -0.293 C  
ENDBRANCH  11  13
ENDBRANCH   9  11
ENDBRANCH   4   9
ENDBRANCH   3   4
TORSDOF 5
ENDMDL
MODEL       74
REMARK 921   NORMALIZED FREE ENERGY PREDICTED BY IDOCK:   -4.28 KCAL/MOL
REMARK 922        TOTAL FREE ENERGY PREDICTED BY IDOCK:   -6.13 KCAL/MOL
REMARK 923 INTER-LIGAND FREE ENERGY PREDICTED BY IDOCK:   -5.56 KCAL/MOL
REMARK 924 INTRA-LIGAND FREE ENERGY PREDICTED BY IDOCK:   -0.57 KCAL/MOL
REMARK 927      BINDING AFFINITY PREDICTED BY RF-SCORE:    0.00 PKD
ROOT
HETATM    1 CL   UNL     1     -11.403   8.981  70.621  1.00  0.00    -0.303 Cl 
HETATM    2  C   UNL     1     -11.706  10.738  70.661  1.00  0.00    -0.342 C  
HETATM    3  C   UNL     1     -11.598  11.328  69.259  1.00  0.00    -0.322 C  
ENDROOT
BRANCH   3   4
HETATM    4  N   UNL     1     -11.802  12.780  69.239  1.00  0.00    -0.310 N  
BRANCH   4   5
HETATM    5  N   UNL     1     -11.885  13.504  70.435  1.00  0.00    -0.511 NA 
HETATM    6  H   UNL     1     -12.646  13.383  71.104  1.00  0.00     0.000 HD 
HETATM    7  O   UNL     1     -10.958  14.301  70.609  1.00  0.00    -0.434 OA 
HETATM    8  H   UNL     1     -11.014  14.792  71.420  1.00  0.00     0.000 HD 
ENDBRANCH   4   5
BRANCH   4   9
HETATM    9  C   UNL     1     -11.727  13.450  68.020  1.00  0.00    -0.356 C  
HETATM   10  O   UNL     1     -11.954  14.656  67.921  1.00  0.00    -0.337 OA 
BRANCH   9  11
HETATM   11  N   UNL     1     -11.424  12.680  66.913  1.00  0.00    -0.323 N  
HETATM   12  H   UNL     1     -12.077  11.951  66.625  1.00  0.00     0.000 HD 
BRANCH  11  13
HETATM   13  C   UNL     1     -10.197  12.877  66.142  1.00  0.00    -0.278 C  
HETATM   14  C   UNL     1      -9.514  11.553  65.773  1.00  0.00    -0.255 C  
HETATM   15  C   UNL     1     -10.262  10.768  64.695  1.00  0.00    -0.419 C  
HETATM   16  C   UNL     1     -10.609  11.609  63.471  1.00  0.00    -0.496 C  
HETATM   17  C   UNL     1     -11.249  12.949  63.821  1.00  0.00    -0.452 C  
HETATM   18  C   UNL     1     -10.465  13.712  64.887  1.00  0.00    -0.426 C  
ENDBRANCH  11  13
ENDBRANCH   9  11
ENDBRANCH   4   9
ENDBRANCH   3   4
TORSDOF 5
ENDMDL
MODEL       75
REMARK 921   NORMALIZED FREE ENERGY PREDICTED BY IDOCK:   -4.28 KCAL/MOL
REMARK 922        TOTAL FREE ENERGY PREDICTED BY IDOCK:   -6.12 KCAL/MOL
REMARK 923 INTER-LIGAND FREE ENERGY PREDICTED BY IDOCK:   -5.46 KCAL/MOL
REMARK 924 INTRA-LIGAND FREE ENERGY PREDICTED BY IDOCK:   -0.66 KCAL/MOL
REMARK 927      BINDING AFFINITY PREDICTED BY RF-SCORE:    0.00 PKD
ROOT
HETATM    1 CL   UNL     1     -11.020  15.928  67.972  1.00  0.00    -0.326 Cl 
HETATM    2  C   UNL     1     -11.651  14.676  66.871  1.00  0.00    -0.362 C  
HETATM    3  C   UNL     1     -10.651  14.396  65.755  1.00  0.00    -0.318 C  
ENDROOT
BRANCH   3   4
HETATM    4  N   UNL     1     -11.138  13.397  64.797  1.00  0.00    -0.333 N  
BRANCH   4   5
HETATM    5  N   UNL     1     -12.416  13.511  64.238  1.00  0.00    -0.646 NA 
HETATM    6  H   UNL     1     -13.269  13.303  64.757  1.00  0.00     0.000 HD 
HETATM    7  O   UNL     1     -12.421  13.884  63.060  1.00  0.00    -1.099 OA 
HETATM    8  H   UNL     1     -13.288  13.961  62.680  1.00  0.00     0.000 HD 
ENDBRANCH   4   5
BRANCH   4   9
HETATM    9  C   UNL     1     -10.245  12.443  64.314  1.00  0.00    -0.332 C  
HETATM   10  O   UNL     1     -10.379  11.923  63.206  1.00  0.00    -0.424 OA 
BRANCH   9  11
HETATM   11  N   UNL     1      -9.218  12.076  65.163  1.00  0.00    -0.418 N  
HETATM   12  H   UNL     1      -8.500  12.762  65.394  1.00  0.00     0.000 HD 
BRANCH  11  13
HETATM   13  C   UNL     1      -9.128  10.735  65.740  1.00  0.00    -0.188 C  
HETATM   14  C   UNL     1      -8.002  10.614  66.776  1.00  0.00    -0.132 C  
HETATM   15  C   UNL     1      -8.307  11.338  68.087  1.00  0.00    -0.143 C  
HETATM   16  C   UNL     1      -9.674  10.986  68.665  1.00  0.00    -0.198 C  
HETATM   17  C   UNL     1     -10.800  11.058  67.638  1.00  0.00    -0.306 C  
HETATM   18  C   UNL     1     -10.467  10.310  66.349  1.00  0.00    -0.233 C  
ENDBRANCH  11  13
ENDBRANCH   9  11
ENDBRANCH   4   9
ENDBRANCH   3   4
TORSDOF 5
ENDMDL
MODEL       76
REMARK 921   NORMALIZED FREE ENERGY PREDICTED BY IDOCK:   -4.27 KCAL/MOL
REMARK 922        TOTAL FREE ENERGY PREDICTED BY IDOCK:   -6.11 KCAL/MOL
REMARK 923 INTER-LIGAND FREE ENERGY PREDICTED BY IDOCK:   -5.41 KCAL/MOL
REMARK 924 INTRA-LIGAND FREE ENERGY PREDICTED BY IDOCK:   -0.70 KCAL/MOL
REMARK 927      BINDING AFFINITY PREDICTED BY RF-SCORE:    0.00 PKD
ROOT
HETATM    1 CL   UNL     1     -14.036   8.765  72.575  1.00  0.00    -0.472 Cl 
HETATM    2  C   UNL     1     -12.450   9.117  71.840  1.00  0.00    -0.387 C  
HETATM    3  C   UNL     1     -12.547  10.330  70.921  1.00  0.00    -0.371 C  
ENDROOT
BRANCH   3   4
HETATM    4  N   UNL     1     -11.275  10.642  70.260  1.00  0.00    -0.303 N  
BRANCH   4   5
HETATM    5  N   UNL     1     -10.082  10.053  70.698  1.00  0.00    -0.358 NA 
HETATM    6  H   UNL     1     -10.024   9.478  71.538  1.00  0.00     0.000 HD 
HETATM    7  O   UNL     1      -9.107  10.292  69.979  1.00  0.00    -0.392 OA 
HETATM    8  H   UNL     1      -8.298   9.894  70.275  1.00  0.00     0.000 HD 
ENDBRANCH   4   5
BRANCH   4   9
HETATM    9  C   UNL     1     -11.298  11.384  69.081  1.00  0.00    -0.288 C  
HETATM   10  O   UNL     1     -11.486  10.860  67.982  1.00  0.00    -0.374 OA 
BRANCH   9  11
HETATM   11  N   UNL     1     -11.057  12.739  69.203  1.00  0.00    -0.385 N  
HETATM   12  H   UNL     1     -10.093  13.063  69.285  1.00  0.00     0.000 HD 
BRANCH  11  13
HETATM   13  C   UNL     1     -12.139  13.723  69.217  1.00  0.00    -0.329 C  
HETATM   14  C   UNL     1     -12.389  14.304  70.615  1.00  0.00    -0.431 C  
HETATM   15  C   UNL     1     -11.290  15.260  71.077  1.00  0.00    -0.393 C  
HETATM   16  C   UNL     1     -10.956  16.336  70.048  1.00  0.00    -0.356 C  
HETATM   17  C   UNL     1     -10.748  15.781  68.642  1.00  0.00    -0.263 C  
HETATM   18  C   UNL     1     -11.873  14.844  68.208  1.00  0.00    -0.308 C  
ENDBRANCH  11  13
ENDBRANCH   9  11
ENDBRANCH   4   9
ENDBRANCH   3   4
TORSDOF 5
ENDMDL
MODEL       77
REMARK 921   NORMALIZED FREE ENERGY PREDICTED BY IDOCK:   -4.25 KCAL/MOL
REMARK 922        TOTAL FREE ENERGY PREDICTED BY IDOCK:   -6.09 KCAL/MOL
REMARK 923 INTER-LIGAND FREE ENERGY PREDICTED BY IDOCK:   -5.44 KCAL/MOL
REMARK 924 INTRA-LIGAND FREE ENERGY PREDICTED BY IDOCK:   -0.65 KCAL/MOL
REMARK 927      BINDING AFFINITY PREDICTED BY RF-SCORE:    0.00 PKD
ROOT
HETATM    1 CL   UNL     1     -13.630  13.410  72.408  1.00  0.00    -0.687 Cl 
HETATM    2  C   UNL     1     -12.722  12.620  71.092  1.00  0.00    -0.254 C  
HETATM    3  C   UNL     1     -12.756  11.104  71.257  1.00  0.00    -0.426 C  
ENDROOT
BRANCH   3   4
HETATM    4  N   UNL     1     -11.991  10.405  70.220  1.00  0.00    -0.291 N  
BRANCH   4   5
HETATM    5  N   UNL     1     -12.226  10.666  68.864  1.00  0.00    -0.793 NA 
HETATM    6  H   UNL     1     -12.859  11.399  68.543  1.00  0.00     0.000 HD 
HETATM    7  O   UNL     1     -11.600   9.933  68.092  1.00  0.00    -0.596 OA 
HETATM    8  H   UNL     1     -11.759  10.110  67.173  1.00  0.00     0.000 HD 
ENDBRANCH   4   5
BRANCH   4   9
HETATM    9  C   UNL     1     -10.907   9.618  70.603  1.00  0.00    -0.320 C  
HETATM   10  O   UNL     1      -9.754   9.881  70.259  1.00  0.00    -0.248 OA 
BRANCH   9  11
HETATM   11  N   UNL     1     -11.196   8.499  71.360  1.00  0.00    -0.251 N  
HETATM   12  H   UNL     1     -10.884   8.465  72.330  1.00  0.00     0.000 HD 
BRANCH  11  13
HETATM   13  C   UNL     1     -11.935   7.361  70.813  1.00  0.00    -0.230 C  
HETATM   14  C   UNL     1     -11.055   6.445  69.952  1.00  0.00    -0.444 C  
HETATM   15  C   UNL     1     -10.062   5.620  70.770  1.00  0.00    -0.270 C  
HETATM   16  C   UNL     1     -10.711   4.880  71.936  1.00  0.00    -0.128 C  
HETATM   17  C   UNL     1     -11.625   5.765  72.778  1.00  0.00    -0.266 C  
HETATM   18  C   UNL     1     -12.614   6.561  71.929  1.00  0.00    -0.238 C  
ENDBRANCH  11  13
ENDBRANCH   9  11
ENDBRANCH   4   9
ENDBRANCH   3   4
TORSDOF 5
ENDMDL
MODEL       78
REMARK 921   NORMALIZED FREE ENERGY PREDICTED BY IDOCK:   -4.25 KCAL/MOL
REMARK 922        TOTAL FREE ENERGY PREDICTED BY IDOCK:   -6.09 KCAL/MOL
REMARK 923 INTER-LIGAND FREE ENERGY PREDICTED BY IDOCK:   -5.58 KCAL/MOL
REMARK 924 INTRA-LIGAND FREE ENERGY PREDICTED BY IDOCK:   -0.50 KCAL/MOL
REMARK 927      BINDING AFFINITY PREDICTED BY RF-SCORE:    0.00 PKD
ROOT
HETATM    1 CL   UNL     1     -10.531  16.545  65.684  1.00  0.00    -0.374 Cl 
HETATM    2  C   UNL     1     -11.406  15.072  65.190  1.00  0.00    -0.372 C  
HETATM    3  C   UNL     1     -10.422  13.967  64.821  1.00  0.00    -0.429 C  
ENDROOT
BRANCH   3   4
HETATM    4  N   UNL     1     -11.090  12.741  64.371  1.00  0.00    -0.328 N  
BRANCH   4   5
HETATM    5  N   UNL     1     -11.815  12.725  63.173  1.00  0.00    -0.815 NA 
HETATM    6  H   UNL     1     -11.570  13.303  62.369  1.00  0.00     0.000 HD 
HETATM    7  O   UNL     1     -12.776  11.949  63.174  1.00  0.00    -0.809 OA 
HETATM    8  H   UNL     1     -13.268  11.937  62.362  1.00  0.00     0.000 HD 
ENDBRANCH   4   5
BRANCH   4   9
HETATM    9  C   UNL     1     -10.840  11.553  65.054  1.00  0.00    -0.274 C  
HETATM   10  O   UNL     1     -10.295  10.590  64.513  1.00  0.00    -0.348 OA 
BRANCH   9  11
HETATM   11  N   UNL     1     -11.273  11.494  66.365  1.00  0.00    -0.288 N  
HETATM   12  H   UNL     1     -12.234  11.211  66.555  1.00  0.00     0.000 HD 
BRANCH  11  13
HETATM   13  C   UNL     1     -10.397  11.825  67.488  1.00  0.00    -0.196 C  
HETATM   14  C   UNL     1     -11.107  12.656  68.564  1.00  0.00    -0.300 C  
HETATM   15  C   UNL     1     -12.121  11.851  69.377  1.00  0.00    -0.277 C  
HETATM   16  C   UNL     1     -11.553  10.546  69.926  1.00  0.00    -0.384 C  
HETATM   17  C   UNL     1     -10.804   9.727  68.880  1.00  0.00    -0.220 C  
HETATM   18  C   UNL     1      -9.788  10.560  68.100  1.00  0.00    -0.169 C  
ENDBRANCH  11  13
ENDBRANCH   9  11
ENDBRANCH   4   9
ENDBRANCH   3   4
TORSDOF 5
ENDMDL
MODEL       79
REMARK 921   NORMALIZED FREE ENERGY PREDICTED BY IDOCK:   -4.24 KCAL/MOL
REMARK 922        TOTAL FREE ENERGY PREDICTED BY IDOCK:   -6.07 KCAL/MOL
REMARK 923 INTER-LIGAND FREE ENERGY PREDICTED BY IDOCK:   -5.43 KCAL/MOL
REMARK 924 INTRA-LIGAND FREE ENERGY PREDICTED BY IDOCK:   -0.64 KCAL/MOL
REMARK 927      BINDING AFFINITY PREDICTED BY RF-SCORE:    0.00 PKD
ROOT
HETATM    1 CL   UNL     1     -10.309   7.218  72.609  1.00  0.00    -0.240 Cl 
HETATM    2  C   UNL     1     -10.210   8.903  72.035  1.00  0.00    -0.293 C  
HETATM    3  C   UNL     1     -11.021   9.078  70.755  1.00  0.00    -0.258 C  
ENDROOT
BRANCH   3   4
HETATM    4  N   UNL     1     -10.944  10.440  70.218  1.00  0.00    -0.301 N  
BRANCH   4   5
HETATM    5  N   UNL     1      -9.789  10.882  69.560  1.00  0.00    -0.437 NA 
HETATM    6  H   UNL     1      -8.956  10.303  69.453  1.00  0.00     0.000 HD 
HETATM    7  O   UNL     1      -9.867  12.034  69.121  1.00  0.00    -0.407 OA 
HETATM    8  H   UNL     1      -9.084  12.334  68.674  1.00  0.00     0.000 HD 
ENDBRANCH   4   5
BRANCH   4   9
HETATM    9  C   UNL     1     -12.097  11.222  70.209  1.00  0.00    -0.373 C  
HETATM   10  O   UNL     1     -13.034  10.996  69.443  1.00  0.00    -0.065 OA 
BRANCH   9  11
HETATM   11  N   UNL     1     -12.119  12.295  71.080  1.00  0.00    -0.350 N  
HETATM   12  H   UNL     1     -11.479  12.300  71.874  1.00  0.00     0.000 HD 
BRANCH  11  13
HETATM   13  C   UNL     1     -13.031  13.424  70.898  1.00  0.00    -0.123 C  
HETATM   14  C   UNL     1     -13.680  13.875  72.213  1.00  0.00    -0.660 C  
HETATM   15  C   UNL     1     -12.710  14.594  73.150  1.00  0.00    -0.549 C  
HETATM   16  C   UNL     1     -11.933  15.716  72.467  1.00  0.00    -0.567 C  
HETATM   17  C   UNL     1     -11.318  15.299  71.135  1.00  0.00    -0.402 C  
HETATM   18  C   UNL     1     -12.320  14.599  70.219  1.00  0.00    -0.406 C  
ENDBRANCH  11  13
ENDBRANCH   9  11
ENDBRANCH   4   9
ENDBRANCH   3   4
TORSDOF 5
ENDMDL
MODEL       80
REMARK 921   NORMALIZED FREE ENERGY PREDICTED BY IDOCK:   -4.22 KCAL/MOL
REMARK 922        TOTAL FREE ENERGY PREDICTED BY IDOCK:   -6.05 KCAL/MOL
REMARK 923 INTER-LIGAND FREE ENERGY PREDICTED BY IDOCK:   -5.35 KCAL/MOL
REMARK 924 INTRA-LIGAND FREE ENERGY PREDICTED BY IDOCK:   -0.69 KCAL/MOL
REMARK 927      BINDING AFFINITY PREDICTED BY RF-SCORE:    0.00 PKD
ROOT
HETATM    1 CL   UNL     1     -12.057  14.740  70.563  1.00  0.00    -0.348 Cl 
HETATM    2  C   UNL     1     -10.835  15.735  69.727  1.00  0.00    -0.314 C  
HETATM    3  C   UNL     1     -11.451  16.427  68.516  1.00  0.00    -0.209 C  
ENDROOT
BRANCH   3   4
HETATM    4  N   UNL     1     -10.478  17.232  67.770  1.00  0.00    -0.359 N  
BRANCH   4   5
HETATM    5  N   UNL     1      -9.826  18.310  68.381  1.00  0.00    -0.349 NA 
HETATM    6  H   UNL     1      -9.079  18.190  69.065  1.00  0.00     0.000 HD 
HETATM    7  O   UNL     1     -10.235  19.418  68.020  1.00  0.00    -0.379 OA 
HETATM    8  H   UNL     1      -9.794  20.150  68.434  1.00  0.00     0.000 HD 
ENDBRANCH   4   5
BRANCH   4   9
HETATM    9  C   UNL     1     -10.077  16.795  66.509  1.00  0.00    -0.315 C  
HETATM   10  O   UNL     1      -9.074  17.243  65.950  1.00  0.00    -0.516 OA 
BRANCH   9  11
HETATM   11  N   UNL     1     -10.887  15.860  65.895  1.00  0.00    -0.276 N  
HETATM   12  H   UNL     1     -11.889  16.040  65.832  1.00  0.00     0.000 HD 
BRANCH  11  13
HETATM   13  C   UNL     1     -10.355  14.620  65.332  1.00  0.00    -0.383 C  
HETATM   14  C   UNL     1      -9.726  13.712  66.396  1.00  0.00    -0.300 C  
HETATM   15  C   UNL     1     -10.757  13.049  67.310  1.00  0.00    -0.261 C  
HETATM   16  C   UNL     1     -11.884  12.361  66.546  1.00  0.00    -0.407 C  
HETATM   17  C   UNL     1     -12.492  13.234  65.453  1.00  0.00    -0.543 C  
HETATM   18  C   UNL     1     -11.434  13.865  64.550  1.00  0.00    -0.393 C  
ENDBRANCH  11  13
ENDBRANCH   9  11
ENDBRANCH   4   9
ENDBRANCH   3   4
TORSDOF 5
ENDMDL
MODEL       81
REMARK 921   NORMALIZED FREE ENERGY PREDICTED BY IDOCK:   -4.20 KCAL/MOL
REMARK 922        TOTAL FREE ENERGY PREDICTED BY IDOCK:   -6.02 KCAL/MOL
REMARK 923 INTER-LIGAND FREE ENERGY PREDICTED BY IDOCK:   -5.40 KCAL/MOL
REMARK 924 INTRA-LIGAND FREE ENERGY PREDICTED BY IDOCK:   -0.62 KCAL/MOL
REMARK 927      BINDING AFFINITY PREDICTED BY RF-SCORE:    0.00 PKD
ROOT
HETATM    1 CL   UNL     1     -10.890  11.947  63.763  1.00  0.00    -0.432 Cl 
HETATM    2  C   UNL     1     -10.584  13.109  65.080  1.00  0.00    -0.332 C  
HETATM    3  C   UNL     1     -11.228  14.454  64.763  1.00  0.00    -0.387 C  
ENDROOT
BRANCH   3   4
HETATM    4  N   UNL     1     -10.975  15.461  65.799  1.00  0.00    -0.327 N  
BRANCH   4   5
HETATM    5  N   UNL     1     -10.626  15.073  67.098  1.00  0.00    -0.289 NA 
HETATM    6  H   UNL     1      -9.724  14.657  67.329  1.00  0.00     0.000 HD 
HETATM    7  O   UNL     1     -11.506  15.278  67.941  1.00  0.00    -0.328 OA 
HETATM    8  H   UNL     1     -11.270  15.015  68.822  1.00  0.00     0.000 HD 
ENDBRANCH   4   5
BRANCH   4   9
HETATM    9  C   UNL     1     -10.906  16.802  65.426  1.00  0.00    -0.141 C  
HETATM   10  O   UNL     1     -11.302  17.197  64.329  1.00  0.00    -1.126 OA 
BRANCH   9  11
HETATM   11  N   UNL     1     -10.329  17.665  66.339  1.00  0.00    -0.359 N  
HETATM   12  H   UNL     1     -10.815  17.852  67.216  1.00  0.00     0.000 HD 
BRANCH  11  13
HETATM   13  C   UNL     1      -9.046  18.318  66.086  1.00  0.00    -0.105 C  
HETATM   14  C   UNL     1      -8.853  19.584  66.932  1.00  0.00    -0.362 C  
HETATM   15  C   UNL     1      -8.600  19.290  68.410  1.00  0.00    -0.389 C  
HETATM   16  C   UNL     1      -7.499  18.259  68.640  1.00  0.00    -0.308 C  
HETATM   17  C   UNL     1      -7.650  17.012  67.775  1.00  0.00    -0.180 C  
HETATM   18  C   UNL     1      -7.883  17.344  66.303  1.00  0.00    -0.330 C  
ENDBRANCH  11  13
ENDBRANCH   9  11
ENDBRANCH   4   9
ENDBRANCH   3   4
TORSDOF 5
ENDMDL
MODEL       82
REMARK 921   NORMALIZED FREE ENERGY PREDICTED BY IDOCK:   -4.20 KCAL/MOL
REMARK 922        TOTAL FREE ENERGY PREDICTED BY IDOCK:   -6.02 KCAL/MOL
REMARK 923 INTER-LIGAND FREE ENERGY PREDICTED BY IDOCK:   -5.62 KCAL/MOL
REMARK 924 INTRA-LIGAND FREE ENERGY PREDICTED BY IDOCK:   -0.40 KCAL/MOL
REMARK 927      BINDING AFFINITY PREDICTED BY RF-SCORE:    0.00 PKD
ROOT
HETATM    1 CL   UNL     1      -7.031  16.872  66.170  1.00  0.00    -0.129 Cl 
HETATM    2  C   UNL     1      -8.087  16.670  67.592  1.00  0.00    -0.171 C  
HETATM    3  C   UNL     1      -9.516  17.085  67.257  1.00  0.00    -0.240 C  
ENDROOT
BRANCH   3   4
HETATM    4  N   UNL     1     -10.421  16.973  68.405  1.00  0.00    -0.348 N  
BRANCH   4   5
HETATM    5  N   UNL     1     -10.507  18.005  69.348  1.00  0.00    -0.295 NA 
HETATM    6  H   UNL     1     -10.656  17.836  70.343  1.00  0.00     0.000 HD 
HETATM    7  O   UNL     1     -10.386  19.138  68.870  1.00  0.00    -0.507 OA 
HETATM    8  H   UNL     1     -10.444  19.838  69.509  1.00  0.00     0.000 HD 
ENDBRANCH   4   5
BRANCH   4   9
HETATM    9  C   UNL     1     -11.325  15.914  68.443  1.00  0.00    -0.361 C  
HETATM   10  O   UNL     1     -11.414  15.096  67.527  1.00  0.00    -0.337 OA 
BRANCH   9  11
HETATM   11  N   UNL     1     -12.152  15.850  69.549  1.00  0.00    -0.396 N  
HETATM   12  H   UNL     1     -12.869  16.565  69.671  1.00  0.00     0.000 HD 
BRANCH  11  13
HETATM   13  C   UNL     1     -12.031  14.790  70.550  1.00  0.00    -0.312 C  
HETATM   14  C   UNL     1     -11.388  15.281  71.853  1.00  0.00    -0.447 C  
HETATM   15  C   UNL     1     -12.306  16.183  72.678  1.00  0.00    -0.574 C  
HETATM   16  C   UNL     1     -13.694  15.588  72.898  1.00  0.00    -0.599 C  
HETATM   17  C   UNL     1     -14.331  15.053  71.619  1.00  0.00    -0.680 C  
HETATM   18  C   UNL     1     -13.390  14.144  70.831  1.00  0.00    -0.223 C  
ENDBRANCH  11  13
ENDBRANCH   9  11
ENDBRANCH   4   9
ENDBRANCH   3   4
TORSDOF 5
ENDMDL
MODEL       83
REMARK 921   NORMALIZED FREE ENERGY PREDICTED BY IDOCK:   -4.19 KCAL/MOL
REMARK 922        TOTAL FREE ENERGY PREDICTED BY IDOCK:   -6.01 KCAL/MOL
REMARK 923 INTER-LIGAND FREE ENERGY PREDICTED BY IDOCK:   -5.81 KCAL/MOL
REMARK 924 INTRA-LIGAND FREE ENERGY PREDICTED BY IDOCK:   -0.21 KCAL/MOL
REMARK 927      BINDING AFFINITY PREDICTED BY RF-SCORE:    0.00 PKD
ROOT
HETATM    1 CL   UNL     1     -10.521  19.902  67.582  1.00  0.00    -0.543 Cl 
HETATM    2  C   UNL     1     -10.190  18.734  66.276  1.00  0.00    -0.424 C  
HETATM    3  C   UNL     1     -11.028  17.474  66.464  1.00  0.00     0.239 C  
ENDROOT
BRANCH   3   4
HETATM    4  N   UNL     1     -10.767  16.462  65.435  1.00  0.00    -0.352 N  
BRANCH   4   5
HETATM    5  N   UNL     1     -11.107  16.702  64.098  1.00  0.00    -1.305 NA 
HETATM    6  H   UNL     1     -10.569  17.322  63.493  1.00  0.00     0.000 HD 
HETATM    7  O   UNL     1     -12.114  16.098  63.716  1.00  0.00    -1.355 OA 
HETATM    8  H   UNL     1     -12.345  16.260  62.809  1.00  0.00     0.000 HD 
ENDBRANCH   4   5
BRANCH   4   9
HETATM    9  C   UNL     1     -10.013  15.341  65.775  1.00  0.00    -0.360 C  
HETATM   10  O   UNL     1     -10.124  14.271  65.176  1.00  0.00    -0.373 OA 
BRANCH   9  11
HETATM   11  N   UNL     1      -9.157  15.480  66.851  1.00  0.00    -0.224 N  
HETATM   12  H   UNL     1      -9.499  15.259  67.786  1.00  0.00     0.000 HD 
BRANCH  11  13
HETATM   13  C   UNL     1      -7.775  15.933  66.692  1.00  0.00    -0.164 C  
HETATM   14  C   UNL     1      -7.562  17.364  67.203  1.00  0.00    -0.226 C  
HETATM   15  C   UNL     1      -7.597  17.473  68.727  1.00  0.00    -0.258 C  
HETATM   16  C   UNL     1      -6.691  16.462  69.424  1.00  0.00    -0.215 C  
HETATM   17  C   UNL     1      -6.858  15.039  68.898  1.00  0.00    -0.103 C  
HETATM   18  C   UNL     1      -6.800  14.968  67.373  1.00  0.00    -0.144 C  
ENDBRANCH  11  13
ENDBRANCH   9  11
ENDBRANCH   4   9
ENDBRANCH   3   4
TORSDOF 5
ENDMDL
MODEL       84
REMARK 921   NORMALIZED FREE ENERGY PREDICTED BY IDOCK:   -4.19 KCAL/MOL
REMARK 922        TOTAL FREE ENERGY PREDICTED BY IDOCK:   -6.01 KCAL/MOL
REMARK 923 INTER-LIGAND FREE ENERGY PREDICTED BY IDOCK:   -5.52 KCAL/MOL
REMARK 924 INTRA-LIGAND FREE ENERGY PREDICTED BY IDOCK:   -0.49 KCAL/MOL
REMARK 927      BINDING AFFINITY PREDICTED BY RF-SCORE:    0.00 PKD
ROOT
HETATM    1 CL   UNL     1      -6.226  21.127  66.486  1.00  0.00    -0.334 Cl 
HETATM    2  C   UNL     1      -7.659  20.402  67.261  1.00  0.00    -0.331 C  
HETATM    3  C   UNL     1      -8.524  19.693  66.224  1.00  0.00    -0.360 C  
ENDROOT
BRANCH   3   4
HETATM    4  N   UNL     1      -9.738  19.110  66.804  1.00  0.00    -0.320 N  
BRANCH   4   5
HETATM    5  N   UNL     1     -10.336  19.685  67.931  1.00  0.00    -0.440 NA 
HETATM    6  H   UNL     1     -10.729  20.627  67.931  1.00  0.00     0.000 HD 
HETATM    7  O   UNL     1     -10.347  18.954  68.927  1.00  0.00    -0.488 OA 
HETATM    8  H   UNL     1     -10.752  19.344  69.692  1.00  0.00     0.000 HD 
ENDBRANCH   4   5
BRANCH   4   9
HETATM    9  C   UNL     1     -10.387  18.090  66.110  1.00  0.00    -0.366 C  
HETATM   10  O   UNL     1     -10.950  18.288  65.033  1.00  0.00    -0.684 OA 
BRANCH   9  11
HETATM   11  N   UNL     1     -10.404  16.848  66.715  1.00  0.00    -0.308 N  
HETATM   12  H   UNL     1     -10.664  16.782  67.699  1.00  0.00     0.000 HD 
BRANCH  11  13
HETATM   13  C   UNL     1     -10.060  15.626  65.990  1.00  0.00    -0.333 C  
HETATM   14  C   UNL     1      -9.000  14.788  66.717  1.00  0.00    -0.292 C  
HETATM   15  C   UNL     1      -9.535  14.092  67.968  1.00  0.00    -0.206 C  
HETATM   16  C   UNL     1     -10.826  13.317  67.722  1.00  0.00    -0.268 C  
HETATM   17  C   UNL     1     -11.876  14.121  66.960  1.00  0.00    -0.458 C  
HETATM   18  C   UNL     1     -11.310  14.786  65.708  1.00  0.00    -0.336 C  
ENDBRANCH  11  13
ENDBRANCH   9  11
ENDBRANCH   4   9
ENDBRANCH   3   4
TORSDOF 5
ENDMDL
MODEL       85
REMARK 921   NORMALIZED FREE ENERGY PREDICTED BY IDOCK:   -4.18 KCAL/MOL
REMARK 922        TOTAL FREE ENERGY PREDICTED BY IDOCK:   -6.00 KCAL/MOL
REMARK 923 INTER-LIGAND FREE ENERGY PREDICTED BY IDOCK:   -5.45 KCAL/MOL
REMARK 924 INTRA-LIGAND FREE ENERGY PREDICTED BY IDOCK:   -0.55 KCAL/MOL
REMARK 927      BINDING AFFINITY PREDICTED BY RF-SCORE:    0.00 PKD
ROOT
HETATM    1 CL   UNL     1     -13.294  11.932  71.943  1.00  0.00    -0.507 Cl 
HETATM    2  C   UNL     1     -12.568  10.388  71.425  1.00  0.00    -0.434 C  
HETATM    3  C   UNL     1     -13.082   9.242  72.288  1.00  0.00    -0.441 C  
ENDROOT
BRANCH   3   4
HETATM    4  N   UNL     1     -12.487   7.951  71.928  1.00  0.00    -0.313 N  
BRANCH   4   5
HETATM    5  N   UNL     1     -12.867   7.295  70.751  1.00  0.00    -0.602 NA 
HETATM    6  H   UNL     1     -13.842   7.147  70.490  1.00  0.00     0.000 HD 
HETATM    7  O   UNL     1     -11.920   6.911  70.058  1.00  0.00    -0.618 OA 
HETATM    8  H   UNL     1     -12.177   6.466  69.259  1.00  0.00     0.000 HD 
ENDBRANCH   4   5
BRANCH   4   9
HETATM    9  C   UNL     1     -11.409   7.480  72.675  1.00  0.00    -0.344 C  
HETATM   10  O   UNL     1     -10.490   8.217  73.034  1.00  0.00    -0.325 OA 
BRANCH   9  11
HETATM   11  N   UNL     1     -11.403   6.128  72.960  1.00  0.00    -0.465 N  
HETATM   12  H   UNL     1     -12.249   5.584  72.792  1.00  0.00     0.000 HD 
BRANCH  11  13
HETATM   13  C   UNL     1     -10.221   5.452  73.496  1.00  0.00    -0.205 C  
HETATM   14  C   UNL     1     -10.580   4.264  74.398  1.00  0.00    -0.271 C  
HETATM   15  C   UNL     1     -11.123   3.062  73.627  1.00  0.00    -0.323 C  
HETATM   16  C   UNL     1     -10.243   2.656  72.448  1.00  0.00    -0.215 C  
HETATM   17  C   UNL     1      -9.839   3.832  71.564  1.00  0.00    -0.235 C  
HETATM   18  C   UNL     1      -9.286   5.007  72.367  1.00  0.00    -0.150 C  
ENDBRANCH  11  13
ENDBRANCH   9  11
ENDBRANCH   4   9
ENDBRANCH   3   4
TORSDOF 5
ENDMDL
MODEL       86
REMARK 921   NORMALIZED FREE ENERGY PREDICTED BY IDOCK:   -4.18 KCAL/MOL
REMARK 922        TOTAL FREE ENERGY PREDICTED BY IDOCK:   -6.00 KCAL/MOL
REMARK 923 INTER-LIGAND FREE ENERGY PREDICTED BY IDOCK:   -5.36 KCAL/MOL
REMARK 924 INTRA-LIGAND FREE ENERGY PREDICTED BY IDOCK:   -0.64 KCAL/MOL
REMARK 927      BINDING AFFINITY PREDICTED BY RF-SCORE:    0.00 PKD
ROOT
HETATM    1 CL   UNL     1      -9.234  10.028  64.031  1.00  0.00    -0.298 Cl 
HETATM    2  C   UNL     1     -10.228  10.611  65.391  1.00  0.00    -0.273 C  
HETATM    3  C   UNL     1     -11.032  11.839  64.974  1.00  0.00    -0.300 C  
ENDROOT
BRANCH   3   4
HETATM    4  N   UNL     1     -11.842  12.383  66.069  1.00  0.00    -0.417 N  
BRANCH   4   5
HETATM    5  N   UNL     1     -11.994  11.670  67.264  1.00  0.00    -0.602 NA 
HETATM    6  H   UNL     1     -12.430  10.748  67.308  1.00  0.00     0.000 HD 
HETATM    7  O   UNL     1     -11.556  12.254  68.261  1.00  0.00    -0.288 OA 
HETATM    8  H   UNL     1     -11.660  11.771  69.072  1.00  0.00     0.000 HD 
ENDBRANCH   4   5
BRANCH   4   9
HETATM    9  C   UNL     1     -12.302  13.694  65.973  1.00  0.00    -0.445 C  
HETATM   10  O   UNL     1     -13.198  14.018  65.193  1.00  0.00    -0.768 OA 
BRANCH   9  11
HETATM   11  N   UNL     1     -11.670  14.628  66.773  1.00  0.00    -0.367 N  
HETATM   12  H   UNL     1     -12.022  14.788  67.716  1.00  0.00     0.000 HD 
BRANCH  11  13
HETATM   13  C   UNL     1     -10.513  15.392  66.309  1.00  0.00    -0.303 C  
HETATM   14  C   UNL     1     -10.533  16.847  66.798  1.00  0.00    -0.260 C  
HETATM   15  C   UNL     1     -10.236  16.986  68.290  1.00  0.00    -0.326 C  
HETATM   16  C   UNL     1      -8.978  16.240  68.726  1.00  0.00    -0.243 C  
HETATM   17  C   UNL     1      -8.920  14.805  68.212  1.00  0.00    -0.181 C  
HETATM   18  C   UNL     1      -9.204  14.707  66.715  1.00  0.00    -0.285 C  
ENDBRANCH  11  13
ENDBRANCH   9  11
ENDBRANCH   4   9
ENDBRANCH   3   4
TORSDOF 5
ENDMDL
MODEL       87
REMARK 921   NORMALIZED FREE ENERGY PREDICTED BY IDOCK:   -4.17 KCAL/MOL
REMARK 922        TOTAL FREE ENERGY PREDICTED BY IDOCK:   -5.98 KCAL/MOL
REMARK 923 INTER-LIGAND FREE ENERGY PREDICTED BY IDOCK:   -5.59 KCAL/MOL
REMARK 924 INTRA-LIGAND FREE ENERGY PREDICTED BY IDOCK:   -0.39 KCAL/MOL
REMARK 927      BINDING AFFINITY PREDICTED BY RF-SCORE:    0.00 PKD
ROOT
HETATM    1 CL   UNL     1      -9.923   9.696  67.262  1.00  0.00    -0.235 Cl 
HETATM    2  C   UNL     1      -9.998  10.994  66.041  1.00  0.00    -0.237 C  
HETATM    3  C   UNL     1     -10.277  10.411  64.660  1.00  0.00    -0.235 C  
ENDROOT
BRANCH   3   4
HETATM    4  N   UNL     1     -10.312  11.435  63.611  1.00  0.00    -0.371 N  
BRANCH   4   5
HETATM    5  N   UNL     1      -9.396  11.402  62.553  1.00  0.00    -0.481 NA 
HETATM    6  H   UNL     1      -9.638  11.681  61.602  1.00  0.00     0.000 HD 
HETATM    7  O   UNL     1      -8.270  11.004  62.871  1.00  0.00    -0.379 OA 
HETATM    8  H   UNL     1      -7.649  10.981  62.153  1.00  0.00     0.000 HD 
ENDBRANCH   4   5
BRANCH   4   9
HETATM    9  C   UNL     1     -11.381  12.328  63.583  1.00  0.00    -0.470 C  
HETATM   10  O   UNL     1     -12.524  11.971  63.295  1.00  0.00    -0.566 OA 
BRANCH   9  11
HETATM   11  N   UNL     1     -11.086  13.650  63.857  1.00  0.00    -0.533 N  
HETATM   12  H   UNL     1     -10.221  14.048  63.492  1.00  0.00     0.000 HD 
BRANCH  11  13
HETATM   13  C   UNL     1     -11.974  14.496  64.653  1.00  0.00    -0.468 C  
HETATM   14  C   UNL     1     -12.100  14.015  66.105  1.00  0.00    -0.471 C  
HETATM   15  C   UNL     1     -10.842  14.267  66.936  1.00  0.00    -0.298 C  
HETATM   16  C   UNL     1     -10.333  15.702  66.837  1.00  0.00    -0.293 C  
HETATM   17  C   UNL     1     -10.243  16.213  65.402  1.00  0.00    -0.294 C  
HETATM   18  C   UNL     1     -11.523  15.959  64.609  1.00  0.00    -0.265 C  
ENDBRANCH  11  13
ENDBRANCH   9  11
ENDBRANCH   4   9
ENDBRANCH   3   4
TORSDOF 5
ENDMDL
MODEL       88
REMARK 921   NORMALIZED FREE ENERGY PREDICTED BY IDOCK:   -4.16 KCAL/MOL
REMARK 922        TOTAL FREE ENERGY PREDICTED BY IDOCK:   -5.97 KCAL/MOL
REMARK 923 INTER-LIGAND FREE ENERGY PREDICTED BY IDOCK:   -5.58 KCAL/MOL
REMARK 924 INTRA-LIGAND FREE ENERGY PREDICTED BY IDOCK:   -0.40 KCAL/MOL
REMARK 927      BINDING AFFINITY PREDICTED BY RF-SCORE:    0.00 PKD
ROOT
HETATM    1 CL   UNL     1      -8.626  16.731  66.224  1.00  0.00    -0.337 Cl 
HETATM    2  C   UNL     1      -9.533  15.316  66.820  1.00  0.00    -0.245 C  
HETATM    3  C   UNL     1     -11.024  15.488  66.552  1.00  0.00    -0.243 C  
ENDROOT
BRANCH   3   4
HETATM    4  N   UNL     1     -11.822  14.365  67.056  1.00  0.00    -0.406 N  
BRANCH   4   5
HETATM    5  N   UNL     1     -12.365  14.401  68.346  1.00  0.00    -0.599 NA 
HETATM    6  H   UNL     1     -12.832  13.601  68.773  1.00  0.00     0.000 HD 
HETATM    7  O   UNL     1     -12.230  15.486  68.922  1.00  0.00    -0.590 OA 
HETATM    8  H   UNL     1     -12.598  15.511  69.797  1.00  0.00     0.000 HD 
ENDBRANCH   4   5
BRANCH   4   9
HETATM    9  C   UNL     1     -12.185  13.352  66.172  1.00  0.00    -0.415 C  
HETATM   10  O   UNL     1     -12.913  13.561  65.200  1.00  0.00    -0.721 OA 
BRANCH   9  11
HETATM   11  N   UNL     1     -11.718  12.085  66.464  1.00  0.00    -0.325 N  
HETATM   12  H   UNL     1     -12.365  11.298  66.418  1.00  0.00     0.000 HD 
BRANCH  11  13
HETATM   13  C   UNL     1     -10.326  11.836  66.836  1.00  0.00    -0.217 C  
HETATM   14  C   UNL     1     -10.174  10.637  67.781  1.00  0.00    -0.212 C  
HETATM   15  C   UNL     1     -10.404   9.292  67.093  1.00  0.00    -0.330 C  
HETATM   16  C   UNL     1      -9.599   9.129  65.807  1.00  0.00    -0.323 C  
HETATM   17  C   UNL     1      -9.702  10.331  64.874  1.00  0.00    -0.385 C  
HETATM   18  C   UNL     1      -9.450  11.654  65.592  1.00  0.00    -0.228 C  
ENDBRANCH  11  13
ENDBRANCH   9  11
ENDBRANCH   4   9
ENDBRANCH   3   4
TORSDOF 5
ENDMDL
MODEL       89
REMARK 921   NORMALIZED FREE ENERGY PREDICTED BY IDOCK:   -4.16 KCAL/MOL
REMARK 922        TOTAL FREE ENERGY PREDICTED BY IDOCK:   -5.97 KCAL/MOL
REMARK 923 INTER-LIGAND FREE ENERGY PREDICTED BY IDOCK:   -5.33 KCAL/MOL
REMARK 924 INTRA-LIGAND FREE ENERGY PREDICTED BY IDOCK:   -0.63 KCAL/MOL
REMARK 927      BINDING AFFINITY PREDICTED BY RF-SCORE:    0.00 PKD
ROOT
HETATM    1 CL   UNL     1     -10.215   5.368  72.414  1.00  0.00    -0.231 Cl 
HETATM    2  C   UNL     1     -11.500   6.562  72.732  1.00  0.00    -0.130 C  
HETATM    3  C   UNL     1     -11.382   7.740  71.771  1.00  0.00    -0.261 C  
ENDROOT
BRANCH   3   4
HETATM    4  N   UNL     1     -12.396   8.772  72.014  1.00  0.00    -0.351 N  
BRANCH   4   5
HETATM    5  N   UNL     1     -13.190   8.732  73.166  1.00  0.00    -0.833 NA 
HETATM    6  H   UNL     1     -12.800   8.671  74.107  1.00  0.00     0.000 HD 
HETATM    7  O   UNL     1     -14.405   8.775  72.944  1.00  0.00    -1.023 OA 
HETATM    8  H   UNL     1     -14.944   8.748  73.725  1.00  0.00     0.000 HD 
ENDBRANCH   4   5
BRANCH   4   9
HETATM    9  C   UNL     1     -12.428   9.887  71.180  1.00  0.00    -0.368 C  
HETATM   10  O   UNL     1     -12.866  10.974  71.558  1.00  0.00    -0.421 OA 
BRANCH   9  11
HETATM   11  N   UNL     1     -11.980   9.701  69.886  1.00  0.00    -0.451 N  
HETATM   12  H   UNL     1     -12.350   8.921  69.343  1.00  0.00     0.000 HD 
BRANCH  11  13
HETATM   13  C   UNL     1     -10.992  10.586  69.271  1.00  0.00    -0.244 C  
HETATM   14  C   UNL     1      -9.550  10.179  69.599  1.00  0.00    -0.237 C  
HETATM   15  C   UNL     1      -9.103   8.907  68.878  1.00  0.00    -0.140 C  
HETATM   16  C   UNL     1      -9.375   8.938  67.378  1.00  0.00    -0.165 C  
HETATM   17  C   UNL     1     -10.792   9.384  67.030  1.00  0.00    -0.096 C  
HETATM   18  C   UNL     1     -11.196  10.667  67.755  1.00  0.00    -0.383 C  
ENDBRANCH  11  13
ENDBRANCH   9  11
ENDBRANCH   4   9
ENDBRANCH   3   4
TORSDOF 5
ENDMDL
MODEL       90
REMARK 921   NORMALIZED FREE ENERGY PREDICTED BY IDOCK:   -4.09 KCAL/MOL
REMARK 922        TOTAL FREE ENERGY PREDICTED BY IDOCK:   -5.88 KCAL/MOL
REMARK 923 INTER-LIGAND FREE ENERGY PREDICTED BY IDOCK:   -5.30 KCAL/MOL
REMARK 924 INTRA-LIGAND FREE ENERGY PREDICTED BY IDOCK:   -0.59 KCAL/MOL
REMARK 927      BINDING AFFINITY PREDICTED BY RF-SCORE:    0.00 PKD
ROOT
HETATM    1 CL   UNL     1      -9.292   4.191  69.289  1.00  0.00    -0.218 Cl 
HETATM    2  C   UNL     1     -10.161   4.776  70.732  1.00  0.00    -0.216 C  
HETATM    3  C   UNL     1     -11.055   5.958  70.372  1.00  0.00    -0.283 C  
ENDROOT
BRANCH   3   4
HETATM    4  N   UNL     1     -11.767   6.502  71.533  1.00  0.00    -0.312 N  
BRANCH   4   5
HETATM    5  N   UNL     1     -11.305   6.256  72.831  1.00  0.00    -0.441 NA 
HETATM    6  H   UNL     1     -10.983   5.338  73.141  1.00  0.00     0.000 HD 
HETATM    7  O   UNL     1     -11.320   7.246  73.570  1.00  0.00    -0.564 OA 
HETATM    8  H   UNL     1     -11.007   7.079  74.451  1.00  0.00     0.000 HD 
ENDBRANCH   4   5
BRANCH   4   9
HETATM    9  C   UNL     1     -12.796   7.417  71.318  1.00  0.00    -0.321 C  
HETATM   10  O   UNL     1     -13.951   7.200  71.686  1.00  0.00    -0.380 OA 
BRANCH   9  11
HETATM   11  N   UNL     1     -12.462   8.569  70.632  1.00  0.00    -0.457 N  
HETATM   12  H   UNL     1     -12.800   8.690  69.677  1.00  0.00     0.000 HD 
BRANCH  11  13
HETATM   13  C   UNL     1     -11.639   9.619  71.230  1.00  0.00    -0.393 C  
HETATM   14  C   UNL     1     -10.165   9.520  70.818  1.00  0.00    -0.363 C  
HETATM   15  C   UNL     1      -9.916   9.923  69.364  1.00  0.00    -0.227 C  
HETATM   16  C   UNL     1     -10.537  11.267  68.998  1.00  0.00    -0.241 C  
HETATM   17  C   UNL     1     -11.991  11.401  69.440  1.00  0.00    -0.407 C  
HETATM   18  C   UNL     1     -12.198  11.007  70.901  1.00  0.00    -0.471 C  
ENDBRANCH  11  13
ENDBRANCH   9  11
ENDBRANCH   4   9
ENDBRANCH   3   4
TORSDOF 5
ENDMDL
MODEL       91
REMARK 921   NORMALIZED FREE ENERGY PREDICTED BY IDOCK:   -4.05 KCAL/MOL
REMARK 922        TOTAL FREE ENERGY PREDICTED BY IDOCK:   -5.83 KCAL/MOL
REMARK 923 INTER-LIGAND FREE ENERGY PREDICTED BY IDOCK:   -5.61 KCAL/MOL
REMARK 924 INTRA-LIGAND FREE ENERGY PREDICTED BY IDOCK:   -0.23 KCAL/MOL
REMARK 927      BINDING AFFINITY PREDICTED BY RF-SCORE:    0.00 PKD
ROOT
HETATM    1 CL   UNL     1      -9.047   9.295  65.205  1.00  0.00    -0.269 Cl 
HETATM    2  C   UNL     1     -10.220  10.384  65.991  1.00  0.00    -0.228 C  
HETATM    3  C   UNL     1     -10.785  11.377  64.981  1.00  0.00    -0.277 C  
ENDROOT
BRANCH   3   4
HETATM    4  N   UNL     1     -11.729  12.322  65.585  1.00  0.00    -0.394 N  
BRANCH   4   5
HETATM    5  N   UNL     1     -12.877  12.724  64.890  1.00  0.00    -0.825 NA 
HETATM    6  H   UNL     1     -13.339  12.136  64.197  1.00  0.00     0.000 HD 
HETATM    7  O   UNL     1     -13.279  13.853  65.189  1.00  0.00    -0.768 OA 
HETATM    8  H   UNL     1     -14.057  14.126  64.717  1.00  0.00     0.000 HD 
ENDBRANCH   4   5
BRANCH   4   9
HETATM    9  C   UNL     1     -11.565  12.669  66.924  1.00  0.00    -0.373 C  
HETATM   10  O   UNL     1     -12.061  12.006  67.837  1.00  0.00    -0.531 OA 
BRANCH   9  11
HETATM   11  N   UNL     1     -10.848  13.823  67.178  1.00  0.00    -0.281 N  
HETATM   12  H   UNL     1     -11.028  14.336  68.040  1.00  0.00     0.000 HD 
BRANCH  11  13
HETATM   13  C   UNL     1      -9.840  14.331  66.248  1.00  0.00    -0.307 C  
HETATM   14  C   UNL     1     -10.347  15.521  65.423  1.00  0.00    -0.422 C  
HETATM   15  C   UNL     1     -10.484  16.807  66.238  1.00  0.00    -0.264 C  
HETATM   16  C   UNL     1      -9.233  17.144  67.044  1.00  0.00    -0.251 C  
HETATM   17  C   UNL     1      -8.689  15.960  67.837  1.00  0.00    -0.168 C  
HETATM   18  C   UNL     1      -8.550  14.699  66.987  1.00  0.00    -0.249 C  
ENDBRANCH  11  13
ENDBRANCH   9  11
ENDBRANCH   4   9
ENDBRANCH   3   4
TORSDOF 5
ENDMDL
MODEL       92
REMARK 921   NORMALIZED FREE ENERGY PREDICTED BY IDOCK:   -4.05 KCAL/MOL
REMARK 922        TOTAL FREE ENERGY PREDICTED BY IDOCK:   -5.83 KCAL/MOL
REMARK 923 INTER-LIGAND FREE ENERGY PREDICTED BY IDOCK:   -5.47 KCAL/MOL
REMARK 924 INTRA-LIGAND FREE ENERGY PREDICTED BY IDOCK:   -0.36 KCAL/MOL
REMARK 927      BINDING AFFINITY PREDICTED BY RF-SCORE:    0.00 PKD
ROOT
HETATM    1 CL   UNL     1     -12.572  15.923  71.718  1.00  0.00    -0.505 Cl 
HETATM    2  C   UNL     1     -12.669  14.155  71.509  1.00  0.00    -0.358 C  
HETATM    3  C   UNL     1     -11.948  13.729  70.235  1.00  0.00    -0.326 C  
ENDROOT
BRANCH   3   4
HETATM    4  N   UNL     1     -12.029  12.284  69.994  1.00  0.00    -0.333 N  
BRANCH   4   5
HETATM    5  N   UNL     1     -12.555  11.429  70.970  1.00  0.00    -0.404 NA 
HETATM    6  H   UNL     1     -13.416  11.630  71.478  1.00  0.00     0.000 HD 
HETATM    7  O   UNL     1     -11.884  10.409  71.163  1.00  0.00    -0.356 OA 
HETATM    8  H   UNL     1     -12.240   9.829  71.824  1.00  0.00     0.000 HD 
ENDBRANCH   4   5
BRANCH   4   9
HETATM    9  C   UNL     1     -11.750  11.802  68.717  1.00  0.00    -0.329 C  
HETATM   10  O   UNL     1     -11.985  10.637  68.392  1.00  0.00    -0.448 OA 
BRANCH   9  11
HETATM   11  N   UNL     1     -11.155  12.689  67.841  1.00  0.00    -0.234 N  
HETATM   12  H   UNL     1     -10.141  12.801  67.865  1.00  0.00     0.000 HD 
BRANCH  11  13
HETATM   13  C   UNL     1     -11.931  13.473  66.882  1.00  0.00    -0.399 C  
HETATM   14  C   UNL     1     -11.230  14.778  66.483  1.00  0.00    -0.342 C  
HETATM   15  C   UNL     1     -10.019  14.561  65.576  1.00  0.00    -0.373 C  
HETATM   16  C   UNL     1     -10.318  13.667  64.377  1.00  0.00    -0.242 C  
HETATM   17  C   UNL     1     -11.054  12.384  64.749  1.00  0.00    -0.345 C  
HETATM   18  C   UNL     1     -12.268  12.642  65.640  1.00  0.00    -0.474 C  
ENDBRANCH  11  13
ENDBRANCH   9  11
ENDBRANCH   4   9
ENDBRANCH   3   4
TORSDOF 5
ENDMDL
MODEL       93
REMARK 921   NORMALIZED FREE ENERGY PREDICTED BY IDOCK:   -4.05 KCAL/MOL
REMARK 922        TOTAL FREE ENERGY PREDICTED BY IDOCK:   -5.83 KCAL/MOL
REMARK 923 INTER-LIGAND FREE ENERGY PREDICTED BY IDOCK:   -5.27 KCAL/MOL
REMARK 924 INTRA-LIGAND FREE ENERGY PREDICTED BY IDOCK:   -0.57 KCAL/MOL
REMARK 927      BINDING AFFINITY PREDICTED BY RF-SCORE:    0.00 PKD
ROOT
HETATM    1 CL   UNL     1      -9.841  20.521  67.116  1.00  0.00    -0.606 Cl 
HETATM    2  C   UNL     1     -10.748  18.992  67.248  1.00  0.00    -0.470 C  
HETATM    3  C   UNL     1      -9.790  17.807  67.307  1.00  0.00    -0.312 C  
ENDROOT
BRANCH   3   4
HETATM    4  N   UNL     1     -10.487  16.519  67.379  1.00  0.00    -0.309 N  
BRANCH   4   5
HETATM    5  N   UNL     1     -11.125  16.120  68.560  1.00  0.00    -0.341 NA 
HETATM    6  H   UNL     1     -10.677  16.165  69.475  1.00  0.00     0.000 HD 
HETATM    7  O   UNL     1     -12.279  15.710  68.397  1.00  0.00    -0.476 OA 
HETATM    8  H   UNL     1     -12.713  15.439  69.197  1.00  0.00     0.000 HD 
ENDBRANCH   4   5
BRANCH   4   9
HETATM    9  C   UNL     1     -10.661  15.785  66.207  1.00  0.00    -0.310 C  
HETATM   10  O   UNL     1     -10.676  16.320  65.098  1.00  0.00    -0.541 OA 
BRANCH   9  11
HETATM   11  N   UNL     1     -10.856  14.426  66.356  1.00  0.00    -0.309 N  
HETATM   12  H   UNL     1     -11.809  14.062  66.358  1.00  0.00     0.000 HD 
BRANCH  11  13
HETATM   13  C   UNL     1      -9.741  13.492  66.511  1.00  0.00    -0.283 C  
HETATM   14  C   UNL     1      -9.545  13.046  67.966  1.00  0.00    -0.224 C  
HETATM   15  C   UNL     1     -10.630  12.088  68.456  1.00  0.00    -0.252 C  
HETATM   16  C   UNL     1     -10.870  10.915  67.511  1.00  0.00    -0.324 C  
HETATM   17  C   UNL     1     -11.024  11.336  66.053  1.00  0.00    -0.237 C  
HETATM   18  C   UNL     1      -9.912  12.277  65.594  1.00  0.00    -0.271 C  
ENDBRANCH  11  13
ENDBRANCH   9  11
ENDBRANCH   4   9
ENDBRANCH   3   4
TORSDOF 5
ENDMDL
MODEL       94
REMARK 921   NORMALIZED FREE ENERGY PREDICTED BY IDOCK:   -4.01 KCAL/MOL
REMARK 922        TOTAL FREE ENERGY PREDICTED BY IDOCK:   -5.78 KCAL/MOL
REMARK 923 INTER-LIGAND FREE ENERGY PREDICTED BY IDOCK:   -4.95 KCAL/MOL
REMARK 924 INTRA-LIGAND FREE ENERGY PREDICTED BY IDOCK:   -0.82 KCAL/MOL
REMARK 927      BINDING AFFINITY PREDICTED BY RF-SCORE:    0.00 PKD
ROOT
HETATM    1 CL   UNL     1     -12.386  12.399  63.343  1.00  0.00    -0.638 Cl 
HETATM    2  C   UNL     1     -12.491  12.772  65.083  1.00  0.00    -0.501 C  
HETATM    3  C   UNL     1     -11.240  13.510  65.546  1.00  0.00    -0.292 C  
ENDROOT
BRANCH   3   4
HETATM    4  N   UNL     1     -11.259  13.809  66.982  1.00  0.00    -0.302 N  
BRANCH   4   5
HETATM    5  N   UNL     1     -12.385  14.395  67.573  1.00  0.00    -0.600 NA 
HETATM    6  H   UNL     1     -13.174  14.749  67.031  1.00  0.00     0.000 HD 
HETATM    7  O   UNL     1     -12.340  14.445  68.806  1.00  0.00    -0.568 OA 
HETATM    8  H   UNL     1     -13.104  14.842  69.207  1.00  0.00     0.000 HD 
ENDBRANCH   4   5
BRANCH   4   9
HETATM    9  C   UNL     1     -10.218  13.336  67.778  1.00  0.00    -0.228 C  
HETATM   10  O   UNL     1      -9.250  14.037  68.074  1.00  0.00    -0.187 OA 
BRANCH   9  11
HETATM   11  N   UNL     1     -10.306  12.019  68.186  1.00  0.00    -0.192 N  
HETATM   12  H   UNL     1     -11.191  11.675  68.558  1.00  0.00     0.000 HD 
BRANCH  11  13
HETATM   13  C   UNL     1      -9.170  11.101  68.101  1.00  0.00    -0.166 C  
HETATM   14  C   UNL     1      -9.362   9.844  68.960  1.00  0.00    -0.175 C  
HETATM   15  C   UNL     1     -10.399   8.877  68.391  1.00  0.00    -0.237 C  
HETATM   16  C   UNL     1     -10.173   8.549  66.918  1.00  0.00    -0.375 C  
HETATM   17  C   UNL     1      -9.935   9.785  66.055  1.00  0.00    -0.342 C  
HETATM   18  C   UNL     1      -8.881  10.719  66.646  1.00  0.00    -0.151 C  
ENDBRANCH  11  13
ENDBRANCH   9  11
ENDBRANCH   4   9
ENDBRANCH   3   4
TORSDOF 5
ENDMDL
MODEL       95
REMARK 921   NORMALIZED FREE ENERGY PREDICTED BY IDOCK:   -4.01 KCAL/MOL
REMARK 922        TOTAL FREE ENERGY PREDICTED BY IDOCK:   -5.77 KCAL/MOL
REMARK 923 INTER-LIGAND FREE ENERGY PREDICTED BY IDOCK:   -5.55 KCAL/MOL
REMARK 924 INTRA-LIGAND FREE ENERGY PREDICTED BY IDOCK:   -0.22 KCAL/MOL
REMARK 927      BINDING AFFINITY PREDICTED BY RF-SCORE:    0.00 PKD
ROOT
HETATM    1 CL   UNL     1     -10.917   5.517  73.135  1.00  0.00    -0.317 Cl 
HETATM    2  C   UNL     1     -11.766   6.719  72.129  1.00  0.00    -0.297 C  
HETATM    3  C   UNL     1     -11.498   8.129  72.644  1.00  0.00    -0.387 C  
ENDROOT
BRANCH   3   4
HETATM    4  N   UNL     1     -12.204   9.157  71.872  1.00  0.00    -0.366 N  
BRANCH   4   5
HETATM    5  N   UNL     1     -13.357   9.765  72.383  1.00  0.00    -0.598 NA 
HETATM    6  H   UNL     1     -13.667  10.694  72.098  1.00  0.00     0.000 HD 
HETATM    7  O   UNL     1     -13.967   9.078  73.210  1.00  0.00    -1.205 OA 
HETATM    8  H   UNL     1     -14.749   9.489  73.556  1.00  0.00     0.000 HD 
ENDBRANCH   4   5
BRANCH   4   9
HETATM    9  C   UNL     1     -11.608   9.650  70.713  1.00  0.00    -0.321 C  
HETATM   10  O   UNL     1     -11.296  10.835  70.591  1.00  0.00    -0.298 OA 
BRANCH   9  11
HETATM   11  N   UNL     1     -11.421   8.745  69.686  1.00  0.00    -0.407 N  
HETATM   12  H   UNL     1     -12.117   8.014  69.540  1.00  0.00     0.000 HD 
BRANCH  11  13
HETATM   13  C   UNL     1     -10.259   8.804  68.800  1.00  0.00    -0.206 C  
HETATM   14  C   UNL     1      -9.057   8.028  69.355  1.00  0.00    -0.148 C  
HETATM   15  C   UNL     1      -9.235   6.512  69.293  1.00  0.00    -0.139 C  
HETATM   16  C   UNL     1      -9.670   6.013  67.918  1.00  0.00    -0.123 C  
HETATM   17  C   UNL     1     -10.836   6.801  67.331  1.00  0.00    -0.417 C  
HETATM   18  C   UNL     1     -10.615   8.311  67.395  1.00  0.00    -0.324 C  
ENDBRANCH  11  13
ENDBRANCH   9  11
ENDBRANCH   4   9
ENDBRANCH   3   4
TORSDOF 5
ENDMDL
MODEL       96
REMARK 921   NORMALIZED FREE ENERGY PREDICTED BY IDOCK:   -4.01 KCAL/MOL
REMARK 922        TOTAL FREE ENERGY PREDICTED BY IDOCK:   -5.77 KCAL/MOL
REMARK 923 INTER-LIGAND FREE ENERGY PREDICTED BY IDOCK:   -5.14 KCAL/MOL
REMARK 924 INTRA-LIGAND FREE ENERGY PREDICTED BY IDOCK:   -0.64 KCAL/MOL
REMARK 927      BINDING AFFINITY PREDICTED BY RF-SCORE:    0.00 PKD
ROOT
HETATM    1 CL   UNL     1      -8.725  10.614  64.290  1.00  0.00    -0.168 Cl 
HETATM    2  C   UNL     1      -9.965  10.071  65.451  1.00  0.00    -0.294 C  
HETATM    3  C   UNL     1      -9.628  10.558  66.856  1.00  0.00    -0.175 C  
ENDROOT
BRANCH   3   4
HETATM    4  N   UNL     1     -10.598  10.107  67.859  1.00  0.00    -0.230 N  
BRANCH   4   5
HETATM    5  N   UNL     1     -11.907  10.602  67.857  1.00  0.00    -0.715 NA 
HETATM    6  H   UNL     1     -12.591  10.359  67.139  1.00  0.00     0.000 HD 
HETATM    7  O   UNL     1     -12.163  11.360  68.799  1.00  0.00    -0.502 OA 
HETATM    8  H   UNL     1     -13.051  11.696  68.797  1.00  0.00     0.000 HD 
ENDBRANCH   4   5
BRANCH   4   9
HETATM    9  C   UNL     1     -10.253   9.046  68.694  1.00  0.00    -0.205 C  
HETATM   10  O   UNL     1      -9.100   8.619  68.767  1.00  0.00    -0.141 OA 
BRANCH   9  11
HETATM   11  N   UNL     1     -11.282   8.467  69.411  1.00  0.00    -0.429 N  
HETATM   12  H   UNL     1     -12.154   8.244  68.930  1.00  0.00     0.000 HD 
BRANCH  11  13
HETATM   13  C   UNL     1     -11.163   8.163  70.836  1.00  0.00    -0.266 C  
HETATM   14  C   UNL     1     -11.516   9.362  71.726  1.00  0.00    -0.413 C  
HETATM   15  C   UNL     1     -13.012   9.676  71.749  1.00  0.00    -0.514 C  
HETATM   16  C   UNL     1     -13.879   8.456  72.041  1.00  0.00    -0.439 C  
HETATM   17  C   UNL     1     -13.512   7.239  71.196  1.00  0.00    -0.243 C  
HETATM   18  C   UNL     1     -12.014   6.946  71.211  1.00  0.00    -0.402 C  
ENDBRANCH  11  13
ENDBRANCH   9  11
ENDBRANCH   4   9
ENDBRANCH   3   4
TORSDOF 5
ENDMDL
MODEL       97
REMARK 921   NORMALIZED FREE ENERGY PREDICTED BY IDOCK:   -4.00 KCAL/MOL
REMARK 922        TOTAL FREE ENERGY PREDICTED BY IDOCK:   -5.76 KCAL/MOL
REMARK 923 INTER-LIGAND FREE ENERGY PREDICTED BY IDOCK:   -5.01 KCAL/MOL
REMARK 924 INTRA-LIGAND FREE ENERGY PREDICTED BY IDOCK:   -0.75 KCAL/MOL
REMARK 927      BINDING AFFINITY PREDICTED BY RF-SCORE:    0.00 PKD
ROOT
HETATM    1 CL   UNL     1      -6.439  14.490  67.797  1.00  0.00    -0.178 Cl 
HETATM    2  C   UNL     1      -8.119  14.698  68.359  1.00  0.00    -0.147 C  
HETATM    3  C   UNL     1      -9.083  14.663  67.179  1.00  0.00    -0.223 C  
ENDROOT
BRANCH   3   4
HETATM    4  N   UNL     1     -10.479  14.867  67.582  1.00  0.00    -0.246 N  
BRANCH   4   5
HETATM    5  N   UNL     1     -11.432  13.861  67.382  1.00  0.00    -0.329 NA 
HETATM    6  H   UNL     1     -11.199  12.868  67.387  1.00  0.00     0.000 HD 
HETATM    7  O   UNL     1     -12.579  14.281  67.199  1.00  0.00    -0.546 OA 
HETATM    8  H   UNL     1     -13.226  13.599  67.064  1.00  0.00     0.000 HD 
ENDBRANCH   4   5
BRANCH   4   9
HETATM    9  C   UNL     1     -10.800  15.997  68.331  1.00  0.00    -0.310 C  
HETATM   10  O   UNL     1     -11.113  15.926  69.520  1.00  0.00    -0.266 OA 
BRANCH   9  11
HETATM   11  N   UNL     1     -10.791  17.204  67.658  1.00  0.00    -0.296 N  
HETATM   12  H   UNL     1     -11.221  17.258  66.735  1.00  0.00     0.000 HD 
BRANCH  11  13
HETATM   13  C   UNL     1     -10.183  18.406  68.228  1.00  0.00    -0.384 C  
HETATM   14  C   UNL     1      -8.651  18.337  68.254  1.00  0.00    -0.299 C  
HETATM   15  C   UNL     1      -8.017  18.471  66.870  1.00  0.00    -0.250 C  
HETATM   16  C   UNL     1      -8.535  19.672  66.084  1.00  0.00    -0.354 C  
HETATM   17  C   UNL     1     -10.056  19.783  66.085  1.00  0.00    -0.600 C  
HETATM   18  C   UNL     1     -10.652  19.661  67.485  1.00  0.00    -0.577 C  
ENDBRANCH  11  13
ENDBRANCH   9  11
ENDBRANCH   4   9
ENDBRANCH   3   4
TORSDOF 5
ENDMDL
MODEL       98
REMARK 921   NORMALIZED FREE ENERGY PREDICTED BY IDOCK:   -4.00 KCAL/MOL
REMARK 922        TOTAL FREE ENERGY PREDICTED BY IDOCK:   -5.76 KCAL/MOL
REMARK 923 INTER-LIGAND FREE ENERGY PREDICTED BY IDOCK:   -5.28 KCAL/MOL
REMARK 924 INTRA-LIGAND FREE ENERGY PREDICTED BY IDOCK:   -0.47 KCAL/MOL
REMARK 927      BINDING AFFINITY PREDICTED BY RF-SCORE:    0.00 PKD
ROOT
HETATM    1 CL   UNL     1     -13.425   9.143  72.501  1.00  0.00    -0.520 Cl 
HETATM    2  C   UNL     1     -13.276  10.186  71.063  1.00  0.00    -0.335 C  
HETATM    3  C   UNL     1     -11.836  10.656  70.892  1.00  0.00    -0.331 C  
ENDROOT
BRANCH   3   4
HETATM    4  N   UNL     1     -11.665  11.549  69.742  1.00  0.00    -0.326 N  
BRANCH   4   5
HETATM    5  N   UNL     1     -11.328  12.895  69.930  1.00  0.00    -0.503 NA 
HETATM    6  H   UNL     1     -10.472  13.192  70.398  1.00  0.00     0.000 HD 
HETATM    7  O   UNL     1     -12.158  13.692  69.479  1.00  0.00    -0.318 OA 
HETATM    8  H   UNL     1     -11.930  14.605  69.607  1.00  0.00     0.000 HD 
ENDBRANCH   4   5
BRANCH   4   9
HETATM    9  C   UNL     1     -11.660  10.999  68.462  1.00  0.00    -0.310 C  
HETATM   10  O   UNL     1     -11.917  11.668  67.461  1.00  0.00    -0.622 OA 
BRANCH   9  11
HETATM   11  N   UNL     1     -11.391   9.646  68.375  1.00  0.00    -0.502 N  
HETATM   12  H   UNL     1     -12.126   8.981  68.614  1.00  0.00     0.000 HD 
BRANCH  11  13
HETATM   13  C   UNL     1     -10.086   9.139  67.952  1.00  0.00    -0.199 C  
HETATM   14  C   UNL     1      -9.328   8.441  69.089  1.00  0.00    -0.151 C  
HETATM   15  C   UNL     1      -9.920   7.082  69.464  1.00  0.00    -0.166 C  
HETATM   16  C   UNL     1     -10.141   6.170  68.262  1.00  0.00    -0.182 C  
HETATM   17  C   UNL     1     -10.854   6.861  67.103  1.00  0.00    -0.447 C  
HETATM   18  C   UNL     1     -10.225   8.206  66.746  1.00  0.00    -0.372 C  
ENDBRANCH  11  13
ENDBRANCH   9  11
ENDBRANCH   4   9
ENDBRANCH   3   4
TORSDOF 5
ENDMDL
MODEL       99
REMARK 921   NORMALIZED FREE ENERGY PREDICTED BY IDOCK:   -3.97 KCAL/MOL
REMARK 922        TOTAL FREE ENERGY PREDICTED BY IDOCK:   -5.72 KCAL/MOL
REMARK 923 INTER-LIGAND FREE ENERGY PREDICTED BY IDOCK:   -5.17 KCAL/MOL
REMARK 924 INTRA-LIGAND FREE ENERGY PREDICTED BY IDOCK:   -0.55 KCAL/MOL
REMARK 927      BINDING AFFINITY PREDICTED BY RF-SCORE:    0.00 PKD
ROOT
HETATM    1 CL   UNL     1     -10.712   7.987  72.840  1.00  0.00    -0.434 Cl 
HETATM    2  C   UNL     1     -11.135   8.718  71.270  1.00  0.00    -0.278 C  
HETATM    3  C   UNL     1      -9.900   9.331  70.618  1.00  0.00    -0.270 C  
ENDROOT
BRANCH   3   4
HETATM    4  N   UNL     1     -10.200   9.981  69.338  1.00  0.00    -0.207 N  
BRANCH   4   5
HETATM    5  N   UNL     1     -11.372   9.668  68.638  1.00  0.00    -0.482 NA 
HETATM    6  H   UNL     1     -11.495   8.795  68.125  1.00  0.00     0.000 HD 
HETATM    7  O   UNL     1     -12.244  10.542  68.696  1.00  0.00    -0.794 OA 
HETATM    8  H   UNL     1     -13.038  10.330  68.221  1.00  0.00     0.000 HD 
ENDBRANCH   4   5
BRANCH   4   9
HETATM    9  C   UNL     1      -9.398  11.041  68.922  1.00  0.00    -0.145 C  
HETATM   10  O   UNL     1      -8.190  10.909  68.722  1.00  0.00    -0.136 OA 
BRANCH   9  11
HETATM   11  N   UNL     1     -10.022  12.266  68.783  1.00  0.00    -0.408 N  
HETATM   12  H   UNL     1     -10.721  12.545  69.472  1.00  0.00     0.000 HD 
BRANCH  11  13
HETATM   13  C   UNL     1      -9.713  13.176  67.680  1.00  0.00    -0.213 C  
HETATM   14  C   UNL     1      -9.996  12.554  66.307  1.00  0.00    -0.263 C  
HETATM   15  C   UNL     1     -11.487  12.423  65.999  1.00  0.00    -0.431 C  
HETATM   16  C   UNL     1     -12.265  13.715  66.227  1.00  0.00    -0.484 C  
HETATM   17  C   UNL     1     -11.963  14.371  67.571  1.00  0.00    -0.389 C  
HETATM   18  C   UNL     1     -10.465  14.502  67.836  1.00  0.00    -0.242 C  
ENDBRANCH  11  13
ENDBRANCH   9  11
ENDBRANCH   4   9
ENDBRANCH   3   4
TORSDOF 5
ENDMDL
MODEL      100
REMARK 921   NORMALIZED FREE ENERGY PREDICTED BY IDOCK:   -3.97 KCAL/MOL
REMARK 922        TOTAL FREE ENERGY PREDICTED BY IDOCK:   -5.72 KCAL/MOL
REMARK 923 INTER-LIGAND FREE ENERGY PREDICTED BY IDOCK:   -5.25 KCAL/MOL
REMARK 924 INTRA-LIGAND FREE ENERGY PREDICTED BY IDOCK:   -0.47 KCAL/MOL
REMARK 927      BINDING AFFINITY PREDICTED BY RF-SCORE:    0.00 PKD
ROOT
HETATM    1 CL   UNL     1     -12.000  12.857  65.673  1.00  0.00    -0.463 Cl 
HETATM    2  C   UNL     1     -11.256  14.020  66.801  1.00  0.00    -0.315 C  
HETATM    3  C   UNL     1      -9.738  13.874  66.793  1.00  0.00    -0.279 C  
ENDROOT
BRANCH   3   4
HETATM    4  N   UNL     1      -9.076  14.784  67.733  1.00  0.00    -0.183 N  
BRANCH   4   5
HETATM    5  N   UNL     1      -9.222  14.610  69.114  1.00  0.00    -0.377 NA 
HETATM    6  H   UNL     1     -10.119  14.411  69.556  1.00  0.00     0.000 HD 
HETATM    7  O   UNL     1      -8.169  14.720  69.752  1.00  0.00    -0.417 OA 
HETATM    8  H   UNL     1      -8.267  14.602  70.689  1.00  0.00     0.000 HD 
ENDBRANCH   4   5
BRANCH   4   9
HETATM    9  C   UNL     1      -8.157  15.706  67.236  1.00  0.00    -0.195 C  
HETATM   10  O   UNL     1      -6.999  15.391  66.958  1.00  0.00    -0.230 OA 
BRANCH   9  11
HETATM   11  N   UNL     1      -8.600  17.009  67.110  1.00  0.00    -0.197 N  
HETATM   12  H   UNL     1      -7.920  17.744  66.913  1.00  0.00     0.000 HD 
BRANCH  11  13
HETATM   13  C   UNL     1     -10.011  17.367  67.248  1.00  0.00    -0.302 C  
HETATM   14  C   UNL     1     -10.322  18.025  68.599  1.00  0.00    -0.328 C  
HETATM   15  C   UNL     1      -9.778  19.449  68.717  1.00  0.00    -0.516 C  
HETATM   16  C   UNL     1     -10.152  20.336  67.534  1.00  0.00    -0.519 C  
HETATM   17  C   UNL     1      -9.891  19.681  66.181  1.00  0.00    -0.523 C  
HETATM   18  C   UNL     1     -10.463  18.268  66.094  1.00  0.00    -0.403 C  
ENDBRANCH  11  13
ENDBRANCH   9  11
ENDBRANCH   4   9
ENDBRANCH   3   4
TORSDOF 5
ENDMDL
MODEL      101
REMARK 921   NORMALIZED FREE ENERGY PREDICTED BY IDOCK:   -3.97 KCAL/MOL
REMARK 922        TOTAL FREE ENERGY PREDICTED BY IDOCK:   -5.72 KCAL/MOL
REMARK 923 INTER-LIGAND FREE ENERGY PREDICTED BY IDOCK:   -5.05 KCAL/MOL
REMARK 924 INTRA-LIGAND FREE ENERGY PREDICTED BY IDOCK:   -0.67 KCAL/MOL
REMARK 927      BINDING AFFINITY PREDICTED BY RF-SCORE:    0.00 PKD
ROOT
HETATM    1 CL   UNL     1      -9.956   8.309  66.806  1.00  0.00    -0.331 Cl 
HETATM    2  C   UNL     1      -9.883   9.356  68.247  1.00  0.00    -0.160 C  
HETATM    3  C   UNL     1     -11.260   9.934  68.555  1.00  0.00    -0.072 C  
ENDROOT
BRANCH   3   4
HETATM    4  N   UNL     1     -11.251  10.834  69.713  1.00  0.00    -0.277 N  
BRANCH   4   5
HETATM    5  N   UNL     1     -10.880  12.176  69.567  1.00  0.00    -0.449 NA 
HETATM    6  H   UNL     1     -10.109  12.477  68.971  1.00  0.00     0.000 HD 
HETATM    7  O   UNL     1     -11.567  12.965  70.225  1.00  0.00    -0.526 OA 
HETATM    8  H   UNL     1     -11.316  13.875  70.127  1.00  0.00     0.000 HD 
ENDBRANCH   4   5
BRANCH   4   9
HETATM    9  C   UNL     1     -11.790  10.383  70.915  1.00  0.00    -0.377 C  
HETATM   10  O   UNL     1     -12.823  10.860  71.389  1.00  0.00    -0.393 OA 
BRANCH   9  11
HETATM   11  N   UNL     1     -11.083   9.397  71.576  1.00  0.00    -0.376 N  
HETATM   12  H   UNL     1     -10.067   9.468  71.625  1.00  0.00     0.000 HD 
BRANCH  11  13
HETATM   13  C   UNL     1     -11.745   8.255  72.206  1.00  0.00    -0.388 C  
HETATM   14  C   UNL     1     -12.496   7.379  71.195  1.00  0.00    -0.343 C  
HETATM   15  C   UNL     1     -11.569   6.558  70.299  1.00  0.00    -0.473 C  
HETATM   16  C   UNL     1     -10.514   5.779  71.079  1.00  0.00    -0.307 C  
HETATM   17  C   UNL     1      -9.786   6.624  72.120  1.00  0.00    -0.166 C  
HETATM   18  C   UNL     1     -10.745   7.415  73.007  1.00  0.00    -0.413 C  
ENDBRANCH  11  13
ENDBRANCH   9  11
ENDBRANCH   4   9
ENDBRANCH   3   4
TORSDOF 5
ENDMDL
MODEL      102
REMARK 921   NORMALIZED FREE ENERGY PREDICTED BY IDOCK:   -3.96 KCAL/MOL
REMARK 922        TOTAL FREE ENERGY PREDICTED BY IDOCK:   -5.72 KCAL/MOL
REMARK 923 INTER-LIGAND FREE ENERGY PREDICTED BY IDOCK:   -5.40 KCAL/MOL
REMARK 924 INTRA-LIGAND FREE ENERGY PREDICTED BY IDOCK:   -0.32 KCAL/MOL
REMARK 927      BINDING AFFINITY PREDICTED BY RF-SCORE:    0.00 PKD
ROOT
HETATM    1 CL   UNL     1     -11.548  11.421  68.158  1.00  0.00    -0.368 Cl 
HETATM    2  C   UNL     1     -11.572  12.390  66.661  1.00  0.00    -0.385 C  
HETATM    3  C   UNL     1     -10.223  13.067  66.444  1.00  0.00    -0.280 C  
ENDROOT
BRANCH   3   4
HETATM    4  N   UNL     1     -10.199  13.907  65.242  1.00  0.00    -0.348 N  
BRANCH   4   5
HETATM    5  N   UNL     1     -10.310  13.334  63.970  1.00  0.00    -0.690 NA 
HETATM    6  H   UNL     1     -10.858  13.755  63.219  1.00  0.00     0.000 HD 
HETATM    7  O   UNL     1      -9.688  12.275  63.836  1.00  0.00    -0.561 OA 
HETATM    8  H   UNL     1      -9.764  11.886  62.973  1.00  0.00     0.000 HD 
ENDBRANCH   4   5
BRANCH   4   9
HETATM    9  C   UNL     1     -10.250  15.292  65.393  1.00  0.00    -0.383 C  
HETATM   10  O   UNL     1     -10.887  16.011  64.623  1.00  0.00    -0.608 OA 
BRANCH   9  11
HETATM   11  N   UNL     1      -9.511  15.824  66.433  1.00  0.00    -0.271 N  
HETATM   12  H   UNL     1      -9.850  15.710  67.388  1.00  0.00     0.000 HD 
BRANCH  11  13
HETATM   13  C   UNL     1      -8.260  16.547  66.207  1.00  0.00    -0.325 C  
HETATM   14  C   UNL     1      -8.451  18.069  66.203  1.00  0.00    -0.141 C  
HETATM   15  C   UNL     1      -8.728  18.647  67.590  1.00  0.00    -0.288 C  
HETATM   16  C   UNL     1      -7.726  18.187  68.645  1.00  0.00    -0.309 C  
HETATM   17  C   UNL     1      -7.489  16.679  68.634  1.00  0.00    -0.211 C  
HETATM   18  C   UNL     1      -7.200  16.141  67.235  1.00  0.00    -0.232 C  
ENDBRANCH  11  13
ENDBRANCH   9  11
ENDBRANCH   4   9
ENDBRANCH   3   4
TORSDOF 5
ENDMDL
MODEL      103
REMARK 921   NORMALIZED FREE ENERGY PREDICTED BY IDOCK:   -3.94 KCAL/MOL
REMARK 922        TOTAL FREE ENERGY PREDICTED BY IDOCK:   -5.69 KCAL/MOL
REMARK 923 INTER-LIGAND FREE ENERGY PREDICTED BY IDOCK:   -5.03 KCAL/MOL
REMARK 924 INTRA-LIGAND FREE ENERGY PREDICTED BY IDOCK:   -0.66 KCAL/MOL
REMARK 927      BINDING AFFINITY PREDICTED BY RF-SCORE:    0.00 PKD
ROOT
HETATM    1 CL   UNL     1      -8.307   8.376  64.652  1.00  0.00    -0.158 Cl 
HETATM    2  C   UNL     1      -8.440   9.450  66.069  1.00  0.00    -0.124 C  
HETATM    3  C   UNL     1      -9.882   9.909  66.255  1.00  0.00    -0.245 C  
ENDROOT
BRANCH   3   4
HETATM    4  N   UNL     1     -10.042  10.827  67.388  1.00  0.00    -0.187 N  
BRANCH   4   5
HETATM    5  N   UNL     1      -9.030  11.737  67.715  1.00  0.00    -0.167 NA 
HETATM    6  H   UNL     1      -8.095  11.696  67.308  1.00  0.00     0.000 HD 
HETATM    7  O   UNL     1      -9.367  12.593  68.540  1.00  0.00    -0.337 OA 
HETATM    8  H   UNL     1      -8.681  13.210  68.762  1.00  0.00     0.000 HD 
ENDBRANCH   4   5
BRANCH   4   9
HETATM    9  C   UNL     1     -11.284  10.906  68.014  1.00  0.00    -0.314 C  
HETATM   10  O   UNL     1     -12.131  11.738  67.685  1.00  0.00    -0.598 OA 
BRANCH   9  11
HETATM   11  N   UNL     1     -11.505  10.027  69.057  1.00  0.00    -0.475 N  
HETATM   12  H   UNL     1     -11.853   9.091  68.848  1.00  0.00     0.000 HD 
BRANCH  11  13
HETATM   13  C   UNL     1     -11.254  10.394  70.450  1.00  0.00    -0.321 C  
HETATM   14  C   UNL     1     -12.543  10.721  71.214  1.00  0.00    -0.532 C  
HETATM   15  C   UNL     1     -13.393   9.488  71.520  1.00  0.00    -0.470 C  
HETATM   16  C   UNL     1     -12.601   8.356  72.166  1.00  0.00    -0.412 C  
HETATM   17  C   UNL     1     -11.293   8.046  71.444  1.00  0.00    -0.292 C  
HETATM   18  C   UNL     1     -10.463   9.299  71.172  1.00  0.00    -0.401 C  
ENDBRANCH  11  13
ENDBRANCH   9  11
ENDBRANCH   4   9
ENDBRANCH   3   4
TORSDOF 5
ENDMDL
MODEL      104
REMARK 921   NORMALIZED FREE ENERGY PREDICTED BY IDOCK:   -3.94 KCAL/MOL
REMARK 922        TOTAL FREE ENERGY PREDICTED BY IDOCK:   -5.68 KCAL/MOL
REMARK 923 INTER-LIGAND FREE ENERGY PREDICTED BY IDOCK:   -5.20 KCAL/MOL
REMARK 924 INTRA-LIGAND FREE ENERGY PREDICTED BY IDOCK:   -0.48 KCAL/MOL
REMARK 927      BINDING AFFINITY PREDICTED BY RF-SCORE:    0.00 PKD
ROOT
HETATM    1 CL   UNL     1     -10.617  10.408  65.854  1.00  0.00    -0.178 Cl 
HETATM    2  C   UNL     1     -11.236  11.850  66.700  1.00  0.00    -0.328 C  
HETATM    3  C   UNL     1     -10.379  13.068  66.374  1.00  0.00    -0.281 C  
ENDROOT
BRANCH   3   4
HETATM    4  N   UNL     1     -10.824  14.278  67.075  1.00  0.00    -0.293 N  
BRANCH   4   5
HETATM    5  N   UNL     1     -12.168  14.441  67.430  1.00  0.00    -0.617 NA 
HETATM    6  H   UNL     1     -12.939  14.153  66.827  1.00  0.00     0.000 HD 
HETATM    7  O   UNL     1     -12.339  14.964  68.536  1.00  0.00    -0.585 OA 
HETATM    8  H   UNL     1     -13.250  15.075  68.778  1.00  0.00     0.000 HD 
ENDBRANCH   4   5
BRANCH   4   9
HETATM    9  C   UNL     1      -9.863  15.171  67.543  1.00  0.00    -0.220 C  
HETATM   10  O   UNL     1      -8.799  14.790  68.033  1.00  0.00    -0.161 OA 
BRANCH   9  11
HETATM   11  N   UNL     1     -10.182  16.513  67.467  1.00  0.00    -0.276 N  
HETATM   12  H   UNL     1     -11.096  16.823  67.795  1.00  0.00     0.000 HD 
BRANCH  11  13
HETATM   13  C   UNL     1      -9.249  17.505  66.930  1.00  0.00    -0.265 C  
HETATM   14  C   UNL     1      -9.931  18.505  65.988  1.00  0.00    -0.239 C  
HETATM   15  C   UNL     1     -10.832  19.502  66.715  1.00  0.00    -0.500 C  
HETATM   16  C   UNL     1     -10.147  20.184  67.895  1.00  0.00    -0.533 C  
HETATM   17  C   UNL     1      -9.425  19.209  68.820  1.00  0.00    -0.454 C  
HETATM   18  C   UNL     1      -8.522  18.240  68.060  1.00  0.00    -0.273 C  
ENDBRANCH  11  13
ENDBRANCH   9  11
ENDBRANCH   4   9
ENDBRANCH   3   4
TORSDOF 5
ENDMDL
MODEL      105
REMARK 921   NORMALIZED FREE ENERGY PREDICTED BY IDOCK:   -3.94 KCAL/MOL
REMARK 922        TOTAL FREE ENERGY PREDICTED BY IDOCK:   -5.68 KCAL/MOL
REMARK 923 INTER-LIGAND FREE ENERGY PREDICTED BY IDOCK:   -5.16 KCAL/MOL
REMARK 924 INTRA-LIGAND FREE ENERGY PREDICTED BY IDOCK:   -0.53 KCAL/MOL
REMARK 927      BINDING AFFINITY PREDICTED BY RF-SCORE:    0.00 PKD
ROOT
HETATM    1 CL   UNL     1     -10.425   7.700  66.860  1.00  0.00    -0.402 Cl 
HETATM    2  C   UNL     1     -10.063   9.370  66.351  1.00  0.00    -0.262 C  
HETATM    3  C   UNL     1     -10.966  10.357  67.082  1.00  0.00    -0.196 C  
ENDROOT
BRANCH   3   4
HETATM    4  N   UNL     1     -10.735  11.746  66.672  1.00  0.00    -0.251 N  
BRANCH   4   5
HETATM    5  N   UNL     1      -9.479  12.151  66.206  1.00  0.00    -0.232 NA 
HETATM    6  H   UNL     1      -8.603  11.801  66.596  1.00  0.00     0.000 HD 
HETATM    7  O   UNL     1      -9.522  12.968  65.281  1.00  0.00    -0.468 OA 
HETATM    8  H   UNL     1      -8.670  13.243  64.964  1.00  0.00     0.000 HD 
ENDBRANCH   4   5
BRANCH   4   9
HETATM    9  C   UNL     1     -11.827  12.607  66.580  1.00  0.00    -0.396 C  
HETATM   10  O   UNL     1     -12.491  12.712  65.548  1.00  0.00    -0.622 OA 
BRANCH   9  11
HETATM   11  N   UNL     1     -12.103  13.371  67.697  1.00  0.00    -0.316 N  
HETATM   12  H   UNL     1     -12.980  13.891  67.734  1.00  0.00     0.000 HD 
BRANCH  11  13
HETATM   13  C   UNL     1     -11.180  13.459  68.827  1.00  0.00    -0.275 C  
HETATM   14  C   UNL     1     -10.408  14.785  68.856  1.00  0.00    -0.243 C  
HETATM   15  C   UNL     1     -11.274  15.978  69.258  1.00  0.00    -0.346 C  
HETATM   16  C   UNL     1     -12.074  15.739  70.535  1.00  0.00    -0.407 C  
HETATM   17  C   UNL     1     -12.813  14.404  70.542  1.00  0.00    -0.353 C  
HETATM   18  C   UNL     1     -11.913  13.234  70.153  1.00  0.00    -0.388 C  
ENDBRANCH  11  13
ENDBRANCH   9  11
ENDBRANCH   4   9
ENDBRANCH   3   4
TORSDOF 5
ENDMDL
MODEL      106
REMARK 921   NORMALIZED FREE ENERGY PREDICTED BY IDOCK:   -3.93 KCAL/MOL
REMARK 922        TOTAL FREE ENERGY PREDICTED BY IDOCK:   -5.67 KCAL/MOL
REMARK 923 INTER-LIGAND FREE ENERGY PREDICTED BY IDOCK:   -5.24 KCAL/MOL
REMARK 924 INTRA-LIGAND FREE ENERGY PREDICTED BY IDOCK:   -0.42 KCAL/MOL
REMARK 927      BINDING AFFINITY PREDICTED BY RF-SCORE:    0.00 PKD
ROOT
HETATM    1 CL   UNL     1      -9.300   7.221  74.214  1.00  0.00    -0.257 Cl 
HETATM    2  C   UNL     1     -10.701   7.577  73.171  1.00  0.00    -0.398 C  
HETATM    3  C   UNL     1     -10.296   8.514  72.038  1.00  0.00    -0.338 C  
ENDROOT
BRANCH   3   4
HETATM    4  N   UNL     1     -11.422   8.871  71.169  1.00  0.00    -0.284 N  
BRANCH   4   5
HETATM    5  N   UNL     1     -12.113   7.882  70.458  1.00  0.00    -0.483 NA 
HETATM    6  H   UNL     1     -13.107   7.696  70.592  1.00  0.00     0.000 HD 
HETATM    7  O   UNL     1     -11.414   7.255  69.654  1.00  0.00    -0.483 OA 
HETATM    8  H   UNL     1     -11.883   6.585  69.172  1.00  0.00     0.000 HD 
ENDBRANCH   4   5
BRANCH   4   9
HETATM    9  C   UNL     1     -11.908  10.176  71.205  1.00  0.00    -0.381 C  
HETATM   10  O   UNL     1     -12.853  10.502  71.925  1.00  0.00    -0.444 OA 
BRANCH   9  11
HETATM   11  N   UNL     1     -11.301  11.082  70.357  1.00  0.00    -0.467 N  
HETATM   12  H   UNL     1     -10.451  11.554  70.666  1.00  0.00     0.000 HD 
BRANCH  11  13
HETATM   13  C   UNL     1     -11.838  11.387  69.031  1.00  0.00    -0.348 C  
HETATM   14  C   UNL     1     -11.816  12.889  68.718  1.00  0.00    -0.353 C  
HETATM   15  C   UNL     1     -10.412  13.431  68.456  1.00  0.00    -0.260 C  
HETATM   16  C   UNL     1      -9.630  12.610  67.435  1.00  0.00    -0.194 C  
HETATM   17  C   UNL     1      -9.677  11.109  67.706  1.00  0.00    -0.183 C  
HETATM   18  C   UNL     1     -11.097  10.601  67.946  1.00  0.00    -0.371 C  
ENDBRANCH  11  13
ENDBRANCH   9  11
ENDBRANCH   4   9
ENDBRANCH   3   4
TORSDOF 5
ENDMDL
MODEL      107
REMARK 921   NORMALIZED FREE ENERGY PREDICTED BY IDOCK:   -3.92 KCAL/MOL
REMARK 922        TOTAL FREE ENERGY PREDICTED BY IDOCK:   -5.66 KCAL/MOL
REMARK 923 INTER-LIGAND FREE ENERGY PREDICTED BY IDOCK:   -4.99 KCAL/MOL
REMARK 924 INTRA-LIGAND FREE ENERGY PREDICTED BY IDOCK:   -0.67 KCAL/MOL
REMARK 927      BINDING AFFINITY PREDICTED BY RF-SCORE:    0.00 PKD
ROOT
HETATM    1 CL   UNL     1     -11.260  11.875  66.174  1.00  0.00    -0.379 Cl 
HETATM    2  C   UNL     1     -11.188  12.281  67.908  1.00  0.00    -0.274 C  
HETATM    3  C   UNL     1     -12.017  13.528  68.198  1.00  0.00    -0.341 C  
ENDROOT
BRANCH   3   4
HETATM    4  N   UNL     1     -11.962  13.928  69.608  1.00  0.00    -0.324 N  
BRANCH   4   5
HETATM    5  N   UNL     1     -12.143  12.982  70.624  1.00  0.00    -0.508 NA 
HETATM    6  H   UNL     1     -11.601  12.120  70.682  1.00  0.00     0.000 HD 
HETATM    7  O   UNL     1     -13.016  13.283  71.445  1.00  0.00    -0.352 OA 
HETATM    8  H   UNL     1     -13.139  12.641  72.135  1.00  0.00     0.000 HD 
ENDBRANCH   4   5
BRANCH   4   9
HETATM    9  C   UNL     1     -11.546  15.221  69.921  1.00  0.00    -0.311 C  
HETATM   10  O   UNL     1     -11.235  15.548  71.067  1.00  0.00    -0.332 OA 
BRANCH   9  11
HETATM   11  N   UNL     1     -11.538  16.132  68.883  1.00  0.00    -0.341 N  
HETATM   12  H   UNL     1     -12.367  16.218  68.295  1.00  0.00     0.000 HD 
BRANCH  11  13
HETATM   13  C   UNL     1     -10.380  16.979  68.600  1.00  0.00    -0.351 C  
HETATM   14  C   UNL     1      -9.054  16.211  68.685  1.00  0.00    -0.218 C  
HETATM   15  C   UNL     1      -8.840  15.245  67.521  1.00  0.00    -0.188 C  
HETATM   16  C   UNL     1      -9.056  15.890  66.155  1.00  0.00    -0.385 C  
HETATM   17  C   UNL     1     -10.349  16.696  66.066  1.00  0.00    -0.352 C  
HETATM   18  C   UNL     1     -10.519  17.662  67.236  1.00  0.00    -0.338 C  
ENDBRANCH  11  13
ENDBRANCH   9  11
ENDBRANCH   4   9
ENDBRANCH   3   4
TORSDOF 5
ENDMDL
MODEL      108
REMARK 921   NORMALIZED FREE ENERGY PREDICTED BY IDOCK:   -3.91 KCAL/MOL
REMARK 922        TOTAL FREE ENERGY PREDICTED BY IDOCK:   -5.65 KCAL/MOL
REMARK 923 INTER-LIGAND FREE ENERGY PREDICTED BY IDOCK:   -4.96 KCAL/MOL
REMARK 924 INTRA-LIGAND FREE ENERGY PREDICTED BY IDOCK:   -0.68 KCAL/MOL
REMARK 927      BINDING AFFINITY PREDICTED BY RF-SCORE:    0.00 PKD
ROOT
HETATM    1 CL   UNL     1     -10.030   6.552  74.513  1.00  0.00    -0.362 Cl 
HETATM    2  C   UNL     1     -10.592   7.144  72.928  1.00  0.00    -0.281 C  
HETATM    3  C   UNL     1     -11.676   6.227  72.371  1.00  0.00    -0.257 C  
ENDROOT
BRANCH   3   4
HETATM    4  N   UNL     1     -12.149   6.649  71.048  1.00  0.00    -0.365 N  
BRANCH   4   5
HETATM    5  N   UNL     1     -13.305   7.429  70.921  1.00  0.00    -0.596 NA 
HETATM    6  H   UNL     1     -14.236   7.026  70.812  1.00  0.00     0.000 HD 
HETATM    7  O   UNL     1     -13.100   8.647  70.952  1.00  0.00    -0.501 OA 
HETATM    8  H   UNL     1     -13.884   9.176  70.866  1.00  0.00     0.000 HD 
ENDBRANCH   4   5
BRANCH   4   9
HETATM    9  C   UNL     1     -11.334   6.421  69.942  1.00  0.00    -0.434 C  
HETATM   10  O   UNL     1     -10.760   5.346  69.762  1.00  0.00    -0.315 OA 
BRANCH   9  11
HETATM   11  N   UNL     1     -11.167   7.481  69.072  1.00  0.00    -0.413 N  
HETATM   12  H   UNL     1     -11.876   7.652  68.359  1.00  0.00     0.000 HD 
BRANCH  11  13
HETATM   13  C   UNL     1     -10.005   8.367  69.140  1.00  0.00    -0.196 C  
HETATM   14  C   UNL     1      -8.949   8.036  68.077  1.00  0.00    -0.130 C  
HETATM   15  C   UNL     1      -9.372   8.428  66.662  1.00  0.00    -0.245 C  
HETATM   16  C   UNL     1      -9.874   9.865  66.560  1.00  0.00    -0.274 C  
HETATM   17  C   UNL     1     -10.893  10.226  67.637  1.00  0.00    -0.363 C  
HETATM   18  C   UNL     1     -10.428   9.835  69.038  1.00  0.00    -0.229 C  
ENDBRANCH  11  13
ENDBRANCH   9  11
ENDBRANCH   4   9
ENDBRANCH   3   4
TORSDOF 5
ENDMDL
MODEL      109
REMARK 921   NORMALIZED FREE ENERGY PREDICTED BY IDOCK:   -3.91 KCAL/MOL
REMARK 922        TOTAL FREE ENERGY PREDICTED BY IDOCK:   -5.64 KCAL/MOL
REMARK 923 INTER-LIGAND FREE ENERGY PREDICTED BY IDOCK:   -5.01 KCAL/MOL
REMARK 924 INTRA-LIGAND FREE ENERGY PREDICTED BY IDOCK:   -0.63 KCAL/MOL
REMARK 927      BINDING AFFINITY PREDICTED BY RF-SCORE:    0.00 PKD
ROOT
HETATM    1 CL   UNL     1     -13.798  14.175  72.274  1.00  0.00    -0.592 Cl 
HETATM    2  C   UNL     1     -12.965  14.901  70.874  1.00  0.00    -0.380 C  
HETATM    3  C   UNL     1     -11.485  15.103  71.181  1.00  0.00    -0.343 C  
ENDROOT
BRANCH   3   4
HETATM    4  N   UNL     1     -10.758  15.732  70.074  1.00  0.00    -0.317 N  
BRANCH   4   5
HETATM    5  N   UNL     1     -10.986  17.074  69.745  1.00  0.00    -0.325 NA 
HETATM    6  H   UNL     1     -11.552  17.697  70.320  1.00  0.00     0.000 HD 
HETATM    7  O   UNL     1     -10.441  17.437  68.697  1.00  0.00    -0.352 OA 
HETATM    8  H   UNL     1     -10.595  18.347  68.474  1.00  0.00     0.000 HD 
ENDBRANCH   4   5
BRANCH   4   9
HETATM    9  C   UNL     1      -9.711  15.033  69.478  1.00  0.00    -0.103 C  
HETATM   10  O   UNL     1      -8.568  15.488  69.425  1.00  0.00    -0.249 OA 
BRANCH   9  11
HETATM   11  N   UNL     1     -10.029  13.815  68.910  1.00  0.00    -0.416 N  
HETATM   12  H   UNL     1     -10.564  13.140  69.457  1.00  0.00     0.000 HD 
BRANCH  11  13
HETATM   13  C   UNL     1      -9.624  13.461  67.550  1.00  0.00    -0.221 C  
HETATM   14  C   UNL     1      -9.961  12.008  67.193  1.00  0.00    -0.208 C  
HETATM   15  C   UNL     1     -11.457  11.768  66.987  1.00  0.00    -0.368 C  
HETATM   16  C   UNL     1     -12.101  12.769  66.033  1.00  0.00    -0.458 C  
HETATM   17  C   UNL     1     -11.741  14.218  66.346  1.00  0.00    -0.403 C  
HETATM   18  C   UNL     1     -10.238  14.422  66.528  1.00  0.00    -0.276 C  
ENDBRANCH  11  13
ENDBRANCH   9  11
ENDBRANCH   4   9
ENDBRANCH   3   4
TORSDOF 5
ENDMDL
MODEL      110
REMARK 921   NORMALIZED FREE ENERGY PREDICTED BY IDOCK:   -3.87 KCAL/MOL
REMARK 922        TOTAL FREE ENERGY PREDICTED BY IDOCK:   -5.60 KCAL/MOL
REMARK 923 INTER-LIGAND FREE ENERGY PREDICTED BY IDOCK:   -5.08 KCAL/MOL
REMARK 924 INTRA-LIGAND FREE ENERGY PREDICTED BY IDOCK:   -0.52 KCAL/MOL
REMARK 927      BINDING AFFINITY PREDICTED BY RF-SCORE:    0.00 PKD
ROOT
HETATM    1 CL   UNL     1     -11.054   7.286  73.019  1.00  0.00    -0.365 Cl 
HETATM    2  C   UNL     1     -10.639   8.656  71.956  1.00  0.00    -0.351 C  
HETATM    3  C   UNL     1     -11.886   9.467  71.621  1.00  0.00    -0.394 C  
ENDROOT
BRANCH   3   4
HETATM    4  N   UNL     1     -11.606  10.588  70.718  1.00  0.00    -0.347 N  
BRANCH   4   5
HETATM    5  N   UNL     1     -10.903  10.382  69.525  1.00  0.00    -0.238 NA 
HETATM    6  H   UNL     1      -9.888  10.461  69.459  1.00  0.00     0.000 HD 
HETATM    7  O   UNL     1     -11.618  10.098  68.558  1.00  0.00    -0.519 OA 
HETATM    8  H   UNL     1     -11.141   9.958  67.749  1.00  0.00     0.000 HD 
ENDBRANCH   4   5
BRANCH   4   9
HETATM    9  C   UNL     1     -12.209  11.818  70.972  1.00  0.00    -0.198 C  
HETATM   10  O   UNL     1     -13.237  11.917  71.642  1.00  0.00    -0.412 OA 
BRANCH   9  11
HETATM   11  N   UNL     1     -11.614  12.925  70.396  1.00  0.00    -0.506 N  
HETATM   12  H   UNL     1     -10.647  13.145  70.635  1.00  0.00     0.000 HD 
BRANCH  11  13
HETATM   13  C   UNL     1     -12.326  13.789  69.456  1.00  0.00    -0.209 C  
HETATM   14  C   UNL     1     -12.444  15.234  69.959  1.00  0.00    -0.330 C  
HETATM   15  C   UNL     1     -11.121  15.999  69.916  1.00  0.00    -0.352 C  
HETATM   16  C   UNL     1     -10.414  15.904  68.568  1.00  0.00    -0.241 C  
HETATM   17  C   UNL     1     -10.327  14.479  68.031  1.00  0.00    -0.229 C  
HETATM   18  C   UNL     1     -11.670  13.753  68.073  1.00  0.00    -0.390 C  
ENDBRANCH  11  13
ENDBRANCH   9  11
ENDBRANCH   4   9
ENDBRANCH   3   4
TORSDOF 5
ENDMDL
MODEL      111
REMARK 921   NORMALIZED FREE ENERGY PREDICTED BY IDOCK:   -3.87 KCAL/MOL
REMARK 922        TOTAL FREE ENERGY PREDICTED BY IDOCK:   -5.60 KCAL/MOL
REMARK 923 INTER-LIGAND FREE ENERGY PREDICTED BY IDOCK:   -5.10 KCAL/MOL
REMARK 924 INTRA-LIGAND FREE ENERGY PREDICTED BY IDOCK:   -0.49 KCAL/MOL
REMARK 927      BINDING AFFINITY PREDICTED BY RF-SCORE:    0.00 PKD
ROOT
HETATM    1 CL   UNL     1     -11.690  11.128  68.426  1.00  0.00    -0.369 Cl 
HETATM    2  C   UNL     1     -11.796  12.714  67.617  1.00  0.00    -0.329 C  
HETATM    3  C   UNL     1     -10.510  13.506  67.828  1.00  0.00    -0.240 C  
ENDROOT
BRANCH   3   4
HETATM    4  N   UNL     1     -10.558  14.836  67.213  1.00  0.00    -0.269 N  
BRANCH   4   5
HETATM    5  N   UNL     1     -10.766  14.977  65.836  1.00  0.00    -0.318 NA 
HETATM    6  H   UNL     1     -11.689  15.122  65.426  1.00  0.00     0.000 HD 
HETATM    7  O   UNL     1      -9.735  14.910  65.159  1.00  0.00    -0.415 OA 
HETATM    8  H   UNL     1      -9.875  15.005  64.225  1.00  0.00     0.000 HD 
ENDBRANCH   4   5
BRANCH   4   9
HETATM    9  C   UNL     1     -10.579  15.956  68.042  1.00  0.00    -0.287 C  
HETATM   10  O   UNL     1     -11.307  16.022  69.034  1.00  0.00    -0.327 OA 
BRANCH   9  11
HETATM   11  N   UNL     1      -9.769  17.012  67.671  1.00  0.00    -0.253 N  
HETATM   12  H   UNL     1      -8.808  16.820  67.388  1.00  0.00     0.000 HD 
BRANCH  11  13
HETATM   13  C   UNL     1     -10.245  18.394  67.671  1.00  0.00    -0.379 C  
HETATM   14  C   UNL     1      -9.700  19.205  68.854  1.00  0.00    -0.474 C  
HETATM   15  C   UNL     1      -8.215  19.542  68.723  1.00  0.00    -0.348 C  
HETATM   16  C   UNL     1      -7.854  20.159  67.375  1.00  0.00    -0.348 C  
HETATM   17  C   UNL     1      -8.425  19.391  66.187  1.00  0.00    -0.303 C  
HETATM   18  C   UNL     1      -9.913  19.088  66.346  1.00  0.00    -0.447 C  
ENDBRANCH  11  13
ENDBRANCH   9  11
ENDBRANCH   4   9
ENDBRANCH   3   4
TORSDOF 5
ENDMDL
MODEL      112
REMARK 921   NORMALIZED FREE ENERGY PREDICTED BY IDOCK:   -3.87 KCAL/MOL
REMARK 922        TOTAL FREE ENERGY PREDICTED BY IDOCK:   -5.59 KCAL/MOL
REMARK 923 INTER-LIGAND FREE ENERGY PREDICTED BY IDOCK:   -5.12 KCAL/MOL
REMARK 924 INTRA-LIGAND FREE ENERGY PREDICTED BY IDOCK:   -0.48 KCAL/MOL
REMARK 927      BINDING AFFINITY PREDICTED BY RF-SCORE:    0.00 PKD
ROOT
HETATM    1 CL   UNL     1     -11.324   7.129  72.166  1.00  0.00    -0.285 Cl 
HETATM    2  C   UNL     1     -11.627   6.891  70.425  1.00  0.00    -0.335 C  
HETATM    3  C   UNL     1     -10.606   7.663  69.597  1.00  0.00    -0.243 C  
ENDROOT
BRANCH   3   4
HETATM    4  N   UNL     1     -10.832   7.531  68.153  1.00  0.00    -0.074 N  
BRANCH   4   5
HETATM    5  N   UNL     1     -11.591   6.469  67.646  1.00  0.00    -0.587 NA 
HETATM    6  H   UNL     1     -12.292   5.975  68.198  1.00  0.00     0.000 HD 
HETATM    7  O   UNL     1     -11.338   6.183  66.471  1.00  0.00    -0.745 OA 
HETATM    8  H   UNL     1     -11.852   5.463  66.127  1.00  0.00     0.000 HD 
ENDBRANCH   4   5
BRANCH   4   9
HETATM    9  C   UNL     1     -10.439   8.573  67.317  1.00  0.00    -0.296 C  
HETATM   10  O   UNL     1      -9.670   8.398  66.370  1.00  0.00    -0.233 OA 
BRANCH   9  11
HETATM   11  N   UNL     1     -10.926   9.828  67.628  1.00  0.00    -0.437 N  
HETATM   12  H   UNL     1     -11.851   9.908  68.049  1.00  0.00     0.000 HD 
BRANCH  11  13
HETATM   13  C   UNL     1     -10.156  11.046  67.373  1.00  0.00    -0.186 C  
HETATM   14  C   UNL     1     -10.459  11.657  65.999  1.00  0.00    -0.294 C  
HETATM   15  C   UNL     1     -11.837  12.314  65.921  1.00  0.00    -0.420 C  
HETATM   16  C   UNL     1     -12.107  13.285  67.066  1.00  0.00    -0.375 C  
HETATM   17  C   UNL     1     -11.770  12.709  68.438  1.00  0.00    -0.377 C  
HETATM   18  C   UNL     1     -10.380  12.078  68.483  1.00  0.00    -0.228 C  
ENDBRANCH  11  13
ENDBRANCH   9  11
ENDBRANCH   4   9
ENDBRANCH   3   4
TORSDOF 5
ENDMDL
MODEL      113
REMARK 921   NORMALIZED FREE ENERGY PREDICTED BY IDOCK:   -3.87 KCAL/MOL
REMARK 922        TOTAL FREE ENERGY PREDICTED BY IDOCK:   -5.59 KCAL/MOL
REMARK 923 INTER-LIGAND FREE ENERGY PREDICTED BY IDOCK:   -4.98 KCAL/MOL
REMARK 924 INTRA-LIGAND FREE ENERGY PREDICTED BY IDOCK:   -0.61 KCAL/MOL
REMARK 927      BINDING AFFINITY PREDICTED BY RF-SCORE:    0.00 PKD
ROOT
HETATM    1 CL   UNL     1     -13.283  11.613  71.915  1.00  0.00    -0.559 Cl 
HETATM    2  C   UNL     1     -13.164   9.835  71.859  1.00  0.00    -0.449 C  
HETATM    3  C   UNL     1     -11.714   9.403  71.670  1.00  0.00    -0.398 C  
ENDROOT
BRANCH   3   4
HETATM    4  N   UNL     1     -11.564   7.947  71.581  1.00  0.00    -0.262 N  
BRANCH   4   5
HETATM    5  N   UNL     1     -11.897   7.129  72.667  1.00  0.00    -0.514 NA 
HETATM    6  H   UNL     1     -11.411   7.172  73.563  1.00  0.00     0.000 HD 
HETATM    7  O   UNL     1     -12.832   6.351  72.447  1.00  0.00    -0.543 OA 
HETATM    8  H   UNL     1     -13.058   5.796  73.184  1.00  0.00     0.000 HD 
ENDBRANCH   4   5
BRANCH   4   9
HETATM    9  C   UNL     1     -11.263   7.380  70.344  1.00  0.00    -0.262 C  
HETATM   10  O   UNL     1     -11.229   6.160  70.175  1.00  0.00    -0.351 OA 
BRANCH   9  11
HETATM   11  N   UNL     1     -10.964   8.259  69.321  1.00  0.00    -0.428 N  
HETATM   12  H   UNL     1     -11.650   8.968  69.063  1.00  0.00     0.000 HD 
BRANCH  11  13
HETATM   13  C   UNL     1      -9.694   8.205  68.597  1.00  0.00    -0.153 C  
HETATM   14  C   UNL     1      -9.881   8.276  67.076  1.00  0.00    -0.298 C  
HETATM   15  C   UNL     1     -10.294   9.662  66.582  1.00  0.00    -0.279 C  
HETATM   16  C   UNL     1      -9.404  10.781  67.115  1.00  0.00    -0.171 C  
HETATM   17  C   UNL     1      -9.172  10.701  68.620  1.00  0.00    -0.181 C  
HETATM   18  C   UNL     1      -8.744   9.307  69.074  1.00  0.00    -0.135 C  
ENDBRANCH  11  13
ENDBRANCH   9  11
ENDBRANCH   4   9
ENDBRANCH   3   4
TORSDOF 5
ENDMDL
MODEL      114
REMARK 921   NORMALIZED FREE ENERGY PREDICTED BY IDOCK:   -3.86 KCAL/MOL
REMARK 922        TOTAL FREE ENERGY PREDICTED BY IDOCK:   -5.59 KCAL/MOL
REMARK 923 INTER-LIGAND FREE ENERGY PREDICTED BY IDOCK:   -5.08 KCAL/MOL
REMARK 924 INTRA-LIGAND FREE ENERGY PREDICTED BY IDOCK:   -0.51 KCAL/MOL
REMARK 927      BINDING AFFINITY PREDICTED BY RF-SCORE:    0.00 PKD
ROOT
HETATM    1 CL   UNL     1     -11.891  11.394  70.327  1.00  0.00    -0.431 Cl 
HETATM    2  C   UNL     1     -11.869  11.603  68.556  1.00  0.00    -0.292 C  
HETATM    3  C   UNL     1     -11.707  13.076  68.196  1.00  0.00    -0.351 C  
ENDROOT
BRANCH   3   4
HETATM    4  N   UNL     1     -11.719  13.309  66.748  1.00  0.00    -0.364 N  
BRANCH   4   5
HETATM    5  N   UNL     1     -12.929  13.351  66.044  1.00  0.00    -0.156 NA 
HETATM    6  H   UNL     1     -13.789  12.930  66.395  1.00  0.00     0.000 HD 
HETATM    7  O   UNL     1     -12.863  13.940  64.960  1.00  0.00    -0.693 OA 
HETATM    8  H   UNL     1     -13.683  13.969  64.483  1.00  0.00     0.000 HD 
ENDBRANCH   4   5
BRANCH   4   9
HETATM    9  C   UNL     1     -10.530  13.671  66.119  1.00  0.00    -0.297 C  
HETATM   10  O   UNL     1     -10.102  14.826  66.145  1.00  0.00    -0.268 OA 
BRANCH   9  11
HETATM   11  N   UNL     1      -9.873  12.673  65.425  1.00  0.00    -0.425 N  
HETATM   12  H   UNL     1      -8.854  12.680  65.397  1.00  0.00     0.000 HD 
BRANCH  11  13
HETATM   13  C   UNL     1     -10.593  11.607  64.729  1.00  0.00    -0.304 C  
HETATM   14  C   UNL     1     -10.353  11.626  63.214  1.00  0.00    -0.444 C  
HETATM   15  C   UNL     1      -8.951  11.164  62.819  1.00  0.00    -0.321 C  
HETATM   16  C   UNL     1      -8.552   9.837  63.458  1.00  0.00    -0.204 C  
HETATM   17  C   UNL     1      -8.824   9.784  64.958  1.00  0.00    -0.224 C  
HETATM   18  C   UNL     1     -10.239  10.236  65.313  1.00  0.00    -0.308 C  
ENDBRANCH  11  13
ENDBRANCH   9  11
ENDBRANCH   4   9
ENDBRANCH   3   4
TORSDOF 5
ENDMDL
MODEL      115
REMARK 921   NORMALIZED FREE ENERGY PREDICTED BY IDOCK:   -3.86 KCAL/MOL
REMARK 922        TOTAL FREE ENERGY PREDICTED BY IDOCK:   -5.59 KCAL/MOL
REMARK 923 INTER-LIGAND FREE ENERGY PREDICTED BY IDOCK:   -5.19 KCAL/MOL
REMARK 924 INTRA-LIGAND FREE ENERGY PREDICTED BY IDOCK:   -0.40 KCAL/MOL
REMARK 927      BINDING AFFINITY PREDICTED BY RF-SCORE:    0.00 PKD
ROOT
HETATM    1 CL   UNL     1     -11.050   8.067  72.000  1.00  0.00    -0.327 Cl 
HETATM    2  C   UNL     1     -10.967   9.622  71.131  1.00  0.00    -0.360 C  
HETATM    3  C   UNL     1     -10.366   9.425  69.744  1.00  0.00    -0.223 C  
ENDROOT
BRANCH   3   4
HETATM    4  N   UNL     1     -10.240  10.682  68.998  1.00  0.00    -0.206 N  
BRANCH   4   5
HETATM    5  N   UNL     1      -8.991  11.293  68.839  1.00  0.00    -0.354 NA 
HETATM    6  H   UNL     1      -8.139  10.768  68.637  1.00  0.00     0.000 HD 
HETATM    7  O   UNL     1      -9.009  12.522  68.964  1.00  0.00    -0.346 OA 
HETATM    8  H   UNL     1      -8.161  12.936  68.856  1.00  0.00     0.000 HD 
ENDBRANCH   4   5
BRANCH   4   9
HETATM    9  C   UNL     1     -11.347  11.158  68.298  1.00  0.00    -0.297 C  
HETATM   10  O   UNL     1     -12.496  11.020  68.719  1.00  0.00    -0.468 OA 
BRANCH   9  11
HETATM   11  N   UNL     1     -11.092  11.761  67.081  1.00  0.00    -0.279 N  
HETATM   12  H   UNL     1     -10.175  11.637  66.652  1.00  0.00     0.000 HD 
BRANCH  11  13
HETATM   13  C   UNL     1     -12.094  12.569  66.389  1.00  0.00    -0.207 C  
HETATM   14  C   UNL     1     -12.083  14.036  66.840  1.00  0.00    -0.465 C  
HETATM   15  C   UNL     1     -10.867  14.813  66.336  1.00  0.00    -0.322 C  
HETATM   16  C   UNL     1     -10.635  14.661  64.836  1.00  0.00    -0.446 C  
HETATM   17  C   UNL     1     -10.687  13.212  64.361  1.00  0.00    -0.426 C  
HETATM   18  C   UNL     1     -11.923  12.473  64.870  1.00  0.00    -0.468 C  
ENDBRANCH  11  13
ENDBRANCH   9  11
ENDBRANCH   4   9
ENDBRANCH   3   4
TORSDOF 5
ENDMDL
MODEL      116
REMARK 921   NORMALIZED FREE ENERGY PREDICTED BY IDOCK:   -3.86 KCAL/MOL
REMARK 922        TOTAL FREE ENERGY PREDICTED BY IDOCK:   -5.58 KCAL/MOL
REMARK 923 INTER-LIGAND FREE ENERGY PREDICTED BY IDOCK:   -5.19 KCAL/MOL
REMARK 924 INTRA-LIGAND FREE ENERGY PREDICTED BY IDOCK:   -0.39 KCAL/MOL
REMARK 927      BINDING AFFINITY PREDICTED BY RF-SCORE:    0.00 PKD
ROOT
HETATM    1 CL   UNL     1     -11.564   6.753  71.240  1.00  0.00    -0.344 Cl 
HETATM    2  C   UNL     1     -11.493   6.419  69.490  1.00  0.00    -0.343 C  
HETATM    3  C   UNL     1     -10.517   7.369  68.805  1.00  0.00    -0.199 C  
ENDROOT
BRANCH   3   4
HETATM    4  N   UNL     1     -10.448   7.161  67.355  1.00  0.00    -0.251 N  
BRANCH   4   5
HETATM    5  N   UNL     1     -11.417   6.394  66.699  1.00  0.00    -0.683 NA 
HETATM    6  H   UNL     1     -12.412   6.619  66.724  1.00  0.00     0.000 HD 
HETATM    7  O   UNL     1     -10.964   5.421  66.086  1.00  0.00    -0.700 OA 
HETATM    8  H   UNL     1     -11.621   4.901  65.641  1.00  0.00     0.000 HD 
ENDBRANCH   4   5
BRANCH   4   9
HETATM    9  C   UNL     1      -9.513   7.887  66.619  1.00  0.00    -0.211 C  
HETATM   10  O   UNL     1      -8.306   7.649  66.678  1.00  0.00    -0.119 OA 
BRANCH   9  11
HETATM   11  N   UNL     1     -10.008   8.920  65.846  1.00  0.00    -0.445 N  
HETATM   12  H   UNL     1     -10.871   8.776  65.324  1.00  0.00     0.000 HD 
BRANCH  11  13
HETATM   13  C   UNL     1      -9.332  10.214  65.754  1.00  0.00    -0.188 C  
HETATM   14  C   UNL     1      -9.593  10.921  64.418  1.00  0.00    -0.312 C  
HETATM   15  C   UNL     1     -11.014  11.469  64.292  1.00  0.00    -0.406 C  
HETATM   16  C   UNL     1     -11.445  12.307  65.492  1.00  0.00    -0.408 C  
HETATM   17  C   UNL     1     -11.152  11.638  66.832  1.00  0.00    -0.365 C  
HETATM   18  C   UNL     1      -9.719  11.120  66.927  1.00  0.00    -0.216 C  
ENDBRANCH  11  13
ENDBRANCH   9  11
ENDBRANCH   4   9
ENDBRANCH   3   4
TORSDOF 5
ENDMDL
MODEL      117
REMARK 921   NORMALIZED FREE ENERGY PREDICTED BY IDOCK:   -3.85 KCAL/MOL
REMARK 922        TOTAL FREE ENERGY PREDICTED BY IDOCK:   -5.57 KCAL/MOL
REMARK 923 INTER-LIGAND FREE ENERGY PREDICTED BY IDOCK:   -5.30 KCAL/MOL
REMARK 924 INTRA-LIGAND FREE ENERGY PREDICTED BY IDOCK:   -0.27 KCAL/MOL
REMARK 927      BINDING AFFINITY PREDICTED BY RF-SCORE:    0.00 PKD
ROOT
HETATM    1 CL   UNL     1      -9.615   8.749  72.166  1.00  0.00    -0.373 Cl 
HETATM    2  C   UNL     1     -10.503   8.535  70.635  1.00  0.00    -0.201 C  
HETATM    3  C   UNL     1      -9.935   9.453  69.558  1.00  0.00    -0.191 C  
ENDROOT
BRANCH   3   4
HETATM    4  N   UNL     1     -10.655   9.345  68.284  1.00  0.00    -0.224 N  
BRANCH   4   5
HETATM    5  N   UNL     1     -10.865   8.095  67.690  1.00  0.00    -0.507 NA 
HETATM    6  H   UNL     1     -11.271   7.304  68.192  1.00  0.00     0.000 HD 
HETATM    7  O   UNL     1     -10.518   8.032  66.506  1.00  0.00    -0.455 OA 
HETATM    8  H   UNL     1     -10.660   7.184  66.103  1.00  0.00     0.000 HD 
ENDBRANCH   4   5
BRANCH   4   9
HETATM    9  C   UNL     1     -11.283  10.478  67.772  1.00  0.00    -0.273 C  
HETATM   10  O   UNL     1     -12.097  11.128  68.429  1.00  0.00    -0.605 OA 
BRANCH   9  11
HETATM   11  N   UNL     1     -10.976  10.815  66.468  1.00  0.00    -0.141 N  
HETATM   12  H   UNL     1     -11.191  10.152  65.723  1.00  0.00     0.000 HD 
BRANCH  11  13
HETATM   13  C   UNL     1     -10.352  12.091  66.121  1.00  0.00    -0.224 C  
HETATM   14  C   UNL     1      -9.812  12.112  64.685  1.00  0.00    -0.153 C  
HETATM   15  C   UNL     1     -10.913  12.173  63.626  1.00  0.00    -0.527 C  
HETATM   16  C   UNL     1     -11.934  13.277  63.884  1.00  0.00    -0.541 C  
HETATM   17  C   UNL     1     -12.449  13.300  65.319  1.00  0.00    -0.543 C  
HETATM   18  C   UNL     1     -11.321  13.255  66.348  1.00  0.00    -0.341 C  
ENDBRANCH  11  13
ENDBRANCH   9  11
ENDBRANCH   4   9
ENDBRANCH   3   4
TORSDOF 5
ENDMDL
MODEL      118
REMARK 921   NORMALIZED FREE ENERGY PREDICTED BY IDOCK:   -3.84 KCAL/MOL
REMARK 922        TOTAL FREE ENERGY PREDICTED BY IDOCK:   -5.56 KCAL/MOL
REMARK 923 INTER-LIGAND FREE ENERGY PREDICTED BY IDOCK:   -5.21 KCAL/MOL
REMARK 924 INTRA-LIGAND FREE ENERGY PREDICTED BY IDOCK:   -0.35 KCAL/MOL
REMARK 927      BINDING AFFINITY PREDICTED BY RF-SCORE:    0.00 PKD
ROOT
HETATM    1 CL   UNL     1     -13.329  14.063  72.777  1.00  0.00    -0.631 Cl 
HETATM    2  C   UNL     1     -13.154  12.938  71.405  1.00  0.00    -0.242 C  
HETATM    3  C   UNL     1     -13.150  11.494  71.897  1.00  0.00    -0.387 C  
ENDROOT
BRANCH   3   4
HETATM    4  N   UNL     1     -12.971  10.526  70.810  1.00  0.00    -0.365 N  
BRANCH   4   5
HETATM    5  N   UNL     1     -13.909   9.508  70.602  1.00  0.00    -0.412 NA 
HETATM    6  H   UNL     1     -14.490   9.452  69.765  1.00  0.00     0.000 HD 
HETATM    7  O   UNL     1     -13.972   8.683  71.520  1.00  0.00    -0.441 OA 
HETATM    8  H   UNL     1     -14.608   7.992  71.379  1.00  0.00     0.000 HD 
ENDBRANCH   4   5
BRANCH   4   9
HETATM    9  C   UNL     1     -11.958  10.746  69.878  1.00  0.00    -0.342 C  
HETATM   10  O   UNL     1     -12.199  11.061  68.712  1.00  0.00    -0.546 OA 
BRANCH   9  11
HETATM   11  N   UNL     1     -10.664  10.552  70.320  1.00  0.00    -0.454 N  
HETATM   12  H   UNL     1     -10.306  11.140  71.073  1.00  0.00     0.000 HD 
BRANCH  11  13
HETATM   13  C   UNL     1      -9.790   9.531  69.744  1.00  0.00    -0.215 C  
HETATM   14  C   UNL     1      -8.527   9.295  70.581  1.00  0.00    -0.258 C  
HETATM   15  C   UNL     1      -8.800   8.557  71.892  1.00  0.00    -0.284 C  
HETATM   16  C   UNL     1      -9.626   7.288  71.707  1.00  0.00    -0.163 C  
HETATM   17  C   UNL     1     -10.863   7.493  70.839  1.00  0.00    -0.252 C  
HETATM   18  C   UNL     1     -10.549   8.217  69.532  1.00  0.00    -0.216 C  
ENDBRANCH  11  13
ENDBRANCH   9  11
ENDBRANCH   4   9
ENDBRANCH   3   4
TORSDOF 5
ENDMDL
MODEL      119
REMARK 921   NORMALIZED FREE ENERGY PREDICTED BY IDOCK:   -3.84 KCAL/MOL
REMARK 922        TOTAL FREE ENERGY PREDICTED BY IDOCK:   -5.55 KCAL/MOL
REMARK 923 INTER-LIGAND FREE ENERGY PREDICTED BY IDOCK:   -4.89 KCAL/MOL
REMARK 924 INTRA-LIGAND FREE ENERGY PREDICTED BY IDOCK:   -0.66 KCAL/MOL
REMARK 927      BINDING AFFINITY PREDICTED BY RF-SCORE:    0.00 PKD
ROOT
HETATM    1 CL   UNL     1     -10.810   6.978  67.144  1.00  0.00    -0.428 Cl 
HETATM    2  C   UNL     1     -10.213   8.636  66.869  1.00  0.00    -0.296 C  
HETATM    3  C   UNL     1      -9.285   8.673  65.659  1.00  0.00    -0.139 C  
ENDROOT
BRANCH   3   4
HETATM    4  N   UNL     1      -8.735  10.009  65.409  1.00  0.00    -0.150 N  
BRANCH   4   5
HETATM    5  N   UNL     1      -7.484  10.372  65.923  1.00  0.00    -0.135 NA 
HETATM    6  H   UNL     1      -7.199  10.169  66.882  1.00  0.00     0.000 HD 
HETATM    7  O   UNL     1      -6.756  10.959  65.116  1.00  0.00    -0.359 OA 
HETATM    8  H   UNL     1      -5.908  11.205  65.464  1.00  0.00     0.000 HD 
ENDBRANCH   4   5
BRANCH   4   9
HETATM    9  C   UNL     1      -9.387  10.842  64.503  1.00  0.00    -0.223 C  
HETATM   10  O   UNL     1      -9.898  10.411  63.468  1.00  0.00    -0.309 OA 
BRANCH   9  11
HETATM   11  N   UNL     1      -9.397  12.191  64.805  1.00  0.00    -0.410 N  
HETATM   12  H   UNL     1      -8.934  12.842  64.171  1.00  0.00     0.000 HD 
BRANCH  11  13
HETATM   13  C   UNL     1     -10.051  12.714  66.003  1.00  0.00    -0.262 C  
HETATM   14  C   UNL     1     -10.061  14.248  66.047  1.00  0.00    -0.333 C  
HETATM   15  C   UNL     1     -11.029  14.874  65.044  1.00  0.00    -0.432 C  
HETATM   16  C   UNL     1     -12.432  14.278  65.108  1.00  0.00    -0.423 C  
HETATM   17  C   UNL     1     -12.440  12.753  65.110  1.00  0.00    -0.565 C  
HETATM   18  C   UNL     1     -11.475  12.163  66.136  1.00  0.00    -0.429 C  
ENDBRANCH  11  13
ENDBRANCH   9  11
ENDBRANCH   4   9
ENDBRANCH   3   4
TORSDOF 5
ENDMDL
MODEL      120
REMARK 921   NORMALIZED FREE ENERGY PREDICTED BY IDOCK:   -3.83 KCAL/MOL
REMARK 922        TOTAL FREE ENERGY PREDICTED BY IDOCK:   -5.55 KCAL/MOL
REMARK 923 INTER-LIGAND FREE ENERGY PREDICTED BY IDOCK:   -5.21 KCAL/MOL
REMARK 924 INTRA-LIGAND FREE ENERGY PREDICTED BY IDOCK:   -0.34 KCAL/MOL
REMARK 927      BINDING AFFINITY PREDICTED BY RF-SCORE:    0.00 PKD
ROOT
HETATM    1 CL   UNL     1      -7.200  13.310  67.340  1.00  0.00    -0.153 Cl 
HETATM    2  C   UNL     1      -8.923  13.102  67.748  1.00  0.00    -0.194 C  
HETATM    3  C   UNL     1      -9.510  11.917  66.989  1.00  0.00    -0.188 C  
ENDROOT
BRANCH   3   4
HETATM    4  N   UNL     1     -10.938  11.722  67.261  1.00  0.00    -0.251 N  
BRANCH   4   5
HETATM    5  N   UNL     1     -11.887  12.622  66.760  1.00  0.00    -0.473 NA 
HETATM    6  H   UNL     1     -12.129  13.492  67.234  1.00  0.00     0.000 HD 
HETATM    7  O   UNL     1     -12.405  12.270  65.695  1.00  0.00    -0.619 OA 
HETATM    8  H   UNL     1     -13.049  12.880  65.356  1.00  0.00     0.000 HD 
ENDBRANCH   4   5
BRANCH   4   9
HETATM    9  C   UNL     1     -11.349  10.535  67.863  1.00  0.00    -0.222 C  
HETATM   10  O   UNL     1     -11.004   9.432  67.437  1.00  0.00    -0.210 OA 
BRANCH   9  11
HETATM   11  N   UNL     1     -12.200  10.656  68.944  1.00  0.00    -0.449 N  
HETATM   12  H   UNL     1     -13.207  10.624  68.786  1.00  0.00     0.000 HD 
BRANCH  11  13
HETATM   13  C   UNL     1     -11.703  10.830  70.309  1.00  0.00    -0.352 C  
HETATM   14  C   UNL     1     -12.834  10.890  71.344  1.00  0.00    -0.554 C  
HETATM   15  C   UNL     1     -13.506   9.538  71.584  1.00  0.00    -0.463 C  
HETATM   16  C   UNL     1     -12.514   8.414  71.866  1.00  0.00    -0.390 C  
HETATM   17  C   UNL     1     -11.358   8.366  70.872  1.00  0.00    -0.298 C  
HETATM   18  C   UNL     1     -10.700   9.730  70.671  1.00  0.00    -0.394 C  
ENDBRANCH  11  13
ENDBRANCH   9  11
ENDBRANCH   4   9
ENDBRANCH   3   4
TORSDOF 5
ENDMDL
MODEL      121
REMARK 921   NORMALIZED FREE ENERGY PREDICTED BY IDOCK:   -3.83 KCAL/MOL
REMARK 922        TOTAL FREE ENERGY PREDICTED BY IDOCK:   -5.55 KCAL/MOL
REMARK 923 INTER-LIGAND FREE ENERGY PREDICTED BY IDOCK:   -4.89 KCAL/MOL
REMARK 924 INTRA-LIGAND FREE ENERGY PREDICTED BY IDOCK:   -0.66 KCAL/MOL
REMARK 927      BINDING AFFINITY PREDICTED BY RF-SCORE:    0.00 PKD
ROOT
HETATM    1 CL   UNL     1      -7.590   8.687  70.262  1.00  0.00    -0.069 Cl 
HETATM    2  C   UNL     1      -9.303   9.176  70.184  1.00  0.00    -0.209 C  
HETATM    3  C   UNL     1      -9.499  10.259  69.128  1.00  0.00    -0.215 C  
ENDROOT
BRANCH   3   4
HETATM    4  N   UNL     1     -10.888  10.725  69.047  1.00  0.00    -0.218 N  
BRANCH   4   5
HETATM    5  N   UNL     1     -11.926   9.968  69.603  1.00  0.00    -0.475 NA 
HETATM    6  H   UNL     1     -11.789   9.029  69.977  1.00  0.00     0.000 HD 
HETATM    7  O   UNL     1     -13.023  10.537  69.600  1.00  0.00    -0.595 OA 
HETATM    8  H   UNL     1     -13.728  10.023  69.976  1.00  0.00     0.000 HD 
ENDBRANCH   4   5
BRANCH   4   9
HETATM    9  C   UNL     1     -11.134  12.013  68.577  1.00  0.00    -0.244 C  
HETATM   10  O   UNL     1     -11.126  12.994  69.321  1.00  0.00    -0.220 OA 
BRANCH   9  11
HETATM   11  N   UNL     1     -11.431  12.131  67.232  1.00  0.00    -0.332 N  
HETATM   12  H   UNL     1     -12.252  11.651  66.864  1.00  0.00     0.000 HD 
BRANCH  11  13
HETATM   13  C   UNL     1     -10.604  12.920  66.320  1.00  0.00    -0.266 C  
HETATM   14  C   UNL     1     -10.243  12.156  65.040  1.00  0.00    -0.312 C  
HETATM   15  C   UNL     1     -11.424  11.984  64.086  1.00  0.00    -0.460 C  
HETATM   16  C   UNL     1     -12.161  13.289  63.800  1.00  0.00    -0.508 C  
HETATM   17  C   UNL     1     -12.490  14.085  65.059  1.00  0.00    -0.446 C  
HETATM   18  C   UNL     1     -11.282  14.251  65.979  1.00  0.00    -0.324 C  
ENDBRANCH  11  13
ENDBRANCH   9  11
ENDBRANCH   4   9
ENDBRANCH   3   4
TORSDOF 5
ENDMDL
MODEL      122
REMARK 921   NORMALIZED FREE ENERGY PREDICTED BY IDOCK:   -3.83 KCAL/MOL
REMARK 922        TOTAL FREE ENERGY PREDICTED BY IDOCK:   -5.55 KCAL/MOL
REMARK 923 INTER-LIGAND FREE ENERGY PREDICTED BY IDOCK:   -4.97 KCAL/MOL
REMARK 924 INTRA-LIGAND FREE ENERGY PREDICTED BY IDOCK:   -0.57 KCAL/MOL
REMARK 927      BINDING AFFINITY PREDICTED BY RF-SCORE:    0.00 PKD
ROOT
HETATM    1 CL   UNL     1      -8.919  10.649  67.910  1.00  0.00    -0.136 Cl 
HETATM    2  C   UNL     1      -8.853  12.399  68.243  1.00  0.00    -0.174 C  
HETATM    3  C   UNL     1     -10.259  12.956  68.443  1.00  0.00    -0.237 C  
ENDROOT
BRANCH   3   4
HETATM    4  N   UNL     1     -10.266  14.402  68.684  1.00  0.00    -0.242 N  
BRANCH   4   5
HETATM    5  N   UNL     1      -9.664  14.936  69.831  1.00  0.00    -0.447 NA 
HETATM    6  H   UNL     1      -8.694  15.253  69.851  1.00  0.00     0.000 HD 
HETATM    7  O   UNL     1     -10.409  14.988  70.815  1.00  0.00    -0.488 OA 
HETATM    8  H   UNL     1     -10.001  15.350  71.593  1.00  0.00     0.000 HD 
ENDBRANCH   4   5
BRANCH   4   9
HETATM    9  C   UNL     1     -10.714  15.247  67.671  1.00  0.00    -0.282 C  
HETATM   10  O   UNL     1     -10.958  14.836  66.536  1.00  0.00    -0.314 OA 
BRANCH   9  11
HETATM   11  N   UNL     1     -10.832  16.586  67.994  1.00  0.00    -0.344 N  
HETATM   12  H   UNL     1     -11.275  16.843  68.876  1.00  0.00     0.000 HD 
BRANCH  11  13
HETATM   13  C   UNL     1     -10.342  17.644  67.112  1.00  0.00    -0.343 C  
HETATM   14  C   UNL     1     -10.760  19.044  67.583  1.00  0.00    -0.495 C  
HETATM   15  C   UNL     1     -10.010  19.509  68.831  1.00  0.00    -0.529 C  
HETATM   16  C   UNL     1      -8.497  19.358  68.716  1.00  0.00    -0.377 C  
HETATM   17  C   UNL     1      -8.064  17.986  68.207  1.00  0.00    -0.296 C  
HETATM   18  C   UNL     1      -8.822  17.563  66.950  1.00  0.00    -0.267 C  
ENDBRANCH  11  13
ENDBRANCH   9  11
ENDBRANCH   4   9
ENDBRANCH   3   4
TORSDOF 5
ENDMDL
MODEL      123
REMARK 921   NORMALIZED FREE ENERGY PREDICTED BY IDOCK:   -3.82 KCAL/MOL
REMARK 922        TOTAL FREE ENERGY PREDICTED BY IDOCK:   -5.53 KCAL/MOL
REMARK 923 INTER-LIGAND FREE ENERGY PREDICTED BY IDOCK:   -4.90 KCAL/MOL
REMARK 924 INTRA-LIGAND FREE ENERGY PREDICTED BY IDOCK:   -0.63 KCAL/MOL
REMARK 927      BINDING AFFINITY PREDICTED BY RF-SCORE:    0.00 PKD
ROOT
HETATM    1 CL   UNL     1      -7.718  19.303  68.840  1.00  0.00    -0.390 Cl 
HETATM    2  C   UNL     1      -8.256  17.900  67.881  1.00  0.00    -0.246 C  
HETATM    3  C   UNL     1      -9.779  17.822  67.859  1.00  0.00    -0.294 C  
ENDROOT
BRANCH   3   4
HETATM    4  N   UNL     1     -10.276  16.662  67.113  1.00  0.00    -0.285 N  
BRANCH   4   5
HETATM    5  N   UNL     1      -9.701  16.304  65.887  1.00  0.00    -0.406 NA 
HETATM    6  H   UNL     1      -8.726  16.020  65.795  1.00  0.00     0.000 HD 
HETATM    7  O   UNL     1     -10.477  16.363  64.928  1.00  0.00    -0.643 OA 
HETATM    8  H   UNL     1     -10.088  16.121  64.096  1.00  0.00     0.000 HD 
ENDBRANCH   4   5
BRANCH   4   9
HETATM    9  C   UNL     1     -11.199  15.817  67.726  1.00  0.00    -0.286 C  
HETATM   10  O   UNL     1     -11.603  16.012  68.873  1.00  0.00    -0.372 OA 
BRANCH   9  11
HETATM   11  N   UNL     1     -11.609  14.719  66.993  1.00  0.00    -0.361 N  
HETATM   12  H   UNL     1     -12.030  14.867  66.076  1.00  0.00     0.000 HD 
BRANCH  11  13
HETATM   13  C   UNL     1     -11.460  13.353  67.492  1.00  0.00    -0.323 C  
HETATM   14  C   UNL     1     -12.010  12.306  66.514  1.00  0.00    -0.274 C  
HETATM   15  C   UNL     1     -11.138  12.124  65.271  1.00  0.00    -0.367 C  
HETATM   16  C   UNL     1      -9.664  11.904  65.597  1.00  0.00    -0.248 C  
HETATM   17  C   UNL     1      -9.112  12.910  66.602  1.00  0.00    -0.181 C  
HETATM   18  C   UNL     1      -9.999  13.052  67.837  1.00  0.00    -0.230 C  
ENDBRANCH  11  13
ENDBRANCH   9  11
ENDBRANCH   4   9
ENDBRANCH   3   4
TORSDOF 5
ENDMDL
MODEL      124
REMARK 921   NORMALIZED FREE ENERGY PREDICTED BY IDOCK:   -3.80 KCAL/MOL
REMARK 922        TOTAL FREE ENERGY PREDICTED BY IDOCK:   -5.51 KCAL/MOL
REMARK 923 INTER-LIGAND FREE ENERGY PREDICTED BY IDOCK:   -5.17 KCAL/MOL
REMARK 924 INTRA-LIGAND FREE ENERGY PREDICTED BY IDOCK:   -0.34 KCAL/MOL
REMARK 927      BINDING AFFINITY PREDICTED BY RF-SCORE:    0.00 PKD
ROOT
HETATM    1 CL   UNL     1      -8.163  16.993  68.626  1.00  0.00    -0.255 Cl 
HETATM    2  C   UNL     1      -8.994  15.634  69.427  1.00  0.00    -0.265 C  
HETATM    3  C   UNL     1     -10.456  15.983  69.687  1.00  0.00    -0.300 C  
ENDROOT
BRANCH   3   4
HETATM    4  N   UNL     1     -11.179  14.911  70.379  1.00  0.00    -0.237 N  
BRANCH   4   5
HETATM    5  N   UNL     1     -11.507  15.033  71.734  1.00  0.00    -0.513 NA 
HETATM    6  H   UNL     1     -11.032  14.508  72.469  1.00  0.00     0.000 HD 
HETATM    7  O   UNL     1     -12.422  15.832  71.963  1.00  0.00    -0.390 OA 
HETATM    8  H   UNL     1     -12.644  15.915  72.883  1.00  0.00     0.000 HD 
ENDBRANCH   4   5
BRANCH   4   9
HETATM    9  C   UNL     1     -11.694  13.857  69.626  1.00  0.00    -0.311 C  
HETATM   10  O   UNL     1     -12.279  14.041  68.558  1.00  0.00    -0.333 OA 
BRANCH   9  11
HETATM   11  N   UNL     1     -11.551  12.592  70.161  1.00  0.00    -0.543 N  
HETATM   12  H   UNL     1     -11.016  12.477  71.022  1.00  0.00     0.000 HD 
BRANCH  11  13
HETATM   13  C   UNL     1     -12.143  11.411  69.534  1.00  0.00    -0.302 C  
HETATM   14  C   UNL     1     -11.091  10.487  68.906  1.00  0.00    -0.312 C  
HETATM   15  C   UNL     1     -10.262   9.726  69.940  1.00  0.00    -0.291 C  
HETATM   16  C   UNL     1     -11.112   9.016  70.989  1.00  0.00    -0.356 C  
HETATM   17  C   UNL     1     -12.193   9.907  71.593  1.00  0.00    -0.482 C  
HETATM   18  C   UNL     1     -13.012  10.637  70.530  1.00  0.00    -0.277 C  
ENDBRANCH  11  13
ENDBRANCH   9  11
ENDBRANCH   4   9
ENDBRANCH   3   4
TORSDOF 5
ENDMDL
MODEL      125
REMARK 921   NORMALIZED FREE ENERGY PREDICTED BY IDOCK:   -3.79 KCAL/MOL
REMARK 922        TOTAL FREE ENERGY PREDICTED BY IDOCK:   -5.49 KCAL/MOL
REMARK 923 INTER-LIGAND FREE ENERGY PREDICTED BY IDOCK:   -4.90 KCAL/MOL
REMARK 924 INTRA-LIGAND FREE ENERGY PREDICTED BY IDOCK:   -0.59 KCAL/MOL
REMARK 927      BINDING AFFINITY PREDICTED BY RF-SCORE:    0.00 PKD
ROOT
HETATM    1 CL   UNL     1     -12.737  12.273  64.170  1.00  0.00    -0.493 Cl 
HETATM    2  C   UNL     1     -11.312  12.419  65.232  1.00  0.00    -0.332 C  
HETATM    3  C   UNL     1     -11.305  13.775  65.930  1.00  0.00    -0.307 C  
ENDROOT
BRANCH   3   4
HETATM    4  N   UNL     1     -10.132  13.963  66.789  1.00  0.00    -0.259 N  
BRANCH   4   5
HETATM    5  N   UNL     1      -8.857  13.590  66.346  1.00  0.00    -0.449 NA 
HETATM    6  H   UNL     1      -8.627  13.471  65.359  1.00  0.00     0.000 HD 
HETATM    7  O   UNL     1      -8.036  13.418  67.253  1.00  0.00    -0.210 OA 
HETATM    8  H   UNL     1      -7.172  13.165  66.952  1.00  0.00     0.000 HD 
ENDBRANCH   4   5
BRANCH   4   9
HETATM    9  C   UNL     1     -10.278  14.685  67.972  1.00  0.00    -0.231 C  
HETATM   10  O   UNL     1     -10.321  14.134  69.073  1.00  0.00    -0.223 OA 
BRANCH   9  11
HETATM   11  N   UNL     1     -10.413  16.054  67.844  1.00  0.00    -0.283 N  
HETATM   12  H   UNL     1     -11.325  16.478  68.014  1.00  0.00     0.000 HD 
BRANCH  11  13
HETATM   13  C   UNL     1      -9.290  16.915  67.474  1.00  0.00    -0.232 C  
HETATM   14  C   UNL     1      -9.644  17.892  66.345  1.00  0.00    -0.294 C  
HETATM   15  C   UNL     1     -10.575  19.018  66.791  1.00  0.00    -0.508 C  
HETATM   16  C   UNL     1     -10.097  19.731  68.052  1.00  0.00    -0.571 C  
HETATM   17  C   UNL     1      -9.698  18.774  69.171  1.00  0.00    -0.243 C  
HETATM   18  C   UNL     1      -8.755  17.673  68.692  1.00  0.00    -0.266 C  
ENDBRANCH  11  13
ENDBRANCH   9  11
ENDBRANCH   4   9
ENDBRANCH   3   4
TORSDOF 5
ENDMDL
MODEL      126
REMARK 921   NORMALIZED FREE ENERGY PREDICTED BY IDOCK:   -3.78 KCAL/MOL
REMARK 922        TOTAL FREE ENERGY PREDICTED BY IDOCK:   -5.47 KCAL/MOL
REMARK 923 INTER-LIGAND FREE ENERGY PREDICTED BY IDOCK:   -4.79 KCAL/MOL
REMARK 924 INTRA-LIGAND FREE ENERGY PREDICTED BY IDOCK:   -0.69 KCAL/MOL
REMARK 927      BINDING AFFINITY PREDICTED BY RF-SCORE:    0.00 PKD
ROOT
HETATM    1 CL   UNL     1     -12.131  13.244  63.371  1.00  0.00    -0.583 Cl 
HETATM    2  C   UNL     1     -12.178  12.250  64.851  1.00  0.00    -0.339 C  
HETATM    3  C   UNL     1     -10.783  12.127  65.454  1.00  0.00    -0.284 C  
ENDROOT
BRANCH   3   4
HETATM    4  N   UNL     1     -10.759  11.286  66.656  1.00  0.00    -0.263 N  
BRANCH   4   5
HETATM    5  N   UNL     1      -9.980  10.123  66.696  1.00  0.00    -0.206 NA 
HETATM    6  H   UNL     1      -9.775   9.565  65.867  1.00  0.00     0.000 HD 
HETATM    7  O   UNL     1      -9.565   9.832  67.822  1.00  0.00    -0.134 OA 
HETATM    8  H   UNL     1      -9.037   9.043  67.850  1.00  0.00     0.000 HD 
ENDBRANCH   4   5
BRANCH   4   9
HETATM    9  C   UNL     1     -11.373  11.758  67.815  1.00  0.00    -0.289 C  
HETATM   10  O   UNL     1     -12.254  11.121  68.394  1.00  0.00    -0.610 OA 
BRANCH   9  11
HETATM   11  N   UNL     1     -10.970  13.002  68.261  1.00  0.00    -0.248 N  
HETATM   12  H   UNL     1      -9.997  13.137  68.535  1.00  0.00     0.000 HD 
BRANCH  11  13
HETATM   13  C   UNL     1     -11.894  14.131  68.353  1.00  0.00    -0.353 C  
HETATM   14  C   UNL     1     -11.843  14.825  69.721  1.00  0.00    -0.362 C  
HETATM   15  C   UNL     1     -10.567  15.638  69.938  1.00  0.00    -0.328 C  
HETATM   16  C   UNL     1     -10.256  16.590  68.787  1.00  0.00    -0.267 C  
HETATM   17  C   UNL     1     -10.346  15.928  67.416  1.00  0.00    -0.288 C  
HETATM   18  C   UNL     1     -11.641  15.140  67.229  1.00  0.00    -0.231 C  
ENDBRANCH  11  13
ENDBRANCH   9  11
ENDBRANCH   4   9
ENDBRANCH   3   4
TORSDOF 5
ENDMDL
MODEL      127
REMARK 921   NORMALIZED FREE ENERGY PREDICTED BY IDOCK:   -3.75 KCAL/MOL
REMARK 922        TOTAL FREE ENERGY PREDICTED BY IDOCK:   -5.43 KCAL/MOL
REMARK 923 INTER-LIGAND FREE ENERGY PREDICTED BY IDOCK:   -4.78 KCAL/MOL
REMARK 924 INTRA-LIGAND FREE ENERGY PREDICTED BY IDOCK:   -0.66 KCAL/MOL
REMARK 927      BINDING AFFINITY PREDICTED BY RF-SCORE:    0.00 PKD
ROOT
HETATM    1 CL   UNL     1     -11.693  10.179  70.892  1.00  0.00    -0.435 Cl 
HETATM    2  C   UNL     1     -11.061  10.456  69.248  1.00  0.00    -0.253 C  
HETATM    3  C   UNL     1     -11.599  11.767  68.684  1.00  0.00    -0.309 C  
ENDROOT
BRANCH   3   4
HETATM    4  N   UNL     1     -11.138  12.026  67.316  1.00  0.00    -0.268 N  
BRANCH   4   5
HETATM    5  N   UNL     1     -10.126  11.245  66.746  1.00  0.00    -0.213 NA 
HETATM    6  H   UNL     1      -9.749  10.411  67.197  1.00  0.00     0.000 HD 
HETATM    7  O   UNL     1      -9.728  11.654  65.650  1.00  0.00    -0.227 OA 
HETATM    8  H   UNL     1      -9.041  11.125  65.263  1.00  0.00     0.000 HD 
ENDBRANCH   4   5
BRANCH   4   9
HETATM    9  C   UNL     1     -11.847  12.934  66.532  1.00  0.00    -0.407 C  
HETATM   10  O   UNL     1     -12.623  12.569  65.648  1.00  0.00    -0.612 OA 
BRANCH   9  11
HETATM   11  N   UNL     1     -11.604  14.273  66.770  1.00  0.00    -0.374 N  
HETATM   12  H   UNL     1     -12.393  14.895  66.944  1.00  0.00     0.000 HD 
BRANCH  11  13
HETATM   13  C   UNL     1     -10.250  14.827  66.781  1.00  0.00    -0.266 C  
HETATM   14  C   UNL     1      -9.954  15.682  65.542  1.00  0.00    -0.364 C  
HETATM   15  C   UNL     1     -10.683  17.026  65.546  1.00  0.00    -0.146 C  
HETATM   16  C   UNL     1     -10.506  17.801  66.848  1.00  0.00    -0.308 C  
HETATM   17  C   UNL     1     -10.754  16.955  68.093  1.00  0.00    -0.375 C  
HETATM   18  C   UNL     1      -9.996  15.629  68.061  1.00  0.00    -0.222 C  
ENDBRANCH  11  13
ENDBRANCH   9  11
ENDBRANCH   4   9
ENDBRANCH   3   4
TORSDOF 5
ENDMDL
MODEL      128
REMARK 921   NORMALIZED FREE ENERGY PREDICTED BY IDOCK:   -3.74 KCAL/MOL
REMARK 922        TOTAL FREE ENERGY PREDICTED BY IDOCK:   -5.43 KCAL/MOL
REMARK 923 INTER-LIGAND FREE ENERGY PREDICTED BY IDOCK:   -4.77 KCAL/MOL
REMARK 924 INTRA-LIGAND FREE ENERGY PREDICTED BY IDOCK:   -0.66 KCAL/MOL
REMARK 927      BINDING AFFINITY PREDICTED BY RF-SCORE:    0.00 PKD
ROOT
HETATM    1 CL   UNL     1     -11.905  10.860  70.580  1.00  0.00    -0.432 Cl 
HETATM    2  C   UNL     1     -11.904  11.185  68.827  1.00  0.00    -0.320 C  
HETATM    3  C   UNL     1     -11.056  12.414  68.514  1.00  0.00    -0.258 C  
ENDROOT
BRANCH   3   4
HETATM    4  N   UNL     1     -11.051  12.749  67.086  1.00  0.00    -0.267 N  
BRANCH   4   5
HETATM    5  N   UNL     1     -10.537  11.849  66.145  1.00  0.00    -0.249 NA 
HETATM    6  H   UNL     1     -10.701  10.843  66.193  1.00  0.00     0.000 HD 
HETATM    7  O   UNL     1      -9.866  12.378  65.253  1.00  0.00    -0.364 OA 
HETATM    8  H   UNL     1      -9.517  11.768  64.614  1.00  0.00     0.000 HD 
ENDBRANCH   4   5
BRANCH   4   9
HETATM    9  C   UNL     1     -11.731  13.890  66.664  1.00  0.00    -0.395 C  
HETATM   10  O   UNL     1     -12.526  13.868  65.724  1.00  0.00    -0.457 OA 
BRANCH   9  11
HETATM   11  N   UNL     1     -11.436  15.063  67.332  1.00  0.00    -0.339 N  
HETATM   12  H   UNL     1     -11.686  15.147  68.316  1.00  0.00     0.000 HD 
BRANCH  11  13
HETATM   13  C   UNL     1     -10.776  16.188  66.670  1.00  0.00    -0.226 C  
HETATM   14  C   UNL     1     -10.502  17.356  67.627  1.00  0.00    -0.368 C  
HETATM   15  C   UNL     1      -9.380  17.069  68.625  1.00  0.00    -0.270 C  
HETATM   16  C   UNL     1      -8.109  16.543  67.966  1.00  0.00    -0.168 C  
HETATM   17  C   UNL     1      -8.366  15.410  66.977  1.00  0.00    -0.268 C  
HETATM   18  C   UNL     1      -9.481  15.739  65.986  1.00  0.00    -0.392 C  
ENDBRANCH  11  13
ENDBRANCH   9  11
ENDBRANCH   4   9
ENDBRANCH   3   4
TORSDOF 5
ENDMDL
MODEL      129
REMARK 921   NORMALIZED FREE ENERGY PREDICTED BY IDOCK:   -3.73 KCAL/MOL
REMARK 922        TOTAL FREE ENERGY PREDICTED BY IDOCK:   -5.41 KCAL/MOL
REMARK 923 INTER-LIGAND FREE ENERGY PREDICTED BY IDOCK:   -4.71 KCAL/MOL
REMARK 924 INTRA-LIGAND FREE ENERGY PREDICTED BY IDOCK:   -0.70 KCAL/MOL
REMARK 927      BINDING AFFINITY PREDICTED BY RF-SCORE:    0.00 PKD
ROOT
HETATM    1 CL   UNL     1      -7.309  14.363  68.074  1.00  0.00    -0.128 Cl 
HETATM    2  C   UNL     1      -8.937  13.682  68.329  1.00  0.00    -0.187 C  
HETATM    3  C   UNL     1      -8.895  12.160  68.254  1.00  0.00    -0.182 C  
ENDROOT
BRANCH   3   4
HETATM    4  N   UNL     1     -10.217  11.548  68.421  1.00  0.00    -0.199 N  
BRANCH   4   5
HETATM    5  N   UNL     1     -10.965  11.775  69.582  1.00  0.00    -0.470 NA 
HETATM    6  H   UNL     1     -10.572  12.207  70.419  1.00  0.00     0.000 HD 
HETATM    7  O   UNL     1     -12.142  11.408  69.506  1.00  0.00    -0.315 OA 
HETATM    8  H   UNL     1     -12.650  11.561  70.293  1.00  0.00     0.000 HD 
ENDBRANCH   4   5
BRANCH   4   9
HETATM    9  C   UNL     1     -10.793  10.893  67.335  1.00  0.00    -0.279 C  
HETATM   10  O   UNL     1     -10.818   9.664  67.250  1.00  0.00    -0.254 OA 
BRANCH   9  11
HETATM   11  N   UNL     1     -11.301  11.695  66.331  1.00  0.00    -0.301 N  
HETATM   12  H   UNL     1     -12.253  12.050  66.417  1.00  0.00     0.000 HD 
BRANCH  11  13
HETATM   13  C   UNL     1     -10.516  12.053  65.150  1.00  0.00    -0.289 C  
HETATM   14  C   UNL     1     -11.026  11.368  63.875  1.00  0.00    -0.442 C  
HETATM   15  C   UNL     1     -12.351  11.940  63.371  1.00  0.00    -0.577 C  
HETATM   16  C   UNL     1     -12.346  13.461  63.257  1.00  0.00    -0.244 C  
HETATM   17  C   UNL     1     -11.801  14.158  64.500  1.00  0.00    -0.451 C  
HETATM   18  C   UNL     1     -10.468  13.572  64.962  1.00  0.00    -0.390 C  
ENDBRANCH  11  13
ENDBRANCH   9  11
ENDBRANCH   4   9
ENDBRANCH   3   4
TORSDOF 5
ENDMDL
MODEL      130
REMARK 921   NORMALIZED FREE ENERGY PREDICTED BY IDOCK:   -3.72 KCAL/MOL
REMARK 922        TOTAL FREE ENERGY PREDICTED BY IDOCK:   -5.40 KCAL/MOL
REMARK 923 INTER-LIGAND FREE ENERGY PREDICTED BY IDOCK:   -4.84 KCAL/MOL
REMARK 924 INTRA-LIGAND FREE ENERGY PREDICTED BY IDOCK:   -0.56 KCAL/MOL
REMARK 927      BINDING AFFINITY PREDICTED BY RF-SCORE:    0.00 PKD
ROOT
HETATM    1 CL   UNL     1     -10.147   6.583  66.778  1.00  0.00    -0.240 Cl 
HETATM    2  C   UNL     1     -10.634   8.033  67.694  1.00  0.00    -0.194 C  
HETATM    3  C   UNL     1     -10.236   9.297  66.940  1.00  0.00    -0.256 C  
ENDROOT
BRANCH   3   4
HETATM    4  N   UNL     1     -10.582  10.522  67.669  1.00  0.00    -0.230 N  
BRANCH   4   5
HETATM    5  N   UNL     1     -11.921  10.864  67.892  1.00  0.00    -0.735 NA 
HETATM    6  H   UNL     1     -12.508  11.301  67.181  1.00  0.00     0.000 HD 
HETATM    7  O   UNL     1     -12.330  10.592  69.026  1.00  0.00    -0.759 OA 
HETATM    8  H   UNL     1     -13.238  10.823  69.178  1.00  0.00     0.000 HD 
ENDBRANCH   4   5
BRANCH   4   9
HETATM    9  C   UNL     1      -9.563  11.240  68.291  1.00  0.00    -0.193 C  
HETATM   10  O   UNL     1      -8.439  10.766  68.462  1.00  0.00    -0.128 OA 
BRANCH   9  11
HETATM   11  N   UNL     1      -9.890  12.503  68.748  1.00  0.00    -0.421 N  
HETATM   12  H   UNL     1     -10.390  12.594  69.632  1.00  0.00     0.000 HD 
BRANCH  11  13
HETATM   13  C   UNL     1      -9.542  13.712  68.004  1.00  0.00    -0.216 C  
HETATM   14  C   UNL     1     -10.530  14.011  66.869  1.00  0.00    -0.276 C  
HETATM   15  C   UNL     1     -11.887  14.508  67.365  1.00  0.00    -0.416 C  
HETATM   16  C   UNL     1     -11.780  15.656  68.364  1.00  0.00    -0.301 C  
HETATM   17  C   UNL     1     -10.768  15.395  69.476  1.00  0.00    -0.269 C  
HETATM   18  C   UNL     1      -9.420  14.917  68.942  1.00  0.00    -0.209 C  
ENDBRANCH  11  13
ENDBRANCH   9  11
ENDBRANCH   4   9
ENDBRANCH   3   4
TORSDOF 5
ENDMDL
MODEL      131
REMARK 921   NORMALIZED FREE ENERGY PREDICTED BY IDOCK:   -3.71 KCAL/MOL
REMARK 922        TOTAL FREE ENERGY PREDICTED BY IDOCK:   -5.38 KCAL/MOL
REMARK 923 INTER-LIGAND FREE ENERGY PREDICTED BY IDOCK:   -4.72 KCAL/MOL
REMARK 924 INTRA-LIGAND FREE ENERGY PREDICTED BY IDOCK:   -0.66 KCAL/MOL
REMARK 927      BINDING AFFINITY PREDICTED BY RF-SCORE:    0.00 PKD
ROOT
HETATM    1 CL   UNL     1      -6.388  20.607  64.939  1.00  0.00    -0.319 Cl 
HETATM    2  C   UNL     1      -7.138  20.345  66.535  1.00  0.00    -0.253 C  
HETATM    3  C   UNL     1      -8.084  19.150  66.489  1.00  0.00    -0.298 C  
ENDROOT
BRANCH   3   4
HETATM    4  N   UNL     1      -8.758  18.913  67.770  1.00  0.00    -0.288 N  
BRANCH   4   5
HETATM    5  N   UNL     1      -9.896  19.647  68.123  1.00  0.00    -0.393 NA 
HETATM    6  H   UNL     1     -10.498  20.102  67.435  1.00  0.00     0.000 HD 
HETATM    7  O   UNL     1     -10.110  19.697  69.339  1.00  0.00    -0.603 OA 
HETATM    8  H   UNL     1     -10.882  20.195  69.578  1.00  0.00     0.000 HD 
ENDBRANCH   4   5
BRANCH   4   9
HETATM    9  C   UNL     1      -8.360  17.824  68.543  1.00  0.00    -0.297 C  
HETATM   10  O   UNL     1      -7.239  17.755  69.049  1.00  0.00    -0.255 OA 
BRANCH   9  11
HETATM   11  N   UNL     1      -9.278  16.800  68.682  1.00  0.00    -0.249 N  
HETATM   12  H   UNL     1     -10.207  17.015  69.043  1.00  0.00     0.000 HD 
BRANCH  11  13
HETATM   13  C   UNL     1      -8.959  15.418  68.326  1.00  0.00    -0.185 C  
HETATM   14  C   UNL     1     -10.132  14.460  68.574  1.00  0.00    -0.244 C  
HETATM   15  C   UNL     1     -11.273  14.630  67.571  1.00  0.00    -0.343 C  
HETATM   16  C   UNL     1     -10.805  14.618  66.119  1.00  0.00    -0.321 C  
HETATM   17  C   UNL     1      -9.610  15.532  65.862  1.00  0.00    -0.383 C  
HETATM   18  C   UNL     1      -8.484  15.321  66.873  1.00  0.00    -0.286 C  
ENDBRANCH  11  13
ENDBRANCH   9  11
ENDBRANCH   4   9
ENDBRANCH   3   4
TORSDOF 5
ENDMDL
MODEL      132
REMARK 921   NORMALIZED FREE ENERGY PREDICTED BY IDOCK:   -3.70 KCAL/MOL
REMARK 922        TOTAL FREE ENERGY PREDICTED BY IDOCK:   -5.38 KCAL/MOL
REMARK 923 INTER-LIGAND FREE ENERGY PREDICTED BY IDOCK:   -4.88 KCAL/MOL
REMARK 924 INTRA-LIGAND FREE ENERGY PREDICTED BY IDOCK:   -0.50 KCAL/MOL
REMARK 927      BINDING AFFINITY PREDICTED BY RF-SCORE:    0.00 PKD
ROOT
HETATM    1 CL   UNL     1     -12.432  15.706  71.090  1.00  0.00    -0.469 Cl 
HETATM    2  C   UNL     1     -12.674  13.945  70.959  1.00  0.00    -0.357 C  
HETATM    3  C   UNL     1     -11.697  13.346  69.954  1.00  0.00    -0.267 C  
ENDROOT
BRANCH   3   4
HETATM    4  N   UNL     1     -11.878  11.901  69.780  1.00  0.00    -0.330 N  
BRANCH   4   5
HETATM    5  N   UNL     1     -12.273  11.098  70.856  1.00  0.00    -0.369 NA 
HETATM    6  H   UNL     1     -11.952  11.256  71.812  1.00  0.00     0.000 HD 
HETATM    7  O   UNL     1     -13.043  10.182  70.549  1.00  0.00    -0.575 OA 
HETATM    8  H   UNL     1     -13.311   9.638  71.279  1.00  0.00     0.000 HD 
ENDBRANCH   4   5
BRANCH   4   9
HETATM    9  C   UNL     1     -11.833  11.372  68.492  1.00  0.00    -0.294 C  
HETATM   10  O   UNL     1     -12.206  12.012  67.507  1.00  0.00    -0.490 OA 
BRANCH   9  11
HETATM   11  N   UNL     1     -11.384  10.070  68.377  1.00  0.00    -0.521 N  
HETATM   12  H   UNL     1     -12.057   9.332  68.174  1.00  0.00     0.000 HD 
BRANCH  11  13
HETATM   13  C   UNL     1      -9.974   9.717  68.538  1.00  0.00    -0.160 C  
HETATM   14  C   UNL     1      -9.768   8.223  68.817  1.00  0.00    -0.160 C  
HETATM   15  C   UNL     1     -10.020   7.340  67.595  1.00  0.00    -0.207 C  
HETATM   16  C   UNL     1      -9.276   7.811  66.349  1.00  0.00    -0.229 C  
HETATM   17  C   UNL     1      -9.433   9.305  66.081  1.00  0.00    -0.298 C  
HETATM   18  C   UNL     1      -9.156  10.154  67.319  1.00  0.00    -0.151 C  
ENDBRANCH  11  13
ENDBRANCH   9  11
ENDBRANCH   4   9
ENDBRANCH   3   4
TORSDOF 5
ENDMDL
MODEL      133
REMARK 921   NORMALIZED FREE ENERGY PREDICTED BY IDOCK:   -3.69 KCAL/MOL
REMARK 922        TOTAL FREE ENERGY PREDICTED BY IDOCK:   -5.37 KCAL/MOL
REMARK 923 INTER-LIGAND FREE ENERGY PREDICTED BY IDOCK:   -4.87 KCAL/MOL
REMARK 924 INTRA-LIGAND FREE ENERGY PREDICTED BY IDOCK:   -0.50 KCAL/MOL
REMARK 927      BINDING AFFINITY PREDICTED BY RF-SCORE:    0.00 PKD
ROOT
HETATM    1 CL   UNL     1     -11.108  11.435  63.898  1.00  0.00    -0.450 Cl 
HETATM    2  C   UNL     1     -10.328  12.334  65.226  1.00  0.00    -0.281 C  
HETATM    3  C   UNL     1      -9.275  11.468  65.909  1.00  0.00    -0.210 C  
ENDROOT
BRANCH   3   4
HETATM    4  N   UNL     1      -8.627  12.148  67.035  1.00  0.00    -0.186 N  
BRANCH   4   5
HETATM    5  N   UNL     1      -7.328  12.654  66.908  1.00  0.00    -0.376 NA 
HETATM    6  H   UNL     1      -6.514  12.060  66.749  1.00  0.00     0.000 HD 
HETATM    7  O   UNL     1      -7.252  13.884  67.006  1.00  0.00    -0.353 OA 
HETATM    8  H   UNL     1      -6.372  14.228  66.920  1.00  0.00     0.000 HD 
ENDBRANCH   4   5
BRANCH   4   9
HETATM    9  C   UNL     1      -9.386  12.443  68.165  1.00  0.00    -0.209 C  
HETATM   10  O   UNL     1      -9.752  13.590  68.425  1.00  0.00    -0.221 OA 
BRANCH   9  11
HETATM   11  N   UNL     1      -9.675  11.386  69.006  1.00  0.00    -0.408 N  
HETATM   12  H   UNL     1      -9.035  11.175  69.772  1.00  0.00     0.000 HD 
BRANCH  11  13
HETATM   13  C   UNL     1     -10.869  10.559  68.834  1.00  0.00    -0.235 C  
HETATM   14  C   UNL     1     -10.771   9.221  69.576  1.00  0.00    -0.236 C  
HETATM   15  C   UNL     1     -10.886   9.362  71.094  1.00  0.00    -0.427 C  
HETATM   16  C   UNL     1     -12.092  10.187  71.532  1.00  0.00    -0.442 C  
HETATM   17  C   UNL     1     -12.231  11.503  70.773  1.00  0.00    -0.463 C  
HETATM   18  C   UNL     1     -12.128  11.320  69.260  1.00  0.00    -0.372 C  
ENDBRANCH  11  13
ENDBRANCH   9  11
ENDBRANCH   4   9
ENDBRANCH   3   4
TORSDOF 5
ENDMDL
MODEL      134
REMARK 921   NORMALIZED FREE ENERGY PREDICTED BY IDOCK:   -3.69 KCAL/MOL
REMARK 922        TOTAL FREE ENERGY PREDICTED BY IDOCK:   -5.36 KCAL/MOL
REMARK 923 INTER-LIGAND FREE ENERGY PREDICTED BY IDOCK:   -4.83 KCAL/MOL
REMARK 924 INTRA-LIGAND FREE ENERGY PREDICTED BY IDOCK:   -0.54 KCAL/MOL
REMARK 927      BINDING AFFINITY PREDICTED BY RF-SCORE:    0.00 PKD
ROOT
HETATM    1 CL   UNL     1     -11.670  15.251  69.739  1.00  0.00    -0.317 Cl 
HETATM    2  C   UNL     1     -10.777  16.721  69.268  1.00  0.00    -0.324 C  
HETATM    3  C   UNL     1     -10.969  17.008  67.783  1.00  0.00    -0.199 C  
ENDROOT
BRANCH   3   4
HETATM    4  N   UNL     1     -10.225  18.189  67.333  1.00  0.00    -0.355 N  
BRANCH   4   5
HETATM    5  N   UNL     1     -10.796  19.464  67.416  1.00  0.00    -0.490 NA 
HETATM    6  H   UNL     1     -11.802  19.625  67.372  1.00  0.00     0.000 HD 
HETATM    7  O   UNL     1      -9.975  20.378  67.547  1.00  0.00    -0.420 OA 
HETATM    8  H   UNL     1     -10.362  21.244  67.604  1.00  0.00     0.000 HD 
ENDBRANCH   4   5
BRANCH   4   9
HETATM    9  C   UNL     1      -8.880  18.044  66.998  1.00  0.00    -0.254 C  
HETATM   10  O   UNL     1      -8.522  17.631  65.894  1.00  0.00    -0.531 OA 
BRANCH   9  11
HETATM   11  N   UNL     1      -7.963  18.350  67.985  1.00  0.00    -0.268 N  
HETATM   12  H   UNL     1      -8.291  18.467  68.944  1.00  0.00     0.000 HD 
BRANCH  11  13
HETATM   13  C   UNL     1      -6.538  18.511  67.700  1.00  0.00    -0.205 C  
HETATM   14  C   UNL     1      -6.220  19.853  67.027  1.00  0.00    -0.199 C  
HETATM   15  C   UNL     1      -6.335  21.046  67.974  1.00  0.00    -0.361 C  
HETATM   16  C   UNL     1      -5.572  20.853  69.281  1.00  0.00    -0.391 C  
HETATM   17  C   UNL     1      -5.842  19.505  69.943  1.00  0.00    -0.301 C  
HETATM   18  C   UNL     1      -5.701  18.336  68.971  1.00  0.00    -0.210 C  
ENDBRANCH  11  13
ENDBRANCH   9  11
ENDBRANCH   4   9
ENDBRANCH   3   4
TORSDOF 5
ENDMDL
MODEL      135
REMARK 921   NORMALIZED FREE ENERGY PREDICTED BY IDOCK:   -3.68 KCAL/MOL
REMARK 922        TOTAL FREE ENERGY PREDICTED BY IDOCK:   -5.35 KCAL/MOL
REMARK 923 INTER-LIGAND FREE ENERGY PREDICTED BY IDOCK:   -4.92 KCAL/MOL
REMARK 924 INTRA-LIGAND FREE ENERGY PREDICTED BY IDOCK:   -0.43 KCAL/MOL
REMARK 927      BINDING AFFINITY PREDICTED BY RF-SCORE:    0.00 PKD
ROOT
HETATM    1 CL   UNL     1     -12.082  14.828  69.991  1.00  0.00    -0.358 Cl 
HETATM    2  C   UNL     1     -11.116  16.324  69.910  1.00  0.00    -0.347 C  
HETATM    3  C   UNL     1     -10.885  16.731  68.459  1.00  0.00    -0.345 C  
ENDROOT
BRANCH   3   4
HETATM    4  N   UNL     1     -10.063  17.939  68.334  1.00  0.00    -0.363 N  
BRANCH   4   5
HETATM    5  N   UNL     1     -10.649  19.209  68.393  1.00  0.00    -0.402 NA 
HETATM    6  H   UNL     1     -11.224  19.589  67.641  1.00  0.00     0.000 HD 
HETATM    7  O   UNL     1     -10.410  19.829  69.435  1.00  0.00    -0.638 OA 
HETATM    8  H   UNL     1     -10.807  20.690  69.475  1.00  0.00     0.000 HD 
ENDBRANCH   4   5
BRANCH   4   9
HETATM    9  C   UNL     1      -8.675  17.808  68.342  1.00  0.00    -0.292 C  
HETATM   10  O   UNL     1      -8.118  16.777  68.724  1.00  0.00    -0.236 OA 
BRANCH   9  11
HETATM   11  N   UNL     1      -7.951  18.912  67.937  1.00  0.00    -0.265 N  
HETATM   12  H   UNL     1      -8.423  19.813  67.864  1.00  0.00     0.000 HD 
BRANCH  11  13
HETATM   13  C   UNL     1      -6.528  18.830  67.610  1.00  0.00    -0.206 C  
HETATM   14  C   UNL     1      -6.281  18.515  66.129  1.00  0.00    -0.227 C  
HETATM   15  C   UNL     1      -6.597  19.687  65.200  1.00  0.00    -0.299 C  
HETATM   16  C   UNL     1      -5.942  20.994  65.637  1.00  0.00    -0.281 C  
HETATM   17  C   UNL     1      -6.139  21.303  67.118  1.00  0.00    -0.413 C  
HETATM   18  C   UNL     1      -5.798  20.115  68.015  1.00  0.00    -0.251 C  
ENDBRANCH  11  13
ENDBRANCH   9  11
ENDBRANCH   4   9
ENDBRANCH   3   4
TORSDOF 5
ENDMDL
MODEL      136
REMARK 921   NORMALIZED FREE ENERGY PREDICTED BY IDOCK:   -3.67 KCAL/MOL
REMARK 922        TOTAL FREE ENERGY PREDICTED BY IDOCK:   -5.34 KCAL/MOL
REMARK 923 INTER-LIGAND FREE ENERGY PREDICTED BY IDOCK:   -4.69 KCAL/MOL
REMARK 924 INTRA-LIGAND FREE ENERGY PREDICTED BY IDOCK:   -0.64 KCAL/MOL
REMARK 927      BINDING AFFINITY PREDICTED BY RF-SCORE:    0.00 PKD
ROOT
HETATM    1 CL   UNL     1      -8.309  17.353  67.147  1.00  0.00    -0.223 Cl 
HETATM    2  C   UNL     1      -9.278  16.035  67.858  1.00  0.00    -0.196 C  
HETATM    3  C   UNL     1     -10.766  16.347  67.743  1.00  0.00    -0.328 C  
ENDROOT
BRANCH   3   4
HETATM    4  N   UNL     1     -11.610  15.311  68.347  1.00  0.00    -0.344 N  
BRANCH   4   5
HETATM    5  N   UNL     1     -12.371  15.588  69.489  1.00  0.00    -0.583 NA 
HETATM    6  H   UNL     1     -12.202  16.399  70.084  1.00  0.00     0.000 HD 
HETATM    7  O   UNL     1     -13.265  14.766  69.713  1.00  0.00    -0.337 OA 
HETATM    8  H   UNL     1     -13.782  14.954  70.487  1.00  0.00     0.000 HD 
ENDBRANCH   4   5
BRANCH   4   9
HETATM    9  C   UNL     1     -11.784  14.109  67.664  1.00  0.00    -0.387 C  
HETATM   10  O   UNL     1     -12.381  14.049  66.588  1.00  0.00    -0.451 OA 
BRANCH   9  11
HETATM   11  N   UNL     1     -11.288  12.975  68.279  1.00  0.00    -0.268 N  
HETATM   12  H   UNL     1     -10.557  13.075  68.982  1.00  0.00     0.000 HD 
BRANCH  11  13
HETATM   13  C   UNL     1     -11.778  11.636  67.952  1.00  0.00    -0.259 C  
HETATM   14  C   UNL     1     -10.861  10.897  66.969  1.00  0.00    -0.323 C  
HETATM   15  C   UNL     1      -9.545  10.441  67.598  1.00  0.00    -0.168 C  
HETATM   16  C   UNL     1      -9.734   9.681  68.907  1.00  0.00    -0.163 C  
HETATM   17  C   UNL     1     -10.679  10.380  69.880  1.00  0.00    -0.331 C  
HETATM   18  C   UNL     1     -11.989  10.805  69.221  1.00  0.00    -0.334 C  
ENDBRANCH  11  13
ENDBRANCH   9  11
ENDBRANCH   4   9
ENDBRANCH   3   4
TORSDOF 5
ENDMDL
MODEL      137
REMARK 921   NORMALIZED FREE ENERGY PREDICTED BY IDOCK:   -3.67 KCAL/MOL
REMARK 922        TOTAL FREE ENERGY PREDICTED BY IDOCK:   -5.33 KCAL/MOL
REMARK 923 INTER-LIGAND FREE ENERGY PREDICTED BY IDOCK:   -4.78 KCAL/MOL
REMARK 924 INTRA-LIGAND FREE ENERGY PREDICTED BY IDOCK:   -0.55 KCAL/MOL
REMARK 927      BINDING AFFINITY PREDICTED BY RF-SCORE:    0.00 PKD
ROOT
HETATM    1 CL   UNL     1     -10.050  19.339  68.871  1.00  0.00    -0.478 Cl 
HETATM    2  C   UNL     1      -9.906  17.603  68.489  1.00  0.00    -0.346 C  
HETATM    3  C   UNL     1     -10.715  16.771  69.477  1.00  0.00    -0.273 C  
ENDROOT
BRANCH   3   4
HETATM    4  N   UNL     1     -10.601  15.330  69.230  1.00  0.00    -0.243 N  
BRANCH   4   5
HETATM    5  N   UNL     1      -9.469  14.804  68.597  1.00  0.00    -0.209 NA 
HETATM    6  H   UNL     1      -9.368  14.766  67.582  1.00  0.00     0.000 HD 
HETATM    7  O   UNL     1      -8.602  14.388  69.373  1.00  0.00    -0.369 OA 
HETATM    8  H   UNL     1      -7.834  14.031  68.944  1.00  0.00     0.000 HD 
ENDBRANCH   4   5
BRANCH   4   9
HETATM    9  C   UNL     1     -11.545  14.477  69.798  1.00  0.00    -0.295 C  
HETATM   10  O   UNL     1     -12.649  14.878  70.169  1.00  0.00    -0.317 OA 
BRANCH   9  11
HETATM   11  N   UNL     1     -11.164  13.159  69.963  1.00  0.00    -0.471 N  
HETATM   12  H   UNL     1     -10.355  12.949  70.548  1.00  0.00     0.000 HD 
BRANCH  11  13
HETATM   13  C   UNL     1     -11.882  12.057  69.325  1.00  0.00    -0.318 C  
HETATM   14  C   UNL     1     -10.947  11.100  68.574  1.00  0.00    -0.267 C  
HETATM   15  C   UNL     1     -10.100  10.230  69.503  1.00  0.00    -0.260 C  
HETATM   16  C   UNL     1     -10.920   9.523  70.579  1.00  0.00    -0.348 C  
HETATM   17  C   UNL     1     -11.888  10.451  71.306  1.00  0.00    -0.381 C  
HETATM   18  C   UNL     1     -12.728  11.291  70.346  1.00  0.00    -0.209 C  
ENDBRANCH  11  13
ENDBRANCH   9  11
ENDBRANCH   4   9
ENDBRANCH   3   4
TORSDOF 5
ENDMDL
MODEL      138
REMARK 921   NORMALIZED FREE ENERGY PREDICTED BY IDOCK:   -3.65 KCAL/MOL
REMARK 922        TOTAL FREE ENERGY PREDICTED BY IDOCK:   -5.31 KCAL/MOL
REMARK 923 INTER-LIGAND FREE ENERGY PREDICTED BY IDOCK:   -4.78 KCAL/MOL
REMARK 924 INTRA-LIGAND FREE ENERGY PREDICTED BY IDOCK:   -0.54 KCAL/MOL
REMARK 927      BINDING AFFINITY PREDICTED BY RF-SCORE:    0.00 PKD
ROOT
HETATM    1 CL   UNL     1      -6.422   9.838  69.334  1.00  0.00    -0.047 Cl 
HETATM    2  C   UNL     1      -7.904  10.314  68.464  1.00  0.00    -0.097 C  
HETATM    3  C   UNL     1      -8.654   9.080  67.976  1.00  0.00    -0.129 C  
ENDROOT
BRANCH   3   4
HETATM    4  N   UNL     1      -9.865   9.416  67.220  1.00  0.00    -0.168 N  
BRANCH   4   5
HETATM    5  N   UNL     1     -10.132   8.800  65.992  1.00  0.00    -0.422 NA 
HETATM    6  H   UNL     1     -10.614   7.904  65.914  1.00  0.00     0.000 HD 
HETATM    7  O   UNL     1      -9.731   9.434  65.010  1.00  0.00    -0.447 OA 
HETATM    8  H   UNL     1      -9.912   9.016  64.177  1.00  0.00     0.000 HD 
ENDBRANCH   4   5
BRANCH   4   9
HETATM    9  C   UNL     1     -10.832  10.215  67.826  1.00  0.00    -0.292 C  
HETATM   10  O   UNL     1     -11.137  11.323  67.383  1.00  0.00    -0.262 OA 
BRANCH   9  11
HETATM   11  N   UNL     1     -11.406   9.718  68.981  1.00  0.00    -0.464 N  
HETATM   12  H   UNL     1     -11.980   8.877  68.923  1.00  0.00     0.000 HD 
BRANCH  11  13
HETATM   13  C   UNL     1     -11.216  10.358  70.282  1.00  0.00    -0.320 C  
HETATM   14  C   UNL     1     -12.539  10.799  70.921  1.00  0.00    -0.498 C  
HETATM   15  C   UNL     1     -13.381   9.630  71.433  1.00  0.00    -0.444 C  
HETATM   16  C   UNL     1     -12.596   8.666  72.318  1.00  0.00    -0.457 C  
HETATM   17  C   UNL     1     -11.256   8.251  71.718  1.00  0.00    -0.346 C  
HETATM   18  C   UNL     1     -10.436   9.445  71.233  1.00  0.00    -0.385 C  
ENDBRANCH  11  13
ENDBRANCH   9  11
ENDBRANCH   4   9
ENDBRANCH   3   4
TORSDOF 5
ENDMDL
MODEL      139
REMARK 921   NORMALIZED FREE ENERGY PREDICTED BY IDOCK:   -3.65 KCAL/MOL
REMARK 922        TOTAL FREE ENERGY PREDICTED BY IDOCK:   -5.31 KCAL/MOL
REMARK 923 INTER-LIGAND FREE ENERGY PREDICTED BY IDOCK:   -4.73 KCAL/MOL
REMARK 924 INTRA-LIGAND FREE ENERGY PREDICTED BY IDOCK:   -0.58 KCAL/MOL
REMARK 927      BINDING AFFINITY PREDICTED BY RF-SCORE:    0.00 PKD
ROOT
HETATM    1 CL   UNL     1      -6.994  17.304  67.240  1.00  0.00    -0.182 Cl 
HETATM    2  C   UNL     1      -7.881  15.760  67.149  1.00  0.00    -0.212 C  
HETATM    3  C   UNL     1      -8.553  15.453  68.482  1.00  0.00    -0.172 C  
ENDROOT
BRANCH   3   4
HETATM    4  N   UNL     1      -9.268  14.172  68.474  1.00  0.00    -0.201 N  
BRANCH   4   5
HETATM    5  N   UNL     1      -8.618  12.992  68.853  1.00  0.00    -0.355 NA 
HETATM    6  H   UNL     1      -7.651  12.971  69.177  1.00  0.00     0.000 HD 
HETATM    7  O   UNL     1      -9.317  11.977  68.760  1.00  0.00    -0.378 OA 
HETATM    8  H   UNL     1      -8.876  11.176  69.017  1.00  0.00     0.000 HD 
ENDBRANCH   4   5
BRANCH   4   9
HETATM    9  C   UNL     1     -10.645  14.176  68.262  1.00  0.00    -0.251 C  
HETATM   10  O   UNL     1     -11.434  14.626  69.095  1.00  0.00    -0.262 OA 
BRANCH   9  11
HETATM   11  N   UNL     1     -11.088  13.609  67.083  1.00  0.00    -0.292 N  
HETATM   12  H   UNL     1     -11.973  13.102  67.081  1.00  0.00     0.000 HD 
BRANCH  11  13
HETATM   13  C   UNL     1     -10.329  13.712  65.837  1.00  0.00    -0.301 C  
HETATM   14  C   UNL     1     -10.194  12.365  65.116  1.00  0.00    -0.305 C  
HETATM   15  C   UNL     1     -11.497  11.890  64.475  1.00  0.00    -0.363 C  
HETATM   16  C   UNL     1     -12.165  12.953  63.608  1.00  0.00    -0.581 C  
HETATM   17  C   UNL     1     -12.268  14.312  64.294  1.00  0.00    -0.451 C  
HETATM   18  C   UNL     1     -10.943  14.762  64.906  1.00  0.00    -0.425 C  
ENDBRANCH  11  13
ENDBRANCH   9  11
ENDBRANCH   4   9
ENDBRANCH   3   4
TORSDOF 5
ENDMDL
MODEL      140
REMARK 921   NORMALIZED FREE ENERGY PREDICTED BY IDOCK:   -3.65 KCAL/MOL
REMARK 922        TOTAL FREE ENERGY PREDICTED BY IDOCK:   -5.31 KCAL/MOL
REMARK 923 INTER-LIGAND FREE ENERGY PREDICTED BY IDOCK:   -4.99 KCAL/MOL
REMARK 924 INTRA-LIGAND FREE ENERGY PREDICTED BY IDOCK:   -0.32 KCAL/MOL
REMARK 927      BINDING AFFINITY PREDICTED BY RF-SCORE:    0.00 PKD
ROOT
HETATM    1 CL   UNL     1     -12.586  15.869  71.781  1.00  0.00    -0.505 Cl 
HETATM    2  C   UNL     1     -11.556  15.493  70.375  1.00  0.00    -0.337 C  
HETATM    3  C   UNL     1     -12.232  14.459  69.482  1.00  0.00    -0.282 C  
ENDROOT
BRANCH   3   4
HETATM    4  N   UNL     1     -11.410  14.085  68.327  1.00  0.00    -0.271 N  
BRANCH   4   5
HETATM    5  N   UNL     1     -11.712  14.573  67.050  1.00  0.00    -0.391 NA 
HETATM    6  H   UNL     1     -11.102  15.213  66.542  1.00  0.00     0.000 HD 
HETATM    7  O   UNL     1     -12.783  14.160  66.591  1.00  0.00    -0.523 OA 
HETATM    8  H   UNL     1     -12.989  14.491  65.725  1.00  0.00     0.000 HD 
ENDBRANCH   4   5
BRANCH   4   9
HETATM    9  C   UNL     1     -10.222  13.392  68.548  1.00  0.00    -0.223 C  
HETATM   10  O   UNL     1      -9.126  13.848  68.216  1.00  0.00    -0.184 OA 
BRANCH   9  11
HETATM   11  N   UNL     1     -10.337  12.141  69.124  1.00  0.00    -0.422 N  
HETATM   12  H   UNL     1      -9.643  11.848  69.811  1.00  0.00     0.000 HD 
BRANCH  11  13
HETATM   13  C   UNL     1     -11.424  11.224  68.779  1.00  0.00    -0.293 C  
HETATM   14  C   UNL     1     -10.981  10.125  67.805  1.00  0.00    -0.338 C  
HETATM   15  C   UNL     1     -10.077   9.075  68.450  1.00  0.00    -0.216 C  
HETATM   16  C   UNL     1     -10.641   8.511  69.750  1.00  0.00    -0.224 C  
HETATM   17  C   UNL     1     -11.128   9.589  70.714  1.00  0.00    -0.390 C  
HETATM   18  C   UNL     1     -12.042  10.610  70.039  1.00  0.00    -0.393 C  
ENDBRANCH  11  13
ENDBRANCH   9  11
ENDBRANCH   4   9
ENDBRANCH   3   4
TORSDOF 5
ENDMDL
MODEL      141
REMARK 921   NORMALIZED FREE ENERGY PREDICTED BY IDOCK:   -3.64 KCAL/MOL
REMARK 922        TOTAL FREE ENERGY PREDICTED BY IDOCK:   -5.30 KCAL/MOL
REMARK 923 INTER-LIGAND FREE ENERGY PREDICTED BY IDOCK:   -4.75 KCAL/MOL
REMARK 924 INTRA-LIGAND FREE ENERGY PREDICTED BY IDOCK:   -0.55 KCAL/MOL
REMARK 927      BINDING AFFINITY PREDICTED BY RF-SCORE:    0.00 PKD
ROOT
HETATM    1 CL   UNL     1     -10.714  12.767  64.235  1.00  0.00    -0.387 Cl 
HETATM    2  C   UNL     1     -10.456  11.425  65.380  1.00  0.00    -0.280 C  
HETATM    3  C   UNL     1     -11.278  11.639  66.646  1.00  0.00    -0.299 C  
ENDROOT
BRANCH   3   4
HETATM    4  N   UNL     1     -11.074  10.580  67.639  1.00  0.00    -0.316 N  
BRANCH   4   5
HETATM    5  N   UNL     1     -10.149   9.555  67.407  1.00  0.00    -0.193 NA 
HETATM    6  H   UNL     1      -9.142   9.715  67.369  1.00  0.00     0.000 HD 
HETATM    7  O   UNL     1     -10.657   8.440  67.252  1.00  0.00    -0.338 OA 
HETATM    8  H   UNL     1     -10.030   7.744  67.095  1.00  0.00     0.000 HD 
ENDBRANCH   4   5
BRANCH   4   9
HETATM    9  C   UNL     1     -11.675  10.710  68.889  1.00  0.00    -0.211 C  
HETATM   10  O   UNL     1     -12.126  11.784  69.289  1.00  0.00    -0.292 OA 
BRANCH   9  11
HETATM   11  N   UNL     1     -11.704   9.577  69.679  1.00  0.00    -0.430 N  
HETATM   12  H   UNL     1     -11.997   8.693  69.264  1.00  0.00     0.000 HD 
BRANCH  11  13
HETATM   13  C   UNL     1     -11.326   9.604  71.092  1.00  0.00    -0.386 C  
HETATM   14  C   UNL     1     -12.393   8.977  71.999  1.00  0.00    -0.455 C  
HETATM   15  C   UNL     1     -12.469   7.455  71.878  1.00  0.00    -0.334 C  
HETATM   16  C   UNL     1     -11.112   6.772  72.012  1.00  0.00    -0.283 C  
HETATM   17  C   UNL     1     -10.027   7.411  71.150  1.00  0.00    -0.188 C  
HETATM   18  C   UNL     1      -9.969   8.928  71.310  1.00  0.00    -0.358 C  
ENDBRANCH  11  13
ENDBRANCH   9  11
ENDBRANCH   4   9
ENDBRANCH   3   4
TORSDOF 5
ENDMDL
MODEL      142
REMARK 921   NORMALIZED FREE ENERGY PREDICTED BY IDOCK:   -3.63 KCAL/MOL
REMARK 922        TOTAL FREE ENERGY PREDICTED BY IDOCK:   -5.29 KCAL/MOL
REMARK 923 INTER-LIGAND FREE ENERGY PREDICTED BY IDOCK:   -4.58 KCAL/MOL
REMARK 924 INTRA-LIGAND FREE ENERGY PREDICTED BY IDOCK:   -0.71 KCAL/MOL
REMARK 927      BINDING AFFINITY PREDICTED BY RF-SCORE:    0.00 PKD
ROOT
HETATM    1 CL   UNL     1      -7.584  19.849  65.686  1.00  0.00    -0.314 Cl 
HETATM    2  C   UNL     1      -8.272  18.798  66.951  1.00  0.00    -0.265 C  
HETATM    3  C   UNL     1      -9.139  17.710  66.326  1.00  0.00    -0.186 C  
ENDROOT
BRANCH   3   4
HETATM    4  N   UNL     1      -9.761  16.837  67.327  1.00  0.00    -0.245 N  
BRANCH   4   5
HETATM    5  N   UNL     1     -10.901  17.253  68.025  1.00  0.00    -0.357 NA 
HETATM    6  H   UNL     1     -11.348  18.157  67.867  1.00  0.00     0.000 HD 
HETATM    7  O   UNL     1     -11.319  16.432  68.847  1.00  0.00    -0.332 OA 
HETATM    8  H   UNL     1     -12.092  16.714  69.321  1.00  0.00     0.000 HD 
ENDBRANCH   4   5
BRANCH   4   9
HETATM    9  C   UNL     1      -9.313  15.523  67.440  1.00  0.00    -0.207 C  
HETATM   10  O   UNL     1      -8.467  15.189  68.270  1.00  0.00    -0.144 OA 
BRANCH   9  11
HETATM   11  N   UNL     1      -9.838  14.615  66.540  1.00  0.00    -0.263 N  
HETATM   12  H   UNL     1      -9.509  14.631  65.575  1.00  0.00     0.000 HD 
BRANCH  11  13
HETATM   13  C   UNL     1     -10.849  13.632  66.928  1.00  0.00    -0.283 C  
HETATM   14  C   UNL     1     -12.232  13.948  66.344  1.00  0.00    -0.487 C  
HETATM   15  C   UNL     1     -12.325  13.695  64.840  1.00  0.00    -0.442 C  
HETATM   16  C   UNL     1     -11.817  12.316  64.429  1.00  0.00    -0.464 C  
HETATM   17  C   UNL     1     -10.462  11.966  65.036  1.00  0.00    -0.333 C  
HETATM   18  C   UNL     1     -10.413  12.215  66.542  1.00  0.00    -0.254 C  
ENDBRANCH  11  13
ENDBRANCH   9  11
ENDBRANCH   4   9
ENDBRANCH   3   4
TORSDOF 5
ENDMDL
MODEL      143
REMARK 921   NORMALIZED FREE ENERGY PREDICTED BY IDOCK:   -3.63 KCAL/MOL
REMARK 922        TOTAL FREE ENERGY PREDICTED BY IDOCK:   -5.28 KCAL/MOL
REMARK 923 INTER-LIGAND FREE ENERGY PREDICTED BY IDOCK:   -4.67 KCAL/MOL
REMARK 924 INTRA-LIGAND FREE ENERGY PREDICTED BY IDOCK:   -0.61 KCAL/MOL
REMARK 927      BINDING AFFINITY PREDICTED BY RF-SCORE:    0.00 PKD
ROOT
HETATM    1 CL   UNL     1     -11.055   6.153  73.117  1.00  0.00    -0.251 Cl 
HETATM    2  C   UNL     1     -11.804   7.259  71.935  1.00  0.00    -0.297 C  
HETATM    3  C   UNL     1     -10.754   8.186  71.333  1.00  0.00    -0.232 C  
ENDROOT
BRANCH   3   4
HETATM    4  N   UNL     1     -11.324   9.143  70.379  1.00  0.00    -0.248 N  
BRANCH   4   5
HETATM    5  N   UNL     1     -12.127  10.200  70.825  1.00  0.00    -0.318 NA 
HETATM    6  H   UNL     1     -11.758  10.992  71.351  1.00  0.00     0.000 HD 
HETATM    7  O   UNL     1     -13.321  10.089  70.527  1.00  0.00    -0.605 OA 
HETATM    8  H   UNL     1     -13.866  10.805  70.829  1.00  0.00     0.000 HD 
ENDBRANCH   4   5
BRANCH   4   9
HETATM    9  C   UNL     1     -10.906   9.094  69.051  1.00  0.00    -0.090 C  
HETATM   10  O   UNL     1     -10.172   8.199  68.630  1.00  0.00    -0.199 OA 
BRANCH   9  11
HETATM   11  N   UNL     1     -11.325  10.127  68.236  1.00  0.00    -0.522 N  
HETATM   12  H   UNL     1     -12.320  10.227  68.038  1.00  0.00     0.000 HD 
BRANCH  11  13
HETATM   13  C   UNL     1     -10.386  11.083  67.648  1.00  0.00    -0.191 C  
HETATM   14  C   UNL     1     -10.710  11.400  66.182  1.00  0.00    -0.320 C  
HETATM   15  C   UNL     1     -11.956  12.268  66.013  1.00  0.00    -0.342 C  
HETATM   16  C   UNL     1     -11.946  13.514  66.892  1.00  0.00    -0.447 C  
HETATM   17  C   UNL     1     -11.583  13.224  68.346  1.00  0.00    -0.372 C  
HETATM   18  C   UNL     1     -10.324  12.370  68.476  1.00  0.00    -0.232 C  
ENDBRANCH  11  13
ENDBRANCH   9  11
ENDBRANCH   4   9
ENDBRANCH   3   4
TORSDOF 5
ENDMDL
MODEL      144
REMARK 921   NORMALIZED FREE ENERGY PREDICTED BY IDOCK:   -3.62 KCAL/MOL
REMARK 922        TOTAL FREE ENERGY PREDICTED BY IDOCK:   -5.28 KCAL/MOL
REMARK 923 INTER-LIGAND FREE ENERGY PREDICTED BY IDOCK:   -4.74 KCAL/MOL
REMARK 924 INTRA-LIGAND FREE ENERGY PREDICTED BY IDOCK:   -0.54 KCAL/MOL
REMARK 927      BINDING AFFINITY PREDICTED BY RF-SCORE:    0.00 PKD
ROOT
HETATM    1 CL   UNL     1     -11.997  15.716  69.127  1.00  0.00    -0.372 Cl 
HETATM    2  C   UNL     1     -10.783  15.242  67.910  1.00  0.00    -0.275 C  
HETATM    3  C   UNL     1     -11.184  13.932  67.240  1.00  0.00    -0.312 C  
ENDROOT
BRANCH   3   4
HETATM    4  N   UNL     1     -10.199  13.477  66.253  1.00  0.00    -0.292 N  
BRANCH   4   5
HETATM    5  N   UNL     1      -9.817  14.307  65.193  1.00  0.00    -0.565 NA 
HETATM    6  H   UNL     1      -9.174  15.091  65.307  1.00  0.00     0.000 HD 
HETATM    7  O   UNL     1     -10.325  14.008  64.107  1.00  0.00    -0.582 OA 
HETATM    8  H   UNL     1     -10.066  14.571  63.388  1.00  0.00     0.000 HD 
ENDBRANCH   4   5
BRANCH   4   9
HETATM    9  C   UNL     1      -9.517  12.285  66.491  1.00  0.00    -0.236 C  
HETATM   10  O   UNL     1      -9.365  11.834  67.626  1.00  0.00    -0.173 OA 
BRANCH   9  11
HETATM   11  N   UNL     1      -8.981  11.653  65.385  1.00  0.00    -0.405 N  
HETATM   12  H   UNL     1      -8.071  11.953  65.038  1.00  0.00     0.000 HD 
BRANCH  11  13
HETATM   13  C   UNL     1      -9.677  10.566  64.698  1.00  0.00    -0.309 C  
HETATM   14  C   UNL     1      -9.952  10.883  63.222  1.00  0.00    -0.399 C  
HETATM   15  C   UNL     1      -8.694  10.849  62.353  1.00  0.00    -0.355 C  
HETATM   16  C   UNL     1      -7.871   9.577  62.536  1.00  0.00    -0.119 C  
HETATM   17  C   UNL     1      -7.626   9.222  63.999  1.00  0.00    -0.113 C  
HETATM   18  C   UNL     1      -8.906   9.249  64.831  1.00  0.00    -0.233 C  
ENDBRANCH  11  13
ENDBRANCH   9  11
ENDBRANCH   4   9
ENDBRANCH   3   4
TORSDOF 5
ENDMDL
MODEL      145
REMARK 921   NORMALIZED FREE ENERGY PREDICTED BY IDOCK:   -3.60 KCAL/MOL
REMARK 922        TOTAL FREE ENERGY PREDICTED BY IDOCK:   -5.25 KCAL/MOL
REMARK 923 INTER-LIGAND FREE ENERGY PREDICTED BY IDOCK:   -4.94 KCAL/MOL
REMARK 924 INTRA-LIGAND FREE ENERGY PREDICTED BY IDOCK:   -0.31 KCAL/MOL
REMARK 927      BINDING AFFINITY PREDICTED BY RF-SCORE:    0.00 PKD
ROOT
HETATM    1 CL   UNL     1     -12.574  12.215  64.378  1.00  0.00    -0.450 Cl 
HETATM    2  C   UNL     1     -11.666  13.076  65.648  1.00  0.00    -0.375 C  
HETATM    3  C   UNL     1     -10.461  13.792  65.048  1.00  0.00    -0.402 C  
ENDROOT
BRANCH   3   4
HETATM    4  N   UNL     1      -9.655  14.488  66.057  1.00  0.00    -0.298 N  
BRANCH   4   5
HETATM    5  N   UNL     1      -9.227  15.804  65.843  1.00  0.00    -0.333 NA 
HETATM    6  H   UNL     1      -8.255  16.046  65.651  1.00  0.00     0.000 HD 
HETATM    7  O   UNL     1     -10.129  16.646  65.906  1.00  0.00    -0.367 OA 
HETATM    8  H   UNL     1      -9.839  17.538  65.761  1.00  0.00     0.000 HD 
ENDBRANCH   4   5
BRANCH   4   9
HETATM    9  C   UNL     1      -9.481  13.889  67.303  1.00  0.00    -0.239 C  
HETATM   10  O   UNL     1      -8.941  12.790  67.430  1.00  0.00    -0.177 OA 
BRANCH   9  11
HETATM   11  N   UNL     1      -9.985  14.576  68.391  1.00  0.00    -0.234 N  
HETATM   12  H   UNL     1      -9.349  14.846  69.141  1.00  0.00     0.000 HD 
BRANCH  11  13
HETATM   13  C   UNL     1     -11.400  14.927  68.501  1.00  0.00    -0.298 C  
HETATM   14  C   UNL     1     -12.259  13.761  69.005  1.00  0.00    -0.259 C  
HETATM   15  C   UNL     1     -12.050  13.452  70.487  1.00  0.00    -0.399 C  
HETATM   16  C   UNL     1     -12.156  14.685  71.380  1.00  0.00    -0.416 C  
HETATM   17  C   UNL     1     -11.343  15.871  70.870  1.00  0.00    -0.428 C  
HETATM   18  C   UNL     1     -11.591  16.159  69.391  1.00  0.00    -0.261 C  
ENDBRANCH  11  13
ENDBRANCH   9  11
ENDBRANCH   4   9
ENDBRANCH   3   4
TORSDOF 5
ENDMDL
MODEL      146
REMARK 921   NORMALIZED FREE ENERGY PREDICTED BY IDOCK:   -3.60 KCAL/MOL
REMARK 922        TOTAL FREE ENERGY PREDICTED BY IDOCK:   -5.24 KCAL/MOL
REMARK 923 INTER-LIGAND FREE ENERGY PREDICTED BY IDOCK:   -4.61 KCAL/MOL
REMARK 924 INTRA-LIGAND FREE ENERGY PREDICTED BY IDOCK:   -0.64 KCAL/MOL
REMARK 927      BINDING AFFINITY PREDICTED BY RF-SCORE:    0.00 PKD
ROOT
HETATM    1 CL   UNL     1      -9.304   7.501  66.082  1.00  0.00    -0.172 Cl 
HETATM    2  C   UNL     1      -9.158   9.127  65.364  1.00  0.00    -0.214 C  
HETATM    3  C   UNL     1     -10.204  10.066  65.955  1.00  0.00    -0.205 C  
ENDROOT
BRANCH   3   4
HETATM    4  N   UNL     1     -10.152  11.410  65.371  1.00  0.00    -0.248 N  
BRANCH   4   5
HETATM    5  N   UNL     1      -9.361  11.667  64.244  1.00  0.00    -0.435 NA 
HETATM    6  H   UNL     1      -8.550  11.101  63.996  1.00  0.00     0.000 HD 
HETATM    7  O   UNL     1      -9.732  12.639  63.578  1.00  0.00    -0.635 OA 
HETATM    8  H   UNL     1      -9.196  12.813  62.813  1.00  0.00     0.000 HD 
ENDBRANCH   4   5
BRANCH   4   9
HETATM    9  C   UNL     1     -11.038  12.378  65.840  1.00  0.00    -0.313 C  
HETATM   10  O   UNL     1     -12.242  12.342  65.582  1.00  0.00    -0.605 OA 
BRANCH   9  11
HETATM   11  N   UNL     1     -10.489  13.409  66.577  1.00  0.00    -0.279 N  
HETATM   12  H   UNL     1     -10.014  14.167  66.088  1.00  0.00     0.000 HD 
BRANCH  11  13
HETATM   13  C   UNL     1     -10.569  13.449  68.037  1.00  0.00    -0.243 C  
HETATM   14  C   UNL     1      -9.284  13.984  68.683  1.00  0.00    -0.119 C  
HETATM   15  C   UNL     1      -9.091  15.487  68.488  1.00  0.00    -0.196 C  
HETATM   16  C   UNL     1     -10.321  16.306  68.866  1.00  0.00    -0.263 C  
HETATM   17  C   UNL     1     -11.615  15.763  68.268  1.00  0.00    -0.302 C  
HETATM   18  C   UNL     1     -11.782  14.262  68.498  1.00  0.00    -0.376 C  
ENDBRANCH  11  13
ENDBRANCH   9  11
ENDBRANCH   4   9
ENDBRANCH   3   4
TORSDOF 5
ENDMDL
MODEL      147
REMARK 921   NORMALIZED FREE ENERGY PREDICTED BY IDOCK:   -3.60 KCAL/MOL
REMARK 922        TOTAL FREE ENERGY PREDICTED BY IDOCK:   -5.24 KCAL/MOL
REMARK 923 INTER-LIGAND FREE ENERGY PREDICTED BY IDOCK:   -4.63 KCAL/MOL
REMARK 924 INTRA-LIGAND FREE ENERGY PREDICTED BY IDOCK:   -0.61 KCAL/MOL
REMARK 927      BINDING AFFINITY PREDICTED BY RF-SCORE:    0.00 PKD
ROOT
HETATM    1 CL   UNL     1     -10.442   4.405  74.285  1.00  0.00    -0.293 Cl 
HETATM    2  C   UNL     1     -11.468   5.272  73.112  1.00  0.00    -0.246 C  
HETATM    3  C   UNL     1     -10.976   6.703  72.930  1.00  0.00    -0.253 C  
ENDROOT
BRANCH   3   4
HETATM    4  N   UNL     1     -11.808   7.474  72.000  1.00  0.00    -0.285 N  
BRANCH   4   5
HETATM    5  N   UNL     1     -13.146   7.753  72.306  1.00  0.00    -0.516 NA 
HETATM    6  H   UNL     1     -13.925   7.219  71.921  1.00  0.00     0.000 HD 
HETATM    7  O   UNL     1     -13.300   8.702  73.082  1.00  0.00    -0.865 OA 
HETATM    8  H   UNL     1     -14.207   8.891  73.289  1.00  0.00     0.000 HD 
ENDBRANCH   4   5
BRANCH   4   9
HETATM    9  C   UNL     1     -11.201   8.078  70.902  1.00  0.00    -0.266 C  
HETATM   10  O   UNL     1     -11.421   9.251  70.596  1.00  0.00    -0.266 OA 
BRANCH   9  11
HETATM   11  N   UNL     1     -10.365   7.280  70.144  1.00  0.00    -0.208 N  
HETATM   12  H   UNL     1      -9.367   7.485  70.129  1.00  0.00     0.000 HD 
BRANCH  11  13
HETATM   13  C   UNL     1     -10.868   6.149  69.364  1.00  0.00    -0.353 C  
HETATM   14  C   UNL     1     -10.923   6.449  67.861  1.00  0.00    -0.416 C  
HETATM   15  C   UNL     1      -9.544   6.503  67.204  1.00  0.00    -0.162 C  
HETATM   16  C   UNL     1      -8.676   5.291  67.527  1.00  0.00    -0.106 C  
HETATM   17  C   UNL     1      -8.644   4.950  69.014  1.00  0.00    -0.093 C  
HETATM   18  C   UNL     1     -10.040   4.888  69.631  1.00  0.00    -0.300 C  
ENDBRANCH  11  13
ENDBRANCH   9  11
ENDBRANCH   4   9
ENDBRANCH   3   4
TORSDOF 5
ENDMDL
MODEL      148
REMARK 921   NORMALIZED FREE ENERGY PREDICTED BY IDOCK:   -3.59 KCAL/MOL
REMARK 922        TOTAL FREE ENERGY PREDICTED BY IDOCK:   -5.23 KCAL/MOL
REMARK 923 INTER-LIGAND FREE ENERGY PREDICTED BY IDOCK:   -4.76 KCAL/MOL
REMARK 924 INTRA-LIGAND FREE ENERGY PREDICTED BY IDOCK:   -0.47 KCAL/MOL
REMARK 927      BINDING AFFINITY PREDICTED BY RF-SCORE:    0.00 PKD
ROOT
HETATM    1 CL   UNL     1      -6.593  21.114  66.660  1.00  0.00    -0.354 Cl 
HETATM    2  C   UNL     1      -7.448  19.835  67.561  1.00  0.00    -0.271 C  
HETATM    3  C   UNL     1      -7.988  18.779  66.603  1.00  0.00    -0.266 C  
ENDROOT
BRANCH   3   4
HETATM    4  N   UNL     1      -8.734  17.720  67.290  1.00  0.00    -0.234 N  
BRANCH   4   5
HETATM    5  N   UNL     1      -8.181  17.060  68.394  1.00  0.00    -0.240 NA 
HETATM    6  H   UNL     1      -8.487  17.231  69.352  1.00  0.00     0.000 HD 
HETATM    7  O   UNL     1      -7.289  16.254  68.107  1.00  0.00    -0.134 OA 
HETATM    8  H   UNL     1      -6.913  15.807  68.856  1.00  0.00     0.000 HD 
ENDBRANCH   4   5
BRANCH   4   9
HETATM    9  C   UNL     1     -10.067  17.508  66.944  1.00  0.00    -0.324 C  
HETATM   10  O   UNL     1     -10.996  17.994  67.592  1.00  0.00    -0.323 OA 
BRANCH   9  11
HETATM   11  N   UNL     1     -10.299  16.688  65.857  1.00  0.00    -0.354 N  
HETATM   12  H   UNL     1     -10.735  17.084  65.024  1.00  0.00     0.000 HD 
BRANCH  11  13
HETATM   13  C   UNL     1      -9.937  15.271  65.861  1.00  0.00    -0.340 C  
HETATM   14  C   UNL     1     -10.386  14.552  67.140  1.00  0.00    -0.265 C  
HETATM   15  C   UNL     1     -11.898  14.337  67.212  1.00  0.00    -0.444 C  
HETATM   16  C   UNL     1     -12.477  13.704  65.951  1.00  0.00    -0.502 C  
HETATM   17  C   UNL     1     -12.005  14.379  64.666  1.00  0.00    -0.475 C  
HETATM   18  C   UNL     1     -10.490  14.561  64.622  1.00  0.00    -0.240 C  
ENDBRANCH  11  13
ENDBRANCH   9  11
ENDBRANCH   4   9
ENDBRANCH   3   4
TORSDOF 5
ENDMDL
MODEL      149
REMARK 921   NORMALIZED FREE ENERGY PREDICTED BY IDOCK:   -3.58 KCAL/MOL
REMARK 922        TOTAL FREE ENERGY PREDICTED BY IDOCK:   -5.22 KCAL/MOL
REMARK 923 INTER-LIGAND FREE ENERGY PREDICTED BY IDOCK:   -4.66 KCAL/MOL
REMARK 924 INTRA-LIGAND FREE ENERGY PREDICTED BY IDOCK:   -0.56 KCAL/MOL
REMARK 927      BINDING AFFINITY PREDICTED BY RF-SCORE:    0.00 PKD
ROOT
HETATM    1 CL   UNL     1     -10.432  18.746  66.858  1.00  0.00    -0.444 Cl 
HETATM    2  C   UNL     1     -10.401  17.200  65.969  1.00  0.00    -0.309 C  
HETATM    3  C   UNL     1     -10.596  16.031  66.928  1.00  0.00    -0.300 C  
ENDROOT
BRANCH   3   4
HETATM    4  N   UNL     1     -10.541  14.730  66.252  1.00  0.00    -0.297 N  
BRANCH   4   5
HETATM    5  N   UNL     1      -9.591  14.486  65.253  1.00  0.00    -0.480 NA 
HETATM    6  H   UNL     1      -8.643  14.860  65.287  1.00  0.00     0.000 HD 
HETATM    7  O   UNL     1     -10.002  13.779  64.327  1.00  0.00    -0.742 OA 
HETATM    8  H   UNL     1      -9.358  13.613  63.649  1.00  0.00     0.000 HD 
ENDBRANCH   4   5
BRANCH   4   9
HETATM    9  C   UNL     1     -11.323  13.687  66.745  1.00  0.00    -0.328 C  
HETATM   10  O   UNL     1     -12.476  13.864  67.140  1.00  0.00    -0.289 OA 
BRANCH   9  11
HETATM   11  N   UNL     1     -10.722  12.444  66.806  1.00  0.00    -0.230 N  
HETATM   12  H   UNL     1     -10.611  11.907  65.947  1.00  0.00     0.000 HD 
BRANCH  11  13
HETATM   13  C   UNL     1     -10.241  11.876  68.065  1.00  0.00    -0.192 C  
HETATM   14  C   UNL     1     -10.998  10.603  68.464  1.00  0.00    -0.296 C  
HETATM   15  C   UNL     1     -10.651   9.395  67.593  1.00  0.00    -0.333 C  
HETATM   16  C   UNL     1      -9.150   9.163  67.456  1.00  0.00    -0.137 C  
HETATM   17  C   UNL     1      -8.374  10.428  67.103  1.00  0.00    -0.126 C  
HETATM   18  C   UNL     1      -8.734  11.608  68.004  1.00  0.00    -0.157 C  
ENDBRANCH  11  13
ENDBRANCH   9  11
ENDBRANCH   4   9
ENDBRANCH   3   4
TORSDOF 5
ENDMDL
MODEL      150
REMARK 921   NORMALIZED FREE ENERGY PREDICTED BY IDOCK:   -3.57 KCAL/MOL
REMARK 922        TOTAL FREE ENERGY PREDICTED BY IDOCK:   -5.21 KCAL/MOL
REMARK 923 INTER-LIGAND FREE ENERGY PREDICTED BY IDOCK:   -4.63 KCAL/MOL
REMARK 924 INTRA-LIGAND FREE ENERGY PREDICTED BY IDOCK:   -0.58 KCAL/MOL
REMARK 927      BINDING AFFINITY PREDICTED BY RF-SCORE:    0.00 PKD
ROOT
HETATM    1 CL   UNL     1     -10.028   9.365  66.646  1.00  0.00    -0.302 Cl 
HETATM    2  C   UNL     1     -10.423  11.041  66.182  1.00  0.00    -0.244 C  
HETATM    3  C   UNL     1      -9.150  11.871  66.052  1.00  0.00    -0.119 C  
ENDROOT
BRANCH   3   4
HETATM    4  N   UNL     1      -9.421  13.271  65.708  1.00  0.00    -0.037 N  
BRANCH   4   5
HETATM    5  N   UNL     1      -9.955  13.606  64.458  1.00  0.00    -0.666 NA 
HETATM    6  H   UNL     1      -9.552  13.282  63.578  1.00  0.00     0.000 HD 
HETATM    7  O   UNL     1     -10.956  14.328  64.512  1.00  0.00    -0.525 OA 
HETATM    8  H   UNL     1     -11.318  14.556  63.665  1.00  0.00     0.000 HD 
ENDBRANCH   4   5
BRANCH   4   9
HETATM    9  C   UNL     1      -9.313  14.238  66.705  1.00  0.00    -0.284 C  
HETATM   10  O   UNL     1      -8.622  15.248  66.565  1.00  0.00    -0.276 OA 
BRANCH   9  11
HETATM   11  N   UNL     1      -9.991  13.986  67.882  1.00  0.00    -0.232 N  
HETATM   12  H   UNL     1      -9.469  13.647  68.690  1.00  0.00     0.000 HD 
BRANCH  11  13
HETATM   13  C   UNL     1     -11.434  14.191  68.007  1.00  0.00    -0.312 C  
HETATM   14  C   UNL     1     -12.139  13.011  68.689  1.00  0.00    -0.189 C  
HETATM   15  C   UNL     1     -11.855  12.922  70.188  1.00  0.00    -0.319 C  
HETATM   16  C   UNL     1     -12.077  14.241  70.922  1.00  0.00    -0.417 C  
HETATM   17  C   UNL     1     -11.420  15.433  70.234  1.00  0.00    -0.339 C  
HETATM   18  C   UNL     1     -11.740  15.499  68.742  1.00  0.00    -0.372 C  
ENDBRANCH  11  13
ENDBRANCH   9  11
ENDBRANCH   4   9
ENDBRANCH   3   4
TORSDOF 5
ENDMDL
MODEL      151
REMARK 921   NORMALIZED FREE ENERGY PREDICTED BY IDOCK:   -3.57 KCAL/MOL
REMARK 922        TOTAL FREE ENERGY PREDICTED BY IDOCK:   -5.21 KCAL/MOL
REMARK 923 INTER-LIGAND FREE ENERGY PREDICTED BY IDOCK:   -4.60 KCAL/MOL
REMARK 924 INTRA-LIGAND FREE ENERGY PREDICTED BY IDOCK:   -0.61 KCAL/MOL
REMARK 927      BINDING AFFINITY PREDICTED BY RF-SCORE:    0.00 PKD
ROOT
HETATM    1 CL   UNL     1      -9.619   8.560  66.359  1.00  0.00    -0.296 Cl 
HETATM    2  C   UNL     1     -10.467   8.871  67.896  1.00  0.00    -0.223 C  
HETATM    3  C   UNL     1     -10.948  10.317  67.955  1.00  0.00    -0.289 C  
ENDROOT
BRANCH   3   4
HETATM    4  N   UNL     1     -11.622  10.638  69.218  1.00  0.00    -0.278 N  
BRANCH   4   5
HETATM    5  N   UNL     1     -11.808   9.654  70.196  1.00  0.00    -0.457 NA 
HETATM    6  H   UNL     1     -12.359   8.810  70.035  1.00  0.00     0.000 HD 
HETATM    7  O   UNL     1     -11.247   9.895  71.270  1.00  0.00    -0.361 OA 
HETATM    8  H   UNL     1     -11.374   9.228  71.933  1.00  0.00     0.000 HD 
ENDBRANCH   4   5
BRANCH   4   9
HETATM    9  C   UNL     1     -11.906  11.972  69.504  1.00  0.00    -0.326 C  
HETATM   10  O   UNL     1     -12.276  12.336  70.621  1.00  0.00    -0.371 OA 
BRANCH   9  11
HETATM   11  N   UNL     1     -11.791  12.864  68.456  1.00  0.00    -0.323 N  
HETATM   12  H   UNL     1     -12.270  12.659  67.579  1.00  0.00     0.000 HD 
BRANCH  11  13
HETATM   13  C   UNL     1     -11.005  14.092  68.563  1.00  0.00    -0.254 C  
HETATM   14  C   UNL     1      -9.506  13.854  68.336  1.00  0.00    -0.211 C  
HETATM   15  C   UNL     1      -9.155  13.560  66.878  1.00  0.00    -0.246 C  
HETATM   16  C   UNL     1      -9.740  14.576  65.902  1.00  0.00    -0.324 C  
HETATM   17  C   UNL     1     -11.221  14.859  66.140  1.00  0.00    -0.325 C  
HETATM   18  C   UNL     1     -11.530  15.165  67.604  1.00  0.00    -0.319 C  
ENDBRANCH  11  13
ENDBRANCH   9  11
ENDBRANCH   4   9
ENDBRANCH   3   4
TORSDOF 5
ENDMDL
MODEL      152
REMARK 921   NORMALIZED FREE ENERGY PREDICTED BY IDOCK:   -3.56 KCAL/MOL
REMARK 922        TOTAL FREE ENERGY PREDICTED BY IDOCK:   -5.20 KCAL/MOL
REMARK 923 INTER-LIGAND FREE ENERGY PREDICTED BY IDOCK:   -4.70 KCAL/MOL
REMARK 924 INTRA-LIGAND FREE ENERGY PREDICTED BY IDOCK:   -0.50 KCAL/MOL
REMARK 927      BINDING AFFINITY PREDICTED BY RF-SCORE:    0.00 PKD
ROOT
HETATM    1 CL   UNL     1     -10.582   9.732  67.673  1.00  0.00    -0.313 Cl 
HETATM    2  C   UNL     1     -10.509  11.513  67.693  1.00  0.00    -0.189 C  
HETATM    3  C   UNL     1     -11.588  12.100  66.790  1.00  0.00    -0.345 C  
ENDROOT
BRANCH   3   4
HETATM    4  N   UNL     1     -11.549  13.566  66.741  1.00  0.00    -0.345 N  
BRANCH   4   5
HETATM    5  N   UNL     1     -12.523  14.326  67.398  1.00  0.00    -0.534 NA 
HETATM    6  H   UNL     1     -13.258  14.833  66.904  1.00  0.00     0.000 HD 
HETATM    7  O   UNL     1     -12.414  14.332  68.629  1.00  0.00    -0.568 OA 
HETATM    8  H   UNL     1     -13.075  14.848  69.076  1.00  0.00     0.000 HD 
ENDBRANCH   4   5
BRANCH   4   9
HETATM    9  C   UNL     1     -10.430  14.187  66.189  1.00  0.00    -0.296 C  
HETATM   10  O   UNL     1     -10.161  14.103  64.990  1.00  0.00    -0.383 OA 
BRANCH   9  11
HETATM   11  N   UNL     1      -9.611  14.871  67.066  1.00  0.00    -0.231 N  
HETATM   12  H   UNL     1      -8.891  14.357  67.572  1.00  0.00     0.000 HD 
BRANCH  11  13
HETATM   13  C   UNL     1      -9.745  16.310  67.292  1.00  0.00    -0.237 C  
HETATM   14  C   UNL     1      -9.300  16.730  68.699  1.00  0.00    -0.252 C  
HETATM   15  C   UNL     1      -7.786  16.672  68.896  1.00  0.00    -0.239 C  
HETATM   16  C   UNL     1      -7.008  17.391  67.798  1.00  0.00    -0.173 C  
HETATM   17  C   UNL     1      -7.467  17.019  66.391  1.00  0.00    -0.336 C  
HETATM   18  C   UNL     1      -8.983  17.105  66.227  1.00  0.00    -0.262 C  
ENDBRANCH  11  13
ENDBRANCH   9  11
ENDBRANCH   4   9
ENDBRANCH   3   4
TORSDOF 5
ENDMDL
MODEL      153
REMARK 921   NORMALIZED FREE ENERGY PREDICTED BY IDOCK:   -3.56 KCAL/MOL
REMARK 922        TOTAL FREE ENERGY PREDICTED BY IDOCK:   -5.19 KCAL/MOL
REMARK 923 INTER-LIGAND FREE ENERGY PREDICTED BY IDOCK:   -4.55 KCAL/MOL
REMARK 924 INTRA-LIGAND FREE ENERGY PREDICTED BY IDOCK:   -0.64 KCAL/MOL
REMARK 927      BINDING AFFINITY PREDICTED BY RF-SCORE:    0.00 PKD
ROOT
HETATM    1 CL   UNL     1     -14.217   8.972  72.436  1.00  0.00    -0.489 Cl 
HETATM    2  C   UNL     1     -12.991   9.982  71.626  1.00  0.00    -0.449 C  
HETATM    3  C   UNL     1     -11.916   9.107  70.990  1.00  0.00    -0.282 C  
ENDROOT
BRANCH   3   4
HETATM    4  N   UNL     1     -10.860   9.890  70.340  1.00  0.00    -0.298 N  
BRANCH   4   5
HETATM    5  N   UNL     1     -11.087  11.221  69.969  1.00  0.00    -0.477 NA 
HETATM    6  H   UNL     1     -11.917  11.742  70.254  1.00  0.00     0.000 HD 
HETATM    7  O   UNL     1     -10.196  11.709  69.266  1.00  0.00    -0.422 OA 
HETATM    8  H   UNL     1     -10.350  12.611  69.014  1.00  0.00     0.000 HD 
ENDBRANCH   4   5
BRANCH   4   9
HETATM    9  C   UNL     1      -9.577   9.352  70.266  1.00  0.00    -0.249 C  
HETATM   10  O   UNL     1      -8.818   9.337  71.236  1.00  0.00    -0.290 OA 
BRANCH   9  11
HETATM   11  N   UNL     1      -9.182   8.871  69.033  1.00  0.00    -0.140 N  
HETATM   12  H   UNL     1      -9.232   9.489  68.223  1.00  0.00     0.000 HD 
BRANCH  11  13
HETATM   13  C   UNL     1      -8.696   7.504  68.852  1.00  0.00    -0.132 C  
HETATM   14  C   UNL     1      -9.592   6.463  69.536  1.00  0.00    -0.154 C  
HETATM   15  C   UNL     1     -10.930   6.258  68.825  1.00  0.00    -0.424 C  
HETATM   16  C   UNL     1     -10.784   6.009  67.327  1.00  0.00    -0.400 C  
HETATM   17  C   UNL     1      -9.860   7.008  66.637  1.00  0.00    -0.223 C  
HETATM   18  C   UNL     1      -8.527   7.174  67.365  1.00  0.00    -0.122 C  
ENDBRANCH  11  13
ENDBRANCH   9  11
ENDBRANCH   4   9
ENDBRANCH   3   4
TORSDOF 5
ENDMDL
MODEL      154
REMARK 921   NORMALIZED FREE ENERGY PREDICTED BY IDOCK:   -3.55 KCAL/MOL
REMARK 922        TOTAL FREE ENERGY PREDICTED BY IDOCK:   -5.18 KCAL/MOL
REMARK 923 INTER-LIGAND FREE ENERGY PREDICTED BY IDOCK:   -4.59 KCAL/MOL
REMARK 924 INTRA-LIGAND FREE ENERGY PREDICTED BY IDOCK:   -0.59 KCAL/MOL
REMARK 927      BINDING AFFINITY PREDICTED BY RF-SCORE:    0.00 PKD
ROOT
HETATM    1 CL   UNL     1      -6.851  13.519  67.712  1.00  0.00    -0.150 Cl 
HETATM    2  C   UNL     1      -8.349  12.906  68.461  1.00  0.00    -0.054 C  
HETATM    3  C   UNL     1      -9.464  12.819  67.426  1.00  0.00    -0.190 C  
ENDROOT
BRANCH   3   4
HETATM    4  N   UNL     1     -10.732  12.354  67.998  1.00  0.00    -0.216 N  
BRANCH   4   5
HETATM    5  N   UNL     1     -10.875  11.031  68.432  1.00  0.00    -0.203 NA 
HETATM    6  H   UNL     1     -10.153  10.540  68.961  1.00  0.00     0.000 HD 
HETATM    7  O   UNL     1     -11.950  10.508  68.119  1.00  0.00    -0.788 OA 
HETATM    8  H   UNL     1     -12.046   9.611  68.414  1.00  0.00     0.000 HD 
ENDBRANCH   4   5
BRANCH   4   9
HETATM    9  C   UNL     1     -11.726  13.291  68.272  1.00  0.00    -0.353 C  
HETATM   10  O   UNL     1     -11.936  14.256  67.536  1.00  0.00    -0.389 OA 
BRANCH   9  11
HETATM   11  N   UNL     1     -12.441  13.106  69.440  1.00  0.00     0.025 N  
HETATM   12  H   UNL     1     -13.375  12.698  69.387  1.00  0.00     0.000 HD 
BRANCH  11  13
HETATM   13  C   UNL     1     -11.902  13.475  70.748  1.00  0.00    -0.034 C  
HETATM   14  C   UNL     1     -11.677  14.986  70.887  1.00  0.00    -0.376 C  
HETATM   15  C   UNL     1     -12.976  15.781  71.013  1.00  0.00    -0.377 C  
HETATM   16  C   UNL     1     -13.918  15.230  72.079  1.00  0.00    -0.645 C  
HETATM   17  C   UNL     1     -14.120  13.721  71.983  1.00  0.00    -0.522 C  
HETATM   18  C   UNL     1     -12.801  12.959  71.876  1.00  0.00    -0.315 C  
ENDBRANCH  11  13
ENDBRANCH   9  11
ENDBRANCH   4   9
ENDBRANCH   3   4
TORSDOF 5
ENDMDL
MODEL      155
REMARK 921   NORMALIZED FREE ENERGY PREDICTED BY IDOCK:   -3.54 KCAL/MOL
REMARK 922        TOTAL FREE ENERGY PREDICTED BY IDOCK:   -5.17 KCAL/MOL
REMARK 923 INTER-LIGAND FREE ENERGY PREDICTED BY IDOCK:   -4.53 KCAL/MOL
REMARK 924 INTRA-LIGAND FREE ENERGY PREDICTED BY IDOCK:   -0.64 KCAL/MOL
REMARK 927      BINDING AFFINITY PREDICTED BY RF-SCORE:    0.00 PKD
ROOT
HETATM    1 CL   UNL     1     -12.407   8.644  71.763  1.00  0.00    -0.373 Cl 
HETATM    2  C   UNL     1     -11.704  10.130  71.073  1.00  0.00    -0.382 C  
HETATM    3  C   UNL     1     -12.518  10.596  69.871  1.00  0.00    -0.173 C  
ENDROOT
BRANCH   3   4
HETATM    4  N   UNL     1     -11.960  11.797  69.241  1.00  0.00    -0.307 N  
BRANCH   4   5
HETATM    5  N   UNL     1     -11.472  12.851  70.023  1.00  0.00    -0.523 NA 
HETATM    6  H   UNL     1     -11.799  13.034  70.972  1.00  0.00     0.000 HD 
HETATM    7  O   UNL     1     -10.611  13.539  69.465  1.00  0.00    -0.433 OA 
HETATM    8  H   UNL     1     -10.280  14.253  69.996  1.00  0.00     0.000 HD 
ENDBRANCH   4   5
BRANCH   4   9
HETATM    9  C   UNL     1     -11.754  11.796  67.863  1.00  0.00    -0.276 C  
HETATM   10  O   UNL     1     -12.232  12.662  67.129  1.00  0.00    -0.445 OA 
BRANCH   9  11
HETATM   11  N   UNL     1     -11.017  10.744  67.352  1.00  0.00    -0.293 N  
HETATM   12  H   UNL     1     -11.487   9.860  67.160  1.00  0.00     0.000 HD 
BRANCH  11  13
HETATM   13  C   UNL     1      -9.585  10.859  67.079  1.00  0.00    -0.173 C  
HETATM   14  C   UNL     1      -8.817   9.573  67.412  1.00  0.00    -0.134 C  
HETATM   15  C   UNL     1      -9.083   8.438  66.423  1.00  0.00    -0.231 C  
HETATM   16  C   UNL     1      -8.918   8.858  64.966  1.00  0.00    -0.160 C  
HETATM   17  C   UNL     1      -9.639  10.159  64.627  1.00  0.00    -0.379 C  
HETATM   18  C   UNL     1      -9.336  11.274  65.626  1.00  0.00    -0.245 C  
ENDBRANCH  11  13
ENDBRANCH   9  11
ENDBRANCH   4   9
ENDBRANCH   3   4
TORSDOF 5
ENDMDL
MODEL      156
REMARK 921   NORMALIZED FREE ENERGY PREDICTED BY IDOCK:   -3.54 KCAL/MOL
REMARK 922        TOTAL FREE ENERGY PREDICTED BY IDOCK:   -5.17 KCAL/MOL
REMARK 923 INTER-LIGAND FREE ENERGY PREDICTED BY IDOCK:   -4.82 KCAL/MOL
REMARK 924 INTRA-LIGAND FREE ENERGY PREDICTED BY IDOCK:   -0.35 KCAL/MOL
REMARK 927      BINDING AFFINITY PREDICTED BY RF-SCORE:    0.00 PKD
ROOT
HETATM    1 CL   UNL     1     -13.333  13.842  71.748  1.00  0.00    -0.442 Cl 
HETATM    2  C   UNL     1     -12.982  12.253  71.018  1.00  0.00    -0.064 C  
HETATM    3  C   UNL     1     -13.129  11.146  72.056  1.00  0.00    -0.328 C  
ENDROOT
BRANCH   3   4
HETATM    4  N   UNL     1     -12.815   9.819  71.516  1.00  0.00    -0.374 N  
BRANCH   4   5
HETATM    5  N   UNL     1     -13.840   8.929  71.173  1.00  0.00    -0.588 NA 
HETATM    6  H   UNL     1     -14.200   8.839  70.223  1.00  0.00     0.000 HD 
HETATM    7  O   UNL     1     -14.271   8.264  72.121  1.00  0.00    -0.480 OA 
HETATM    8  H   UNL     1     -14.966   7.660  71.888  1.00  0.00     0.000 HD 
ENDBRANCH   4   5
BRANCH   4   9
HETATM    9  C   UNL     1     -11.495   9.529  71.179  1.00  0.00    -0.360 C  
HETATM   10  O   UNL     1     -11.015   9.840  70.087  1.00  0.00    -0.250 OA 
BRANCH   9  11
HETATM   11  N   UNL     1     -10.757   8.836  72.119  1.00  0.00    -0.343 N  
HETATM   12  H   UNL     1     -10.768   9.155  73.088  1.00  0.00     0.000 HD 
BRANCH  11  13
HETATM   13  C   UNL     1      -9.961   7.660  71.770  1.00  0.00    -0.172 C  
HETATM   14  C   UNL     1      -9.144   7.129  72.955  1.00  0.00    -0.164 C  
HETATM   15  C   UNL     1      -9.999   6.440  74.018  1.00  0.00    -0.301 C  
HETATM   16  C   UNL     1     -10.945   5.390  73.443  1.00  0.00    -0.349 C  
HETATM   17  C   UNL     1     -11.735   5.887  72.236  1.00  0.00    -0.309 C  
HETATM   18  C   UNL     1     -10.846   6.553  71.188  1.00  0.00    -0.296 C  
ENDBRANCH  11  13
ENDBRANCH   9  11
ENDBRANCH   4   9
ENDBRANCH   3   4
TORSDOF 5
ENDMDL
MODEL      157
REMARK 921   NORMALIZED FREE ENERGY PREDICTED BY IDOCK:   -3.53 KCAL/MOL
REMARK 922        TOTAL FREE ENERGY PREDICTED BY IDOCK:   -5.16 KCAL/MOL
REMARK 923 INTER-LIGAND FREE ENERGY PREDICTED BY IDOCK:   -4.57 KCAL/MOL
REMARK 924 INTRA-LIGAND FREE ENERGY PREDICTED BY IDOCK:   -0.59 KCAL/MOL
REMARK 927      BINDING AFFINITY PREDICTED BY RF-SCORE:    0.00 PKD
ROOT
HETATM    1 CL   UNL     1     -11.151   5.391  72.416  1.00  0.00    -0.302 Cl 
HETATM    2  C   UNL     1     -11.372   7.148  72.211  1.00  0.00    -0.265 C  
HETATM    3  C   UNL     1     -11.260   7.530  70.739  1.00  0.00    -0.270 C  
ENDROOT
BRANCH   3   4
HETATM    4  N   UNL     1     -11.397   8.973  70.516  1.00  0.00    -0.259 N  
BRANCH   4   5
HETATM    5  N   UNL     1     -12.637   9.604  70.679  1.00  0.00    -0.507 NA 
HETATM    6  H   UNL     1     -13.476   9.314  70.177  1.00  0.00     0.000 HD 
HETATM    7  O   UNL     1     -12.626  10.542  71.483  1.00  0.00    -0.382 OA 
HETATM    8  H   UNL     1     -13.466  10.970  71.593  1.00  0.00     0.000 HD 
ENDBRANCH   4   5
BRANCH   4   9
HETATM    9  C   UNL     1     -10.245   9.733  70.324  1.00  0.00    -0.289 C  
HETATM   10  O   UNL     1      -9.152   9.391  70.777  1.00  0.00    -0.245 OA 
BRANCH   9  11
HETATM   11  N   UNL     1     -10.399  10.918  69.630  1.00  0.00    -0.444 N  
HETATM   12  H   UNL     1     -10.636  11.765  70.146  1.00  0.00     0.000 HD 
BRANCH  11  13
HETATM   13  C   UNL     1     -10.234  10.996  68.179  1.00  0.00    -0.182 C  
HETATM   14  C   UNL     1     -11.489  11.522  67.470  1.00  0.00    -0.355 C  
HETATM   15  C   UNL     1     -11.724  13.016  67.689  1.00  0.00    -0.415 C  
HETATM   16  C   UNL     1     -10.491  13.868  67.405  1.00  0.00    -0.263 C  
HETATM   17  C   UNL     1      -9.224  13.335  68.066  1.00  0.00    -0.217 C  
HETATM   18  C   UNL     1      -9.013  11.844  67.811  1.00  0.00    -0.173 C  
ENDBRANCH  11  13
ENDBRANCH   9  11
ENDBRANCH   4   9
ENDBRANCH   3   4
TORSDOF 5
ENDMDL
MODEL      158
REMARK 921   NORMALIZED FREE ENERGY PREDICTED BY IDOCK:   -3.53 KCAL/MOL
REMARK 922        TOTAL FREE ENERGY PREDICTED BY IDOCK:   -5.15 KCAL/MOL
REMARK 923 INTER-LIGAND FREE ENERGY PREDICTED BY IDOCK:   -4.49 KCAL/MOL
REMARK 924 INTRA-LIGAND FREE ENERGY PREDICTED BY IDOCK:   -0.66 KCAL/MOL
REMARK 927      BINDING AFFINITY PREDICTED BY RF-SCORE:    0.00 PKD
ROOT
HETATM    1 CL   UNL     1      -7.183   8.760  68.571  1.00  0.00    -0.073 Cl 
HETATM    2  C   UNL     1      -8.108  10.022  67.714  1.00  0.00    -0.109 C  
HETATM    3  C   UNL     1      -9.463   9.480  67.272  1.00  0.00    -0.136 C  
ENDROOT
BRANCH   3   4
HETATM    4  N   UNL     1     -10.251  10.468  66.528  1.00  0.00    -0.224 N  
BRANCH   4   5
HETATM    5  N   UNL     1     -10.344  10.400  65.133  1.00  0.00    -0.261 NA 
HETATM    6  H   UNL     1     -10.711   9.585  64.641  1.00  0.00     0.000 HD 
HETATM    7  O   UNL     1      -9.944  11.413  64.550  1.00  0.00    -0.242 OA 
HETATM    8  H   UNL     1     -10.007  11.367  63.603  1.00  0.00     0.000 HD 
ENDBRANCH   4   5
BRANCH   4   9
HETATM    9  C   UNL     1     -11.052  11.358  67.241  1.00  0.00    -0.303 C  
HETATM   10  O   UNL     1     -12.015  10.981  67.910  1.00  0.00    -0.620 OA 
BRANCH   9  11
HETATM   11  N   UNL     1     -10.735  12.698  67.125  1.00  0.00    -0.239 N  
HETATM   12  H   UNL     1      -9.755  12.968  67.045  1.00  0.00     0.000 HD 
BRANCH  11  13
HETATM   13  C   UNL     1     -11.760  13.741  67.115  1.00  0.00    -0.385 C  
HETATM   14  C   UNL     1     -11.321  15.007  67.862  1.00  0.00    -0.344 C  
HETATM   15  C   UNL     1     -10.258  15.812  67.115  1.00  0.00    -0.279 C  
HETATM   16  C   UNL     1     -10.627  16.090  65.660  1.00  0.00    -0.392 C  
HETATM   17  C   UNL     1     -11.109  14.851  64.913  1.00  0.00    -0.424 C  
HETATM   18  C   UNL     1     -12.181  14.082  65.682  1.00  0.00    -0.462 C  
ENDBRANCH  11  13
ENDBRANCH   9  11
ENDBRANCH   4   9
ENDBRANCH   3   4
TORSDOF 5
ENDMDL
MODEL      159
REMARK 921   NORMALIZED FREE ENERGY PREDICTED BY IDOCK:   -3.52 KCAL/MOL
REMARK 922        TOTAL FREE ENERGY PREDICTED BY IDOCK:   -5.15 KCAL/MOL
REMARK 923 INTER-LIGAND FREE ENERGY PREDICTED BY IDOCK:   -4.51 KCAL/MOL
REMARK 924 INTRA-LIGAND FREE ENERGY PREDICTED BY IDOCK:   -0.63 KCAL/MOL
REMARK 927      BINDING AFFINITY PREDICTED BY RF-SCORE:    0.00 PKD
ROOT
HETATM    1 CL   UNL     1      -9.666  18.377  67.386  1.00  0.00    -0.297 Cl 
HETATM    2  C   UNL     1     -10.745  17.053  67.898  1.00  0.00    -0.348 C  
HETATM    3  C   UNL     1     -10.541  16.741  69.376  1.00  0.00    -0.318 C  
ENDROOT
BRANCH   3   4
HETATM    4  N   UNL     1     -11.380  15.632  69.841  1.00  0.00    -0.306 N  
BRANCH   4   5
HETATM    5  N   UNL     1     -12.374  15.846  70.803  1.00  0.00    -0.486 NA 
HETATM    6  H   UNL     1     -12.170  16.176  71.747  1.00  0.00     0.000 HD 
HETATM    7  O   UNL     1     -13.519  15.599  70.411  1.00  0.00    -0.804 OA 
HETATM    8  H   UNL     1     -14.194  15.744  71.063  1.00  0.00     0.000 HD 
ENDBRANCH   4   5
BRANCH   4   9
HETATM    9  C   UNL     1     -11.297  14.408  69.180  1.00  0.00    -0.277 C  
HETATM   10  O   UNL     1     -12.283  13.871  68.672  1.00  0.00    -0.345 OA 
BRANCH   9  11
HETATM   11  N   UNL     1     -10.055  13.803  69.158  1.00  0.00    -0.428 N  
HETATM   12  H   UNL     1      -9.598  13.581  70.042  1.00  0.00     0.000 HD 
BRANCH  11  13
HETATM   13  C   UNL     1      -9.374  13.473  67.907  1.00  0.00    -0.215 C  
HETATM   14  C   UNL     1      -7.945  14.029  67.848  1.00  0.00    -0.158 C  
HETATM   15  C   UNL     1      -6.972  13.291  68.766  1.00  0.00    -0.103 C  
HETATM   16  C   UNL     1      -7.016  11.776  68.597  1.00  0.00    -0.093 C  
HETATM   17  C   UNL     1      -8.433  11.209  68.608  1.00  0.00    -0.153 C  
HETATM   18  C   UNL     1      -9.372  11.960  67.667  1.00  0.00    -0.183 C  
ENDBRANCH  11  13
ENDBRANCH   9  11
ENDBRANCH   4   9
ENDBRANCH   3   4
TORSDOF 5
ENDMDL
MODEL      160
REMARK 921   NORMALIZED FREE ENERGY PREDICTED BY IDOCK:   -3.51 KCAL/MOL
REMARK 922        TOTAL FREE ENERGY PREDICTED BY IDOCK:   -5.13 KCAL/MOL
REMARK 923 INTER-LIGAND FREE ENERGY PREDICTED BY IDOCK:   -5.12 KCAL/MOL
REMARK 924 INTRA-LIGAND FREE ENERGY PREDICTED BY IDOCK:   -0.01 KCAL/MOL
REMARK 927      BINDING AFFINITY PREDICTED BY RF-SCORE:    0.00 PKD
ROOT
HETATM    1 CL   UNL     1     -12.228  12.170  70.364  1.00  0.00    -0.410 Cl 
HETATM    2  C   UNL     1     -11.696  12.581  68.713  1.00  0.00    -0.327 C  
HETATM    3  C   UNL     1     -12.015  14.038  68.398  1.00  0.00    -0.343 C  
ENDROOT
BRANCH   3   4
HETATM    4  N   UNL     1     -11.630  14.420  67.035  1.00  0.00    -0.369 N  
BRANCH   4   5
HETATM    5  N   UNL     1     -10.515  15.238  66.813  1.00  0.00    -0.287 NA 
HETATM    6  H   UNL     1      -9.687  14.921  66.308  1.00  0.00     0.000 HD 
HETATM    7  O   UNL     1     -10.621  16.376  67.282  1.00  0.00    -0.314 OA 
HETATM    8  H   UNL     1      -9.865  16.930  67.131  1.00  0.00     0.000 HD 
ENDBRANCH   4   5
BRANCH   4   9
HETATM    9  C   UNL     1     -12.275  13.810  65.962  1.00  0.00    -0.457 C  
HETATM   10  O   UNL     1     -13.362  14.208  65.540  1.00  0.00    -0.656 OA 
BRANCH   9  11
HETATM   11  N   UNL     1     -11.652  12.703  65.418  1.00  0.00    -0.344 N  
HETATM   12  H   UNL     1     -12.188  11.844  65.297  1.00  0.00     0.000 HD 
BRANCH  11  13
HETATM   13  C   UNL     1     -10.247  12.725  65.010  1.00  0.00    -0.272 C  
HETATM   14  C   UNL     1      -9.364  11.832  65.891  1.00  0.00    -0.214 C  
HETATM   15  C   UNL     1      -9.583  10.339  65.650  1.00  0.00    -0.289 C  
HETATM   16  C   UNL     1      -9.520   9.951  64.176  1.00  0.00    -0.254 C  
HETATM   17  C   UNL     1     -10.358  10.856  63.278  1.00  0.00    -0.242 C  
HETATM   18  C   UNL     1     -10.099  12.339  63.535  1.00  0.00    -0.344 C  
ENDBRANCH  11  13
ENDBRANCH   9  11
ENDBRANCH   4   9
ENDBRANCH   3   4
TORSDOF 5
ENDMDL
MODEL      161
REMARK 921   NORMALIZED FREE ENERGY PREDICTED BY IDOCK:   -3.50 KCAL/MOL
REMARK 922        TOTAL FREE ENERGY PREDICTED BY IDOCK:   -5.12 KCAL/MOL
REMARK 923 INTER-LIGAND FREE ENERGY PREDICTED BY IDOCK:   -4.57 KCAL/MOL
REMARK 924 INTRA-LIGAND FREE ENERGY PREDICTED BY IDOCK:   -0.55 KCAL/MOL
REMARK 927      BINDING AFFINITY PREDICTED BY RF-SCORE:    0.00 PKD
ROOT
HETATM    1 CL   UNL     1     -10.115  19.614  67.401  1.00  0.00    -0.499 Cl 
HETATM    2  C   UNL     1     -10.454  17.866  67.312  1.00  0.00    -0.366 C  
HETATM    3  C   UNL     1     -10.453  17.251  68.708  1.00  0.00    -0.340 C  
ENDROOT
BRANCH   3   4
HETATM    4  N   UNL     1     -10.691  15.804  68.689  1.00  0.00    -0.250 N  
BRANCH   4   5
HETATM    5  N   UNL     1     -11.965  15.296  68.412  1.00  0.00    -0.544 NA 
HETATM    6  H   UNL     1     -12.320  15.176  67.463  1.00  0.00     0.000 HD 
HETATM    7  O   UNL     1     -12.623  15.006  69.417  1.00  0.00    -0.579 OA 
HETATM    8  H   UNL     1     -13.488  14.661  69.229  1.00  0.00     0.000 HD 
ENDBRANCH   4   5
BRANCH   4   9
HETATM    9  C   UNL     1      -9.596  14.945  68.768  1.00  0.00    -0.214 C  
HETATM   10  O   UNL     1      -8.439  15.348  68.647  1.00  0.00    -0.151 OA 
BRANCH   9  11
HETATM   11  N   UNL     1      -9.879  13.605  68.949  1.00  0.00    -0.424 N  
HETATM   12  H   UNL     1     -10.430  13.322  69.759  1.00  0.00     0.000 HD 
BRANCH  11  13
HETATM   13  C   UNL     1      -9.412  12.579  68.017  1.00  0.00    -0.209 C  
HETATM   14  C   UNL     1      -8.552  11.509  68.700  1.00  0.00    -0.109 C  
HETATM   15  C   UNL     1      -9.358  10.566  69.593  1.00  0.00    -0.010 C  
HETATM   16  C   UNL     1     -10.581   9.977  68.898  1.00  0.00    -0.239 C  
HETATM   17  C   UNL     1     -11.426  11.022  68.174  1.00  0.00    -0.374 C  
HETATM   18  C   UNL     1     -10.589  11.933  67.279  1.00  0.00    -0.261 C  
ENDBRANCH  11  13
ENDBRANCH   9  11
ENDBRANCH   4   9
ENDBRANCH   3   4
TORSDOF 5
ENDMDL
MODEL      162
REMARK 921   NORMALIZED FREE ENERGY PREDICTED BY IDOCK:   -3.49 KCAL/MOL
REMARK 922        TOTAL FREE ENERGY PREDICTED BY IDOCK:   -5.11 KCAL/MOL
REMARK 923 INTER-LIGAND FREE ENERGY PREDICTED BY IDOCK:   -4.56 KCAL/MOL
REMARK 924 INTRA-LIGAND FREE ENERGY PREDICTED BY IDOCK:   -0.55 KCAL/MOL
REMARK 927      BINDING AFFINITY PREDICTED BY RF-SCORE:    0.00 PKD
ROOT
HETATM    1 CL   UNL     1     -10.562  16.805  65.102  1.00  0.00    -0.232 Cl 
HETATM    2  C   UNL     1     -10.526  15.638  66.450  1.00  0.00    -0.305 C  
HETATM    3  C   UNL     1      -9.691  16.184  67.604  1.00  0.00    -0.233 C  
ENDROOT
BRANCH   3   4
HETATM    4  N   UNL     1      -9.598  15.245  68.727  1.00  0.00    -0.205 N  
BRANCH   4   5
HETATM    5  N   UNL     1      -8.500  14.385  68.846  1.00  0.00    -0.300 NA 
HETATM    6  H   UNL     1      -8.309  13.635  68.182  1.00  0.00     0.000 HD 
HETATM    7  O   UNL     1      -7.783  14.613  69.826  1.00  0.00    -0.392 OA 
HETATM    8  H   UNL     1      -7.038  14.029  69.907  1.00  0.00     0.000 HD 
ENDBRANCH   4   5
BRANCH   4   9
HETATM    9  C   UNL     1     -10.519  15.352  69.767  1.00  0.00    -0.293 C  
HETATM   10  O   UNL     1     -10.870  16.442  70.221  1.00  0.00    -0.309 OA 
BRANCH   9  11
HETATM   11  N   UNL     1     -10.992  14.166  70.293  1.00  0.00    -0.430 N  
HETATM   12  H   UNL     1     -10.459  13.706  71.031  1.00  0.00     0.000 HD 
BRANCH  11  13
HETATM   13  C   UNL     1     -12.234  13.549  69.827  1.00  0.00    -0.269 C  
HETATM   14  C   UNL     1     -12.159  13.111  68.358  1.00  0.00    -0.216 C  
HETATM   15  C   UNL     1     -11.272  11.886  68.137  1.00  0.00    -0.316 C  
HETATM   16  C   UNL     1     -11.600  10.729  69.076  1.00  0.00    -0.370 C  
HETATM   17  C   UNL     1     -11.722  11.153  70.537  1.00  0.00    -0.392 C  
HETATM   18  C   UNL     1     -12.628  12.368  70.720  1.00  0.00    -0.298 C  
ENDBRANCH  11  13
ENDBRANCH   9  11
ENDBRANCH   4   9
ENDBRANCH   3   4
TORSDOF 5
ENDMDL
MODEL      163
REMARK 921   NORMALIZED FREE ENERGY PREDICTED BY IDOCK:   -3.49 KCAL/MOL
REMARK 922        TOTAL FREE ENERGY PREDICTED BY IDOCK:   -5.10 KCAL/MOL
REMARK 923 INTER-LIGAND FREE ENERGY PREDICTED BY IDOCK:   -4.72 KCAL/MOL
REMARK 924 INTRA-LIGAND FREE ENERGY PREDICTED BY IDOCK:   -0.38 KCAL/MOL
REMARK 927      BINDING AFFINITY PREDICTED BY RF-SCORE:    0.00 PKD
ROOT
HETATM    1 CL   UNL     1      -6.829  19.156  68.938  1.00  0.00    -0.342 Cl 
HETATM    2  C   UNL     1      -7.366  17.810  67.900  1.00  0.00    -0.215 C  
HETATM    3  C   UNL     1      -7.903  16.664  68.750  1.00  0.00    -0.238 C  
ENDROOT
BRANCH   3   4
HETATM    4  N   UNL     1      -8.325  15.512  67.945  1.00  0.00    -0.141 N  
BRANCH   4   5
HETATM    5  N   UNL     1      -7.647  14.291  68.039  1.00  0.00    -0.127 NA 
HETATM    6  H   UNL     1      -7.721  13.677  68.851  1.00  0.00     0.000 HD 
HETATM    7  O   UNL     1      -6.951  14.022  67.055  1.00  0.00    -0.384 OA 
HETATM    8  H   UNL     1      -6.491  13.194  67.119  1.00  0.00     0.000 HD 
ENDBRANCH   4   5
BRANCH   4   9
HETATM    9  C   UNL     1      -9.517  15.597  67.229  1.00  0.00    -0.216 C  
HETATM   10  O   UNL     1     -10.373  16.447  67.482  1.00  0.00    -0.275 OA 
BRANCH   9  11
HETATM   11  N   UNL     1      -9.711  14.650  66.242  1.00  0.00    -0.292 N  
HETATM   12  H   UNL     1      -9.321  14.816  65.315  1.00  0.00     0.000 HD 
BRANCH  11  13
HETATM   13  C   UNL     1     -10.458  13.416  66.485  1.00  0.00    -0.283 C  
HETATM   14  C   UNL     1     -11.972  13.650  66.566  1.00  0.00    -0.465 C  
HETATM   15  C   UNL     1     -12.608  13.964  65.211  1.00  0.00    -0.508 C  
HETATM   16  C   UNL     1     -12.227  12.965  64.122  1.00  0.00    -0.487 C  
HETATM   17  C   UNL     1     -10.728  12.687  64.057  1.00  0.00    -0.457 C  
HETATM   18  C   UNL     1     -10.132  12.360  65.424  1.00  0.00    -0.289 C  
ENDBRANCH  11  13
ENDBRANCH   9  11
ENDBRANCH   4   9
ENDBRANCH   3   4
TORSDOF 5
ENDMDL
MODEL      164
REMARK 921   NORMALIZED FREE ENERGY PREDICTED BY IDOCK:   -3.48 KCAL/MOL
REMARK 922        TOTAL FREE ENERGY PREDICTED BY IDOCK:   -5.09 KCAL/MOL
REMARK 923 INTER-LIGAND FREE ENERGY PREDICTED BY IDOCK:   -4.60 KCAL/MOL
REMARK 924 INTRA-LIGAND FREE ENERGY PREDICTED BY IDOCK:   -0.49 KCAL/MOL
REMARK 927      BINDING AFFINITY PREDICTED BY RF-SCORE:    0.00 PKD
ROOT
HETATM    1 CL   UNL     1     -10.066  14.309  65.911  1.00  0.00    -0.327 Cl 
HETATM    2  C   UNL     1     -10.079  12.860  66.949  1.00  0.00    -0.241 C  
HETATM    3  C   UNL     1     -11.265  11.967  66.600  1.00  0.00    -0.328 C  
ENDROOT
BRANCH   3   4
HETATM    4  N   UNL     1     -11.345  10.775  67.452  1.00  0.00    -0.251 N  
BRANCH   4   5
HETATM    5  N   UNL     1     -12.205  10.746  68.556  1.00  0.00    -0.822 NA 
HETATM    6  H   UNL     1     -13.194  10.505  68.483  1.00  0.00     0.000 HD 
HETATM    7  O   UNL     1     -11.663  11.038  69.627  1.00  0.00    -0.269 OA 
HETATM    8  H   UNL     1     -12.246  11.019  70.377  1.00  0.00     0.000 HD 
ENDBRANCH   4   5
BRANCH   4   9
HETATM    9  C   UNL     1     -10.696   9.613  67.040  1.00  0.00    -0.155 C  
HETATM   10  O   UNL     1     -10.021   9.571  66.010  1.00  0.00    -0.278 OA 
BRANCH   9  11
HETATM   11  N   UNL     1     -10.880   8.493  67.827  1.00  0.00    -0.495 N  
HETATM   12  H   UNL     1     -11.677   7.885  67.641  1.00  0.00     0.000 HD 
BRANCH  11  13
HETATM   13  C   UNL     1      -9.970   8.152  68.920  1.00  0.00    -0.192 C  
HETATM   14  C   UNL     1     -10.684   7.461  70.088  1.00  0.00    -0.254 C  
HETATM   15  C   UNL     1     -11.108   6.027  69.774  1.00  0.00    -0.476 C  
HETATM   16  C   UNL     1      -9.981   5.179  69.193  1.00  0.00    -0.273 C  
HETATM   17  C   UNL     1      -9.229   5.869  68.059  1.00  0.00    -0.112 C  
HETATM   18  C   UNL     1      -8.807   7.292  68.416  1.00  0.00    -0.128 C  
ENDBRANCH  11  13
ENDBRANCH   9  11
ENDBRANCH   4   9
ENDBRANCH   3   4
TORSDOF 5
ENDMDL
MODEL      165
REMARK 921   NORMALIZED FREE ENERGY PREDICTED BY IDOCK:   -3.46 KCAL/MOL
REMARK 922        TOTAL FREE ENERGY PREDICTED BY IDOCK:   -5.06 KCAL/MOL
REMARK 923 INTER-LIGAND FREE ENERGY PREDICTED BY IDOCK:   -4.52 KCAL/MOL
REMARK 924 INTRA-LIGAND FREE ENERGY PREDICTED BY IDOCK:   -0.54 KCAL/MOL
REMARK 927      BINDING AFFINITY PREDICTED BY RF-SCORE:    0.00 PKD
ROOT
HETATM    1 CL   UNL     1     -12.370  13.709  65.108  1.00  0.00    -0.453 Cl 
HETATM    2  C   UNL     1     -11.561  12.385  65.987  1.00  0.00    -0.401 C  
HETATM    3  C   UNL     1     -11.242  12.812  67.416  1.00  0.00    -0.294 C  
ENDROOT
BRANCH   3   4
HETATM    4  N   UNL     1     -10.541  11.770  68.175  1.00  0.00    -0.195 N  
BRANCH   4   5
HETATM    5  N   UNL     1      -9.168  11.564  67.999  1.00  0.00    -0.168 NA 
HETATM    6  H   UNL     1      -8.789  10.915  67.308  1.00  0.00     0.000 HD 
HETATM    7  O   UNL     1      -8.455  12.235  68.752  1.00  0.00    -0.346 OA 
HETATM    8  H   UNL     1      -7.523  12.095  68.633  1.00  0.00     0.000 HD 
ENDBRANCH   4   5
BRANCH   4   9
HETATM    9  C   UNL     1     -11.221  11.119  69.202  1.00  0.00    -0.264 C  
HETATM   10  O   UNL     1     -12.442  11.205  69.336  1.00  0.00    -0.323 OA 
BRANCH   9  11
HETATM   11  N   UNL     1     -10.447  10.399  70.092  1.00  0.00    -0.445 N  
HETATM   12  H   UNL     1      -9.949  10.898  70.828  1.00  0.00     0.000 HD 
BRANCH  11  13
HETATM   13  C   UNL     1     -10.319   8.944  70.011  1.00  0.00    -0.204 C  
HETATM   14  C   UNL     1      -8.892   8.461  70.299  1.00  0.00    -0.142 C  
HETATM   15  C   UNL     1      -8.500   8.580  71.772  1.00  0.00    -0.236 C  
HETATM   16  C   UNL     1      -9.527   7.968  72.719  1.00  0.00    -0.336 C  
HETATM   17  C   UNL     1     -10.958   8.403  72.420  1.00  0.00    -0.425 C  
HETATM   18  C   UNL     1     -11.319   8.254  70.943  1.00  0.00    -0.292 C  
ENDBRANCH  11  13
ENDBRANCH   9  11
ENDBRANCH   4   9
ENDBRANCH   3   4
TORSDOF 5
ENDMDL
MODEL      166
REMARK 921   NORMALIZED FREE ENERGY PREDICTED BY IDOCK:   -3.45 KCAL/MOL
REMARK 922        TOTAL FREE ENERGY PREDICTED BY IDOCK:   -5.05 KCAL/MOL
REMARK 923 INTER-LIGAND FREE ENERGY PREDICTED BY IDOCK:   -4.56 KCAL/MOL
REMARK 924 INTRA-LIGAND FREE ENERGY PREDICTED BY IDOCK:   -0.49 KCAL/MOL
REMARK 927      BINDING AFFINITY PREDICTED BY RF-SCORE:    0.00 PKD
ROOT
HETATM    1 CL   UNL     1     -11.724  16.116  68.996  1.00  0.00    -0.313 Cl 
HETATM    2  C   UNL     1     -11.533  14.348  68.865  1.00  0.00    -0.289 C  
HETATM    3  C   UNL     1     -10.167  14.002  68.281  1.00  0.00    -0.249 C  
ENDROOT
BRANCH   3   4
HETATM    4  N   UNL     1      -9.971  12.558  68.118  1.00  0.00    -0.219 N  
BRANCH   4   5
HETATM    5  N   UNL     1     -10.606  11.652  68.975  1.00  0.00    -0.333 NA 
HETATM    6  H   UNL     1     -11.613  11.485  68.959  1.00  0.00     0.000 HD 
HETATM    7  O   UNL     1      -9.842  11.071  69.753  1.00  0.00    -0.382 OA 
HETATM    8  H   UNL     1     -10.273  10.456  70.335  1.00  0.00     0.000 HD 
ENDBRANCH   4   5
BRANCH   4   9
HETATM    9  C   UNL     1      -9.296  12.098  66.989  1.00  0.00    -0.201 C  
HETATM   10  O   UNL     1      -8.067  12.029  66.945  1.00  0.00    -0.166 OA 
BRANCH   9  11
HETATM   11  N   UNL     1     -10.077  11.760  65.901  1.00  0.00    -0.226 N  
HETATM   12  H   UNL     1     -10.748  10.998  65.992  1.00  0.00     0.000 HD 
BRANCH  11  13
HETATM   13  C   UNL     1      -9.972  12.462  64.622  1.00  0.00    -0.173 C  
HETATM   14  C   UNL     1     -10.724  11.744  63.493  1.00  0.00    -0.501 C  
HETATM   15  C   UNL     1     -12.244  11.852  63.616  1.00  0.00    -0.586 C  
HETATM   16  C   UNL     1     -12.731  13.283  63.827  1.00  0.00    -0.054 C  
HETATM   17  C   UNL     1     -11.964  14.027  64.916  1.00  0.00    -0.416 C  
HETATM   18  C   UNL     1     -10.450  13.911  64.750  1.00  0.00    -0.451 C  
ENDBRANCH  11  13
ENDBRANCH   9  11
ENDBRANCH   4   9
ENDBRANCH   3   4
TORSDOF 5
ENDMDL
MODEL      167
REMARK 921   NORMALIZED FREE ENERGY PREDICTED BY IDOCK:   -3.45 KCAL/MOL
REMARK 922        TOTAL FREE ENERGY PREDICTED BY IDOCK:   -5.05 KCAL/MOL
REMARK 923 INTER-LIGAND FREE ENERGY PREDICTED BY IDOCK:   -4.43 KCAL/MOL
REMARK 924 INTRA-LIGAND FREE ENERGY PREDICTED BY IDOCK:   -0.61 KCAL/MOL
REMARK 927      BINDING AFFINITY PREDICTED BY RF-SCORE:    0.00 PKD
ROOT
HETATM    1 CL   UNL     1      -5.920  20.292  65.675  1.00  0.00    -0.209 Cl 
HETATM    2  C   UNL     1      -6.708  19.068  66.705  1.00  0.00    -0.193 C  
HETATM    3  C   UNL     1      -8.204  19.345  66.810  1.00  0.00    -0.292 C  
ENDROOT
BRANCH   3   4
HETATM    4  N   UNL     1      -8.896  18.387  67.678  1.00  0.00    -0.261 N  
BRANCH   4   5
HETATM    5  N   UNL     1      -9.940  18.806  68.512  1.00  0.00    -0.385 NA 
HETATM    6  H   UNL     1     -10.307  19.759  68.504  1.00  0.00     0.000 HD 
HETATM    7  O   UNL     1     -10.378  17.924  69.258  1.00  0.00    -0.411 OA 
HETATM    8  H   UNL     1     -11.085  18.209  69.824  1.00  0.00     0.000 HD 
ENDBRANCH   4   5
BRANCH   4   9
HETATM    9  C   UNL     1      -8.626  17.028  67.525  1.00  0.00    -0.205 C  
HETATM   10  O   UNL     1      -7.938  16.403  68.332  1.00  0.00    -0.163 OA 
BRANCH   9  11
HETATM   11  N   UNL     1      -9.139  16.423  66.393  1.00  0.00    -0.280 N  
HETATM   12  H   UNL     1      -8.503  16.176  65.635  1.00  0.00     0.000 HD 
BRANCH  11  13
HETATM   13  C   UNL     1     -10.563  16.127  66.247  1.00  0.00    -0.274 C  
HETATM   14  C   UNL     1     -10.893  15.467  64.902  1.00  0.00    -0.445 C  
HETATM   15  C   UNL     1     -10.413  14.019  64.806  1.00  0.00    -0.445 C  
HETATM   16  C   UNL     1     -10.836  13.165  65.997  1.00  0.00    -0.287 C  
HETATM   17  C   UNL     1     -10.556  13.825  67.344  1.00  0.00    -0.260 C  
HETATM   18  C   UNL     1     -11.065  15.263  67.408  1.00  0.00    -0.326 C  
ENDBRANCH  11  13
ENDBRANCH   9  11
ENDBRANCH   4   9
ENDBRANCH   3   4
TORSDOF 5
ENDMDL
MODEL      168
REMARK 921   NORMALIZED FREE ENERGY PREDICTED BY IDOCK:   -3.44 KCAL/MOL
REMARK 922        TOTAL FREE ENERGY PREDICTED BY IDOCK:   -5.05 KCAL/MOL
REMARK 923 INTER-LIGAND FREE ENERGY PREDICTED BY IDOCK:   -4.51 KCAL/MOL
REMARK 924 INTRA-LIGAND FREE ENERGY PREDICTED BY IDOCK:   -0.54 KCAL/MOL
REMARK 927      BINDING AFFINITY PREDICTED BY RF-SCORE:    0.00 PKD
ROOT
HETATM    1 CL   UNL     1     -10.216  11.065  66.995  1.00  0.00    -0.238 Cl 
HETATM    2  C   UNL     1     -11.180  12.142  68.038  1.00  0.00    -0.264 C  
HETATM    3  C   UNL     1     -10.324  13.297  68.546  1.00  0.00    -0.239 C  
ENDROOT
BRANCH   3   4
HETATM    4  N   UNL     1     -11.060  14.196  69.441  1.00  0.00    -0.244 N  
BRANCH   4   5
HETATM    5  N   UNL     1     -12.009  13.689  70.336  1.00  0.00    -0.446 NA 
HETATM    6  H   UNL     1     -11.821  12.902  70.957  1.00  0.00     0.000 HD 
HETATM    7  O   UNL     1     -13.096  14.277  70.308  1.00  0.00    -0.434 OA 
HETATM    8  H   UNL     1     -13.740  13.934  70.915  1.00  0.00     0.000 HD 
ENDBRANCH   4   5
BRANCH   4   9
HETATM    9  C   UNL     1     -10.670  15.532  69.517  1.00  0.00    -0.272 C  
HETATM   10  O   UNL     1     -11.202  16.326  70.294  1.00  0.00    -0.367 OA 
BRANCH   9  11
HETATM   11  N   UNL     1      -9.677  15.933  68.643  1.00  0.00    -0.200 N  
HETATM   12  H   UNL     1      -8.744  15.533  68.739  1.00  0.00     0.000 HD 
BRANCH  11  13
HETATM   13  C   UNL     1      -9.922  16.913  67.586  1.00  0.00    -0.271 C  
HETATM   14  C   UNL     1      -9.594  18.347  68.024  1.00  0.00    -0.316 C  
HETATM   15  C   UNL     1      -8.094  18.611  68.150  1.00  0.00    -0.318 C  
HETATM   16  C   UNL     1      -7.301  18.179  66.920  1.00  0.00    -0.228 C  
HETATM   17  C   UNL     1      -7.647  16.771  66.443  1.00  0.00    -0.325 C  
HETATM   18  C   UNL     1      -9.152  16.550  66.313  1.00  0.00    -0.348 C  
ENDBRANCH  11  13
ENDBRANCH   9  11
ENDBRANCH   4   9
ENDBRANCH   3   4
TORSDOF 5
ENDMDL
MODEL      169
REMARK 921   NORMALIZED FREE ENERGY PREDICTED BY IDOCK:   -3.44 KCAL/MOL
REMARK 922        TOTAL FREE ENERGY PREDICTED BY IDOCK:   -5.04 KCAL/MOL
REMARK 923 INTER-LIGAND FREE ENERGY PREDICTED BY IDOCK:   -4.30 KCAL/MOL
REMARK 924 INTRA-LIGAND FREE ENERGY PREDICTED BY IDOCK:   -0.74 KCAL/MOL
REMARK 927      BINDING AFFINITY PREDICTED BY RF-SCORE:    0.00 PKD
ROOT
HETATM    1 CL   UNL     1     -10.006  12.037  66.805  1.00  0.00    -0.213 Cl 
HETATM    2  C   UNL     1     -10.272  11.589  68.510  1.00  0.00    -0.213 C  
HETATM    3  C   UNL     1     -11.013  10.260  68.603  1.00  0.00    -0.244 C  
ENDROOT
BRANCH   3   4
HETATM    4  N   UNL     1     -11.290   9.862  69.987  1.00  0.00    -0.254 N  
BRANCH   4   5
HETATM    5  N   UNL     1     -12.538  10.122  70.566  1.00  0.00    -0.494 NA 
HETATM    6  H   UNL     1     -13.341  10.451  70.029  1.00  0.00     0.000 HD 
HETATM    7  O   UNL     1     -12.583   9.918  71.784  1.00  0.00    -0.378 OA 
HETATM    8  H   UNL     1     -13.429  10.094  72.177  1.00  0.00     0.000 HD 
ENDBRANCH   4   5
BRANCH   4   9
HETATM    9  C   UNL     1     -10.363   9.061  70.651  1.00  0.00    -0.229 C  
HETATM   10  O   UNL     1      -9.762   9.450  71.653  1.00  0.00    -0.241 OA 
BRANCH   9  11
HETATM   11  N   UNL     1     -10.121   7.816  70.102  1.00  0.00    -0.194 N  
HETATM   12  H   UNL     1      -9.195   7.615  69.726  1.00  0.00     0.000 HD 
BRANCH  11  13
HETATM   13  C   UNL     1     -11.150   6.779  70.045  1.00  0.00    -0.315 C  
HETATM   14  C   UNL     1     -10.657   5.498  69.360  1.00  0.00    -0.349 C  
HETATM   15  C   UNL     1      -9.667   4.701  70.209  1.00  0.00    -0.295 C  
HETATM   16  C   UNL     1     -10.159   4.452  71.632  1.00  0.00    -0.230 C  
HETATM   17  C   UNL     1     -10.694   5.707  72.314  1.00  0.00    -0.281 C  
HETATM   18  C   UNL     1     -11.693   6.467  71.443  1.00  0.00    -0.364 C  
ENDBRANCH  11  13
ENDBRANCH   9  11
ENDBRANCH   4   9
ENDBRANCH   3   4
TORSDOF 5
ENDMDL
MODEL      170
REMARK 921   NORMALIZED FREE ENERGY PREDICTED BY IDOCK:   -3.43 KCAL/MOL
REMARK 922        TOTAL FREE ENERGY PREDICTED BY IDOCK:   -5.03 KCAL/MOL
REMARK 923 INTER-LIGAND FREE ENERGY PREDICTED BY IDOCK:   -4.34 KCAL/MOL
REMARK 924 INTRA-LIGAND FREE ENERGY PREDICTED BY IDOCK:   -0.68 KCAL/MOL
REMARK 927      BINDING AFFINITY PREDICTED BY RF-SCORE:    0.00 PKD
ROOT
HETATM    1 CL   UNL     1     -11.442   9.774  69.862  1.00  0.00    -0.223 Cl 
HETATM    2  C   UNL     1     -10.493  10.784  68.739  1.00  0.00    -0.199 C  
HETATM    3  C   UNL     1     -10.148   9.998  67.480  1.00  0.00    -0.198 C  
ENDROOT
BRANCH   3   4
HETATM    4  N   UNL     1      -9.334  10.771  66.536  1.00  0.00    -0.165 N  
BRANCH   4   5
HETATM    5  N   UNL     1      -7.960  10.936  66.749  1.00  0.00    -0.137 NA 
HETATM    6  H   UNL     1      -7.336  10.159  66.966  1.00  0.00     0.000 HD 
HETATM    7  O   UNL     1      -7.570  12.105  66.651  1.00  0.00    -0.368 OA 
HETATM    8  H   UNL     1      -6.638  12.217  66.796  1.00  0.00     0.000 HD 
ENDBRANCH   4   5
BRANCH   4   9
HETATM    9  C   UNL     1      -9.910  11.180  65.335  1.00  0.00    -0.242 C  
HETATM   10  O   UNL     1     -10.218  10.379  64.451  1.00  0.00    -0.333 OA 
BRANCH   9  11
HETATM   11  N   UNL     1     -10.082  12.541  65.166  1.00  0.00    -0.359 N  
HETATM   12  H   UNL     1      -9.605  13.006  64.395  1.00  0.00     0.000 HD 
BRANCH  11  13
HETATM   13  C   UNL     1     -10.926  13.334  66.059  1.00  0.00    -0.279 C  
HETATM   14  C   UNL     1     -10.269  14.658  66.468  1.00  0.00    -0.282 C  
HETATM   15  C   UNL     1     -10.220  15.683  65.335  1.00  0.00    -0.401 C  
HETATM   16  C   UNL     1     -11.566  15.885  64.647  1.00  0.00    -0.200 C  
HETATM   17  C   UNL     1     -12.255  14.577  64.272  1.00  0.00    -0.441 C  
HETATM   18  C   UNL     1     -12.301  13.586  65.433  1.00  0.00    -0.517 C  
ENDBRANCH  11  13
ENDBRANCH   9  11
ENDBRANCH   4   9
ENDBRANCH   3   4
TORSDOF 5
ENDMDL
MODEL      171
REMARK 921   NORMALIZED FREE ENERGY PREDICTED BY IDOCK:   -3.42 KCAL/MOL
REMARK 922        TOTAL FREE ENERGY PREDICTED BY IDOCK:   -5.01 KCAL/MOL
REMARK 923 INTER-LIGAND FREE ENERGY PREDICTED BY IDOCK:   -4.27 KCAL/MOL
REMARK 924 INTRA-LIGAND FREE ENERGY PREDICTED BY IDOCK:   -0.74 KCAL/MOL
REMARK 927      BINDING AFFINITY PREDICTED BY RF-SCORE:    0.00 PKD
ROOT
HETATM    1 CL   UNL     1      -9.592   7.052  66.424  1.00  0.00    -0.195 Cl 
HETATM    2  C   UNL     1     -10.227   8.529  67.195  1.00  0.00    -0.284 C  
HETATM    3  C   UNL     1      -9.223   9.077  68.204  1.00  0.00    -0.136 C  
ENDROOT
BRANCH   3   4
HETATM    4  N   UNL     1      -9.711  10.274  68.896  1.00  0.00    -0.179 N  
BRANCH   4   5
HETATM    5  N   UNL     1      -9.100  11.516  68.687  1.00  0.00    -0.310 NA 
HETATM    6  H   UNL     1      -8.178  11.616  68.262  1.00  0.00     0.000 HD 
HETATM    7  O   UNL     1      -9.775  12.481  69.061  1.00  0.00    -0.403 OA 
HETATM    8  H   UNL     1      -9.361  13.324  68.920  1.00  0.00     0.000 HD 
ENDBRANCH   4   5
BRANCH   4   9
HETATM    9  C   UNL     1     -10.901  10.192  69.616  1.00  0.00    -0.263 C  
HETATM   10  O   UNL     1     -11.924  10.777  69.258  1.00  0.00    -0.308 OA 
BRANCH   9  11
HETATM   11  N   UNL     1     -10.865   9.450  70.781  1.00  0.00    -0.277 N  
HETATM   12  H   UNL     1     -10.132   9.640  71.465  1.00  0.00     0.000 HD 
BRANCH  11  13
HETATM   13  C   UNL     1     -11.843   8.401  71.066  1.00  0.00    -0.252 C  
HETATM   14  C   UNL     1     -11.532   7.090  70.332  1.00  0.00    -0.355 C  
HETATM   15  C   UNL     1     -10.324   6.349  70.906  1.00  0.00    -0.246 C  
HETATM   16  C   UNL     1     -10.390   6.171  72.419  1.00  0.00    -0.219 C  
HETATM   17  C   UNL     1     -10.743   7.456  73.163  1.00  0.00    -0.436 C  
HETATM   18  C   UNL     1     -11.964   8.159  72.574  1.00  0.00    -0.410 C  
ENDBRANCH  11  13
ENDBRANCH   9  11
ENDBRANCH   4   9
ENDBRANCH   3   4
TORSDOF 5
ENDMDL
MODEL      172
REMARK 921   NORMALIZED FREE ENERGY PREDICTED BY IDOCK:   -3.41 KCAL/MOL
REMARK 922        TOTAL FREE ENERGY PREDICTED BY IDOCK:   -5.00 KCAL/MOL
REMARK 923 INTER-LIGAND FREE ENERGY PREDICTED BY IDOCK:   -4.51 KCAL/MOL
REMARK 924 INTRA-LIGAND FREE ENERGY PREDICTED BY IDOCK:   -0.49 KCAL/MOL
REMARK 927      BINDING AFFINITY PREDICTED BY RF-SCORE:    0.00 PKD
ROOT
HETATM    1 CL   UNL     1     -10.567  16.814  65.105  1.00  0.00    -0.232 Cl 
HETATM    2  C   UNL     1     -10.597  15.746  66.533  1.00  0.00    -0.306 C  
HETATM    3  C   UNL     1      -9.770  16.347  67.664  1.00  0.00    -0.238 C  
ENDROOT
BRANCH   3   4
HETATM    4  N   UNL     1      -9.730  15.489  68.853  1.00  0.00    -0.210 N  
BRANCH   4   5
HETATM    5  N   UNL     1      -8.701  14.556  69.023  1.00  0.00    -0.343 NA 
HETATM    6  H   UNL     1      -8.589  13.738  68.423  1.00  0.00     0.000 HD 
HETATM    7  O   UNL     1      -7.940  14.808  69.964  1.00  0.00    -0.386 OA 
HETATM    8  H   UNL     1      -7.241  14.175  70.079  1.00  0.00     0.000 HD 
ENDBRANCH   4   5
BRANCH   4   9
HETATM    9  C   UNL     1     -10.622  15.745  69.892  1.00  0.00    -0.328 C  
HETATM   10  O   UNL     1     -10.906  16.891  70.244  1.00  0.00    -0.133 OA 
BRANCH   9  11
HETATM   11  N   UNL     1     -11.144  14.642  70.540  1.00  0.00    -0.488 N  
HETATM   12  H   UNL     1     -10.631  14.241  71.325  1.00  0.00     0.000 HD 
BRANCH  11  13
HETATM   13  C   UNL     1     -12.410  14.030  70.136  1.00  0.00    -0.345 C  
HETATM   14  C   UNL     1     -12.664  12.687  70.832  1.00  0.00    -0.274 C  
HETATM   15  C   UNL     1     -13.015  12.830  72.312  1.00  0.00    -0.289 C  
HETATM   16  C   UNL     1     -14.126  13.842  72.572  1.00  0.00    -0.487 C  
HETATM   17  C   UNL     1     -13.913  15.170  71.851  1.00  0.00    -0.629 C  
HETATM   18  C   UNL     1     -13.582  14.988  70.372  1.00  0.00     0.177 C  
ENDBRANCH  11  13
ENDBRANCH   9  11
ENDBRANCH   4   9
ENDBRANCH   3   4
TORSDOF 5
ENDMDL
MODEL      173
REMARK 921   NORMALIZED FREE ENERGY PREDICTED BY IDOCK:   -3.41 KCAL/MOL
REMARK 922        TOTAL FREE ENERGY PREDICTED BY IDOCK:   -4.99 KCAL/MOL
REMARK 923 INTER-LIGAND FREE ENERGY PREDICTED BY IDOCK:   -4.48 KCAL/MOL
REMARK 924 INTRA-LIGAND FREE ENERGY PREDICTED BY IDOCK:   -0.52 KCAL/MOL
REMARK 927      BINDING AFFINITY PREDICTED BY RF-SCORE:    0.00 PKD
ROOT
HETATM    1 CL   UNL     1      -7.396   7.978  70.850  1.00  0.00    -0.056 Cl 
HETATM    2  C   UNL     1      -9.113   8.451  70.770  1.00  0.00    -0.156 C  
HETATM    3  C   UNL     1      -9.275   9.738  69.968  1.00  0.00    -0.229 C  
ENDROOT
BRANCH   3   4
HETATM    4  N   UNL     1     -10.667  10.192  69.903  1.00  0.00    -0.275 N  
BRANCH   4   5
HETATM    5  N   UNL     1     -11.563   9.896  70.937  1.00  0.00    -0.343 NA 
HETATM    6  H   UNL     1     -11.382  10.136  71.912  1.00  0.00     0.000 HD 
HETATM    7  O   UNL     1     -12.590   9.317  70.567  1.00  0.00    -0.491 OA 
HETATM    8  H   UNL     1     -13.197   9.115  71.268  1.00  0.00     0.000 HD 
ENDBRANCH   4   5
BRANCH   4   9
HETATM    9  C   UNL     1     -11.035  11.076  68.890  1.00  0.00    -0.227 C  
HETATM   10  O   UNL     1     -11.860  10.775  68.027  1.00  0.00    -0.546 OA 
BRANCH   9  11
HETATM   11  N   UNL     1     -10.395  12.301  68.880  1.00  0.00    -0.409 N  
HETATM   12  H   UNL     1      -9.464  12.374  69.290  1.00  0.00     0.000 HD 
BRANCH  11  13
HETATM   13  C   UNL     1     -11.009  13.494  68.300  1.00  0.00    -0.258 C  
HETATM   14  C   UNL     1     -12.151  14.048  69.163  1.00  0.00    -0.375 C  
HETATM   15  C   UNL     1     -11.667  14.719  70.447  1.00  0.00    -0.350 C  
HETATM   16  C   UNL     1     -10.562  15.745  70.211  1.00  0.00    -0.297 C  
HETATM   17  C   UNL     1      -9.439  15.226  69.319  1.00  0.00    -0.242 C  
HETATM   18  C   UNL     1      -9.960  14.579  68.037  1.00  0.00    -0.222 C  
ENDBRANCH  11  13
ENDBRANCH   9  11
ENDBRANCH   4   9
ENDBRANCH   3   4
TORSDOF 5
ENDMDL
MODEL      174
REMARK 921   NORMALIZED FREE ENERGY PREDICTED BY IDOCK:   -3.40 KCAL/MOL
REMARK 922        TOTAL FREE ENERGY PREDICTED BY IDOCK:   -4.99 KCAL/MOL
REMARK 923 INTER-LIGAND FREE ENERGY PREDICTED BY IDOCK:   -4.46 KCAL/MOL
REMARK 924 INTRA-LIGAND FREE ENERGY PREDICTED BY IDOCK:   -0.53 KCAL/MOL
REMARK 927      BINDING AFFINITY PREDICTED BY RF-SCORE:    0.00 PKD
ROOT
HETATM    1 CL   UNL     1      -7.373  12.743  67.420  1.00  0.00    -0.149 Cl 
HETATM    2  C   UNL     1      -8.741  11.860  68.148  1.00  0.00    -0.173 C  
HETATM    3  C   UNL     1      -9.205  10.740  67.223  1.00  0.00    -0.147 C  
ENDROOT
BRANCH   3   4
HETATM    4  N   UNL     1     -10.355  10.004  67.758  1.00  0.00    -0.200 N  
BRANCH   4   5
HETATM    5  N   UNL     1     -11.651  10.517  67.631  1.00  0.00    -0.612 NA 
HETATM    6  H   UNL     1     -12.153  10.541  66.743  1.00  0.00     0.000 HD 
HETATM    7  O   UNL     1     -12.133  10.941  68.687  1.00  0.00    -0.724 OA 
HETATM    8  H   UNL     1     -13.012  11.289  68.600  1.00  0.00     0.000 HD 
ENDBRANCH   4   5
BRANCH   4   9
HETATM    9  C   UNL     1     -10.159   8.707  68.228  1.00  0.00    -0.192 C  
HETATM   10  O   UNL     1      -9.959   7.759  67.467  1.00  0.00    -0.158 OA 
BRANCH   9  11
HETATM   11  N   UNL     1     -10.241   8.528  69.595  1.00  0.00    -0.203 N  
HETATM   12  H   UNL     1      -9.426   8.740  70.171  1.00  0.00     0.000 HD 
BRANCH  11  13
HETATM   13  C   UNL     1     -11.460   8.046  70.244  1.00  0.00    -0.073 C  
HETATM   14  C   UNL     1     -11.521   6.514  70.317  1.00  0.00    -0.474 C  
HETATM   15  C   UNL     1     -10.547   5.918  71.333  1.00  0.00    -0.309 C  
HETATM   16  C   UNL     1     -10.634   6.574  72.708  1.00  0.00    -0.257 C  
HETATM   17  C   UNL     1     -10.619   8.098  72.651  1.00  0.00    -0.414 C  
HETATM   18  C   UNL     1     -11.617   8.657  71.640  1.00  0.00    -0.379 C  
ENDBRANCH  11  13
ENDBRANCH   9  11
ENDBRANCH   4   9
ENDBRANCH   3   4
TORSDOF 5
ENDMDL
MODEL      175
REMARK 921   NORMALIZED FREE ENERGY PREDICTED BY IDOCK:   -3.39 KCAL/MOL
REMARK 922        TOTAL FREE ENERGY PREDICTED BY IDOCK:   -4.98 KCAL/MOL
REMARK 923 INTER-LIGAND FREE ENERGY PREDICTED BY IDOCK:   -4.40 KCAL/MOL
REMARK 924 INTRA-LIGAND FREE ENERGY PREDICTED BY IDOCK:   -0.58 KCAL/MOL
REMARK 927      BINDING AFFINITY PREDICTED BY RF-SCORE:    0.00 PKD
ROOT
HETATM    1 CL   UNL     1      -7.354  15.062  67.283  1.00  0.00    -0.225 Cl 
HETATM    2  C   UNL     1      -7.526  13.848  68.577  1.00  0.00    -0.122 C  
HETATM    3  C   UNL     1      -7.121  12.468  68.070  1.00  0.00    -0.103 C  
ENDROOT
BRANCH   3   4
HETATM    4  N   UNL     1      -7.278  11.423  69.086  1.00  0.00    -0.116 N  
BRANCH   4   5
HETATM    5  N   UNL     1      -6.562  11.484  70.288  1.00  0.00    -0.493 NA 
HETATM    6  H   UNL     1      -5.962  12.271  70.536  1.00  0.00     0.000 HD 
HETATM    7  O   UNL     1      -6.720  10.502  71.021  1.00  0.00    -0.367 OA 
HETATM    8  H   UNL     1      -6.235  10.543  71.836  1.00  0.00     0.000 HD 
ENDBRANCH   4   5
BRANCH   4   9
HETATM    9  C   UNL     1      -8.284  10.473  68.918  1.00  0.00    -0.141 C  
HETATM   10  O   UNL     1      -8.135   9.483  68.200  1.00  0.00    -0.101 OA 
BRANCH   9  11
HETATM   11  N   UNL     1      -9.478  10.719  69.568  1.00  0.00    -0.425 N  
HETATM   12  H   UNL     1      -9.516  11.463  70.264  1.00  0.00     0.000 HD 
BRANCH  11  13
HETATM   13  C   UNL     1     -10.688   9.947  69.289  1.00  0.00    -0.224 C  
HETATM   14  C   UNL     1     -10.861   8.758  70.243  1.00  0.00    -0.252 C  
HETATM   15  C   UNL     1     -11.253   9.173  71.661  1.00  0.00    -0.447 C  
HETATM   16  C   UNL     1     -12.439  10.133  71.701  1.00  0.00    -0.506 C  
HETATM   17  C   UNL     1     -12.304  11.299  70.726  1.00  0.00    -0.495 C  
HETATM   18  C   UNL     1     -11.929  10.844  69.317  1.00  0.00    -0.382 C  
ENDBRANCH  11  13
ENDBRANCH   9  11
ENDBRANCH   4   9
ENDBRANCH   3   4
TORSDOF 5
ENDMDL
MODEL      176
REMARK 921   NORMALIZED FREE ENERGY PREDICTED BY IDOCK:   -3.39 KCAL/MOL
REMARK 922        TOTAL FREE ENERGY PREDICTED BY IDOCK:   -4.97 KCAL/MOL
REMARK 923 INTER-LIGAND FREE ENERGY PREDICTED BY IDOCK:   -4.30 KCAL/MOL
REMARK 924 INTRA-LIGAND FREE ENERGY PREDICTED BY IDOCK:   -0.67 KCAL/MOL
REMARK 927      BINDING AFFINITY PREDICTED BY RF-SCORE:    0.00 PKD
ROOT
HETATM    1 CL   UNL     1      -9.569   8.521  66.095  1.00  0.00    -0.298 Cl 
HETATM    2  C   UNL     1      -9.687  10.129  65.335  1.00  0.00    -0.291 C  
HETATM    3  C   UNL     1     -10.109  11.174  66.363  1.00  0.00    -0.226 C  
ENDROOT
BRANCH   3   4
HETATM    4  N   UNL     1     -10.258  12.512  65.781  1.00  0.00    -0.266 N  
BRANCH   4   5
HETATM    5  N   UNL     1     -10.073  12.716  64.408  1.00  0.00    -0.541 NA 
HETATM    6  H   UNL     1      -9.771  11.977  63.774  1.00  0.00     0.000 HD 
HETATM    7  O   UNL     1     -10.306  13.870  64.033  1.00  0.00    -0.557 OA 
HETATM    8  H   UNL     1     -10.180  14.009  63.102  1.00  0.00     0.000 HD 
ENDBRANCH   4   5
BRANCH   4   9
HETATM    9  C   UNL     1     -10.765  13.536  66.579  1.00  0.00    -0.287 C  
HETATM   10  O   UNL     1     -11.968  13.641  66.821  1.00  0.00    -0.383 OA 
BRANCH   9  11
HETATM   11  N   UNL     1      -9.851  14.456  67.054  1.00  0.00    -0.246 N  
HETATM   12  H   UNL     1      -9.618  15.264  66.476  1.00  0.00     0.000 HD 
BRANCH  11  13
HETATM   13  C   UNL     1      -9.205  14.308  68.357  1.00  0.00    -0.196 C  
HETATM   14  C   UNL     1      -7.718  13.947  68.241  1.00  0.00    -0.136 C  
HETATM   15  C   UNL     1      -6.850  15.109  67.758  1.00  0.00    -0.190 C  
HETATM   16  C   UNL     1      -7.080  16.398  68.541  1.00  0.00    -0.157 C  
HETATM   17  C   UNL     1      -8.555  16.750  68.705  1.00  0.00    -0.263 C  
HETATM   18  C   UNL     1      -9.387  15.571  69.205  1.00  0.00    -0.266 C  
ENDBRANCH  11  13
ENDBRANCH   9  11
ENDBRANCH   4   9
ENDBRANCH   3   4
TORSDOF 5
ENDMDL
MODEL      177
REMARK 921   NORMALIZED FREE ENERGY PREDICTED BY IDOCK:   -3.36 KCAL/MOL
REMARK 922        TOTAL FREE ENERGY PREDICTED BY IDOCK:   -4.94 KCAL/MOL
REMARK 923 INTER-LIGAND FREE ENERGY PREDICTED BY IDOCK:   -4.32 KCAL/MOL
REMARK 924 INTRA-LIGAND FREE ENERGY PREDICTED BY IDOCK:   -0.62 KCAL/MOL
REMARK 927      BINDING AFFINITY PREDICTED BY RF-SCORE:    0.00 PKD
ROOT
HETATM    1 CL   UNL     1     -10.576  18.970  67.299  1.00  0.00    -0.523 Cl 
HETATM    2  C   UNL     1     -10.099  17.436  66.525  1.00  0.00    -0.320 C  
HETATM    3  C   UNL     1     -10.959  16.289  67.044  1.00  0.00    -0.086 C  
ENDROOT
BRANCH   3   4
HETATM    4  N   UNL     1     -10.583  14.994  66.466  1.00  0.00    -0.298 N  
BRANCH   4   5
HETATM    5  N   UNL     1     -10.827  14.720  65.115  1.00  0.00    -0.375 NA 
HETATM    6  H   UNL     1     -11.548  15.197  64.574  1.00  0.00     0.000 HD 
HETATM    7  O   UNL     1     -10.093  13.849  64.635  1.00  0.00    -0.589 OA 
HETATM    8  H   UNL     1     -10.259  13.663  63.719  1.00  0.00     0.000 HD 
ENDBRANCH   4   5
BRANCH   4   9
HETATM    9  C   UNL     1      -9.817  14.117  67.231  1.00  0.00    -0.238 C  
HETATM   10  O   UNL     1      -8.587  14.093  67.163  1.00  0.00    -0.209 OA 
BRANCH   9  11
HETATM   11  N   UNL     1     -10.511  13.242  68.044  1.00  0.00    -0.236 N  
HETATM   12  H   UNL     1     -10.726  13.523  69.000  1.00  0.00     0.000 HD 
BRANCH  11  13
HETATM   13  C   UNL     1     -10.948  11.927  67.576  1.00  0.00    -0.247 C  
HETATM   14  C   UNL     1      -9.798  10.913  67.512  1.00  0.00    -0.192 C  
HETATM   15  C   UNL     1      -9.324  10.450  68.889  1.00  0.00    -0.190 C  
HETATM   16  C   UNL     1     -10.463   9.987  69.794  1.00  0.00    -0.291 C  
HETATM   17  C   UNL     1     -11.635  10.963  69.835  1.00  0.00    -0.410 C  
HETATM   18  C   UNL     1     -12.092  11.390  68.442  1.00  0.00    -0.118 C  
ENDBRANCH  11  13
ENDBRANCH   9  11
ENDBRANCH   4   9
ENDBRANCH   3   4
TORSDOF 5
ENDMDL
MODEL      178
REMARK 921   NORMALIZED FREE ENERGY PREDICTED BY IDOCK:   -3.36 KCAL/MOL
REMARK 922        TOTAL FREE ENERGY PREDICTED BY IDOCK:   -4.93 KCAL/MOL
REMARK 923 INTER-LIGAND FREE ENERGY PREDICTED BY IDOCK:   -4.63 KCAL/MOL
REMARK 924 INTRA-LIGAND FREE ENERGY PREDICTED BY IDOCK:   -0.30 KCAL/MOL
REMARK 927      BINDING AFFINITY PREDICTED BY RF-SCORE:    0.00 PKD
ROOT
HETATM    1 CL   UNL     1     -12.315  12.706  63.332  1.00  0.00    -0.602 Cl 
HETATM    2  C   UNL     1     -11.148  12.941  64.659  1.00  0.00    -0.324 C  
HETATM    3  C   UNL     1     -11.845  12.815  66.009  1.00  0.00    -0.439 C  
ENDROOT
BRANCH   3   4
HETATM    4  N   UNL     1     -10.936  13.037  67.138  1.00  0.00    -0.264 N  
BRANCH   4   5
HETATM    5  N   UNL     1     -10.065  12.025  67.560  1.00  0.00    -0.194 NA 
HETATM    6  H   UNL     1      -9.396  12.151  68.320  1.00  0.00     0.000 HD 
HETATM    7  O   UNL     1     -10.175  10.968  66.931  1.00  0.00    -0.206 OA 
HETATM    8  H   UNL     1      -9.585  10.281  67.216  1.00  0.00     0.000 HD 
ENDBRANCH   4   5
BRANCH   4   9
HETATM    9  C   UNL     1     -10.821  14.323  67.663  1.00  0.00    -0.268 C  
HETATM   10  O   UNL     1     -11.767  14.894  68.207  1.00  0.00    -0.321 OA 
BRANCH   9  11
HETATM   11  N   UNL     1      -9.598  14.945  67.504  1.00  0.00    -0.203 N  
HETATM   12  H   UNL     1      -8.971  15.013  68.306  1.00  0.00     0.000 HD 
BRANCH  11  13
HETATM   13  C   UNL     1      -9.172  15.508  66.223  1.00  0.00    -0.329 C  
HETATM   14  C   UNL     1     -10.239  16.415  65.595  1.00  0.00    -0.349 C  
HETATM   15  C   UNL     1     -10.396  17.752  66.319  1.00  0.00    -0.358 C  
HETATM   16  C   UNL     1      -9.071  18.475  66.544  1.00  0.00    -0.299 C  
HETATM   17  C   UNL     1      -7.985  17.576  67.126  1.00  0.00    -0.229 C  
HETATM   18  C   UNL     1      -7.845  16.258  66.367  1.00  0.00    -0.249 C  
ENDBRANCH  11  13
ENDBRANCH   9  11
ENDBRANCH   4   9
ENDBRANCH   3   4
TORSDOF 5
ENDMDL
MODEL      179
REMARK 921   NORMALIZED FREE ENERGY PREDICTED BY IDOCK:   -3.35 KCAL/MOL
REMARK 922        TOTAL FREE ENERGY PREDICTED BY IDOCK:   -4.93 KCAL/MOL
REMARK 923 INTER-LIGAND FREE ENERGY PREDICTED BY IDOCK:   -4.48 KCAL/MOL
REMARK 924 INTRA-LIGAND FREE ENERGY PREDICTED BY IDOCK:   -0.45 KCAL/MOL
REMARK 927      BINDING AFFINITY PREDICTED BY RF-SCORE:    0.00 PKD
ROOT
HETATM    1 CL   UNL     1      -5.430  19.081  67.663  1.00  0.00    -0.171 Cl 
HETATM    2  C   UNL     1      -7.108  19.108  68.265  1.00  0.00    -0.273 C  
HETATM    3  C   UNL     1      -7.896  17.931  67.699  1.00  0.00    -0.218 C  
ENDROOT
BRANCH   3   4
HETATM    4  N   UNL     1      -9.296  17.926  68.134  1.00  0.00    -0.277 N  
BRANCH   4   5
HETATM    5  N   UNL     1      -9.828  19.016  68.833  1.00  0.00    -0.414 NA 
HETATM    6  H   UNL     1      -9.450  19.342  69.723  1.00  0.00     0.000 HD 
HETATM    7  O   UNL     1     -10.797  19.548  68.280  1.00  0.00    -0.380 OA 
HETATM    8  H   UNL     1     -11.158  20.287  68.754  1.00  0.00     0.000 HD 
ENDBRANCH   4   5
BRANCH   4   9
HETATM    9  C   UNL     1     -10.133  16.908  67.682  1.00  0.00    -0.278 C  
HETATM   10  O   UNL     1     -10.515  16.846  66.513  1.00  0.00    -0.305 OA 
BRANCH   9  11
HETATM   11  N   UNL     1     -10.549  15.989  68.627  1.00  0.00    -0.252 N  
HETATM   12  H   UNL     1      -9.889  15.681  69.340  1.00  0.00     0.000 HD 
BRANCH  11  13
HETATM   13  C   UNL     1     -11.907  15.444  68.636  1.00  0.00    -0.296 C  
HETATM   14  C   UNL     1     -11.978  14.031  68.042  1.00  0.00    -0.386 C  
HETATM   15  C   UNL     1     -11.365  12.964  68.948  1.00  0.00    -0.335 C  
HETATM   16  C   UNL     1     -11.882  13.022  70.382  1.00  0.00    -0.245 C  
HETATM   17  C   UNL     1     -11.860  14.428  70.975  1.00  0.00    -0.334 C  
HETATM   18  C   UNL     1     -12.496  15.464  70.050  1.00  0.00    -0.316 C  
ENDBRANCH  11  13
ENDBRANCH   9  11
ENDBRANCH   4   9
ENDBRANCH   3   4
TORSDOF 5
ENDMDL
MODEL      180
REMARK 921   NORMALIZED FREE ENERGY PREDICTED BY IDOCK:   -3.35 KCAL/MOL
REMARK 922        TOTAL FREE ENERGY PREDICTED BY IDOCK:   -4.92 KCAL/MOL
REMARK 923 INTER-LIGAND FREE ENERGY PREDICTED BY IDOCK:   -4.28 KCAL/MOL
REMARK 924 INTRA-LIGAND FREE ENERGY PREDICTED BY IDOCK:   -0.65 KCAL/MOL
REMARK 927      BINDING AFFINITY PREDICTED BY RF-SCORE:    0.00 PKD
ROOT
HETATM    1 CL   UNL     1      -9.245   9.965  64.391  1.00  0.00    -0.300 Cl 
HETATM    2  C   UNL     1      -9.513  11.296  65.547  1.00  0.00    -0.229 C  
HETATM    3  C   UNL     1     -10.991  11.397  65.909  1.00  0.00    -0.207 C  
ENDROOT
BRANCH   3   4
HETATM    4  N   UNL     1     -11.273  12.501  66.832  1.00  0.00    -0.285 N  
BRANCH   4   5
HETATM    5  N   UNL     1     -11.304  13.823  66.371  1.00  0.00    -0.310 NA 
HETATM    6  H   UNL     1     -10.460  14.351  66.145  1.00  0.00     0.000 HD 
HETATM    7  O   UNL     1     -12.440  14.295  66.263  1.00  0.00    -0.445 OA 
HETATM    8  H   UNL     1     -12.461  15.191  65.950  1.00  0.00     0.000 HD 
ENDBRANCH   4   5
BRANCH   4   9
HETATM    9  C   UNL     1     -11.691  12.202  68.126  1.00  0.00    -0.341 C  
HETATM   10  O   UNL     1     -12.132  13.064  68.887  1.00  0.00    -0.286 OA 
BRANCH   9  11
HETATM   11  N   UNL     1     -11.547  10.888  68.531  1.00  0.00    -0.349 N  
HETATM   12  H   UNL     1     -12.235  10.200  68.227  1.00  0.00     0.000 HD 
BRANCH  11  13
HETATM   13  C   UNL     1     -10.439  10.454  69.381  1.00  0.00    -0.238 C  
HETATM   14  C   UNL     1     -10.908   9.966  70.757  1.00  0.00    -0.387 C  
HETATM   15  C   UNL     1     -11.619   8.614  70.709  1.00  0.00    -0.273 C  
HETATM   16  C   UNL     1     -10.835   7.549  69.947  1.00  0.00    -0.250 C  
HETATM   17  C   UNL     1     -10.322   8.031  68.593  1.00  0.00    -0.224 C  
HETATM   18  C   UNL     1      -9.603   9.376  68.684  1.00  0.00    -0.152 C  
ENDBRANCH  11  13
ENDBRANCH   9  11
ENDBRANCH   4   9
ENDBRANCH   3   4
TORSDOF 5
ENDMDL
MODEL      181
REMARK 921   NORMALIZED FREE ENERGY PREDICTED BY IDOCK:   -3.35 KCAL/MOL
REMARK 922        TOTAL FREE ENERGY PREDICTED BY IDOCK:   -4.92 KCAL/MOL
REMARK 923 INTER-LIGAND FREE ENERGY PREDICTED BY IDOCK:   -4.64 KCAL/MOL
REMARK 924 INTRA-LIGAND FREE ENERGY PREDICTED BY IDOCK:   -0.28 KCAL/MOL
REMARK 927      BINDING AFFINITY PREDICTED BY RF-SCORE:    0.00 PKD
ROOT
HETATM    1 CL   UNL     1      -8.356   9.072  64.800  1.00  0.00    -0.165 Cl 
HETATM    2  C   UNL     1      -8.953  10.725  64.497  1.00  0.00    -0.166 C  
HETATM    3  C   UNL     1     -10.476  10.759  64.558  1.00  0.00    -0.281 C  
ENDROOT
BRANCH   3   4
HETATM    4  N   UNL     1     -11.024  12.091  64.279  1.00  0.00    -0.321 N  
BRANCH   4   5
HETATM    5  N   UNL     1     -11.654  12.361  63.058  1.00  0.00    -0.661 NA 
HETATM    6  H   UNL     1     -11.198  12.865  62.298  1.00  0.00     0.000 HD 
HETATM    7  O   UNL     1     -12.812  11.935  62.982  1.00  0.00    -0.798 OA 
HETATM    8  H   UNL     1     -13.240  12.118  62.155  1.00  0.00     0.000 HD 
ENDBRANCH   4   5
BRANCH   4   9
HETATM    9  C   UNL     1     -11.071  13.025  65.312  1.00  0.00    -0.286 C  
HETATM   10  O   UNL     1     -12.136  13.446  65.765  1.00  0.00    -0.386 OA 
BRANCH   9  11
HETATM   11  N   UNL     1      -9.856  13.488  65.778  1.00  0.00    -0.435 N  
HETATM   12  H   UNL     1      -9.098  13.642  65.113  1.00  0.00     0.000 HD 
BRANCH  11  13
HETATM   13  C   UNL     1      -9.621  13.765  67.195  1.00  0.00    -0.244 C  
HETATM   14  C   UNL     1     -10.228  12.696  68.113  1.00  0.00    -0.240 C  
HETATM   15  C   UNL     1      -9.470  11.369  68.077  1.00  0.00    -0.181 C  
HETATM   16  C   UNL     1      -7.967  11.528  68.279  1.00  0.00    -0.142 C  
HETATM   17  C   UNL     1      -7.353  12.619  67.406  1.00  0.00    -0.140 C  
HETATM   18  C   UNL     1      -8.126  13.934  67.481  1.00  0.00    -0.191 C  
ENDBRANCH  11  13
ENDBRANCH   9  11
ENDBRANCH   4   9
ENDBRANCH   3   4
TORSDOF 5
ENDMDL
MODEL      182
REMARK 921   NORMALIZED FREE ENERGY PREDICTED BY IDOCK:   -3.34 KCAL/MOL
REMARK 922        TOTAL FREE ENERGY PREDICTED BY IDOCK:   -4.91 KCAL/MOL
REMARK 923 INTER-LIGAND FREE ENERGY PREDICTED BY IDOCK:   -4.34 KCAL/MOL
REMARK 924 INTRA-LIGAND FREE ENERGY PREDICTED BY IDOCK:   -0.57 KCAL/MOL
REMARK 927      BINDING AFFINITY PREDICTED BY RF-SCORE:    0.00 PKD
ROOT
HETATM    1 CL   UNL     1     -11.518  14.184  64.457  1.00  0.00    -0.388 Cl 
HETATM    2  C   UNL     1     -11.481  14.604  66.190  1.00  0.00    -0.339 C  
HETATM    3  C   UNL     1     -10.093  14.354  66.769  1.00  0.00    -0.266 C  
ENDROOT
BRANCH   3   4
HETATM    4  N   UNL     1     -10.018  14.648  68.204  1.00  0.00    -0.219 N  
BRANCH   4   5
HETATM    5  N   UNL     1      -9.932  13.611  69.140  1.00  0.00    -0.412 NA 
HETATM    6  H   UNL     1      -9.225  12.876  69.090  1.00  0.00     0.000 HD 
HETATM    7  O   UNL     1     -10.786  13.662  70.031  1.00  0.00    -0.357 OA 
HETATM    8  H   UNL     1     -10.728  12.958  70.666  1.00  0.00     0.000 HD 
ENDBRANCH   4   5
BRANCH   4   9
HETATM    9  C   UNL     1      -9.846  15.971  68.607  1.00  0.00    -0.218 C  
HETATM   10  O   UNL     1     -10.638  16.531  69.366  1.00  0.00    -0.295 OA 
BRANCH   9  11
HETATM   11  N   UNL     1      -8.759  16.639  68.077  1.00  0.00    -0.191 N  
HETATM   12  H   UNL     1      -7.820  16.308  68.298  1.00  0.00     0.000 HD 
BRANCH  11  13
HETATM   13  C   UNL     1      -8.912  17.808  67.211  1.00  0.00    -0.246 C  
HETATM   14  C   UNL     1      -8.883  19.128  67.991  1.00  0.00    -0.353 C  
HETATM   15  C   UNL     1      -7.493  19.490  68.513  1.00  0.00    -0.368 C  
HETATM   16  C   UNL     1      -6.410  19.421  67.440  1.00  0.00    -0.204 C  
HETATM   17  C   UNL     1      -6.452  18.133  66.624  1.00  0.00    -0.223 C  
HETATM   18  C   UNL     1      -7.852  17.812  66.105  1.00  0.00    -0.262 C  
ENDBRANCH  11  13
ENDBRANCH   9  11
ENDBRANCH   4   9
ENDBRANCH   3   4
TORSDOF 5
ENDMDL
MODEL      183
REMARK 921   NORMALIZED FREE ENERGY PREDICTED BY IDOCK:   -3.34 KCAL/MOL
REMARK 922        TOTAL FREE ENERGY PREDICTED BY IDOCK:   -4.91 KCAL/MOL
REMARK 923 INTER-LIGAND FREE ENERGY PREDICTED BY IDOCK:   -4.61 KCAL/MOL
REMARK 924 INTRA-LIGAND FREE ENERGY PREDICTED BY IDOCK:   -0.31 KCAL/MOL
REMARK 927      BINDING AFFINITY PREDICTED BY RF-SCORE:    0.00 PKD
ROOT
HETATM    1 CL   UNL     1      -6.104  18.422  67.206  1.00  0.00    -0.167 Cl 
HETATM    2  C   UNL     1      -7.826  18.095  67.533  1.00  0.00    -0.222 C  
HETATM    3  C   UNL     1      -8.611  18.018  66.228  1.00  0.00    -0.176 C  
ENDROOT
BRANCH   3   4
HETATM    4  N   UNL     1     -10.043  17.787  66.441  1.00  0.00    -0.344 N  
BRANCH   4   5
HETATM    5  N   UNL     1     -10.814  18.710  67.159  1.00  0.00    -0.366 NA 
HETATM    6  H   UNL     1     -11.207  18.508  68.078  1.00  0.00     0.000 HD 
HETATM    7  O   UNL     1     -10.977  19.790  66.582  1.00  0.00    -0.417 OA 
HETATM    8  H   UNL     1     -11.500  20.416  67.068  1.00  0.00     0.000 HD 
ENDBRANCH   4   5
BRANCH   4   9
HETATM    9  C   UNL     1     -10.659  16.736  65.766  1.00  0.00    -0.250 C  
HETATM   10  O   UNL     1     -10.804  16.740  64.543  1.00  0.00    -0.886 OA 
BRANCH   9  11
HETATM   11  N   UNL     1     -11.140  15.701  66.546  1.00  0.00    -0.207 N  
HETATM   12  H   UNL     1     -12.039  15.281  66.309  1.00  0.00     0.000 HD 
BRANCH  11  13
HETATM   13  C   UNL     1     -10.401  15.189  67.699  1.00  0.00    -0.248 C  
HETATM   14  C   UNL     1     -10.900  15.775  69.026  1.00  0.00    -0.248 C  
HETATM   15  C   UNL     1     -12.264  15.233  69.451  1.00  0.00    -0.247 C  
HETATM   16  C   UNL     1     -12.343  13.710  69.417  1.00  0.00    -0.199 C  
HETATM   17  C   UNL     1     -11.810  13.106  68.121  1.00  0.00    -0.386 C  
HETATM   18  C   UNL     1     -10.438  13.658  67.739  1.00  0.00    -0.241 C  
ENDBRANCH  11  13
ENDBRANCH   9  11
ENDBRANCH   4   9
ENDBRANCH   3   4
TORSDOF 5
ENDMDL
MODEL      184
REMARK 921   NORMALIZED FREE ENERGY PREDICTED BY IDOCK:   -3.34 KCAL/MOL
REMARK 922        TOTAL FREE ENERGY PREDICTED BY IDOCK:   -4.91 KCAL/MOL
REMARK 923 INTER-LIGAND FREE ENERGY PREDICTED BY IDOCK:   -4.41 KCAL/MOL
REMARK 924 INTRA-LIGAND FREE ENERGY PREDICTED BY IDOCK:   -0.49 KCAL/MOL
REMARK 927      BINDING AFFINITY PREDICTED BY RF-SCORE:    0.00 PKD
ROOT
HETATM    1 CL   UNL     1      -7.546  10.095  63.296  1.00  0.00    -0.145 Cl 
HETATM    2  C   UNL     1      -8.194   9.415  64.812  1.00  0.00    -0.145 C  
HETATM    3  C   UNL     1      -9.586   9.971  65.092  1.00  0.00    -0.291 C  
ENDROOT
BRANCH   3   4
HETATM    4  N   UNL     1     -10.152   9.471  66.349  1.00  0.00    -0.264 N  
BRANCH   4   5
HETATM    5  N   UNL     1      -9.995   8.129  66.717  1.00  0.00    -0.257 NA 
HETATM    6  H   UNL     1      -9.084   7.711  66.912  1.00  0.00     0.000 HD 
HETATM    7  O   UNL     1     -11.053   7.495  66.784  1.00  0.00    -0.469 OA 
HETATM    8  H   UNL     1     -10.946   6.585  67.034  1.00  0.00     0.000 HD 
ENDBRANCH   4   5
BRANCH   4   9
HETATM    9  C   UNL     1     -10.686  10.386  67.253  1.00  0.00    -0.273 C  
HETATM   10  O   UNL     1     -11.140  10.039  68.345  1.00  0.00    -0.237 OA 
BRANCH   9  11
HETATM   11  N   UNL     1     -10.718  11.706  66.846  1.00  0.00    -0.244 N  
HETATM   12  H   UNL     1      -9.940  12.073  66.299  1.00  0.00     0.000 HD 
BRANCH  11  13
HETATM   13  C   UNL     1     -11.833  12.594  67.174  1.00  0.00    -0.330 C  
HETATM   14  C   UNL     1     -11.608  13.365  68.481  1.00  0.00    -0.368 C  
HETATM   15  C   UNL     1     -10.552  14.463  68.360  1.00  0.00    -0.248 C  
HETATM   16  C   UNL     1     -10.779  15.388  67.167  1.00  0.00    -0.314 C  
HETATM   17  C   UNL     1     -11.049  14.638  65.866  1.00  0.00    -0.338 C  
HETATM   18  C   UNL     1     -12.121  13.561  66.021  1.00  0.00    -0.489 C  
ENDBRANCH  11  13
ENDBRANCH   9  11
ENDBRANCH   4   9
ENDBRANCH   3   4
TORSDOF 5
ENDMDL
MODEL      185
REMARK 921   NORMALIZED FREE ENERGY PREDICTED BY IDOCK:   -3.34 KCAL/MOL
REMARK 922        TOTAL FREE ENERGY PREDICTED BY IDOCK:   -4.91 KCAL/MOL
REMARK 923 INTER-LIGAND FREE ENERGY PREDICTED BY IDOCK:   -4.22 KCAL/MOL
REMARK 924 INTRA-LIGAND FREE ENERGY PREDICTED BY IDOCK:   -0.68 KCAL/MOL
REMARK 927      BINDING AFFINITY PREDICTED BY RF-SCORE:    0.00 PKD
ROOT
HETATM    1 CL   UNL     1     -11.410  16.022  68.309  1.00  0.00    -0.350 Cl 
HETATM    2  C   UNL     1     -10.935  14.354  68.723  1.00  0.00    -0.250 C  
HETATM    3  C   UNL     1      -9.764  13.903  67.856  1.00  0.00    -0.231 C  
ENDROOT
BRANCH   3   4
HETATM    4  N   UNL     1      -9.356  12.521  68.130  1.00  0.00    -0.207 N  
BRANCH   4   5
HETATM    5  N   UNL     1     -10.000  11.772  69.122  1.00  0.00    -0.410 NA 
HETATM    6  H   UNL     1     -10.575  12.196  69.851  1.00  0.00     0.000 HD 
HETATM    7  O   UNL     1      -9.812  10.554  69.038  1.00  0.00    -0.194 OA 
HETATM    8  H   UNL     1     -10.249  10.046  69.711  1.00  0.00     0.000 HD 
ENDBRANCH   4   5
BRANCH   4   9
HETATM    9  C   UNL     1      -8.449  11.908  67.269  1.00  0.00    -0.172 C  
HETATM   10  O   UNL     1      -7.380  11.443  67.667  1.00  0.00    -0.093 OA 
BRANCH   9  11
HETATM   11  N   UNL     1      -8.791  11.885  65.930  1.00  0.00    -0.407 N  
HETATM   12  H   UNL     1      -8.230  12.420  65.268  1.00  0.00     0.000 HD 
BRANCH  11  13
HETATM   13  C   UNL     1      -9.933  11.117  65.433  1.00  0.00    -0.259 C  
HETATM   14  C   UNL     1     -10.441  11.627  64.078  1.00  0.00    -0.418 C  
HETATM   15  C   UNL     1      -9.502  11.296  62.918  1.00  0.00    -0.385 C  
HETATM   16  C   UNL     1      -9.093   9.827  62.875  1.00  0.00    -0.275 C  
HETATM   17  C   UNL     1      -8.626   9.291  64.224  1.00  0.00    -0.214 C  
HETATM   18  C   UNL     1      -9.597   9.625  65.355  1.00  0.00    -0.361 C  
ENDBRANCH  11  13
ENDBRANCH   9  11
ENDBRANCH   4   9
ENDBRANCH   3   4
TORSDOF 5
ENDMDL
MODEL      186
REMARK 921   NORMALIZED FREE ENERGY PREDICTED BY IDOCK:   -3.33 KCAL/MOL
REMARK 922        TOTAL FREE ENERGY PREDICTED BY IDOCK:   -4.90 KCAL/MOL
REMARK 923 INTER-LIGAND FREE ENERGY PREDICTED BY IDOCK:   -4.17 KCAL/MOL
REMARK 924 INTRA-LIGAND FREE ENERGY PREDICTED BY IDOCK:   -0.73 KCAL/MOL
REMARK 927      BINDING AFFINITY PREDICTED BY RF-SCORE:    0.00 PKD
ROOT
HETATM    1 CL   UNL     1     -11.951   8.561  72.344  1.00  0.00    -0.447 Cl 
HETATM    2  C   UNL     1     -11.019   9.651  71.285  1.00  0.00    -0.329 C  
HETATM    3  C   UNL     1      -9.692   9.008  70.895  1.00  0.00    -0.264 C  
ENDROOT
BRANCH   3   4
HETATM    4  N   UNL     1      -8.868   9.879  70.051  1.00  0.00    -0.200 N  
BRANCH   4   5
HETATM    5  N   UNL     1      -7.651  10.385  70.525  1.00  0.00    -0.395 NA 
HETATM    6  H   UNL     1      -7.436  10.472  71.519  1.00  0.00     0.000 HD 
HETATM    7  O   UNL     1      -6.861  10.717  69.635  1.00  0.00    -0.093 OA 
HETATM    8  H   UNL     1      -6.035  11.060  69.956  1.00  0.00     0.000 HD 
ENDBRANCH   4   5
BRANCH   4   9
HETATM    9  C   UNL     1      -9.221  10.044  68.714  1.00  0.00    -0.159 C  
HETATM   10  O   UNL     1      -9.102   9.137  67.889  1.00  0.00    -0.128 OA 
BRANCH   9  11
HETATM   11  N   UNL     1      -9.676  11.297  68.348  1.00  0.00    -0.188 N  
HETATM   12  H   UNL     1      -9.003  12.056  68.246  1.00  0.00     0.000 HD 
BRANCH  11  13
HETATM   13  C   UNL     1     -11.092  11.568  68.102  1.00  0.00    -0.246 C  
HETATM   14  C   UNL     1     -11.676  12.587  69.089  1.00  0.00    -0.375 C  
HETATM   15  C   UNL     1     -11.189  14.015  68.843  1.00  0.00    -0.303 C  
HETATM   16  C   UNL     1     -11.334  14.458  67.390  1.00  0.00    -0.353 C  
HETATM   17  C   UNL     1     -10.798  13.436  66.391  1.00  0.00    -0.294 C  
HETATM   18  C   UNL     1     -11.320  12.026  66.658  1.00  0.00    -0.399 C  
ENDBRANCH  11  13
ENDBRANCH   9  11
ENDBRANCH   4   9
ENDBRANCH   3   4
TORSDOF 5
ENDMDL
MODEL      187
REMARK 921   NORMALIZED FREE ENERGY PREDICTED BY IDOCK:   -3.33 KCAL/MOL
REMARK 922        TOTAL FREE ENERGY PREDICTED BY IDOCK:   -4.90 KCAL/MOL
REMARK 923 INTER-LIGAND FREE ENERGY PREDICTED BY IDOCK:   -4.22 KCAL/MOL
REMARK 924 INTRA-LIGAND FREE ENERGY PREDICTED BY IDOCK:   -0.68 KCAL/MOL
REMARK 927      BINDING AFFINITY PREDICTED BY RF-SCORE:    0.00 PKD
ROOT
HETATM    1 CL   UNL     1      -8.770  10.438  64.703  1.00  0.00    -0.189 Cl 
HETATM    2  C   UNL     1      -9.160  10.598  66.436  1.00  0.00    -0.164 C  
HETATM    3  C   UNL     1      -9.911  11.900  66.694  1.00  0.00    -0.201 C  
ENDROOT
BRANCH   3   4
HETATM    4  N   UNL     1     -10.224  12.100  68.113  1.00  0.00    -0.198 N  
BRANCH   4   5
HETATM    5  N   UNL     1      -9.862  13.286  68.761  1.00  0.00    -0.421 NA 
HETATM    6  H   UNL     1      -9.055  13.846  68.483  1.00  0.00     0.000 HD 
HETATM    7  O   UNL     1     -10.602  13.596  69.700  1.00  0.00    -0.426 OA 
HETATM    8  H   UNL     1     -10.356  14.401  70.141  1.00  0.00     0.000 HD 
ENDBRANCH   4   5
BRANCH   4   9
HETATM    9  C   UNL     1     -11.047  11.176  68.753  1.00  0.00    -0.236 C  
HETATM   10  O   UNL     1     -12.212  10.983  68.401  1.00  0.00    -0.586 OA 
BRANCH   9  11
HETATM   11  N   UNL     1     -10.501  10.511  69.834  1.00  0.00    -0.418 N  
HETATM   12  H   UNL     1      -9.792  10.982  70.395  1.00  0.00     0.000 HD 
BRANCH  11  13
HETATM   13  C   UNL     1     -10.908   9.155  70.199  1.00  0.00    -0.240 C  
HETATM   14  C   UNL     1     -10.184   8.081  69.376  1.00  0.00    -0.210 C  
HETATM   15  C   UNL     1      -8.713   7.919  69.756  1.00  0.00    -0.137 C  
HETATM   16  C   UNL     1      -8.492   7.754  71.256  1.00  0.00    -0.125 C  
HETATM   17  C   UNL     1      -9.241   8.787  72.093  1.00  0.00    -0.248 C  
HETATM   18  C   UNL     1     -10.711   8.908  71.698  1.00  0.00    -0.418 C  
ENDBRANCH  11  13
ENDBRANCH   9  11
ENDBRANCH   4   9
ENDBRANCH   3   4
TORSDOF 5
ENDMDL
MODEL      188
REMARK 921   NORMALIZED FREE ENERGY PREDICTED BY IDOCK:   -3.33 KCAL/MOL
REMARK 922        TOTAL FREE ENERGY PREDICTED BY IDOCK:   -4.89 KCAL/MOL
REMARK 923 INTER-LIGAND FREE ENERGY PREDICTED BY IDOCK:   -4.42 KCAL/MOL
REMARK 924 INTRA-LIGAND FREE ENERGY PREDICTED BY IDOCK:   -0.48 KCAL/MOL
REMARK 927      BINDING AFFINITY PREDICTED BY RF-SCORE:    0.00 PKD
ROOT
HETATM    1 CL   UNL     1     -10.873  18.087  65.558  1.00  0.00    -0.108 Cl 
HETATM    2  C   UNL     1     -11.301  16.578  64.710  1.00  0.00    -0.075 C  
HETATM    3  C   UNL     1     -10.875  15.366  65.532  1.00  0.00    -0.374 C  
ENDROOT
BRANCH   3   4
HETATM    4  N   UNL     1     -11.171  14.095  64.862  1.00  0.00    -0.355 N  
BRANCH   4   5
HETATM    5  N   UNL     1     -12.052  14.052  63.775  1.00  0.00    -0.857 NA 
HETATM    6  H   UNL     1     -11.994  14.699  62.988  1.00  0.00     0.000 HD 
HETATM    7  O   UNL     1     -12.908  13.164  63.852  1.00  0.00    -0.653 OA 
HETATM    8  H   UNL     1     -13.506  13.134  63.115  1.00  0.00     0.000 HD 
ENDBRANCH   4   5
BRANCH   4   9
HETATM    9  C   UNL     1     -10.424  12.969  65.202  1.00  0.00    -0.320 C  
HETATM   10  O   UNL     1     -10.781  11.831  64.896  1.00  0.00    -0.275 OA 
BRANCH   9  11
HETATM   11  N   UNL     1      -9.278  13.192  65.942  1.00  0.00    -0.456 N  
HETATM   12  H   UNL     1      -8.590  13.860  65.596  1.00  0.00     0.000 HD 
BRANCH  11  13
HETATM   13  C   UNL     1      -9.022  12.500  67.204  1.00  0.00    -0.200 C  
HETATM   14  C   UNL     1      -8.249  11.189  67.011  1.00  0.00    -0.146 C  
HETATM   15  C   UNL     1      -6.782  11.401  66.638  1.00  0.00    -0.112 C  
HETATM   16  C   UNL     1      -6.060  12.374  67.565  1.00  0.00    -0.148 C  
HETATM   17  C   UNL     1      -6.835  13.667  67.804  1.00  0.00    -0.175 C  
HETATM   18  C   UNL     1      -8.290  13.415  68.192  1.00  0.00    -0.164 C  
ENDBRANCH  11  13
ENDBRANCH   9  11
ENDBRANCH   4   9
ENDBRANCH   3   4
TORSDOF 5
ENDMDL
MODEL      189
REMARK 921   NORMALIZED FREE ENERGY PREDICTED BY IDOCK:   -3.30 KCAL/MOL
REMARK 922        TOTAL FREE ENERGY PREDICTED BY IDOCK:   -4.86 KCAL/MOL
REMARK 923 INTER-LIGAND FREE ENERGY PREDICTED BY IDOCK:   -4.48 KCAL/MOL
REMARK 924 INTRA-LIGAND FREE ENERGY PREDICTED BY IDOCK:   -0.39 KCAL/MOL
REMARK 927      BINDING AFFINITY PREDICTED BY RF-SCORE:    0.00 PKD
ROOT
HETATM    1 CL   UNL     1     -13.327  15.290  73.037  1.00  0.00    -0.584 Cl 
HETATM    2  C   UNL     1     -12.527  15.697  71.496  1.00  0.00    -0.437 C  
HETATM    3  C   UNL     1     -12.342  14.446  70.645  1.00  0.00    -0.351 C  
ENDROOT
BRANCH   3   4
HETATM    4  N   UNL     1     -11.654  14.718  69.380  1.00  0.00    -0.292 N  
BRANCH   4   5
HETATM    5  N   UNL     1     -12.216  14.317  68.162  1.00  0.00    -0.580 NA 
HETATM    6  H   UNL     1     -13.222  14.322  67.988  1.00  0.00     0.000 HD 
HETATM    7  O   UNL     1     -11.390  13.957  67.317  1.00  0.00    -0.298 OA 
HETATM    8  H   UNL     1     -11.771  13.685  66.491  1.00  0.00     0.000 HD 
ENDBRANCH   4   5
BRANCH   4   9
HETATM    9  C   UNL     1     -10.529  15.541  69.394  1.00  0.00    -0.253 C  
HETATM   10  O   UNL     1     -10.615  16.767  69.317  1.00  0.00    -0.319 OA 
BRANCH   9  11
HETATM   11  N   UNL     1      -9.303  14.906  69.457  1.00  0.00    -0.426 N  
HETATM   12  H   UNL     1      -9.232  14.018  69.953  1.00  0.00     0.000 HD 
BRANCH  11  13
HETATM   13  C   UNL     1      -8.105  15.467  68.834  1.00  0.00    -0.185 C  
HETATM   14  C   UNL     1      -6.861  15.332  69.722  1.00  0.00    -0.172 C  
HETATM   15  C   UNL     1      -6.341  13.898  69.820  1.00  0.00    -0.125 C  
HETATM   16  C   UNL     1      -6.165  13.228  68.460  1.00  0.00    -0.081 C  
HETATM   17  C   UNL     1      -7.375  13.390  67.546  1.00  0.00    -0.165 C  
HETATM   18  C   UNL     1      -7.855  14.837  67.460  1.00  0.00    -0.208 C  
ENDBRANCH  11  13
ENDBRANCH   9  11
ENDBRANCH   4   9
ENDBRANCH   3   4
TORSDOF 5
ENDMDL
MODEL      190
REMARK 921   NORMALIZED FREE ENERGY PREDICTED BY IDOCK:   -3.27 KCAL/MOL
REMARK 922        TOTAL FREE ENERGY PREDICTED BY IDOCK:   -4.82 KCAL/MOL
REMARK 923 INTER-LIGAND FREE ENERGY PREDICTED BY IDOCK:   -4.33 KCAL/MOL
REMARK 924 INTRA-LIGAND FREE ENERGY PREDICTED BY IDOCK:   -0.50 KCAL/MOL
REMARK 927      BINDING AFFINITY PREDICTED BY RF-SCORE:    0.00 PKD
ROOT
HETATM    1 CL   UNL     1      -7.157  11.110  69.068  1.00  0.00    -0.104 Cl 
HETATM    2  C   UNL     1      -7.743  10.427  67.528  1.00  0.00    -0.094 C  
HETATM    3  C   UNL     1      -9.246  10.183  67.593  1.00  0.00    -0.141 C  
ENDROOT
BRANCH   3   4
HETATM    4  N   UNL     1      -9.776   9.586  66.362  1.00  0.00    -0.212 N  
BRANCH   4   5
HETATM    5  N   UNL     1     -10.337   8.303  66.377  1.00  0.00    -0.419 NA 
HETATM    6  H   UNL     1     -10.132   7.600  65.668  1.00  0.00     0.000 HD 
HETATM    7  O   UNL     1     -11.104   8.098  67.324  1.00  0.00    -0.451 OA 
HETATM    8  H   UNL     1     -11.485   7.228  67.335  1.00  0.00     0.000 HD 
ENDBRANCH   4   5
BRANCH   4   9
HETATM    9  C   UNL     1      -9.879  10.381  65.223  1.00  0.00    -0.297 C  
HETATM   10  O   UNL     1      -9.108  10.263  64.270  1.00  0.00    -0.200 OA 
BRANCH   9  11
HETATM   11  N   UNL     1     -10.871  11.344  65.233  1.00  0.00    -0.265 N  
HETATM   12  H   UNL     1     -11.808  11.083  65.539  1.00  0.00     0.000 HD 
BRANCH  11  13
HETATM   13  C   UNL     1     -10.619  12.723  64.819  1.00  0.00    -0.327 C  
HETATM   14  C   UNL     1     -11.896  13.445  64.368  1.00  0.00    -0.452 C  
HETATM   15  C   UNL     1     -12.835  13.789  65.524  1.00  0.00    -0.464 C  
HETATM   16  C   UNL     1     -12.135  14.502  66.677  1.00  0.00    -0.319 C  
HETATM   17  C   UNL     1     -10.840  13.823  67.109  1.00  0.00    -0.288 C  
HETATM   18  C   UNL     1      -9.920  13.511  65.931  1.00  0.00    -0.295 C  
ENDBRANCH  11  13
ENDBRANCH   9  11
ENDBRANCH   4   9
ENDBRANCH   3   4
TORSDOF 5
ENDMDL
MODEL      191
REMARK 921   NORMALIZED FREE ENERGY PREDICTED BY IDOCK:   -3.27 KCAL/MOL
REMARK 922        TOTAL FREE ENERGY PREDICTED BY IDOCK:   -4.82 KCAL/MOL
REMARK 923 INTER-LIGAND FREE ENERGY PREDICTED BY IDOCK:   -4.67 KCAL/MOL
REMARK 924 INTRA-LIGAND FREE ENERGY PREDICTED BY IDOCK:   -0.15 KCAL/MOL
REMARK 927      BINDING AFFINITY PREDICTED BY RF-SCORE:    0.00 PKD
ROOT
HETATM    1 CL   UNL     1     -10.299  10.203  66.542  1.00  0.00    -0.287 Cl 
HETATM    2  C   UNL     1      -9.731   9.080  67.804  1.00  0.00    -0.156 C  
HETATM    3  C   UNL     1     -10.302   7.685  67.572  1.00  0.00    -0.257 C  
ENDROOT
BRANCH   3   4
HETATM    4  N   UNL     1      -9.895   6.727  68.605  1.00  0.00    -0.141 N  
BRANCH   4   5
HETATM    5  N   UNL     1      -8.603   6.188  68.607  1.00  0.00    -0.113 NA 
HETATM    6  H   UNL     1      -7.937   6.342  67.849  1.00  0.00     0.000 HD 
HETATM    7  O   UNL     1      -8.340   5.508  69.604  1.00  0.00    -0.099 OA 
HETATM    8  H   UNL     1      -7.464   5.142  69.606  1.00  0.00     0.000 HD 
ENDBRANCH   4   5
BRANCH   4   9
HETATM    9  C   UNL     1     -10.747   6.506  69.685  1.00  0.00    -0.269 C  
HETATM   10  O   UNL     1     -10.904   5.387  70.176  1.00  0.00    -0.281 OA 
BRANCH   9  11
HETATM   11  N   UNL     1     -11.443   7.603  70.154  1.00  0.00    -0.472 N  
HETATM   12  H   UNL     1     -12.329   7.851  69.714  1.00  0.00     0.000 HD 
BRANCH  11  13
HETATM   13  C   UNL     1     -10.951   8.421  71.262  1.00  0.00    -0.252 C  
HETATM   14  C   UNL     1     -10.550   9.834  70.819  1.00  0.00    -0.371 C  
HETATM   15  C   UNL     1     -11.746  10.722  70.478  1.00  0.00    -0.449 C  
HETATM   16  C   UNL     1     -12.818  10.732  71.563  1.00  0.00    -0.567 C  
HETATM   17  C   UNL     1     -13.198   9.336  72.049  1.00  0.00    -0.519 C  
HETATM   18  C   UNL     1     -11.978   8.484  72.396  1.00  0.00    -0.434 C  
ENDBRANCH  11  13
ENDBRANCH   9  11
ENDBRANCH   4   9
ENDBRANCH   3   4
TORSDOF 5
ENDMDL
MODEL      192
REMARK 921   NORMALIZED FREE ENERGY PREDICTED BY IDOCK:   -3.27 KCAL/MOL
REMARK 922        TOTAL FREE ENERGY PREDICTED BY IDOCK:   -4.82 KCAL/MOL
REMARK 923 INTER-LIGAND FREE ENERGY PREDICTED BY IDOCK:   -4.30 KCAL/MOL
REMARK 924 INTRA-LIGAND FREE ENERGY PREDICTED BY IDOCK:   -0.52 KCAL/MOL
REMARK 927      BINDING AFFINITY PREDICTED BY RF-SCORE:    0.00 PKD
ROOT
HETATM    1 CL   UNL     1      -9.807   6.672  66.491  1.00  0.00    -0.198 Cl 
HETATM    2  C   UNL     1      -9.838   7.761  67.903  1.00  0.00    -0.160 C  
HETATM    3  C   UNL     1     -10.352   9.139  67.501  1.00  0.00    -0.261 C  
ENDROOT
BRANCH   3   4
HETATM    4  N   UNL     1     -10.363  10.087  68.621  1.00  0.00    -0.181 N  
BRANCH   4   5
HETATM    5  N   UNL     1     -10.882   9.712  69.866  1.00  0.00    -0.243 NA 
HETATM    6  H   UNL     1     -11.775   9.230  69.972  1.00  0.00     0.000 HD 
HETATM    7  O   UNL     1     -10.164  10.015  70.825  1.00  0.00    -0.364 OA 
HETATM    8  H   UNL     1     -10.516   9.761  71.670  1.00  0.00     0.000 HD 
ENDBRANCH   4   5
BRANCH   4   9
HETATM    9  C   UNL     1      -9.686  11.296  68.480  1.00  0.00    -0.198 C  
HETATM   10  O   UNL     1      -8.613  11.379  67.880  1.00  0.00    -0.131 OA 
BRANCH   9  11
HETATM   11  N   UNL     1     -10.260  12.397  69.086  1.00  0.00    -0.411 N  
HETATM   12  H   UNL     1      -9.684  12.986  69.687  1.00  0.00     0.000 HD 
BRANCH  11  13
HETATM   13  C   UNL     1     -11.668  12.744  68.894  1.00  0.00    -0.326 C  
HETATM   14  C   UNL     1     -12.363  13.133  70.205  1.00  0.00    -0.319 C  
HETATM   15  C   UNL     1     -11.928  14.499  70.737  1.00  0.00    -0.388 C  
HETATM   16  C   UNL     1     -11.997  15.603  69.687  1.00  0.00    -0.367 C  
HETATM   17  C   UNL     1     -11.349  15.217  68.361  1.00  0.00    -0.338 C  
HETATM   18  C   UNL     1     -11.821  13.856  67.853  1.00  0.00    -0.413 C  
ENDBRANCH  11  13
ENDBRANCH   9  11
ENDBRANCH   4   9
ENDBRANCH   3   4
TORSDOF 5
ENDMDL
MODEL      193
REMARK 921   NORMALIZED FREE ENERGY PREDICTED BY IDOCK:   -3.27 KCAL/MOL
REMARK 922        TOTAL FREE ENERGY PREDICTED BY IDOCK:   -4.82 KCAL/MOL
REMARK 923 INTER-LIGAND FREE ENERGY PREDICTED BY IDOCK:   -4.27 KCAL/MOL
REMARK 924 INTRA-LIGAND FREE ENERGY PREDICTED BY IDOCK:   -0.54 KCAL/MOL
REMARK 927      BINDING AFFINITY PREDICTED BY RF-SCORE:    0.00 PKD
ROOT
HETATM    1 CL   UNL     1      -7.622   8.436  73.628  1.00  0.00    -0.180 Cl 
HETATM    2  C   UNL     1      -9.322   8.003  73.312  1.00  0.00    -0.275 C  
HETATM    3  C   UNL     1      -9.793   8.620  71.999  1.00  0.00    -0.325 C  
ENDROOT
BRANCH   3   4
HETATM    4  N   UNL     1     -11.200   8.325  71.708  1.00  0.00    -0.266 N  
BRANCH   4   5
HETATM    5  N   UNL     1     -12.210   9.204  72.115  1.00  0.00    -0.360 NA 
HETATM    6  H   UNL     1     -12.251  10.179  71.817  1.00  0.00     0.000 HD 
HETATM    7  O   UNL     1     -13.049   8.697  72.869  1.00  0.00    -0.671 OA 
HETATM    8  H   UNL     1     -13.734   9.294  73.145  1.00  0.00     0.000 HD 
ENDBRANCH   4   5
BRANCH   4   9
HETATM    9  C   UNL     1     -11.499   7.258  70.864  1.00  0.00    -0.292 C  
HETATM   10  O   UNL     1     -12.627   6.767  70.805  1.00  0.00    -0.311 OA 
BRANCH   9  11
HETATM   11  N   UNL     1     -10.451   6.749  70.121  1.00  0.00    -0.202 N  
HETATM   12  H   UNL     1      -9.500   7.036  70.349  1.00  0.00     0.000 HD 
BRANCH  11  13
HETATM   13  C   UNL     1     -10.663   5.811  69.019  1.00  0.00    -0.284 C  
HETATM   14  C   UNL     1     -10.998   6.519  67.700  1.00  0.00    -0.426 C  
HETATM   15  C   UNL     1      -9.801   7.236  67.078  1.00  0.00    -0.265 C  
HETATM   16  C   UNL     1      -8.560   6.355  66.970  1.00  0.00    -0.112 C  
HETATM   17  C   UNL     1      -8.237   5.608  68.260  1.00  0.00    -0.103 C  
HETATM   18  C   UNL     1      -9.452   4.890  68.842  1.00  0.00    -0.202 C  
ENDBRANCH  11  13
ENDBRANCH   9  11
ENDBRANCH   4   9
ENDBRANCH   3   4
TORSDOF 5
ENDMDL
MODEL      194
REMARK 921   NORMALIZED FREE ENERGY PREDICTED BY IDOCK:   -3.26 KCAL/MOL
REMARK 922        TOTAL FREE ENERGY PREDICTED BY IDOCK:   -4.81 KCAL/MOL
REMARK 923 INTER-LIGAND FREE ENERGY PREDICTED BY IDOCK:   -4.25 KCAL/MOL
REMARK 924 INTRA-LIGAND FREE ENERGY PREDICTED BY IDOCK:   -0.56 KCAL/MOL
REMARK 927      BINDING AFFINITY PREDICTED BY RF-SCORE:    0.00 PKD
ROOT
HETATM    1 CL   UNL     1      -9.304   5.716  66.235  1.00  0.00    -0.164 Cl 
HETATM    2  C   UNL     1      -8.848   7.383  65.796  1.00  0.00    -0.075 C  
HETATM    3  C   UNL     1      -9.859   8.377  66.359  1.00  0.00    -0.240 C  
ENDROOT
BRANCH   3   4
HETATM    4  N   UNL     1      -9.552   9.764  65.995  1.00  0.00    -0.215 N  
BRANCH   4   5
HETATM    5  N   UNL     1      -9.240  10.101  64.673  1.00  0.00    -0.229 NA 
HETATM    6  H   UNL     1      -8.284  10.243  64.347  1.00  0.00     0.000 HD 
HETATM    7  O   UNL     1     -10.224  10.211  63.934  1.00  0.00    -0.464 OA 
HETATM    8  H   UNL     1     -10.013  10.440  63.036  1.00  0.00     0.000 HD 
ENDBRANCH   4   5
BRANCH   4   9
HETATM    9  C   UNL     1      -9.754  10.765  66.943  1.00  0.00    -0.178 C  
HETATM   10  O   UNL     1      -9.107  10.815  67.990  1.00  0.00    -0.143 OA 
BRANCH   9  11
HETATM   11  N   UNL     1     -10.752  11.680  66.667  1.00  0.00    -0.258 N  
HETATM   12  H   UNL     1     -11.590  11.364  66.178  1.00  0.00     0.000 HD 
BRANCH  11  13
HETATM   13  C   UNL     1     -10.646  13.086  67.054  1.00  0.00    -0.257 C  
HETATM   14  C   UNL     1      -9.803  13.906  66.069  1.00  0.00    -0.306 C  
HETATM   15  C   UNL     1     -10.507  14.155  64.734  1.00  0.00    -0.432 C  
HETATM   16  C   UNL     1     -11.921  14.704  64.893  1.00  0.00    -0.402 C  
HETATM   17  C   UNL     1     -12.760  13.927  65.903  1.00  0.00    -0.466 C  
HETATM   18  C   UNL     1     -12.032  13.713  67.228  1.00  0.00    -0.420 C  
ENDBRANCH  11  13
ENDBRANCH   9  11
ENDBRANCH   4   9
ENDBRANCH   3   4
TORSDOF 5
ENDMDL
MODEL      195
REMARK 921   NORMALIZED FREE ENERGY PREDICTED BY IDOCK:   -3.26 KCAL/MOL
REMARK 922        TOTAL FREE ENERGY PREDICTED BY IDOCK:   -4.81 KCAL/MOL
REMARK 923 INTER-LIGAND FREE ENERGY PREDICTED BY IDOCK:   -4.50 KCAL/MOL
REMARK 924 INTRA-LIGAND FREE ENERGY PREDICTED BY IDOCK:   -0.31 KCAL/MOL
REMARK 927      BINDING AFFINITY PREDICTED BY RF-SCORE:    0.00 PKD
ROOT
HETATM    1 CL   UNL     1     -13.287  13.718  71.962  1.00  0.00    -0.491 Cl 
HETATM    2  C   UNL     1     -12.296  13.850  70.485  1.00  0.00    -0.369 C  
HETATM    3  C   UNL     1     -11.339  15.031  70.590  1.00  0.00    -0.271 C  
ENDROOT
BRANCH   3   4
HETATM    4  N   UNL     1     -10.523  15.208  69.384  1.00  0.00    -0.246 N  
BRANCH   4   5
HETATM    5  N   UNL     1      -9.232  14.672  69.313  1.00  0.00    -0.400 NA 
HETATM    6  H   UNL     1      -8.390  15.243  69.396  1.00  0.00     0.000 HD 
HETATM    7  O   UNL     1      -9.200  13.449  69.140  1.00  0.00    -0.285 OA 
HETATM    8  H   UNL     1      -8.324  13.086  69.092  1.00  0.00     0.000 HD 
ENDBRANCH   4   5
BRANCH   4   9
HETATM    9  C   UNL     1     -11.119  15.753  68.248  1.00  0.00    -0.342 C  
HETATM   10  O   UNL     1     -11.677  15.053  67.403  1.00  0.00    -0.338 OA 
BRANCH   9  11
HETATM   11  N   UNL     1     -11.014  17.123  68.096  1.00  0.00    -0.314 N  
HETATM   12  H   UNL     1     -11.241  17.725  68.887  1.00  0.00     0.000 HD 
BRANCH  11  13
HETATM   13  C   UNL     1     -10.590  17.735  66.838  1.00  0.00    -0.244 C  
HETATM   14  C   UNL     1     -11.214  19.119  66.616  1.00  0.00     0.179 C  
HETATM   15  C   UNL     1     -10.631  20.197  67.529  1.00  0.00    -0.336 C  
HETATM   16  C   UNL     1      -9.106  20.235  67.520  1.00  0.00    -0.462 C  
HETATM   17  C   UNL     1      -8.468  18.860  67.695  1.00  0.00    -0.304 C  
HETATM   18  C   UNL     1      -9.062  17.814  66.755  1.00  0.00    -0.273 C  
ENDBRANCH  11  13
ENDBRANCH   9  11
ENDBRANCH   4   9
ENDBRANCH   3   4
TORSDOF 5
ENDMDL
MODEL      196
REMARK 921   NORMALIZED FREE ENERGY PREDICTED BY IDOCK:   -3.25 KCAL/MOL
REMARK 922        TOTAL FREE ENERGY PREDICTED BY IDOCK:   -4.80 KCAL/MOL
REMARK 923 INTER-LIGAND FREE ENERGY PREDICTED BY IDOCK:   -4.23 KCAL/MOL
REMARK 924 INTRA-LIGAND FREE ENERGY PREDICTED BY IDOCK:   -0.57 KCAL/MOL
REMARK 927      BINDING AFFINITY PREDICTED BY RF-SCORE:    0.00 PKD
ROOT
HETATM    1 CL   UNL     1      -6.793  14.153  68.251  1.00  0.00    -0.094 Cl 
HETATM    2  C   UNL     1      -8.321  13.298  67.913  1.00  0.00    -0.163 C  
HETATM    3  C   UNL     1      -8.052  12.007  67.148  1.00  0.00    -0.177 C  
ENDROOT
BRANCH   3   4
HETATM    4  N   UNL     1      -9.281  11.282  66.812  1.00  0.00    -0.171 N  
BRANCH   4   5
HETATM    5  N   UNL     1     -10.028  10.646  67.810  1.00  0.00    -0.164 NA 
HETATM    6  H   UNL     1      -9.919  10.856  68.803  1.00  0.00     0.000 HD 
HETATM    7  O   UNL     1     -10.830   9.807  67.385  1.00  0.00    -0.274 OA 
HETATM    8  H   UNL     1     -11.337   9.375  68.062  1.00  0.00     0.000 HD 
ENDBRANCH   4   5
BRANCH   4   9
HETATM    9  C   UNL     1      -9.790  11.392  65.519  1.00  0.00    -0.231 C  
HETATM   10  O   UNL     1     -10.095  10.403  64.850  1.00  0.00    -0.322 OA 
BRANCH   9  11
HETATM   11  N   UNL     1      -9.898  12.670  65.007  1.00  0.00    -0.476 N  
HETATM   12  H   UNL     1      -9.047  13.184  64.778  1.00  0.00     0.000 HD 
BRANCH  11  13
HETATM   13  C   UNL     1     -11.193  13.311  64.783  1.00  0.00    -0.331 C  
HETATM   14  C   UNL     1     -12.235  12.919  65.838  1.00  0.00    -0.469 C  
HETATM   15  C   UNL     1     -11.975  13.547  67.207  1.00  0.00    -0.408 C  
HETATM   16  C   UNL     1     -11.746  15.054  67.144  1.00  0.00    -0.227 C  
HETATM   17  C   UNL     1     -10.745  15.467  66.069  1.00  0.00    -0.331 C  
HETATM   18  C   UNL     1     -11.046  14.834  64.712  1.00  0.00    -0.393 C  
ENDBRANCH  11  13
ENDBRANCH   9  11
ENDBRANCH   4   9
ENDBRANCH   3   4
TORSDOF 5
ENDMDL
MODEL      197
REMARK 921   NORMALIZED FREE ENERGY PREDICTED BY IDOCK:   -3.24 KCAL/MOL
REMARK 922        TOTAL FREE ENERGY PREDICTED BY IDOCK:   -4.78 KCAL/MOL
REMARK 923 INTER-LIGAND FREE ENERGY PREDICTED BY IDOCK:   -4.28 KCAL/MOL
REMARK 924 INTRA-LIGAND FREE ENERGY PREDICTED BY IDOCK:   -0.50 KCAL/MOL
REMARK 927      BINDING AFFINITY PREDICTED BY RF-SCORE:    0.00 PKD
ROOT
HETATM    1 CL   UNL     1     -11.255  12.390  67.657  1.00  0.00    -0.315 Cl 
HETATM    2  C   UNL     1     -10.755  10.987  66.677  1.00  0.00    -0.249 C  
HETATM    3  C   UNL     1     -10.682   9.733  67.541  1.00  0.00    -0.264 C  
ENDROOT
BRANCH   3   4
HETATM    4  N   UNL     1     -10.238   8.553  66.791  1.00  0.00    -0.298 N  
BRANCH   4   5
HETATM    5  N   UNL     1      -9.481   8.697  65.622  1.00  0.00    -0.446 NA 
HETATM    6  H   UNL     1      -9.298   9.601  65.188  1.00  0.00     0.000 HD 
HETATM    7  O   UNL     1      -9.054   7.632  65.162  1.00  0.00    -0.361 OA 
HETATM    8  H   UNL     1      -8.541   7.729  64.369  1.00  0.00     0.000 HD 
ENDBRANCH   4   5
BRANCH   4   9
HETATM    9  C   UNL     1     -10.421   7.293  67.356  1.00  0.00    -0.289 C  
HETATM   10  O   UNL     1     -11.156   6.447  66.844  1.00  0.00    -0.384 OA 
BRANCH   9  11
HETATM   11  N   UNL     1      -9.767   7.052  68.549  1.00  0.00    -0.140 N  
HETATM   12  H   UNL     1      -8.912   7.569  68.756  1.00  0.00     0.000 HD 
BRANCH  11  13
HETATM   13  C   UNL     1     -10.260   6.080  69.524  1.00  0.00    -0.208 C  
HETATM   14  C   UNL     1      -9.270   5.844  70.672  1.00  0.00    -0.167 C  
HETATM   15  C   UNL     1      -9.181   7.021  71.644  1.00  0.00    -0.144 C  
HETATM   16  C   UNL     1     -10.543   7.501  72.134  1.00  0.00    -0.262 C  
HETATM   17  C   UNL     1     -11.555   7.699  71.009  1.00  0.00    -0.301 C  
HETATM   18  C   UNL     1     -11.629   6.497  70.070  1.00  0.00    -0.455 C  
ENDBRANCH  11  13
ENDBRANCH   9  11
ENDBRANCH   4   9
ENDBRANCH   3   4
TORSDOF 5
ENDMDL
MODEL      198
REMARK 921   NORMALIZED FREE ENERGY PREDICTED BY IDOCK:   -3.23 KCAL/MOL
REMARK 922        TOTAL FREE ENERGY PREDICTED BY IDOCK:   -4.77 KCAL/MOL
REMARK 923 INTER-LIGAND FREE ENERGY PREDICTED BY IDOCK:   -4.17 KCAL/MOL
REMARK 924 INTRA-LIGAND FREE ENERGY PREDICTED BY IDOCK:   -0.60 KCAL/MOL
REMARK 927      BINDING AFFINITY PREDICTED BY RF-SCORE:    0.00 PKD
ROOT
HETATM    1 CL   UNL     1      -6.589  18.620  66.597  1.00  0.00    -0.204 Cl 
HETATM    2  C   UNL     1      -6.805  17.421  67.899  1.00  0.00    -0.178 C  
HETATM    3  C   UNL     1      -7.687  16.272  67.422  1.00  0.00    -0.160 C  
ENDROOT
BRANCH   3   4
HETATM    4  N   UNL     1      -7.928  15.272  68.468  1.00  0.00    -0.134 N  
BRANCH   4   5
HETATM    5  N   UNL     1      -6.860  14.581  69.052  1.00  0.00    -0.103 NA 
HETATM    6  H   UNL     1      -5.990  14.383  68.556  1.00  0.00     0.000 HD 
HETATM    7  O   UNL     1      -7.062  14.231  70.220  1.00  0.00    -0.396 OA 
HETATM    8  H   UNL     1      -6.338  13.762  70.616  1.00  0.00     0.000 HD 
ENDBRANCH   4   5
BRANCH   4   9
HETATM    9  C   UNL     1      -9.211  15.156  68.999  1.00  0.00    -0.221 C  
HETATM   10  O   UNL     1      -9.756  16.082  69.602  1.00  0.00    -0.251 OA 
BRANCH   9  11
HETATM   11  N   UNL     1      -9.829  13.929  68.851  1.00  0.00    -0.410 N  
HETATM   12  H   UNL     1      -9.255  13.086  68.833  1.00  0.00     0.000 HD 
BRANCH  11  13
HETATM   13  C   UNL     1     -11.280  13.801  68.719  1.00  0.00    -0.271 C  
HETATM   14  C   UNL     1     -11.811  14.427  67.424  1.00  0.00    -0.430 C  
HETATM   15  C   UNL     1     -11.460  13.620  66.174  1.00  0.00    -0.342 C  
HETATM   16  C   UNL     1     -11.810  12.140  66.295  1.00  0.00    -0.320 C  
HETATM   17  C   UNL     1     -11.328  11.510  67.598  1.00  0.00    -0.358 C  
HETATM   18  C   UNL     1     -11.712  12.335  68.825  1.00  0.00    -0.390 C  
ENDBRANCH  11  13
ENDBRANCH   9  11
ENDBRANCH   4   9
ENDBRANCH   3   4
TORSDOF 5
ENDMDL
MODEL      199
REMARK 921   NORMALIZED FREE ENERGY PREDICTED BY IDOCK:   -3.23 KCAL/MOL
REMARK 922        TOTAL FREE ENERGY PREDICTED BY IDOCK:   -4.77 KCAL/MOL
REMARK 923 INTER-LIGAND FREE ENERGY PREDICTED BY IDOCK:   -4.28 KCAL/MOL
REMARK 924 INTRA-LIGAND FREE ENERGY PREDICTED BY IDOCK:   -0.49 KCAL/MOL
REMARK 927      BINDING AFFINITY PREDICTED BY RF-SCORE:    0.00 PKD
ROOT
HETATM    1 CL   UNL     1     -12.278  13.185  63.304  1.00  0.00    -0.575 Cl 
HETATM    2  C   UNL     1     -11.444  11.610  63.363  1.00  0.00    -0.260 C  
HETATM    3  C   UNL     1      -9.933  11.810  63.408  1.00  0.00    -0.423 C  
ENDROOT
BRANCH   3   4
HETATM    4  N   UNL     1      -9.195  10.543  63.420  1.00  0.00    -0.247 N  
BRANCH   4   5
HETATM    5  N   UNL     1      -9.438   9.568  62.445  1.00  0.00    -0.580 NA 
HETATM    6  H   UNL     1      -9.959   9.758  61.589  1.00  0.00     0.000 HD 
HETATM    7  O   UNL     1      -8.967   8.457  62.712  1.00  0.00    -0.394 OA 
HETATM    8  H   UNL     1      -9.132   7.796  62.051  1.00  0.00     0.000 HD 
ENDBRANCH   4   5
BRANCH   4   9
HETATM    9  C   UNL     1      -8.124  10.401  64.300  1.00  0.00    -0.102 C  
HETATM   10  O   UNL     1      -7.123   9.742  64.012  1.00  0.00    -0.113 OA 
BRANCH   9  11
HETATM   11  N   UNL     1      -8.259  11.005  65.536  1.00  0.00    -0.351 N  
HETATM   12  H   UNL     1      -7.997  11.985  65.637  1.00  0.00     0.000 HD 
BRANCH  11  13
HETATM   13  C   UNL     1      -8.765  10.283  66.702  1.00  0.00    -0.127 C  
HETATM   14  C   UNL     1      -8.280  10.889  68.026  1.00  0.00    -0.121 C  
HETATM   15  C   UNL     1      -8.942  12.225  68.358  1.00  0.00    -0.141 C  
HETATM   16  C   UNL     1     -10.464  12.185  68.257  1.00  0.00    -0.225 C  
HETATM   17  C   UNL     1     -10.966  11.545  66.966  1.00  0.00    -0.347 C  
HETATM   18  C   UNL     1     -10.295  10.204  66.677  1.00  0.00    -0.274 C  
ENDBRANCH  11  13
ENDBRANCH   9  11
ENDBRANCH   4   9
ENDBRANCH   3   4
TORSDOF 5
ENDMDL
MODEL      200
REMARK 921   NORMALIZED FREE ENERGY PREDICTED BY IDOCK:   -3.22 KCAL/MOL
REMARK 922        TOTAL FREE ENERGY PREDICTED BY IDOCK:   -4.76 KCAL/MOL
REMARK 923 INTER-LIGAND FREE ENERGY PREDICTED BY IDOCK:   -4.04 KCAL/MOL
REMARK 924 INTRA-LIGAND FREE ENERGY PREDICTED BY IDOCK:   -0.72 KCAL/MOL
REMARK 927      BINDING AFFINITY PREDICTED BY RF-SCORE:    0.00 PKD
ROOT
HETATM    1 CL   UNL     1     -10.058   5.233  72.549  1.00  0.00    -0.213 Cl 
HETATM    2  C   UNL     1     -10.364   6.310  71.161  1.00  0.00    -0.209 C  
HETATM    3  C   UNL     1     -10.130   5.568  69.850  1.00  0.00    -0.235 C  
ENDROOT
BRANCH   3   4
HETATM    4  N   UNL     1     -10.332   6.420  68.674  1.00  0.00    -0.180 N  
BRANCH   4   5
HETATM    5  N   UNL     1     -11.588   6.499  68.059  1.00  0.00    -0.527 NA 
HETATM    6  H   UNL     1     -12.460   6.553  68.585  1.00  0.00     0.000 HD 
HETATM    7  O   UNL     1     -11.547   6.498  66.824  1.00  0.00    -0.731 OA 
HETATM    8  H   UNL     1     -12.399   6.552  66.407  1.00  0.00     0.000 HD 
ENDBRANCH   4   5
BRANCH   4   9
HETATM    9  C   UNL     1      -9.310   7.287  68.292  1.00  0.00    -0.135 C  
HETATM   10  O   UNL     1      -8.121   6.996  68.429  1.00  0.00    -0.121 OA 
BRANCH   9  11
HETATM   11  N   UNL     1      -9.700   8.512  67.786  1.00  0.00    -0.156 N  
HETATM   12  H   UNL     1     -10.212   8.542  66.905  1.00  0.00     0.000 HD 
BRANCH  11  13
HETATM   13  C   UNL     1      -9.401   9.767  68.475  1.00  0.00    -0.142 C  
HETATM   14  C   UNL     1      -9.799  11.000  67.652  1.00  0.00    -0.192 C  
HETATM   15  C   UNL     1     -11.311  11.211  67.574  1.00  0.00    -0.351 C  
HETATM   16  C   UNL     1     -11.995  11.170  68.937  1.00  0.00    -0.367 C  
HETATM   17  C   UNL     1     -11.577   9.974  69.787  1.00  0.00    -0.193 C  
HETATM   18  C   UNL     1     -10.061   9.806  69.856  1.00  0.00    -0.288 C  
ENDBRANCH  11  13
ENDBRANCH   9  11
ENDBRANCH   4   9
ENDBRANCH   3   4
TORSDOF 5
ENDMDL
MODEL      201
REMARK 921   NORMALIZED FREE ENERGY PREDICTED BY IDOCK:   -3.22 KCAL/MOL
REMARK 922        TOTAL FREE ENERGY PREDICTED BY IDOCK:   -4.76 KCAL/MOL
REMARK 923 INTER-LIGAND FREE ENERGY PREDICTED BY IDOCK:   -4.13 KCAL/MOL
REMARK 924 INTRA-LIGAND FREE ENERGY PREDICTED BY IDOCK:   -0.62 KCAL/MOL
REMARK 927      BINDING AFFINITY PREDICTED BY RF-SCORE:    0.00 PKD
ROOT
HETATM    1 CL   UNL     1      -8.419   2.729  65.697  1.00  0.00    -0.097 Cl 
HETATM    2  C   UNL     1      -8.924   4.428  65.892  1.00  0.00    -0.124 C  
HETATM    3  C   UNL     1      -9.145   4.752  67.365  1.00  0.00    -0.117 C  
ENDROOT
BRANCH   3   4
HETATM    4  N   UNL     1      -9.599   6.130  67.579  1.00  0.00    -0.111 N  
BRANCH   4   5
HETATM    5  N   UNL     1     -10.457   6.748  66.662  1.00  0.00    -0.471 NA 
HETATM    6  H   UNL     1     -10.121   7.326  65.891  1.00  0.00     0.000 HD 
HETATM    7  O   UNL     1     -11.656   6.532  66.866  1.00  0.00    -0.725 OA 
HETATM    8  H   UNL     1     -12.238   6.951  66.243  1.00  0.00     0.000 HD 
ENDBRANCH   4   5
BRANCH   4   9
HETATM    9  C   UNL     1      -9.315   6.747  68.796  1.00  0.00    -0.132 C  
HETATM   10  O   UNL     1      -8.163   6.862  69.218  1.00  0.00    -0.122 OA 
BRANCH   9  11
HETATM   11  N   UNL     1     -10.399   7.189  69.530  1.00  0.00    -0.209 N  
HETATM   12  H   UNL     1     -10.638   8.180  69.509  1.00  0.00     0.000 HD 
BRANCH  11  13
HETATM   13  C   UNL     1     -11.215   6.280  70.335  1.00  0.00    -0.373 C  
HETATM   14  C   UNL     1     -10.378   5.443  71.310  1.00  0.00    -0.296 C  
HETATM   15  C   UNL     1      -9.828   6.254  72.483  1.00  0.00    -0.177 C  
HETATM   16  C   UNL     1     -10.892   7.087  73.191  1.00  0.00    -0.350 C  
HETATM   17  C   UNL     1     -11.764   7.892  72.233  1.00  0.00    -0.408 C  
HETATM   18  C   UNL     1     -12.310   7.046  71.085  1.00  0.00    -0.423 C  
ENDBRANCH  11  13
ENDBRANCH   9  11
ENDBRANCH   4   9
ENDBRANCH   3   4
TORSDOF 5
ENDMDL
MODEL      202
REMARK 921   NORMALIZED FREE ENERGY PREDICTED BY IDOCK:   -3.20 KCAL/MOL
REMARK 922        TOTAL FREE ENERGY PREDICTED BY IDOCK:   -4.73 KCAL/MOL
REMARK 923 INTER-LIGAND FREE ENERGY PREDICTED BY IDOCK:   -4.39 KCAL/MOL
REMARK 924 INTRA-LIGAND FREE ENERGY PREDICTED BY IDOCK:   -0.34 KCAL/MOL
REMARK 927      BINDING AFFINITY PREDICTED BY RF-SCORE:    0.00 PKD
ROOT
HETATM    1 CL   UNL     1      -9.435  16.841  65.857  1.00  0.00    -0.242 Cl 
HETATM    2  C   UNL     1      -9.345  15.063  65.959  1.00  0.00    -0.269 C  
HETATM    3  C   UNL     1     -10.365  14.424  65.024  1.00  0.00    -0.421 C  
ENDROOT
BRANCH   3   4
HETATM    4  N   UNL     1     -10.359  12.959  65.096  1.00  0.00    -0.300 N  
BRANCH   4   5
HETATM    5  N   UNL     1      -9.489  12.211  64.294  1.00  0.00    -0.475 NA 
HETATM    6  H   UNL     1      -8.611  11.824  64.639  1.00  0.00     0.000 HD 
HETATM    7  O   UNL     1      -9.878  12.059  63.131  1.00  0.00    -0.434 OA 
HETATM    8  H   UNL     1      -9.289  11.552  62.586  1.00  0.00     0.000 HD 
ENDBRANCH   4   5
BRANCH   4   9
HETATM    9  C   UNL     1     -11.095  12.335  66.102  1.00  0.00    -0.311 C  
HETATM   10  O   UNL     1     -12.324  12.264  66.065  1.00  0.00    -0.609 OA 
BRANCH   9  11
HETATM   11  N   UNL     1     -10.375  11.834  67.169  1.00  0.00    -0.212 N  
HETATM   12  H   UNL     1      -9.481  12.262  67.406  1.00  0.00     0.000 HD 
BRANCH  11  13
HETATM   13  C   UNL     1     -10.855  10.708  67.970  1.00  0.00    -0.261 C  
HETATM   14  C   UNL     1     -10.460   9.350  67.374  1.00  0.00    -0.343 C  
HETATM   15  C   UNL     1      -8.972   9.036  67.523  1.00  0.00    -0.131 C  
HETATM   16  C   UNL     1      -8.457   9.222  68.947  1.00  0.00    -0.129 C  
HETATM   17  C   UNL     1      -8.877  10.549  69.572  1.00  0.00    -0.043 C  
HETATM   18  C   UNL     1     -10.372  10.820  69.419  1.00  0.00    -0.207 C  
ENDBRANCH  11  13
ENDBRANCH   9  11
ENDBRANCH   4   9
ENDBRANCH   3   4
TORSDOF 5
ENDMDL
MODEL      203
REMARK 921   NORMALIZED FREE ENERGY PREDICTED BY IDOCK:   -3.19 KCAL/MOL
REMARK 922        TOTAL FREE ENERGY PREDICTED BY IDOCK:   -4.72 KCAL/MOL
REMARK 923 INTER-LIGAND FREE ENERGY PREDICTED BY IDOCK:   -4.11 KCAL/MOL
REMARK 924 INTRA-LIGAND FREE ENERGY PREDICTED BY IDOCK:   -0.62 KCAL/MOL
REMARK 927      BINDING AFFINITY PREDICTED BY RF-SCORE:    0.00 PKD
ROOT
HETATM    1 CL   UNL     1     -10.889   6.697  68.762  1.00  0.00    -0.300 Cl 
HETATM    2  C   UNL     1     -10.555   8.447  68.684  1.00  0.00    -0.113 C  
HETATM    3  C   UNL     1      -9.632   8.761  67.512  1.00  0.00    -0.152 C  
ENDROOT
BRANCH   3   4
HETATM    4  N   UNL     1      -9.294  10.186  67.423  1.00  0.00    -0.147 N  
BRANCH   4   5
HETATM    5  N   UNL     1      -8.722  10.851  68.514  1.00  0.00    -0.146 NA 
HETATM    6  H   UNL     1      -7.780  10.654  68.851  1.00  0.00     0.000 HD 
HETATM    7  O   UNL     1      -9.459  11.696  69.034  1.00  0.00    -0.406 OA 
HETATM    8  H   UNL     1      -9.071  12.148  69.774  1.00  0.00     0.000 HD 
ENDBRANCH   4   5
BRANCH   4   9
HETATM    9  C   UNL     1      -9.380  10.818  66.184  1.00  0.00    -0.183 C  
HETATM   10  O   UNL     1      -9.500  10.185  65.134  1.00  0.00    -0.216 OA 
BRANCH   9  11
HETATM   11  N   UNL     1      -9.280  12.196  66.189  1.00  0.00    -0.353 N  
HETATM   12  H   UNL     1      -8.483  12.632  66.654  1.00  0.00     0.000 HD 
BRANCH  11  13
HETATM   13  C   UNL     1     -10.280  13.050  65.549  1.00  0.00    -0.285 C  
HETATM   14  C   UNL     1     -11.701  12.774  66.055  1.00  0.00    -0.470 C  
HETATM   15  C   UNL     1     -11.943  13.276  67.479  1.00  0.00    -0.371 C  
HETATM   16  C   UNL     1     -11.520  14.726  67.686  1.00  0.00    -0.363 C  
HETATM   17  C   UNL     1     -10.125  15.030  67.148  1.00  0.00    -0.239 C  
HETATM   18  C   UNL     1      -9.926  14.530  65.718  1.00  0.00    -0.361 C  
ENDBRANCH  11  13
ENDBRANCH   9  11
ENDBRANCH   4   9
ENDBRANCH   3   4
TORSDOF 5
ENDMDL
MODEL      204
REMARK 921   NORMALIZED FREE ENERGY PREDICTED BY IDOCK:   -3.19 KCAL/MOL
REMARK 922        TOTAL FREE ENERGY PREDICTED BY IDOCK:   -4.72 KCAL/MOL
REMARK 923 INTER-LIGAND FREE ENERGY PREDICTED BY IDOCK:   -4.30 KCAL/MOL
REMARK 924 INTRA-LIGAND FREE ENERGY PREDICTED BY IDOCK:   -0.41 KCAL/MOL
REMARK 927      BINDING AFFINITY PREDICTED BY RF-SCORE:    0.00 PKD
ROOT
HETATM    1 CL   UNL     1     -10.820  10.722  69.695  1.00  0.00    -0.293 Cl 
HETATM    2  C   UNL     1     -11.405   9.762  71.079  1.00  0.00    -0.387 C  
HETATM    3  C   UNL     1     -11.642   8.315  70.661  1.00  0.00    -0.191 C  
ENDROOT
BRANCH   3   4
HETATM    4  N   UNL     1     -12.160   7.487  71.755  1.00  0.00    -0.296 N  
BRANCH   4   5
HETATM    5  N   UNL     1     -13.533   7.235  71.869  1.00  0.00    -0.537 NA 
HETATM    6  H   UNL     1     -13.950   6.799  72.692  1.00  0.00     0.000 HD 
HETATM    7  O   UNL     1     -14.195   7.586  70.887  1.00  0.00    -0.644 OA 
HETATM    8  H   UNL     1     -15.126   7.415  70.963  1.00  0.00     0.000 HD 
ENDBRANCH   4   5
BRANCH   4   9
HETATM    9  C   UNL     1     -11.254   6.808  72.567  1.00  0.00    -0.268 C  
HETATM   10  O   UNL     1     -10.803   7.303  73.600  1.00  0.00    -0.356 OA 
BRANCH   9  11
HETATM   11  N   UNL     1     -10.854   5.559  72.131  1.00  0.00    -0.235 N  
HETATM   12  H   UNL     1     -11.561   4.842  71.971  1.00  0.00     0.000 HD 
BRANCH  11  13
HETATM   13  C   UNL     1      -9.448   5.234  71.890  1.00  0.00    -0.146 C  
HETATM   14  C   UNL     1      -9.139   3.750  72.125  1.00  0.00    -0.157 C  
HETATM   15  C   UNL     1      -9.708   2.836  71.040  1.00  0.00    -0.160 C  
HETATM   16  C   UNL     1      -9.359   3.290  69.626  1.00  0.00    -0.236 C  
HETATM   17  C   UNL     1      -9.619   4.774  69.388  1.00  0.00    -0.249 C  
HETATM   18  C   UNL     1      -9.021   5.657  70.481  1.00  0.00    -0.150 C  
ENDBRANCH  11  13
ENDBRANCH   9  11
ENDBRANCH   4   9
ENDBRANCH   3   4
TORSDOF 5
ENDMDL
MODEL      205
REMARK 921   NORMALIZED FREE ENERGY PREDICTED BY IDOCK:   -3.17 KCAL/MOL
REMARK 922        TOTAL FREE ENERGY PREDICTED BY IDOCK:   -4.69 KCAL/MOL
REMARK 923 INTER-LIGAND FREE ENERGY PREDICTED BY IDOCK:   -4.10 KCAL/MOL
REMARK 924 INTRA-LIGAND FREE ENERGY PREDICTED BY IDOCK:   -0.59 KCAL/MOL
REMARK 927      BINDING AFFINITY PREDICTED BY RF-SCORE:    0.00 PKD
ROOT
HETATM    1 CL   UNL     1     -11.100  10.874  67.369  1.00  0.00    -0.370 Cl 
HETATM    2  C   UNL     1     -11.102  12.410  66.464  1.00  0.00    -0.301 C  
HETATM    3  C   UNL     1      -9.690  12.979  66.378  1.00  0.00    -0.268 C  
ENDROOT
BRANCH   3   4
HETATM    4  N   UNL     1      -9.640  14.265  65.674  1.00  0.00    -0.179 N  
BRANCH   4   5
HETATM    5  N   UNL     1     -10.298  14.431  64.449  1.00  0.00    -0.546 NA 
HETATM    6  H   UNL     1     -10.275  13.731  63.708  1.00  0.00     0.000 HD 
HETATM    7  O   UNL     1     -10.908  15.501  64.344  1.00  0.00    -0.674 OA 
HETATM    8  H   UNL     1     -11.354  15.614  63.513  1.00  0.00     0.000 HD 
ENDBRANCH   4   5
BRANCH   4   9
HETATM    9  C   UNL     1      -9.088  15.365  66.327  1.00  0.00    -0.320 C  
HETATM   10  O   UNL     1      -8.721  16.371  65.718  1.00  0.00    -0.432 OA 
BRANCH   9  11
HETATM   11  N   UNL     1      -8.934  15.254  67.695  1.00  0.00    -0.176 N  
HETATM   12  H   UNL     1      -8.397  14.472  68.070  1.00  0.00     0.000 HD 
BRANCH  11  13
HETATM   13  C   UNL     1      -9.517  16.222  68.624  1.00  0.00    -0.228 C  
HETATM   14  C   UNL     1     -10.832  16.817  68.106  1.00  0.00    -0.353 C  
HETATM   15  C   UNL     1     -11.999  15.830  68.143  1.00  0.00     0.110 C  
HETATM   16  C   UNL     1     -12.161  15.141  69.495  1.00  0.00    -0.316 C  
HETATM   17  C   UNL     1     -10.854  14.581  70.047  1.00  0.00    -0.031 C  
HETATM   18  C   UNL     1      -9.717  15.600  70.010  1.00  0.00    -0.021 C  
ENDBRANCH  11  13
ENDBRANCH   9  11
ENDBRANCH   4   9
ENDBRANCH   3   4
TORSDOF 5
ENDMDL
MODEL      206
REMARK 921   NORMALIZED FREE ENERGY PREDICTED BY IDOCK:   -3.17 KCAL/MOL
REMARK 922        TOTAL FREE ENERGY PREDICTED BY IDOCK:   -4.69 KCAL/MOL
REMARK 923 INTER-LIGAND FREE ENERGY PREDICTED BY IDOCK:   -4.29 KCAL/MOL
REMARK 924 INTRA-LIGAND FREE ENERGY PREDICTED BY IDOCK:   -0.39 KCAL/MOL
REMARK 927      BINDING AFFINITY PREDICTED BY RF-SCORE:    0.00 PKD
ROOT
HETATM    1 CL   UNL     1     -12.812  11.769  62.994  1.00  0.00    -0.271 Cl 
HETATM    2  C   UNL     1     -11.825  12.569  64.245  1.00  0.00    -0.395 C  
HETATM    3  C   UNL     1     -11.209  11.533  65.179  1.00  0.00    -0.146 C  
ENDROOT
BRANCH   3   4
HETATM    4  N   UNL     1     -10.415  12.140  66.252  1.00  0.00    -0.233 N  
BRANCH   4   5
HETATM    5  N   UNL     1      -9.022  12.228  66.144  1.00  0.00    -0.415 NA 
HETATM    6  H   UNL     1      -8.476  12.958  66.602  1.00  0.00     0.000 HD 
HETATM    7  O   UNL     1      -8.512  11.346  65.446  1.00  0.00    -0.387 OA 
HETATM    8  H   UNL     1      -7.567  11.406  65.372  1.00  0.00     0.000 HD 
ENDBRANCH   4   5
BRANCH   4   9
HETATM    9  C   UNL     1     -11.079  12.790  67.291  1.00  0.00    -0.276 C  
HETATM   10  O   UNL     1     -11.996  12.255  67.917  1.00  0.00    -0.452 OA 
BRANCH   9  11
HETATM   11  N   UNL     1     -10.684  14.086  67.557  1.00  0.00    -0.266 N  
HETATM   12  H   UNL     1     -10.870  14.811  66.865  1.00  0.00     0.000 HD 
BRANCH  11  13
HETATM   13  C   UNL     1     -10.007  14.452  68.801  1.00  0.00    -0.223 C  
HETATM   14  C   UNL     1      -8.544  14.858  68.578  1.00  0.00    -0.162 C  
HETATM   15  C   UNL     1      -8.391  16.219  67.900  1.00  0.00    -0.170 C  
HETATM   16  C   UNL     1      -9.208  17.320  68.570  1.00  0.00    -0.273 C  
HETATM   17  C   UNL     1     -10.655  16.918  68.840  1.00  0.00    -0.353 C  
HETATM   18  C   UNL     1     -10.767  15.562  69.533  1.00  0.00    -0.272 C  
ENDBRANCH  11  13
ENDBRANCH   9  11
ENDBRANCH   4   9
ENDBRANCH   3   4
TORSDOF 5
ENDMDL
MODEL      207
REMARK 921   NORMALIZED FREE ENERGY PREDICTED BY IDOCK:   -3.14 KCAL/MOL
REMARK 922        TOTAL FREE ENERGY PREDICTED BY IDOCK:   -4.65 KCAL/MOL
REMARK 923 INTER-LIGAND FREE ENERGY PREDICTED BY IDOCK:   -4.24 KCAL/MOL
REMARK 924 INTRA-LIGAND FREE ENERGY PREDICTED BY IDOCK:   -0.41 KCAL/MOL
REMARK 927      BINDING AFFINITY PREDICTED BY RF-SCORE:    0.00 PKD
ROOT
HETATM    1 CL   UNL     1     -12.120  12.545  63.370  1.00  0.00    -0.619 Cl 
HETATM    2  C   UNL     1     -11.220  12.213  64.873  1.00  0.00    -0.323 C  
HETATM    3  C   UNL     1     -12.153  12.277  66.078  1.00  0.00    -0.152 C  
ENDROOT
BRANCH   3   4
HETATM    4  N   UNL     1     -11.455  12.048  67.347  1.00  0.00    -0.328 N  
BRANCH   4   5
HETATM    5  N   UNL     1     -11.455  10.780  67.941  1.00  0.00    -0.537 NA 
HETATM    6  H   UNL     1     -10.728  10.086  67.767  1.00  0.00     0.000 HD 
HETATM    7  O   UNL     1     -12.414  10.575  68.693  1.00  0.00    -0.699 OA 
HETATM    8  H   UNL     1     -12.415   9.715  69.096  1.00  0.00     0.000 HD 
ENDBRANCH   4   5
BRANCH   4   9
HETATM    9  C   UNL     1     -10.641  13.058  67.855  1.00  0.00    -0.229 C  
HETATM   10  O   UNL     1     -10.931  14.250  67.743  1.00  0.00    -0.256 OA 
BRANCH   9  11
HETATM   11  N   UNL     1      -9.464  12.656  68.458  1.00  0.00    -0.377 N  
HETATM   12  H   UNL     1      -9.472  12.427  69.451  1.00  0.00     0.000 HD 
BRANCH  11  13
HETATM   13  C   UNL     1      -8.209  12.547  67.716  1.00  0.00    -0.166 C  
HETATM   14  C   UNL     1      -7.398  13.850  67.736  1.00  0.00    -0.170 C  
HETATM   15  C   UNL     1      -6.763  14.146  69.094  1.00  0.00    -0.118 C  
HETATM   16  C   UNL     1      -5.985  12.964  69.665  1.00  0.00    -0.120 C  
HETATM   17  C   UNL     1      -6.759  11.650  69.613  1.00  0.00    -0.059 C  
HETATM   18  C   UNL     1      -7.364  11.381  68.237  1.00  0.00    -0.089 C  
ENDBRANCH  11  13
ENDBRANCH   9  11
ENDBRANCH   4   9
ENDBRANCH   3   4
TORSDOF 5
ENDMDL
MODEL      208
REMARK 921   NORMALIZED FREE ENERGY PREDICTED BY IDOCK:   -3.14 KCAL/MOL
REMARK 922        TOTAL FREE ENERGY PREDICTED BY IDOCK:   -4.65 KCAL/MOL
REMARK 923 INTER-LIGAND FREE ENERGY PREDICTED BY IDOCK:   -4.07 KCAL/MOL
REMARK 924 INTRA-LIGAND FREE ENERGY PREDICTED BY IDOCK:   -0.57 KCAL/MOL
REMARK 927      BINDING AFFINITY PREDICTED BY RF-SCORE:    0.00 PKD
ROOT
HETATM    1 CL   UNL     1     -10.473   4.195  74.141  1.00  0.00    -0.266 Cl 
HETATM    2  C   UNL     1     -11.483   4.971  72.893  1.00  0.00    -0.226 C  
HETATM    3  C   UNL     1     -10.955   6.364  72.572  1.00  0.00    -0.251 C  
ENDROOT
BRANCH   3   4
HETATM    4  N   UNL     1     -11.773   7.063  71.575  1.00  0.00    -0.282 N  
BRANCH   4   5
HETATM    5  N   UNL     1     -12.931   7.750  71.960  1.00  0.00    -0.466 NA 
HETATM    6  H   UNL     1     -13.144   7.978  72.931  1.00  0.00     0.000 HD 
HETATM    7  O   UNL     1     -13.674   8.055  71.021  1.00  0.00    -0.566 OA 
HETATM    8  H   UNL     1     -14.459   8.521  71.281  1.00  0.00     0.000 HD 
ENDBRANCH   4   5
BRANCH   4   9
HETATM    9  C   UNL     1     -11.284   7.189  70.277  1.00  0.00    -0.276 C  
HETATM   10  O   UNL     1     -11.339   6.265  69.464  1.00  0.00    -0.409 OA 
BRANCH   9  11
HETATM   11  N   UNL     1     -10.692   8.397  69.957  1.00  0.00    -0.236 N  
HETATM   12  H   UNL     1     -10.662   9.133  70.662  1.00  0.00     0.000 HD 
BRANCH  11  13
HETATM   13  C   UNL     1     -10.109   8.652  68.640  1.00  0.00    -0.190 C  
HETATM   14  C   UNL     1     -10.681   9.911  67.977  1.00  0.00    -0.296 C  
HETATM   15  C   UNL     1     -10.197  11.208  68.625  1.00  0.00    -0.216 C  
HETATM   16  C   UNL     1      -8.682  11.270  68.790  1.00  0.00    -0.105 C  
HETATM   17  C   UNL     1      -8.090  10.007  69.408  1.00  0.00    -0.150 C  
HETATM   18  C   UNL     1      -8.582   8.733  68.724  1.00  0.00    -0.137 C  
ENDBRANCH  11  13
ENDBRANCH   9  11
ENDBRANCH   4   9
ENDBRANCH   3   4
TORSDOF 5
ENDMDL
MODEL      209
REMARK 921   NORMALIZED FREE ENERGY PREDICTED BY IDOCK:   -3.12 KCAL/MOL
REMARK 922        TOTAL FREE ENERGY PREDICTED BY IDOCK:   -4.62 KCAL/MOL
REMARK 923 INTER-LIGAND FREE ENERGY PREDICTED BY IDOCK:   -3.99 KCAL/MOL
REMARK 924 INTRA-LIGAND FREE ENERGY PREDICTED BY IDOCK:   -0.63 KCAL/MOL
REMARK 927      BINDING AFFINITY PREDICTED BY RF-SCORE:    0.00 PKD
ROOT
HETATM    1 CL   UNL     1     -14.155   9.363  72.324  1.00  0.00    -0.366 Cl 
HETATM    2  C   UNL     1     -12.782   8.786  71.343  1.00  0.00    -0.283 C  
HETATM    3  C   UNL     1     -12.132   9.948  70.600  1.00  0.00    -0.257 C  
ENDROOT
BRANCH   3   4
HETATM    4  N   UNL     1     -11.018   9.522  69.748  1.00  0.00    -0.233 N  
BRANCH   4   5
HETATM    5  N   UNL     1     -10.937   9.947  68.416  1.00  0.00    -0.402 NA 
HETATM    6  H   UNL     1     -10.727  10.910  68.153  1.00  0.00     0.000 HD 
HETATM    7  O   UNL     1     -11.144   9.054  67.587  1.00  0.00    -0.484 OA 
HETATM    8  H   UNL     1     -11.090   9.342  66.684  1.00  0.00     0.000 HD 
ENDBRANCH   4   5
BRANCH   4   9
HETATM    9  C   UNL     1      -9.950   8.844  70.332  1.00  0.00    -0.194 C  
HETATM   10  O   UNL     1      -9.313   9.315  71.275  1.00  0.00    -0.240 OA 
BRANCH   9  11
HETATM   11  N   UNL     1      -9.612   7.628  69.770  1.00  0.00    -0.164 N  
HETATM   12  H   UNL     1      -8.661   7.489  69.428  1.00  0.00     0.000 HD 
BRANCH  11  13
HETATM   13  C   UNL     1     -10.575   6.533  69.649  1.00  0.00    -0.243 C  
HETATM   14  C   UNL     1     -10.311   5.650  68.423  1.00  0.00    -0.258 C  
HETATM   15  C   UNL     1      -9.074   4.765  68.570  1.00  0.00    -0.150 C  
HETATM   16  C   UNL     1      -9.049   3.976  69.876  1.00  0.00    -0.185 C  
HETATM   17  C   UNL     1      -9.353   4.831  71.103  1.00  0.00    -0.206 C  
HETATM   18  C   UNL     1     -10.605   5.687  70.925  1.00  0.00    -0.328 C  
ENDBRANCH  11  13
ENDBRANCH   9  11
ENDBRANCH   4   9
ENDBRANCH   3   4
TORSDOF 5
ENDMDL
MODEL      210
REMARK 921   NORMALIZED FREE ENERGY PREDICTED BY IDOCK:   -3.12 KCAL/MOL
REMARK 922        TOTAL FREE ENERGY PREDICTED BY IDOCK:   -4.62 KCAL/MOL
REMARK 923 INTER-LIGAND FREE ENERGY PREDICTED BY IDOCK:   -4.11 KCAL/MOL
REMARK 924 INTRA-LIGAND FREE ENERGY PREDICTED BY IDOCK:   -0.51 KCAL/MOL
REMARK 927      BINDING AFFINITY PREDICTED BY RF-SCORE:    0.00 PKD
ROOT
HETATM    1 CL   UNL     1     -11.826  16.192  69.293  1.00  0.00    -0.249 Cl 
HETATM    2  C   UNL     1     -10.661  15.859  67.986  1.00  0.00    -0.287 C  
HETATM    3  C   UNL     1     -10.604  14.364  67.692  1.00  0.00    -0.260 C  
ENDROOT
BRANCH   3   4
HETATM    4  N   UNL     1      -9.630  14.030  66.646  1.00  0.00    -0.280 N  
BRANCH   4   5
HETATM    5  N   UNL     1      -9.690  14.651  65.393  1.00  0.00    -0.508 NA 
HETATM    6  H   UNL     1      -9.246  15.549  65.198  1.00  0.00     0.000 HD 
HETATM    7  O   UNL     1     -10.327  14.018  64.545  1.00  0.00    -0.562 OA 
HETATM    8  H   UNL     1     -10.368  14.439  63.695  1.00  0.00     0.000 HD 
ENDBRANCH   4   5
BRANCH   4   9
HETATM    9  C   UNL     1      -8.541  13.228  66.979  1.00  0.00    -0.161 C  
HETATM   10  O   UNL     1      -7.685  13.589  67.788  1.00  0.00    -0.131 OA 
BRANCH   9  11
HETATM   11  N   UNL     1      -8.446  12.016  66.321  1.00  0.00    -0.393 N  
HETATM   12  H   UNL     1      -8.661  11.977  65.325  1.00  0.00     0.000 HD 
BRANCH  11  13
HETATM   13  C   UNL     1      -8.047  10.788  67.008  1.00  0.00    -0.124 C  
HETATM   14  C   UNL     1      -9.046  10.370  68.095  1.00  0.00    -0.142 C  
HETATM   15  C   UNL     1     -10.358   9.824  67.531  1.00  0.00    -0.291 C  
HETATM   16  C   UNL     1     -10.156   8.743  66.475  1.00  0.00    -0.349 C  
HETATM   17  C   UNL     1      -9.132   9.124  65.409  1.00  0.00    -0.271 C  
HETATM   18  C   UNL     1      -7.829   9.647  66.010  1.00  0.00    -0.102 C  
ENDBRANCH  11  13
ENDBRANCH   9  11
ENDBRANCH   4   9
ENDBRANCH   3   4
TORSDOF 5
ENDMDL
MODEL      211
REMARK 921   NORMALIZED FREE ENERGY PREDICTED BY IDOCK:   -3.11 KCAL/MOL
REMARK 922        TOTAL FREE ENERGY PREDICTED BY IDOCK:   -4.62 KCAL/MOL
REMARK 923 INTER-LIGAND FREE ENERGY PREDICTED BY IDOCK:   -4.05 KCAL/MOL
REMARK 924 INTRA-LIGAND FREE ENERGY PREDICTED BY IDOCK:   -0.57 KCAL/MOL
REMARK 927      BINDING AFFINITY PREDICTED BY RF-SCORE:    0.00 PKD
ROOT
HETATM    1 CL   UNL     1      -6.231   5.022  70.139  1.00  0.00    -0.021 Cl 
HETATM    2  C   UNL     1      -7.349   6.041  69.195  1.00  0.00    -0.084 C  
HETATM    3  C   UNL     1      -8.790   5.790  69.624  1.00  0.00    -0.122 C  
ENDROOT
BRANCH   3   4
HETATM    4  N   UNL     1      -9.756   6.578  68.851  1.00  0.00    -0.130 N  
BRANCH   4   5
HETATM    5  N   UNL     1      -9.621   6.707  67.464  1.00  0.00    -0.124 NA 
HETATM    6  H   UNL     1      -9.674   5.913  66.826  1.00  0.00     0.000 HD 
HETATM    7  O   UNL     1      -9.433   7.866  67.080  1.00  0.00    -0.154 OA 
HETATM    8  H   UNL     1      -9.342   7.954  66.139  1.00  0.00     0.000 HD 
ENDBRANCH   4   5
BRANCH   4   9
HETATM    9  C   UNL     1     -10.906   7.038  69.489  1.00  0.00    -0.238 C  
HETATM   10  O   UNL     1     -11.663   6.282  70.099  1.00  0.00    -0.398 OA 
BRANCH   9  11
HETATM   11  N   UNL     1     -11.178   8.388  69.368  1.00  0.00    -0.429 N  
HETATM   12  H   UNL     1     -11.812   8.699  68.632  1.00  0.00     0.000 HD 
BRANCH  11  13
HETATM   13  C   UNL     1     -10.586   9.383  70.261  1.00  0.00    -0.250 C  
HETATM   14  C   UNL     1     -10.716  10.812  69.719  1.00  0.00    -0.241 C  
HETATM   15  C   UNL     1     -12.143  11.357  69.788  1.00  0.00    -0.388 C  
HETATM   16  C   UNL     1     -12.785  11.191  71.162  1.00  0.00    -0.510 C  
HETATM   17  C   UNL     1     -12.627   9.787  71.736  1.00  0.00    -0.506 C  
HETATM   18  C   UNL     1     -11.186   9.284  71.667  1.00  0.00    -0.449 C  
ENDBRANCH  11  13
ENDBRANCH   9  11
ENDBRANCH   4   9
ENDBRANCH   3   4
TORSDOF 5
ENDMDL
MODEL      212
REMARK 921   NORMALIZED FREE ENERGY PREDICTED BY IDOCK:   -3.10 KCAL/MOL
REMARK 922        TOTAL FREE ENERGY PREDICTED BY IDOCK:   -4.61 KCAL/MOL
REMARK 923 INTER-LIGAND FREE ENERGY PREDICTED BY IDOCK:   -3.88 KCAL/MOL
REMARK 924 INTRA-LIGAND FREE ENERGY PREDICTED BY IDOCK:   -0.72 KCAL/MOL
REMARK 927      BINDING AFFINITY PREDICTED BY RF-SCORE:    0.00 PKD
ROOT
HETATM    1 CL   UNL     1      -7.759   3.928  69.843  1.00  0.00    -0.051 Cl 
HETATM    2  C   UNL     1      -8.763   5.344  69.432  1.00  0.00    -0.105 C  
HETATM    3  C   UNL     1     -10.236   4.953  69.374  1.00  0.00    -0.159 C  
ENDROOT
BRANCH   3   4
HETATM    4  N   UNL     1     -11.105   6.075  69.003  1.00  0.00    -0.351 N  
BRANCH   4   5
HETATM    5  N   UNL     1     -11.900   6.708  69.966  1.00  0.00    -0.638 NA 
HETATM    6  H   UNL     1     -12.897   6.520  70.072  1.00  0.00     0.000 HD 
HETATM    7  O   UNL     1     -11.289   7.514  70.676  1.00  0.00    -0.279 OA 
HETATM    8  H   UNL     1     -11.828   7.944  71.329  1.00  0.00     0.000 HD 
ENDBRANCH   4   5
BRANCH   4   9
HETATM    9  C   UNL     1     -10.988   6.617  67.725  1.00  0.00    -0.281 C  
HETATM   10  O   UNL     1     -10.973   5.913  66.715  1.00  0.00    -0.299 OA 
BRANCH   9  11
HETATM   11  N   UNL     1     -10.849   7.990  67.650  1.00  0.00    -0.506 N  
HETATM   12  H   UNL     1     -11.676   8.561  67.474  1.00  0.00     0.000 HD 
BRANCH  11  13
HETATM   13  C   UNL     1      -9.554   8.650  67.814  1.00  0.00    -0.148 C  
HETATM   14  C   UNL     1      -8.769   8.743  66.500  1.00  0.00    -0.137 C  
HETATM   15  C   UNL     1      -9.351   9.762  65.520  1.00  0.00    -0.299 C  
HETATM   16  C   UNL     1      -9.600  11.128  66.150  1.00  0.00    -0.239 C  
HETATM   17  C   UNL     1     -10.342  11.052  67.481  1.00  0.00    -0.233 C  
HETATM   18  C   UNL     1      -9.722  10.038  68.440  1.00  0.00    -0.157 C  
ENDBRANCH  11  13
ENDBRANCH   9  11
ENDBRANCH   4   9
ENDBRANCH   3   4
TORSDOF 5
ENDMDL
MODEL      213
REMARK 921   NORMALIZED FREE ENERGY PREDICTED BY IDOCK:   -3.10 KCAL/MOL
REMARK 922        TOTAL FREE ENERGY PREDICTED BY IDOCK:   -4.60 KCAL/MOL
REMARK 923 INTER-LIGAND FREE ENERGY PREDICTED BY IDOCK:   -4.22 KCAL/MOL
REMARK 924 INTRA-LIGAND FREE ENERGY PREDICTED BY IDOCK:   -0.38 KCAL/MOL
REMARK 927      BINDING AFFINITY PREDICTED BY RF-SCORE:    0.00 PKD
ROOT
HETATM    1 CL   UNL     1     -12.083  13.680  67.799  1.00  0.00    -0.374 Cl 
HETATM    2  C   UNL     1     -10.684  12.579  67.891  1.00  0.00    -0.217 C  
HETATM    3  C   UNL     1     -11.110  11.150  67.574  1.00  0.00    -0.291 C  
ENDROOT
BRANCH   3   4
HETATM    4  N   UNL     1     -10.001  10.194  67.672  1.00  0.00    -0.174 N  
BRANCH   4   5
HETATM    5  N   UNL     1      -9.417   9.661  66.517  1.00  0.00    -0.169 NA 
HETATM    6  H   UNL     1      -8.512   9.969  66.160  1.00  0.00     0.000 HD 
HETATM    7  O   UNL     1     -10.094   8.786  65.966  1.00  0.00    -0.444 OA 
HETATM    8  H   UNL     1      -9.698   8.424  65.182  1.00  0.00     0.000 HD 
ENDBRANCH   4   5
BRANCH   4   9
HETATM    9  C   UNL     1      -9.420   9.969  68.918  1.00  0.00    -0.172 C  
HETATM   10  O   UNL     1      -8.210  10.104  69.109  1.00  0.00    -0.121 OA 
BRANCH   9  11
HETATM   11  N   UNL     1     -10.266   9.545  69.924  1.00  0.00    -0.214 N  
HETATM   12  H   UNL     1     -11.188   9.975  70.007  1.00  0.00     0.000 HD 
BRANCH  11  13
HETATM   13  C   UNL     1      -9.884   8.501  70.873  1.00  0.00    -0.189 C  
HETATM   14  C   UNL     1     -10.683   8.572  72.181  1.00  0.00    -0.426 C  
HETATM   15  C   UNL     1     -12.137   8.128  72.025  1.00  0.00    -0.388 C  
HETATM   16  C   UNL     1     -12.283   6.782  71.322  1.00  0.00    -0.415 C  
HETATM   17  C   UNL     1     -11.460   6.677  70.042  1.00  0.00    -0.434 C  
HETATM   18  C   UNL     1     -10.010   7.112  70.240  1.00  0.00    -0.191 C  
ENDBRANCH  11  13
ENDBRANCH   9  11
ENDBRANCH   4   9
ENDBRANCH   3   4
TORSDOF 5
ENDMDL
MODEL      214
REMARK 921   NORMALIZED FREE ENERGY PREDICTED BY IDOCK:   -3.08 KCAL/MOL
REMARK 922        TOTAL FREE ENERGY PREDICTED BY IDOCK:   -4.58 KCAL/MOL
REMARK 923 INTER-LIGAND FREE ENERGY PREDICTED BY IDOCK:   -4.24 KCAL/MOL
REMARK 924 INTRA-LIGAND FREE ENERGY PREDICTED BY IDOCK:   -0.34 KCAL/MOL
REMARK 927      BINDING AFFINITY PREDICTED BY RF-SCORE:    0.00 PKD
ROOT
HETATM    1 CL   UNL     1      -7.439   9.769  65.584  1.00  0.00    -0.105 Cl 
HETATM    2  C   UNL     1      -8.239  11.192  66.302  1.00  0.00    -0.153 C  
HETATM    3  C   UNL     1      -8.429  10.996  67.802  1.00  0.00    -0.122 C  
ENDROOT
BRANCH   3   4
HETATM    4  N   UNL     1      -9.118  12.124  68.437  1.00  0.00    -0.180 N  
BRANCH   4   5
HETATM    5  N   UNL     1      -8.412  13.279  68.795  1.00  0.00    -0.363 NA 
HETATM    6  H   UNL     1      -8.771  14.220  68.634  1.00  0.00     0.000 HD 
HETATM    7  O   UNL     1      -7.316  13.059  69.321  1.00  0.00    -0.307 OA 
HETATM    8  H   UNL     1      -6.837  13.842  69.564  1.00  0.00     0.000 HD 
ENDBRANCH   4   5
BRANCH   4   9
HETATM    9  C   UNL     1     -10.509  12.104  68.510  1.00  0.00    -0.233 C  
HETATM   10  O   UNL     1     -11.202  11.569  67.644  1.00  0.00    -0.241 OA 
BRANCH   9  11
HETATM   11  N   UNL     1     -11.078  12.753  69.589  1.00  0.00    -0.466 N  
HETATM   12  H   UNL     1     -10.678  12.613  70.517  1.00  0.00     0.000 HD 
BRANCH  11  13
HETATM   13  C   UNL     1     -12.236  13.635  69.443  1.00  0.00    -0.259 C  
HETATM   14  C   UNL     1     -13.006  13.818  70.758  1.00  0.00    -0.238 C  
HETATM   15  C   UNL     1     -12.265  14.685  71.775  1.00  0.00    -0.409 C  
HETATM   16  C   UNL     1     -11.774  16.008  71.195  1.00  0.00    -0.487 C  
HETATM   17  C   UNL     1     -11.044  15.850  69.865  1.00  0.00    -0.343 C  
HETATM   18  C   UNL     1     -11.822  14.993  68.868  1.00  0.00    -0.337 C  
ENDBRANCH  11  13
ENDBRANCH   9  11
ENDBRANCH   4   9
ENDBRANCH   3   4
TORSDOF 5
ENDMDL
MODEL      215
REMARK 921   NORMALIZED FREE ENERGY PREDICTED BY IDOCK:   -3.06 KCAL/MOL
REMARK 922        TOTAL FREE ENERGY PREDICTED BY IDOCK:   -4.54 KCAL/MOL
REMARK 923 INTER-LIGAND FREE ENERGY PREDICTED BY IDOCK:   -3.81 KCAL/MOL
REMARK 924 INTRA-LIGAND FREE ENERGY PREDICTED BY IDOCK:   -0.73 KCAL/MOL
REMARK 927      BINDING AFFINITY PREDICTED BY RF-SCORE:    0.00 PKD
ROOT
HETATM    1 CL   UNL     1      -9.955  20.181  66.403  1.00  0.00    -0.579 Cl 
HETATM    2  C   UNL     1     -10.645  18.547  66.579  1.00  0.00    -0.334 C  
HETATM    3  C   UNL     1      -9.691  17.647  67.359  1.00  0.00    -0.283 C  
ENDROOT
BRANCH   3   4
HETATM    4  N   UNL     1     -10.195  16.277  67.501  1.00  0.00    -0.264 N  
BRANCH   4   5
HETATM    5  N   UNL     1     -11.374  16.022  68.212  1.00  0.00    -0.350 NA 
HETATM    6  H   UNL     1     -11.751  16.665  68.909  1.00  0.00     0.000 HD 
HETATM    7  O   UNL     1     -11.917  14.951  67.923  1.00  0.00    -0.502 OA 
HETATM    8  H   UNL     1     -12.717  14.778  68.405  1.00  0.00     0.000 HD 
ENDBRANCH   4   5
BRANCH   4   9
HETATM    9  C   UNL     1      -9.587  15.262  66.766  1.00  0.00    -0.241 C  
HETATM   10  O   UNL     1      -9.837  15.078  65.574  1.00  0.00    -0.340 OA 
BRANCH   9  11
HETATM   11  N   UNL     1      -8.716  14.440  67.456  1.00  0.00    -0.185 N  
HETATM   12  H   UNL     1      -9.094  13.777  68.132  1.00  0.00     0.000 HD 
BRANCH  11  13
HETATM   13  C   UNL     1      -7.269  14.492  67.246  1.00  0.00    -0.021 C  
HETATM   14  C   UNL     1      -6.629  15.743  67.861  1.00  0.00    -0.165 C  
HETATM   15  C   UNL     1      -6.574  15.706  69.387  1.00  0.00    -0.166 C  
HETATM   16  C   UNL     1      -5.977  14.414  69.937  1.00  0.00    -0.132 C  
HETATM   17  C   UNL     1      -6.570  13.159  69.305  1.00  0.00    -0.091 C  
HETATM   18  C   UNL     1      -6.593  13.225  67.779  1.00  0.00    -0.156 C  
ENDBRANCH  11  13
ENDBRANCH   9  11
ENDBRANCH   4   9
ENDBRANCH   3   4
TORSDOF 5
ENDMDL
MODEL      216
REMARK 921   NORMALIZED FREE ENERGY PREDICTED BY IDOCK:   -3.05 KCAL/MOL
REMARK 922        TOTAL FREE ENERGY PREDICTED BY IDOCK:   -4.53 KCAL/MOL
REMARK 923 INTER-LIGAND FREE ENERGY PREDICTED BY IDOCK:   -3.82 KCAL/MOL
REMARK 924 INTRA-LIGAND FREE ENERGY PREDICTED BY IDOCK:   -0.71 KCAL/MOL
REMARK 927      BINDING AFFINITY PREDICTED BY RF-SCORE:    0.00 PKD
ROOT
HETATM    1 CL   UNL     1     -12.357  13.647  64.215  1.00  0.00    -0.416 Cl 
HETATM    2  C   UNL     1     -11.698  11.992  64.311  1.00  0.00    -0.344 C  
HETATM    3  C   UNL     1     -10.226  12.028  64.709  1.00  0.00    -0.279 C  
ENDROOT
BRANCH   3   4
HETATM    4  N   UNL     1      -9.624  10.692  64.766  1.00  0.00    -0.253 N  
BRANCH   4   5
HETATM    5  N   UNL     1      -9.749   9.807  63.689  1.00  0.00    -0.463 NA 
HETATM    6  H   UNL     1     -10.303  10.019  62.859  1.00  0.00     0.000 HD 
HETATM    7  O   UNL     1      -9.130   8.747  63.830  1.00  0.00    -0.360 OA 
HETATM    8  H   UNL     1      -9.215   8.147  63.099  1.00  0.00     0.000 HD 
ENDBRANCH   4   5
BRANCH   4   9
HETATM    9  C   UNL     1      -8.774  10.387  65.827  1.00  0.00    -0.168 C  
HETATM   10  O   UNL     1      -7.649  10.880  65.927  1.00  0.00    -0.135 OA 
BRANCH   9  11
HETATM   11  N   UNL     1      -9.242   9.467  66.746  1.00  0.00    -0.145 N  
HETATM   12  H   UNL     1      -8.583   8.813  67.169  1.00  0.00     0.000 HD 
BRANCH  11  13
HETATM   13  C   UNL     1     -10.651   9.402  67.132  1.00  0.00    -0.224 C  
HETATM   14  C   UNL     1     -11.025   8.059  67.772  1.00  0.00     0.061 C  
HETATM   15  C   UNL     1     -10.460   7.884  69.181  1.00  0.00    -0.218 C  
HETATM   16  C   UNL     1     -10.748   9.069  70.097  1.00  0.00    -0.258 C  
HETATM   17  C   UNL     1     -10.424  10.417  69.460  1.00  0.00    -0.274 C  
HETATM   18  C   UNL     1     -11.019  10.562  68.061  1.00  0.00    -0.345 C  
ENDBRANCH  11  13
ENDBRANCH   9  11
ENDBRANCH   4   9
ENDBRANCH   3   4
TORSDOF 5
ENDMDL
MODEL      217
REMARK 921   NORMALIZED FREE ENERGY PREDICTED BY IDOCK:   -3.04 KCAL/MOL
REMARK 922        TOTAL FREE ENERGY PREDICTED BY IDOCK:   -4.52 KCAL/MOL
REMARK 923 INTER-LIGAND FREE ENERGY PREDICTED BY IDOCK:   -4.06 KCAL/MOL
REMARK 924 INTRA-LIGAND FREE ENERGY PREDICTED BY IDOCK:   -0.45 KCAL/MOL
REMARK 927      BINDING AFFINITY PREDICTED BY RF-SCORE:    0.00 PKD
ROOT
HETATM    1 CL   UNL     1      -7.528  17.286  67.954  1.00  0.00    -0.180 Cl 
HETATM    2  C   UNL     1      -7.962  15.616  68.402  1.00  0.00    -0.136 C  
HETATM    3  C   UNL     1      -7.290  14.621  67.462  1.00  0.00    -0.197 C  
ENDROOT
BRANCH   3   4
HETATM    4  N   UNL     1      -7.643  13.230  67.764  1.00  0.00    -0.144 N  
BRANCH   4   5
HETATM    5  N   UNL     1      -6.776  12.420  68.508  1.00  0.00    -0.071 NA 
HETATM    6  H   UNL     1      -6.014  11.889  68.085  1.00  0.00     0.000 HD 
HETATM    7  O   UNL     1      -7.015  12.404  69.720  1.00  0.00    -0.344 OA 
HETATM    8  H   UNL     1      -6.427  11.855  70.225  1.00  0.00     0.000 HD 
ENDBRANCH   4   5
BRANCH   4   9
HETATM    9  C   UNL     1      -8.928  12.785  67.460  1.00  0.00    -0.192 C  
HETATM   10  O   UNL     1      -9.242  12.415  66.328  1.00  0.00    -0.219 OA 
BRANCH   9  11
HETATM   11  N   UNL     1      -9.850  12.819  68.489  1.00  0.00    -0.358 N  
HETATM   12  H   UNL     1      -9.520  12.966  69.442  1.00  0.00     0.000 HD 
BRANCH  11  13
HETATM   13  C   UNL     1     -11.283  12.649  68.254  1.00  0.00    -0.272 C  
HETATM   14  C   UNL     1     -11.824  11.335  68.832  1.00  0.00    -0.413 C  
HETATM   15  C   UNL     1     -11.906  11.334  70.358  1.00  0.00    -0.443 C  
HETATM   16  C   UNL     1     -12.619  12.559  70.923  1.00  0.00    -0.331 C  
HETATM   17  C   UNL     1     -12.125  13.873  70.327  1.00  0.00    -0.423 C  
HETATM   18  C   UNL     1     -12.073  13.842  68.801  1.00  0.00    -0.344 C  
ENDBRANCH  11  13
ENDBRANCH   9  11
ENDBRANCH   4   9
ENDBRANCH   3   4
TORSDOF 5
ENDMDL
MODEL      218
REMARK 921   NORMALIZED FREE ENERGY PREDICTED BY IDOCK:   -3.01 KCAL/MOL
REMARK 922        TOTAL FREE ENERGY PREDICTED BY IDOCK:   -4.49 KCAL/MOL
REMARK 923 INTER-LIGAND FREE ENERGY PREDICTED BY IDOCK:   -3.78 KCAL/MOL
REMARK 924 INTRA-LIGAND FREE ENERGY PREDICTED BY IDOCK:   -0.70 KCAL/MOL
REMARK 927      BINDING AFFINITY PREDICTED BY RF-SCORE:    0.00 PKD
ROOT
HETATM    1 CL   UNL     1     -11.726   6.871  70.304  1.00  0.00    -0.368 Cl 
HETATM    2  C   UNL     1     -10.869   5.917  69.065  1.00  0.00    -0.313 C  
HETATM    3  C   UNL     1     -10.972   6.597  67.704  1.00  0.00    -0.309 C  
ENDROOT
BRANCH   3   4
HETATM    4  N   UNL     1     -10.314   5.834  66.639  1.00  0.00    -0.233 N  
BRANCH   4   5
HETATM    5  N   UNL     1     -10.863   4.629  66.183  1.00  0.00    -0.550 NA 
HETATM    6  H   UNL     1     -10.643   3.726  66.604  1.00  0.00     0.000 HD 
HETATM    7  O   UNL     1     -11.636   4.755  65.227  1.00  0.00    -1.065 OA 
HETATM    8  H   UNL     1     -12.008   3.938  64.918  1.00  0.00     0.000 HD 
ENDBRANCH   4   5
BRANCH   4   9
HETATM    9  C   UNL     1      -9.243   6.415  65.963  1.00  0.00    -0.059 C  
HETATM   10  O   UNL     1      -8.645   5.829  65.059  1.00  0.00    -0.148 OA 
BRANCH   9  11
HETATM   11  N   UNL     1      -8.857   7.671  66.388  1.00  0.00    -0.149 N  
HETATM   12  H   UNL     1      -9.518   8.444  66.309  1.00  0.00     0.000 HD 
BRANCH  11  13
HETATM   13  C   UNL     1      -7.530   7.929  66.947  1.00  0.00    -0.091 C  
HETATM   14  C   UNL     1      -6.997   9.320  66.582  1.00  0.00    -0.081 C  
HETATM   15  C   UNL     1      -7.710  10.453  67.319  1.00  0.00    -0.099 C  
HETATM   16  C   UNL     1      -7.789  10.235  68.827  1.00  0.00    -0.106 C  
HETATM   17  C   UNL     1      -8.275   8.840  69.210  1.00  0.00    -0.108 C  
HETATM   18  C   UNL     1      -7.529   7.734  68.466  1.00  0.00    -0.103 C  
ENDBRANCH  11  13
ENDBRANCH   9  11
ENDBRANCH   4   9
ENDBRANCH   3   4
TORSDOF 5
ENDMDL
MODEL      219
REMARK 921   NORMALIZED FREE ENERGY PREDICTED BY IDOCK:   -3.00 KCAL/MOL
REMARK 922        TOTAL FREE ENERGY PREDICTED BY IDOCK:   -4.47 KCAL/MOL
REMARK 923 INTER-LIGAND FREE ENERGY PREDICTED BY IDOCK:   -4.11 KCAL/MOL
REMARK 924 INTRA-LIGAND FREE ENERGY PREDICTED BY IDOCK:   -0.36 KCAL/MOL
REMARK 927      BINDING AFFINITY PREDICTED BY RF-SCORE:    0.00 PKD
ROOT
HETATM    1 CL   UNL     1     -10.821  10.968  66.447  1.00  0.00    -0.290 Cl 
HETATM    2  C   UNL     1     -11.986  11.430  67.716  1.00  0.00     0.005 C  
HETATM    3  C   UNL     1     -11.267  11.660  69.041  1.00  0.00    -0.262 C  
ENDROOT
BRANCH   3   4
HETATM    4  N   UNL     1     -12.185  12.007  70.130  1.00  0.00    -0.267 N  
BRANCH   4   5
HETATM    5  N   UNL     1     -12.760  11.006  70.922  1.00  0.00    -0.363 NA 
HETATM    6  H   UNL     1     -13.200  11.197  71.823  1.00  0.00     0.000 HD 
HETATM    7  O   UNL     1     -12.689   9.873  70.436  1.00  0.00    -0.516 OA 
HETATM    8  H   UNL     1     -13.079   9.194  70.973  1.00  0.00     0.000 HD 
ENDBRANCH   4   5
BRANCH   4   9
HETATM    9  C   UNL     1     -12.330  13.347  70.481  1.00  0.00    -0.329 C  
HETATM   10  O   UNL     1     -13.291  13.751  71.139  1.00  0.00    -0.256 OA 
BRANCH   9  11
HETATM   11  N   UNL     1     -11.359  14.214  70.016  1.00  0.00    -0.451 N  
HETATM   12  H   UNL     1     -10.379  13.946  70.099  1.00  0.00     0.000 HD 
BRANCH  11  13
HETATM   13  C   UNL     1     -11.693  15.502  69.411  1.00  0.00    -0.367 C  
HETATM   14  C   UNL     1     -10.764  16.631  69.878  1.00  0.00    -0.204 C  
HETATM   15  C   UNL     1      -9.355  16.534  69.294  1.00  0.00    -0.135 C  
HETATM   16  C   UNL     1      -9.341  16.354  67.779  1.00  0.00    -0.213 C  
HETATM   17  C   UNL     1     -10.293  15.265  67.292  1.00  0.00    -0.264 C  
HETATM   18  C   UNL     1     -11.694  15.405  67.882  1.00  0.00    -0.198 C  
ENDBRANCH  11  13
ENDBRANCH   9  11
ENDBRANCH   4   9
ENDBRANCH   3   4
TORSDOF 5
ENDMDL
MODEL      220
REMARK 921   NORMALIZED FREE ENERGY PREDICTED BY IDOCK:   -2.98 KCAL/MOL
REMARK 922        TOTAL FREE ENERGY PREDICTED BY IDOCK:   -4.45 KCAL/MOL
REMARK 923 INTER-LIGAND FREE ENERGY PREDICTED BY IDOCK:   -4.13 KCAL/MOL
REMARK 924 INTRA-LIGAND FREE ENERGY PREDICTED BY IDOCK:   -0.32 KCAL/MOL
REMARK 927      BINDING AFFINITY PREDICTED BY RF-SCORE:    0.00 PKD
ROOT
HETATM    1 CL   UNL     1      -5.546  21.030  64.011  1.00  0.00    -0.275 Cl 
HETATM    2  C   UNL     1      -6.196  20.807  65.656  1.00  0.00    -0.239 C  
HETATM    3  C   UNL     1      -7.669  20.418  65.597  1.00  0.00     0.050 C  
ENDROOT
BRANCH   3   4
HETATM    4  N   UNL     1      -8.265  20.258  66.928  1.00  0.00    -0.310 N  
BRANCH   4   5
HETATM    5  N   UNL     1      -9.492  20.860  67.236  1.00  0.00    -0.634 NA 
HETATM    6  H   UNL     1      -9.908  21.595  66.663  1.00  0.00     0.000 HD 
HETATM    7  O   UNL     1     -10.026  20.424  68.261  1.00  0.00    -0.306 OA 
HETATM    8  H   UNL     1     -10.857  20.831  68.470  1.00  0.00     0.000 HD 
ENDBRANCH   4   5
BRANCH   4   9
HETATM    9  C   UNL     1      -7.688  19.352  67.815  1.00  0.00    -0.277 C  
HETATM   10  O   UNL     1      -6.932  19.712  68.718  1.00  0.00    -0.312 OA 
BRANCH   9  11
HETATM   11  N   UNL     1      -7.976  18.017  67.604  1.00  0.00    -0.219 N  
HETATM   12  H   UNL     1      -7.273  17.317  67.842  1.00  0.00     0.000 HD 
BRANCH  11  13
HETATM   13  C   UNL     1      -9.255  17.575  67.049  1.00  0.00    -0.248 C  
HETATM   14  C   UNL     1      -9.091  16.469  65.999  1.00  0.00    -0.290 C  
HETATM   15  C   UNL     1      -8.697  15.120  66.599  1.00  0.00    -0.308 C  
HETATM   16  C   UNL     1      -9.589  14.695  67.762  1.00  0.00    -0.213 C  
HETATM   17  C   UNL     1      -9.799  15.798  68.795  1.00  0.00    -0.214 C  
HETATM   18  C   UNL     1     -10.208  17.125  68.160  1.00  0.00    -0.332 C  
ENDBRANCH  11  13
ENDBRANCH   9  11
ENDBRANCH   4   9
ENDBRANCH   3   4
TORSDOF 5
ENDMDL
MODEL      221
REMARK 921   NORMALIZED FREE ENERGY PREDICTED BY IDOCK:   -2.98 KCAL/MOL
REMARK 922        TOTAL FREE ENERGY PREDICTED BY IDOCK:   -4.44 KCAL/MOL
REMARK 923 INTER-LIGAND FREE ENERGY PREDICTED BY IDOCK:   -3.94 KCAL/MOL
REMARK 924 INTRA-LIGAND FREE ENERGY PREDICTED BY IDOCK:   -0.50 KCAL/MOL
REMARK 927      BINDING AFFINITY PREDICTED BY RF-SCORE:    0.00 PKD
ROOT
HETATM    1 CL   UNL     1      -8.115   8.681  69.878  1.00  0.00    -0.107 Cl 
HETATM    2  C   UNL     1      -9.681   9.522  70.019  1.00  0.00    -0.236 C  
HETATM    3  C   UNL     1      -9.833  10.554  68.907  1.00  0.00    -0.201 C  
ENDROOT
BRANCH   3   4
HETATM    4  N   UNL     1     -11.090  11.303  68.998  1.00  0.00    -0.225 N  
BRANCH   4   5
HETATM    5  N   UNL     1     -11.968  11.094  70.069  1.00  0.00    -0.335 NA 
HETATM    6  H   UNL     1     -11.791  11.451  71.008  1.00  0.00     0.000 HD 
HETATM    7  O   UNL     1     -12.974  10.438  69.777  1.00  0.00    -0.592 OA 
HETATM    8  H   UNL     1     -13.569  10.296  70.504  1.00  0.00     0.000 HD 
ENDBRANCH   4   5
BRANCH   4   9
HETATM    9  C   UNL     1     -11.310  12.352  68.108  1.00  0.00    -0.291 C  
HETATM   10  O   UNL     1     -12.203  12.316  67.261  1.00  0.00    -0.485 OA 
BRANCH   9  11
HETATM   11  N   UNL     1     -10.444  13.426  68.197  1.00  0.00    -0.238 N  
HETATM   12  H   UNL     1      -9.736  13.549  67.473  1.00  0.00     0.000 HD 
BRANCH  11  13
HETATM   13  C   UNL     1     -10.510  14.389  69.295  1.00  0.00    -0.140 C  
HETATM   14  C   UNL     1      -9.206  15.178  69.466  1.00  0.00    -0.139 C  
HETATM   15  C   UNL     1      -8.970  16.205  68.359  1.00  0.00    -0.196 C  
HETATM   16  C   UNL     1     -10.173  17.111  68.113  1.00  0.00    -0.332 C  
HETATM   17  C   UNL     1     -11.487  16.347  67.983  1.00  0.00    -0.059 C  
HETATM   18  C   UNL     1     -11.696  15.343  69.115  1.00  0.00    -0.364 C  
ENDBRANCH  11  13
ENDBRANCH   9  11
ENDBRANCH   4   9
ENDBRANCH   3   4
TORSDOF 5
ENDMDL
MODEL      222
REMARK 921   NORMALIZED FREE ENERGY PREDICTED BY IDOCK:   -2.96 KCAL/MOL
REMARK 922        TOTAL FREE ENERGY PREDICTED BY IDOCK:   -4.42 KCAL/MOL
REMARK 923 INTER-LIGAND FREE ENERGY PREDICTED BY IDOCK:   -3.74 KCAL/MOL
REMARK 924 INTRA-LIGAND FREE ENERGY PREDICTED BY IDOCK:   -0.68 KCAL/MOL
REMARK 927      BINDING AFFINITY PREDICTED BY RF-SCORE:    0.00 PKD
ROOT
HETATM    1 CL   UNL     1      -8.955   2.899  72.462  1.00  0.00    -0.107 Cl 
HETATM    2  C   UNL     1      -9.839   4.402  72.835  1.00  0.00    -0.142 C  
HETATM    3  C   UNL     1     -10.227   5.124  71.549  1.00  0.00    -0.207 C  
ENDROOT
BRANCH   3   4
HETATM    4  N   UNL     1     -10.926   6.389  71.799  1.00  0.00    -0.244 N  
BRANCH   4   5
HETATM    5  N   UNL     1     -10.698   7.107  72.980  1.00  0.00    -0.291 NA 
HETATM    6  H   UNL     1      -9.783   7.162  73.427  1.00  0.00     0.000 HD 
HETATM    7  O   UNL     1     -11.703   7.666  73.433  1.00  0.00    -0.615 OA 
HETATM    8  H   UNL     1     -11.549   8.153  74.234  1.00  0.00     0.000 HD 
ENDBRANCH   4   5
BRANCH   4   9
HETATM    9  C   UNL     1     -11.674   6.955  70.769  1.00  0.00    -0.369 C  
HETATM   10  O   UNL     1     -12.905   6.975  70.789  1.00  0.00    -0.246 OA 
BRANCH   9  11
HETATM   11  N   UNL     1     -10.962   7.461  69.698  1.00  0.00    -0.377 N  
HETATM   12  H   UNL     1     -10.449   6.815  69.098  1.00  0.00     0.000 HD 
BRANCH  11  13
HETATM   13  C   UNL     1     -10.921   8.891  69.398  1.00  0.00    -0.048 C  
HETATM   14  C   UNL     1     -10.206   9.702  70.486  1.00  0.00    -0.351 C  
HETATM   15  C   UNL     1      -8.692   9.493  70.498  1.00  0.00    -0.247 C  
HETATM   16  C   UNL     1      -8.050   9.663  69.124  1.00  0.00    -0.104 C  
HETATM   17  C   UNL     1      -8.775   8.899  68.021  1.00  0.00    -0.133 C  
HETATM   18  C   UNL     1     -10.282   9.146  68.029  1.00  0.00    -0.258 C  
ENDBRANCH  11  13
ENDBRANCH   9  11
ENDBRANCH   4   9
ENDBRANCH   3   4
TORSDOF 5
ENDMDL
MODEL      223
REMARK 921   NORMALIZED FREE ENERGY PREDICTED BY IDOCK:   -2.95 KCAL/MOL
REMARK 922        TOTAL FREE ENERGY PREDICTED BY IDOCK:   -4.41 KCAL/MOL
REMARK 923 INTER-LIGAND FREE ENERGY PREDICTED BY IDOCK:   -4.08 KCAL/MOL
REMARK 924 INTRA-LIGAND FREE ENERGY PREDICTED BY IDOCK:   -0.33 KCAL/MOL
REMARK 927      BINDING AFFINITY PREDICTED BY RF-SCORE:    0.00 PKD
ROOT
HETATM    1 CL   UNL     1      -8.642   5.316  67.402  1.00  0.00    -0.106 Cl 
HETATM    2  C   UNL     1      -9.665   6.761  67.188  1.00  0.00    -0.151 C  
HETATM    3  C   UNL     1      -9.010   7.977  67.833  1.00  0.00    -0.129 C  
ENDROOT
BRANCH   3   4
HETATM    4  N   UNL     1      -9.829   9.188  67.718  1.00  0.00    -0.165 N  
BRANCH   4   5
HETATM    5  N   UNL     1     -10.250   9.647  66.465  1.00  0.00    -0.238 NA 
HETATM    6  H   UNL     1     -11.233   9.743  66.211  1.00  0.00     0.000 HD 
HETATM    7  O   UNL     1      -9.326   9.926  65.692  1.00  0.00    -0.179 OA 
HETATM    8  H   UNL     1      -9.611  10.237  64.841  1.00  0.00     0.000 HD 
ENDBRANCH   4   5
BRANCH   4   9
HETATM    9  C   UNL     1     -10.335   9.767  68.881  1.00  0.00    -0.210 C  
HETATM   10  O   UNL     1      -9.978  10.881  69.265  1.00  0.00    -0.196 OA 
BRANCH   9  11
HETATM   11  N   UNL     1     -11.230   9.005  69.607  1.00  0.00    -0.434 N  
HETATM   12  H   UNL     1     -11.903   8.425  69.108  1.00  0.00     0.000 HD 
BRANCH  11  13
HETATM   13  C   UNL     1     -11.243   9.005  71.070  1.00  0.00    -0.295 C  
HETATM   14  C   UNL     1     -12.308   9.945  71.650  1.00  0.00    -0.496 C  
HETATM   15  C   UNL     1     -13.734   9.424  71.473  1.00  0.00    -0.363 C  
HETATM   16  C   UNL     1     -13.910   7.982  71.938  1.00  0.00    -0.418 C  
HETATM   17  C   UNL     1     -12.834   7.041  71.406  1.00  0.00    -0.407 C  
HETATM   18  C   UNL     1     -11.423   7.585  71.616  1.00  0.00    -0.292 C  
ENDBRANCH  11  13
ENDBRANCH   9  11
ENDBRANCH   4   9
ENDBRANCH   3   4
TORSDOF 5
ENDMDL
MODEL      224
REMARK 921   NORMALIZED FREE ENERGY PREDICTED BY IDOCK:   -2.95 KCAL/MOL
REMARK 922        TOTAL FREE ENERGY PREDICTED BY IDOCK:   -4.40 KCAL/MOL
REMARK 923 INTER-LIGAND FREE ENERGY PREDICTED BY IDOCK:   -3.95 KCAL/MOL
REMARK 924 INTRA-LIGAND FREE ENERGY PREDICTED BY IDOCK:   -0.45 KCAL/MOL
REMARK 927      BINDING AFFINITY PREDICTED BY RF-SCORE:    0.00 PKD
ROOT
HETATM    1 CL   UNL     1     -11.583  15.912  64.269  1.00  0.00    -0.322 Cl 
HETATM    2  C   UNL     1     -10.922  14.992  65.646  1.00  0.00    -0.354 C  
HETATM    3  C   UNL     1     -10.458  15.940  66.747  1.00  0.00    -0.309 C  
ENDROOT
BRANCH   3   4
HETATM    4  N   UNL     1      -9.871  15.235  67.890  1.00  0.00    -0.216 N  
BRANCH   4   5
HETATM    5  N   UNL     1      -8.491  15.279  68.121  1.00  0.00    -0.148 NA 
HETATM    6  H   UNL     1      -8.055  14.880  68.954  1.00  0.00     0.000 HD 
HETATM    7  O   UNL     1      -7.846  15.842  67.230  1.00  0.00    -0.158 OA 
HETATM    8  H   UNL     1      -6.910  15.872  67.386  1.00  0.00     0.000 HD 
ENDBRANCH   4   5
BRANCH   4   9
HETATM    9  C   UNL     1     -10.722  14.678  68.843  1.00  0.00    -0.248 C  
HETATM   10  O   UNL     1     -11.641  15.321  69.354  1.00  0.00    -0.289 OA 
BRANCH   9  11
HETATM   11  N   UNL     1     -10.458  13.375  69.217  1.00  0.00    -0.438 N  
HETATM   12  H   UNL     1     -10.173  13.185  70.178  1.00  0.00     0.000 HD 
BRANCH  11  13
HETATM   13  C   UNL     1     -10.574  12.258  68.280  1.00  0.00    -0.227 C  
HETATM   14  C   UNL     1      -9.209  11.727  67.824  1.00  0.00    -0.181 C  
HETATM   15  C   UNL     1      -8.469  10.952  68.913  1.00  0.00    -0.142 C  
HETATM   16  C   UNL     1      -9.324   9.875  69.574  1.00  0.00    -0.236 C  
HETATM   17  C   UNL     1     -10.704  10.374  69.994  1.00  0.00    -0.321 C  
HETATM   18  C   UNL     1     -11.420  11.128  68.875  1.00  0.00    -0.363 C  
ENDBRANCH  11  13
ENDBRANCH   9  11
ENDBRANCH   4   9
ENDBRANCH   3   4
TORSDOF 5
ENDMDL
MODEL      225
REMARK 921   NORMALIZED FREE ENERGY PREDICTED BY IDOCK:   -2.93 KCAL/MOL
REMARK 922        TOTAL FREE ENERGY PREDICTED BY IDOCK:   -4.39 KCAL/MOL
REMARK 923 INTER-LIGAND FREE ENERGY PREDICTED BY IDOCK:   -4.02 KCAL/MOL
REMARK 924 INTRA-LIGAND FREE ENERGY PREDICTED BY IDOCK:   -0.36 KCAL/MOL
REMARK 927      BINDING AFFINITY PREDICTED BY RF-SCORE:    0.00 PKD
ROOT
HETATM    1 CL   UNL     1     -11.884  11.726  68.893  1.00  0.00    -0.373 Cl 
HETATM    2  C   UNL     1     -10.541  12.835  68.512  1.00  0.00    -0.252 C  
HETATM    3  C   UNL     1     -10.798  14.210  69.118  1.00  0.00    -0.229 C  
ENDROOT
BRANCH   3   4
HETATM    4  N   UNL     1      -9.739  15.175  68.803  1.00  0.00    -0.213 N  
BRANCH   4   5
HETATM    5  N   UNL     1      -8.392  14.799  68.869  1.00  0.00    -0.167 NA 
HETATM    6  H   UNL     1      -7.947  14.206  68.168  1.00  0.00     0.000 HD 
HETATM    7  O   UNL     1      -7.788  15.249  69.849  1.00  0.00    -0.253 OA 
HETATM    8  H   UNL     1      -6.875  14.994  69.894  1.00  0.00     0.000 HD 
ENDBRANCH   4   5
BRANCH   4   9
HETATM    9  C   UNL     1     -10.096  16.408  68.262  1.00  0.00    -0.248 C  
HETATM   10  O   UNL     1     -11.193  16.924  68.478  1.00  0.00    -0.289 OA 
BRANCH   9  11
HETATM   11  N   UNL     1      -9.168  17.007  67.432  1.00  0.00    -0.232 N  
HETATM   12  H   UNL     1      -9.162  16.765  66.442  1.00  0.00     0.000 HD 
BRANCH  11  13
HETATM   13  C   UNL     1      -8.194  17.979  67.929  1.00  0.00    -0.247 C  
HETATM   14  C   UNL     1      -6.857  17.909  67.179  1.00  0.00    -0.201 C  
HETATM   15  C   UNL     1      -6.933  18.463  65.757  1.00  0.00    -0.288 C  
HETATM   16  C   UNL     1      -7.573  19.846  65.683  1.00  0.00    -0.242 C  
HETATM   17  C   UNL     1      -8.882  19.947  66.460  1.00  0.00    -0.432 C  
HETATM   18  C   UNL     1      -8.764  19.400  67.881  1.00  0.00    -0.359 C  
ENDBRANCH  11  13
ENDBRANCH   9  11
ENDBRANCH   4   9
ENDBRANCH   3   4
TORSDOF 5
ENDMDL
MODEL      226
REMARK 921   NORMALIZED FREE ENERGY PREDICTED BY IDOCK:   -2.92 KCAL/MOL
REMARK 922        TOTAL FREE ENERGY PREDICTED BY IDOCK:   -4.37 KCAL/MOL
REMARK 923 INTER-LIGAND FREE ENERGY PREDICTED BY IDOCK:   -3.93 KCAL/MOL
REMARK 924 INTRA-LIGAND FREE ENERGY PREDICTED BY IDOCK:   -0.43 KCAL/MOL
REMARK 927      BINDING AFFINITY PREDICTED BY RF-SCORE:    0.00 PKD
ROOT
HETATM    1 CL   UNL     1     -10.354  10.949  65.854  1.00  0.00    -0.314 Cl 
HETATM    2  C   UNL     1      -9.566   9.609  66.729  1.00  0.00    -0.173 C  
HETATM    3  C   UNL     1     -10.532   8.441  66.894  1.00  0.00    -0.289 C  
ENDROOT
BRANCH   3   4
HETATM    4  N   UNL     1      -9.946   7.323  67.641  1.00  0.00    -0.152 N  
BRANCH   4   5
HETATM    5  N   UNL     1      -8.638   6.899  67.377  1.00  0.00    -0.121 NA 
HETATM    6  H   UNL     1      -8.179   7.043  66.477  1.00  0.00     0.000 HD 
HETATM    7  O   UNL     1      -8.087   6.336  68.329  1.00  0.00    -0.110 OA 
HETATM    8  H   UNL     1      -7.200   6.049  68.151  1.00  0.00     0.000 HD 
ENDBRANCH   4   5
BRANCH   4   9
HETATM    9  C   UNL     1     -10.639   6.813  68.736  1.00  0.00    -0.226 C  
HETATM   10  O   UNL     1     -10.666   5.608  68.991  1.00  0.00    -0.267 OA 
BRANCH   9  11
HETATM   11  N   UNL     1     -11.334   7.728  69.505  1.00  0.00    -0.437 N  
HETATM   12  H   UNL     1     -12.351   7.673  69.538  1.00  0.00     0.000 HD 
BRANCH  11  13
HETATM   13  C   UNL     1     -10.655   8.773  70.271  1.00  0.00    -0.216 C  
HETATM   14  C   UNL     1     -11.539   9.358  71.380  1.00  0.00    -0.451 C  
HETATM   15  C   UNL     1     -11.749   8.401  72.554  1.00  0.00    -0.429 C  
HETATM   16  C   UNL     1     -10.447   7.815  73.092  1.00  0.00    -0.413 C  
HETATM   17  C   UNL     1      -9.535   7.268  71.998  1.00  0.00    -0.151 C  
HETATM   18  C   UNL     1      -9.335   8.257  70.852  1.00  0.00    -0.187 C  
ENDBRANCH  11  13
ENDBRANCH   9  11
ENDBRANCH   4   9
ENDBRANCH   3   4
TORSDOF 5
ENDMDL
MODEL      227
REMARK 921   NORMALIZED FREE ENERGY PREDICTED BY IDOCK:   -2.92 KCAL/MOL
REMARK 922        TOTAL FREE ENERGY PREDICTED BY IDOCK:   -4.36 KCAL/MOL
REMARK 923 INTER-LIGAND FREE ENERGY PREDICTED BY IDOCK:   -3.82 KCAL/MOL
REMARK 924 INTRA-LIGAND FREE ENERGY PREDICTED BY IDOCK:   -0.54 KCAL/MOL
REMARK 927      BINDING AFFINITY PREDICTED BY RF-SCORE:    0.00 PKD
ROOT
HETATM    1 CL   UNL     1      -9.532   3.486  69.754  1.00  0.00    -0.248 Cl 
HETATM    2  C   UNL     1      -9.170   5.143  70.304  1.00  0.00    -0.146 C  
HETATM    3  C   UNL     1      -9.538   5.307  71.774  1.00  0.00    -0.150 C  
ENDROOT
BRANCH   3   4
HETATM    4  N   UNL     1      -9.294   6.666  72.270  1.00  0.00    -0.138 N  
BRANCH   4   5
HETATM    5  N   UNL     1      -8.108   7.338  71.951  1.00  0.00    -0.098 NA 
HETATM    6  H   UNL     1      -7.215   7.126  72.395  1.00  0.00     0.000 HD 
HETATM    7  O   UNL     1      -8.238   8.210  71.085  1.00  0.00    -0.099 OA 
HETATM    8  H   UNL     1      -7.434   8.666  70.869  1.00  0.00     0.000 HD 
ENDBRANCH   4   5
BRANCH   4   9
HETATM    9  C   UNL     1     -10.334   7.344  72.903  1.00  0.00    -0.279 C  
HETATM   10  O   UNL     1     -10.842   6.932  73.947  1.00  0.00    -0.238 OA 
BRANCH   9  11
HETATM   11  N   UNL     1     -10.797   8.485  72.276  1.00  0.00    -0.352 N  
HETATM   12  H   UNL     1     -10.372   9.382  72.509  1.00  0.00     0.000 HD 
BRANCH  11  13
HETATM   13  C   UNL     1     -11.876   8.446  71.290  1.00  0.00    -0.289 C  
HETATM   14  C   UNL     1     -13.100   9.262  71.725  1.00  0.00    -0.472 C  
HETATM   15  C   UNL     1     -12.873  10.772  71.662  1.00  0.00    -0.562 C  
HETATM   16  C   UNL     1     -12.302  11.240  70.327  1.00  0.00    -0.389 C  
HETATM   17  C   UNL     1     -11.111  10.411  69.856  1.00  0.00    -0.367 C  
HETATM   18  C   UNL     1     -11.381   8.909  69.917  1.00  0.00     0.006 C  
ENDBRANCH  11  13
ENDBRANCH   9  11
ENDBRANCH   4   9
ENDBRANCH   3   4
TORSDOF 5
ENDMDL
MODEL      228
REMARK 921   NORMALIZED FREE ENERGY PREDICTED BY IDOCK:   -2.92 KCAL/MOL
REMARK 922        TOTAL FREE ENERGY PREDICTED BY IDOCK:   -4.36 KCAL/MOL
REMARK 923 INTER-LIGAND FREE ENERGY PREDICTED BY IDOCK:   -4.09 KCAL/MOL
REMARK 924 INTRA-LIGAND FREE ENERGY PREDICTED BY IDOCK:   -0.28 KCAL/MOL
REMARK 927      BINDING AFFINITY PREDICTED BY RF-SCORE:    0.00 PKD
ROOT
HETATM    1 CL   UNL     1      -9.018   2.804  72.395  1.00  0.00    -0.108 Cl 
HETATM    2  C   UNL     1     -10.034   4.209  72.811  1.00  0.00    -0.151 C  
HETATM    3  C   UNL     1     -10.309   5.053  71.571  1.00  0.00    -0.182 C  
ENDROOT
BRANCH   3   4
HETATM    4  N   UNL     1     -11.112   6.245  71.865  1.00  0.00    -0.255 N  
BRANCH   4   5
HETATM    5  N   UNL     1     -11.307   6.664  73.186  1.00  0.00    -0.483 NA 
HETATM    6  H   UNL     1     -11.518   6.019  73.947  1.00  0.00     0.000 HD 
HETATM    7  O   UNL     1     -11.201   7.885  73.350  1.00  0.00    -0.456 OA 
HETATM    8  H   UNL     1     -11.332   8.170  74.246  1.00  0.00     0.000 HD 
ENDBRANCH   4   5
BRANCH   4   9
HETATM    9  C   UNL     1     -11.522   7.053  70.806  1.00  0.00    -0.318 C  
HETATM   10  O   UNL     1     -12.001   8.173  70.986  1.00  0.00    -0.295 OA 
BRANCH   9  11
HETATM   11  N   UNL     1     -11.401   6.515  69.539  1.00  0.00    -0.538 N  
HETATM   12  H   UNL     1     -11.890   5.646  69.323  1.00  0.00     0.000 HD 
BRANCH  11  13
HETATM   13  C   UNL     1     -10.594   7.151  68.498  1.00  0.00    -0.187 C  
HETATM   14  C   UNL     1      -9.088   7.033  68.765  1.00  0.00    -0.133 C  
HETATM   15  C   UNL     1      -8.546   5.619  68.553  1.00  0.00    -0.107 C  
HETATM   16  C   UNL     1      -8.952   5.014  67.212  1.00  0.00    -0.113 C  
HETATM   17  C   UNL     1     -10.440   5.162  66.910  1.00  0.00    -0.280 C  
HETATM   18  C   UNL     1     -10.941   6.590  67.116  1.00  0.00    -0.480 C  
ENDBRANCH  11  13
ENDBRANCH   9  11
ENDBRANCH   4   9
ENDBRANCH   3   4
TORSDOF 5
ENDMDL
MODEL      229
REMARK 921   NORMALIZED FREE ENERGY PREDICTED BY IDOCK:   -2.91 KCAL/MOL
REMARK 922        TOTAL FREE ENERGY PREDICTED BY IDOCK:   -4.35 KCAL/MOL
REMARK 923 INTER-LIGAND FREE ENERGY PREDICTED BY IDOCK:   -3.92 KCAL/MOL
REMARK 924 INTRA-LIGAND FREE ENERGY PREDICTED BY IDOCK:   -0.44 KCAL/MOL
REMARK 927      BINDING AFFINITY PREDICTED BY RF-SCORE:    0.00 PKD
ROOT
HETATM    1 CL   UNL     1      -6.973  20.658  67.010  1.00  0.00    -0.341 Cl 
HETATM    2  C   UNL     1      -8.302  19.528  67.380  1.00  0.00    -0.294 C  
HETATM    3  C   UNL     1      -8.427  18.475  66.284  1.00  0.00    -0.207 C  
ENDROOT
BRANCH   3   4
HETATM    4  N   UNL     1      -9.531  17.540  66.521  1.00  0.00    -0.266 N  
BRANCH   4   5
HETATM    5  N   UNL     1     -10.656  17.938  67.253  1.00  0.00    -0.362 NA 
HETATM    6  H   UNL     1     -11.152  18.811  67.077  1.00  0.00     0.000 HD 
HETATM    7  O   UNL     1     -10.996  17.138  68.132  1.00  0.00    -0.361 OA 
HETATM    8  H   UNL     1     -11.758  17.408  68.630  1.00  0.00     0.000 HD 
ENDBRANCH   4   5
BRANCH   4   9
HETATM    9  C   UNL     1      -9.528  16.317  65.852  1.00  0.00    -0.283 C  
HETATM   10  O   UNL     1     -10.223  16.114  64.856  1.00  0.00    -0.502 OA 
BRANCH   9  11
HETATM   11  N   UNL     1      -8.731  15.325  66.391  1.00  0.00    -0.424 N  
HETATM   12  H   UNL     1      -7.828  15.128  65.959  1.00  0.00     0.000 HD 
BRANCH  11  13
HETATM   13  C   UNL     1      -9.141  14.547  67.559  1.00  0.00    -0.193 C  
HETATM   14  C   UNL     1      -9.148  13.037  67.290  1.00  0.00    -0.209 C  
HETATM   15  C   UNL     1      -7.746  12.438  67.177  1.00  0.00    -0.122 C  
HETATM   16  C   UNL     1      -6.832  12.821  68.336  1.00  0.00    -0.091 C  
HETATM   17  C   UNL     1      -6.847  14.314  68.648  1.00  0.00    -0.098 C  
HETATM   18  C   UNL     1      -8.262  14.874  68.771  1.00  0.00    -0.161 C  
ENDBRANCH  11  13
ENDBRANCH   9  11
ENDBRANCH   4   9
ENDBRANCH   3   4
TORSDOF 5
ENDMDL
MODEL      230
REMARK 921   NORMALIZED FREE ENERGY PREDICTED BY IDOCK:   -2.89 KCAL/MOL
REMARK 922        TOTAL FREE ENERGY PREDICTED BY IDOCK:   -4.32 KCAL/MOL
REMARK 923 INTER-LIGAND FREE ENERGY PREDICTED BY IDOCK:   -3.98 KCAL/MOL
REMARK 924 INTRA-LIGAND FREE ENERGY PREDICTED BY IDOCK:   -0.34 KCAL/MOL
REMARK 927      BINDING AFFINITY PREDICTED BY RF-SCORE:    0.00 PKD
ROOT
HETATM    1 CL   UNL     1      -9.011  17.844  67.002  1.00  0.00    -0.245 Cl 
HETATM    2  C   UNL     1      -9.947  16.587  67.853  1.00  0.00    -0.245 C  
HETATM    3  C   UNL     1      -9.043  15.425  68.246  1.00  0.00    -0.187 C  
ENDROOT
BRANCH   3   4
HETATM    4  N   UNL     1      -9.771  14.343  68.918  1.00  0.00    -0.186 N  
BRANCH   4   5
HETATM    5  N   UNL     1     -10.475  14.589  70.103  1.00  0.00    -0.373 NA 
HETATM    6  H   UNL     1     -10.023  14.902  70.962  1.00  0.00     0.000 HD 
HETATM    7  O   UNL     1     -11.692  14.392  70.018  1.00  0.00    -0.269 OA 
HETATM    8  H   UNL     1     -12.170  14.558  70.821  1.00  0.00     0.000 HD 
ENDBRANCH   4   5
BRANCH   4   9
HETATM    9  C   UNL     1      -9.904  13.120  68.266  1.00  0.00    -0.227 C  
HETATM   10  O   UNL     1     -10.179  12.082  68.870  1.00  0.00    -0.169 OA 
BRANCH   9  11
HETATM   11  N   UNL     1      -9.670  13.120  66.904  1.00  0.00    -0.237 N  
HETATM   12  H   UNL     1      -8.896  13.673  66.537  1.00  0.00     0.000 HD 
BRANCH  11  13
HETATM   13  C   UNL     1     -10.496  12.353  65.973  1.00  0.00    -0.254 C  
HETATM   14  C   UNL     1     -11.972  12.314  66.391  1.00  0.00    -0.286 C  
HETATM   15  C   UNL     1     -12.692  13.647  66.191  1.00  0.00    -0.295 C  
HETATM   16  C   UNL     1     -12.495  14.236  64.798  1.00  0.00    -0.390 C  
HETATM   17  C   UNL     1     -11.037  14.243  64.347  1.00  0.00    -0.235 C  
HETATM   18  C   UNL     1     -10.356  12.890  64.545  1.00  0.00    -0.380 C  
ENDBRANCH  11  13
ENDBRANCH   9  11
ENDBRANCH   4   9
ENDBRANCH   3   4
TORSDOF 5
ENDMDL
MODEL      231
REMARK 921   NORMALIZED FREE ENERGY PREDICTED BY IDOCK:   -2.88 KCAL/MOL
REMARK 922        TOTAL FREE ENERGY PREDICTED BY IDOCK:   -4.32 KCAL/MOL
REMARK 923 INTER-LIGAND FREE ENERGY PREDICTED BY IDOCK:   -3.71 KCAL/MOL
REMARK 924 INTRA-LIGAND FREE ENERGY PREDICTED BY IDOCK:   -0.61 KCAL/MOL
REMARK 927      BINDING AFFINITY PREDICTED BY RF-SCORE:    0.00 PKD
ROOT
HETATM    1 CL   UNL     1     -13.239   9.997  71.448  1.00  0.00    -0.479 Cl 
HETATM    2  C   UNL     1     -11.597   9.325  71.624  1.00  0.00    -0.393 C  
HETATM    3  C   UNL     1     -10.812   9.492  70.327  1.00  0.00    -0.269 C  
ENDROOT
BRANCH   3   4
HETATM    4  N   UNL     1      -9.463   8.921  70.406  1.00  0.00    -0.181 N  
BRANCH   4   5
HETATM    5  N   UNL     1      -8.449   9.584  71.108  1.00  0.00    -0.329 NA 
HETATM    6  H   UNL     1      -8.151  10.534  70.885  1.00  0.00     0.000 HD 
HETATM    7  O   UNL     1      -7.946   8.918  72.019  1.00  0.00    -0.350 OA 
HETATM    8  H   UNL     1      -7.258   9.368  72.495  1.00  0.00     0.000 HD 
ENDBRANCH   4   5
BRANCH   4   9
HETATM    9  C   UNL     1      -9.255   7.627  69.932  1.00  0.00    -0.147 C  
HETATM   10  O   UNL     1      -9.522   6.632  70.607  1.00  0.00    -0.168 OA 
BRANCH   9  11
HETATM   11  N   UNL     1      -8.693   7.516  68.674  1.00  0.00    -0.129 N  
HETATM   12  H   UNL     1      -7.721   7.218  68.593  1.00  0.00     0.000 HD 
BRANCH  11  13
HETATM   13  C   UNL     1      -9.447   7.811  67.457  1.00  0.00    -0.141 C  
HETATM   14  C   UNL     1      -8.634   7.551  66.182  1.00  0.00    -0.159 C  
HETATM   15  C   UNL     1      -8.426   6.065  65.891  1.00  0.00    -0.143 C  
HETATM   16  C   UNL     1      -9.719   5.256  65.936  1.00  0.00    -0.125 C  
HETATM   17  C   UNL     1     -10.563   5.535  67.176  1.00  0.00    -0.313 C  
HETATM   18  C   UNL     1     -10.764   7.028  67.424  1.00  0.00    -0.383 C  
ENDBRANCH  11  13
ENDBRANCH   9  11
ENDBRANCH   4   9
ENDBRANCH   3   4
TORSDOF 5
ENDMDL
MODEL      232
REMARK 921   NORMALIZED FREE ENERGY PREDICTED BY IDOCK:   -2.86 KCAL/MOL
REMARK 922        TOTAL FREE ENERGY PREDICTED BY IDOCK:   -4.29 KCAL/MOL
REMARK 923 INTER-LIGAND FREE ENERGY PREDICTED BY IDOCK:   -3.85 KCAL/MOL
REMARK 924 INTRA-LIGAND FREE ENERGY PREDICTED BY IDOCK:   -0.44 KCAL/MOL
REMARK 927      BINDING AFFINITY PREDICTED BY RF-SCORE:    0.00 PKD
ROOT
HETATM    1 CL   UNL     1      -9.806  10.443  68.107  1.00  0.00    -0.163 Cl 
HETATM    2  C   UNL     1     -10.283   9.367  69.446  1.00  0.00    -0.207 C  
HETATM    3  C   UNL     1     -11.598   9.833  70.061  1.00  0.00    -0.130 C  
ENDROOT
BRANCH   3   4
HETATM    4  N   UNL     1     -12.019   9.002  71.194  1.00  0.00    -0.293 N  
BRANCH   4   5
HETATM    5  N   UNL     1     -12.769   9.552  72.241  1.00  0.00    -0.345 NA 
HETATM    6  H   UNL     1     -12.739  10.543  72.483  1.00  0.00     0.000 HD 
HETATM    7  O   UNL     1     -13.470   8.734  72.845  1.00  0.00    -0.754 OA 
HETATM    8  H   UNL     1     -13.978   9.106  73.555  1.00  0.00     0.000 HD 
ENDBRANCH   4   5
BRANCH   4   9
HETATM    9  C   UNL     1     -11.822   7.625  71.123  1.00  0.00    -0.293 C  
HETATM   10  O   UNL     1     -12.624   6.877  70.562  1.00  0.00    -0.216 OA 
BRANCH   9  11
HETATM   11  N   UNL     1     -10.695   7.131  71.753  1.00  0.00    -0.215 N  
HETATM   12  H   UNL     1     -10.274   6.270  71.407  1.00  0.00     0.000 HD 
BRANCH  11  13
HETATM   13  C   UNL     1     -10.089   7.805  72.901  1.00  0.00    -0.301 C  
HETATM   14  C   UNL     1     -10.001   6.901  74.137  1.00  0.00    -0.351 C  
HETATM   15  C   UNL     1      -8.942   5.806  74.010  1.00  0.00    -0.126 C  
HETATM   16  C   UNL     1      -7.579   6.334  73.574  1.00  0.00    -0.094 C  
HETATM   17  C   UNL     1      -7.652   7.271  72.372  1.00  0.00    -0.090 C  
HETATM   18  C   UNL     1      -8.707   8.362  72.542  1.00  0.00    -0.277 C  
ENDBRANCH  11  13
ENDBRANCH   9  11
ENDBRANCH   4   9
ENDBRANCH   3   4
TORSDOF 5
ENDMDL
MODEL      233
REMARK 921   NORMALIZED FREE ENERGY PREDICTED BY IDOCK:   -2.85 KCAL/MOL
REMARK 922        TOTAL FREE ENERGY PREDICTED BY IDOCK:   -4.28 KCAL/MOL
REMARK 923 INTER-LIGAND FREE ENERGY PREDICTED BY IDOCK:   -3.73 KCAL/MOL
REMARK 924 INTRA-LIGAND FREE ENERGY PREDICTED BY IDOCK:   -0.55 KCAL/MOL
REMARK 927      BINDING AFFINITY PREDICTED BY RF-SCORE:    0.00 PKD
ROOT
HETATM    1 CL   UNL     1     -14.410   8.193  72.658  1.00  0.00    -0.152 Cl 
HETATM    2  C   UNL     1     -12.673   7.894  72.393  1.00  0.00    -0.081 C  
HETATM    3  C   UNL     1     -12.466   7.000  71.176  1.00  0.00    -0.362 C  
ENDROOT
BRANCH   3   4
HETATM    4  N   UNL     1     -11.053   6.691  70.933  1.00  0.00    -0.269 N  
BRANCH   4   5
HETATM    5  N   UNL     1     -10.444   5.601  71.567  1.00  0.00    -0.231 NA 
HETATM    6  H   UNL     1     -10.331   5.541  72.579  1.00  0.00     0.000 HD 
HETATM    7  O   UNL     1     -10.054   4.719  70.794  1.00  0.00    -0.225 OA 
HETATM    8  H   UNL     1      -9.641   3.980  71.224  1.00  0.00     0.000 HD 
ENDBRANCH   4   5
BRANCH   4   9
HETATM    9  C   UNL     1     -10.380   7.381  69.927  1.00  0.00    -0.218 C  
HETATM   10  O   UNL     1      -9.323   6.971  69.447  1.00  0.00    -0.147 OA 
BRANCH   9  11
HETATM   11  N   UNL     1     -10.941   8.577  69.522  1.00  0.00    -0.419 N  
HETATM   12  H   UNL     1     -11.812   8.559  68.991  1.00  0.00     0.000 HD 
BRANCH  11  13
HETATM   13  C   UNL     1     -10.325   9.868  69.829  1.00  0.00    -0.246 C  
HETATM   14  C   UNL     1      -9.651  10.505  68.607  1.00  0.00    -0.171 C  
HETATM   15  C   UNL     1     -10.646  11.038  67.577  1.00  0.00    -0.266 C  
HETATM   16  C   UNL     1     -11.720  11.934  68.186  1.00  0.00    -0.388 C  
HETATM   17  C   UNL     1     -12.372  11.336  69.429  1.00  0.00    -0.216 C  
HETATM   18  C   UNL     1     -11.347  10.830  70.442  1.00  0.00    -0.342 C  
ENDBRANCH  11  13
ENDBRANCH   9  11
ENDBRANCH   4   9
ENDBRANCH   3   4
TORSDOF 5
ENDMDL
MODEL      234
REMARK 921   NORMALIZED FREE ENERGY PREDICTED BY IDOCK:   -2.84 KCAL/MOL
REMARK 922        TOTAL FREE ENERGY PREDICTED BY IDOCK:   -4.26 KCAL/MOL
REMARK 923 INTER-LIGAND FREE ENERGY PREDICTED BY IDOCK:   -3.83 KCAL/MOL
REMARK 924 INTRA-LIGAND FREE ENERGY PREDICTED BY IDOCK:   -0.43 KCAL/MOL
REMARK 927      BINDING AFFINITY PREDICTED BY RF-SCORE:    0.00 PKD
ROOT
HETATM    1 CL   UNL     1     -13.239  10.885  71.353  1.00  0.00    -0.419 Cl 
HETATM    2  C   UNL     1     -11.868  10.969  70.215  1.00  0.00    -0.367 C  
HETATM    3  C   UNL     1     -10.984   9.735  70.355  1.00  0.00    -0.312 C  
ENDROOT
BRANCH   3   4
HETATM    4  N   UNL     1      -9.818   9.770  69.466  1.00  0.00    -0.201 N  
BRANCH   4   5
HETATM    5  N   UNL     1      -9.222  10.989  69.122  1.00  0.00    -0.389 NA 
HETATM    6  H   UNL     1      -9.740  11.760  68.702  1.00  0.00     0.000 HD 
HETATM    7  O   UNL     1      -8.013  11.048  69.372  1.00  0.00    -0.338 OA 
HETATM    8  H   UNL     1      -7.608  11.875  69.139  1.00  0.00     0.000 HD 
ENDBRANCH   4   5
BRANCH   4   9
HETATM    9  C   UNL     1      -9.205   8.568  69.120  1.00  0.00    -0.150 C  
HETATM   10  O   UNL     1      -8.440   8.476  68.158  1.00  0.00    -0.132 OA 
BRANCH   9  11
HETATM   11  N   UNL     1      -9.530   7.467  69.890  1.00  0.00    -0.161 N  
HETATM   12  H   UNL     1     -10.429   7.010  69.741  1.00  0.00     0.000 HD 
BRANCH  11  13
HETATM   13  C   UNL     1      -8.625   6.938  70.910  1.00  0.00    -0.136 C  
HETATM   14  C   UNL     1      -8.248   7.986  71.964  1.00  0.00    -0.174 C  
HETATM   15  C   UNL     1      -9.394   8.322  72.918  1.00  0.00    -0.324 C  
HETATM   16  C   UNL     1     -10.051   7.088  73.529  1.00  0.00    -0.348 C  
HETATM   17  C   UNL     1     -10.393   6.015  72.500  1.00  0.00    -0.222 C  
HETATM   18  C   UNL     1      -9.220   5.693  71.577  1.00  0.00    -0.158 C  
ENDBRANCH  11  13
ENDBRANCH   9  11
ENDBRANCH   4   9
ENDBRANCH   3   4
TORSDOF 5
ENDMDL
MODEL      235
REMARK 921   NORMALIZED FREE ENERGY PREDICTED BY IDOCK:   -2.83 KCAL/MOL
REMARK 922        TOTAL FREE ENERGY PREDICTED BY IDOCK:   -4.25 KCAL/MOL
REMARK 923 INTER-LIGAND FREE ENERGY PREDICTED BY IDOCK:   -3.55 KCAL/MOL
REMARK 924 INTRA-LIGAND FREE ENERGY PREDICTED BY IDOCK:   -0.70 KCAL/MOL
REMARK 927      BINDING AFFINITY PREDICTED BY RF-SCORE:    0.00 PKD
ROOT
HETATM    1 CL   UNL     1     -14.363   8.426  71.415  1.00  0.00    -0.460 Cl 
HETATM    2  C   UNL     1     -12.699   8.333  72.049  1.00  0.00    -0.342 C  
HETATM    3  C   UNL     1     -11.722   7.985  70.932  1.00  0.00    -0.251 C  
ENDROOT
BRANCH   3   4
HETATM    4  N   UNL     1     -10.340   7.860  71.408  1.00  0.00    -0.196 N  
BRANCH   4   5
HETATM    5  N   UNL     1      -9.806   8.799  72.298  1.00  0.00    -0.287 NA 
HETATM    6  H   UNL     1     -10.380   9.475  72.801  1.00  0.00     0.000 HD 
HETATM    7  O   UNL     1      -8.578   8.737  72.422  1.00  0.00    -0.395 OA 
HETATM    8  H   UNL     1      -8.215   9.374  73.025  1.00  0.00     0.000 HD 
ENDBRANCH   4   5
BRANCH   4   9
HETATM    9  C   UNL     1      -9.632   6.698  71.107  1.00  0.00    -0.170 C  
HETATM   10  O   UNL     1      -8.686   6.694  70.318  1.00  0.00    -0.144 OA 
BRANCH   9  11
HETATM   11  N   UNL     1     -10.072   5.536  71.712  1.00  0.00    -0.189 N  
HETATM   12  H   UNL     1     -10.281   4.726  71.129  1.00  0.00     0.000 HD 
BRANCH  11  13
HETATM   13  C   UNL     1     -10.246   5.431  73.160  1.00  0.00    -0.190 C  
HETATM   14  C   UNL     1     -11.206   4.302  73.558  1.00  0.00    -0.361 C  
HETATM   15  C   UNL     1     -10.612   2.908  73.362  1.00  0.00    -0.265 C  
HETATM   16  C   UNL     1      -9.230   2.748  73.988  1.00  0.00    -0.093 C  
HETATM   17  C   UNL     1      -8.275   3.886  73.639  1.00  0.00    -0.088 C  
HETATM   18  C   UNL     1      -8.896   5.263  73.864  1.00  0.00    -0.117 C  
ENDBRANCH  11  13
ENDBRANCH   9  11
ENDBRANCH   4   9
ENDBRANCH   3   4
TORSDOF 5
ENDMDL
MODEL      236
REMARK 921   NORMALIZED FREE ENERGY PREDICTED BY IDOCK:   -2.83 KCAL/MOL
REMARK 922        TOTAL FREE ENERGY PREDICTED BY IDOCK:   -4.25 KCAL/MOL
REMARK 923 INTER-LIGAND FREE ENERGY PREDICTED BY IDOCK:   -3.86 KCAL/MOL
REMARK 924 INTRA-LIGAND FREE ENERGY PREDICTED BY IDOCK:   -0.39 KCAL/MOL
REMARK 927      BINDING AFFINITY PREDICTED BY RF-SCORE:    0.00 PKD
ROOT
HETATM    1 CL   UNL     1     -12.105  14.175  68.457  1.00  0.00    -0.356 Cl 
HETATM    2  C   UNL     1     -10.941  13.186  67.537  1.00  0.00    -0.263 C  
HETATM    3  C   UNL     1     -11.509  11.795  67.281  1.00  0.00    -0.303 C  
ENDROOT
BRANCH   3   4
HETATM    4  N   UNL     1     -10.575  10.926  66.558  1.00  0.00    -0.250 N  
BRANCH   4   5
HETATM    5  N   UNL     1     -10.415  11.048  65.172  1.00  0.00    -0.279 NA 
HETATM    6  H   UNL     1     -10.962  10.508  64.501  1.00  0.00     0.000 HD 
HETATM    7  O   UNL     1      -9.554  11.867  64.833  1.00  0.00    -0.391 OA 
HETATM    8  H   UNL     1      -9.446  11.950  63.893  1.00  0.00     0.000 HD 
ENDBRANCH   4   5
BRANCH   4   9
HETATM    9  C   UNL     1      -9.717  10.109  67.291  1.00  0.00    -0.167 C  
HETATM   10  O   UNL     1      -8.717   9.593  66.790  1.00  0.00    -0.132 OA 
BRANCH   9  11
HETATM   11  N   UNL     1     -10.069   9.871  68.606  1.00  0.00    -0.168 N  
HETATM   12  H   UNL     1     -10.266  10.665  69.215  1.00  0.00     0.000 HD 
BRANCH  11  13
HETATM   13  C   UNL     1     -10.168   8.518  69.152  1.00  0.00    -0.211 C  
HETATM   14  C   UNL     1      -8.834   8.012  69.718  1.00  0.00    -0.144 C  
HETATM   15  C   UNL     1      -8.438   8.691  71.029  1.00  0.00    -0.199 C  
HETATM   16  C   UNL     1      -9.553   8.688  72.070  1.00  0.00    -0.385 C  
HETATM   17  C   UNL     1     -10.898   9.146  71.514  1.00  0.00    -0.436 C  
HETATM   18  C   UNL     1     -11.269   8.435  70.214  1.00  0.00    -0.175 C  
ENDBRANCH  11  13
ENDBRANCH   9  11
ENDBRANCH   4   9
ENDBRANCH   3   4
TORSDOF 5
ENDMDL
MODEL      237
REMARK 921   NORMALIZED FREE ENERGY PREDICTED BY IDOCK:   -2.80 KCAL/MOL
REMARK 922        TOTAL FREE ENERGY PREDICTED BY IDOCK:   -4.21 KCAL/MOL
REMARK 923 INTER-LIGAND FREE ENERGY PREDICTED BY IDOCK:   -3.69 KCAL/MOL
REMARK 924 INTRA-LIGAND FREE ENERGY PREDICTED BY IDOCK:   -0.52 KCAL/MOL
REMARK 927      BINDING AFFINITY PREDICTED BY RF-SCORE:    0.00 PKD
ROOT
HETATM    1 CL   UNL     1     -10.635   3.757  74.281  1.00  0.00    -0.266 Cl 
HETATM    2  C   UNL     1     -11.535   4.681  73.050  1.00  0.00    -0.162 C  
HETATM    3  C   UNL     1     -10.727   5.892  72.596  1.00  0.00    -0.234 C  
ENDROOT
BRANCH   3   4
HETATM    4  N   UNL     1     -11.438   6.710  71.609  1.00  0.00    -0.273 N  
BRANCH   4   5
HETATM    5  N   UNL     1     -12.556   7.465  71.982  1.00  0.00    -0.462 NA 
HETATM    6  H   UNL     1     -12.885   7.530  72.946  1.00  0.00     0.000 HD 
HETATM    7  O   UNL     1     -13.110   8.047  71.044  1.00  0.00    -0.523 OA 
HETATM    8  H   UNL     1     -13.868   8.560  71.297  1.00  0.00     0.000 HD 
ENDBRANCH   4   5
BRANCH   4   9
HETATM    9  C   UNL     1     -10.878   6.868  70.343  1.00  0.00    -0.261 C  
HETATM   10  O   UNL     1     -11.393   6.383  69.334  1.00  0.00    -0.394 OA 
BRANCH   9  11
HETATM   11  N   UNL     1      -9.686   7.565  70.280  1.00  0.00    -0.179 N  
HETATM   12  H   UNL     1      -8.929   7.198  69.705  1.00  0.00     0.000 HD 
BRANCH  11  13
HETATM   13  C   UNL     1      -9.477   8.813  71.013  1.00  0.00    -0.228 C  
HETATM   14  C   UNL     1      -8.425   8.677  72.121  1.00  0.00    -0.171 C  
HETATM   15  C   UNL     1      -6.998   8.558  71.587  1.00  0.00    -0.092 C  
HETATM   16  C   UNL     1      -6.642   9.640  70.573  1.00  0.00    -0.107 C  
HETATM   17  C   UNL     1      -7.699   9.821  69.488  1.00  0.00    -0.120 C  
HETATM   18  C   UNL     1      -9.109   9.954  70.059  1.00  0.00    -0.217 C  
ENDBRANCH  11  13
ENDBRANCH   9  11
ENDBRANCH   4   9
ENDBRANCH   3   4
TORSDOF 5
ENDMDL
MODEL      238
REMARK 921   NORMALIZED FREE ENERGY PREDICTED BY IDOCK:   -2.78 KCAL/MOL
REMARK 922        TOTAL FREE ENERGY PREDICTED BY IDOCK:   -4.19 KCAL/MOL
REMARK 923 INTER-LIGAND FREE ENERGY PREDICTED BY IDOCK:   -3.67 KCAL/MOL
REMARK 924 INTRA-LIGAND FREE ENERGY PREDICTED BY IDOCK:   -0.51 KCAL/MOL
REMARK 927      BINDING AFFINITY PREDICTED BY RF-SCORE:    0.00 PKD
ROOT
HETATM    1 CL   UNL     1     -13.180  10.088  71.924  1.00  0.00    -0.539 Cl 
HETATM    2  C   UNL     1     -11.544  10.103  71.215  1.00  0.00    -0.306 C  
HETATM    3  C   UNL     1     -11.613  10.425  69.726  1.00  0.00    -0.269 C  
ENDROOT
BRANCH   3   4
HETATM    4  N   UNL     1     -10.294  10.414  69.084  1.00  0.00    -0.209 N  
BRANCH   4   5
HETATM    5  N   UNL     1      -9.871  11.500  68.309  1.00  0.00    -0.197 NA 
HETATM    6  H   UNL     1     -10.186  11.654  67.351  1.00  0.00     0.000 HD 
HETATM    7  O   UNL     1      -9.081  12.256  68.886  1.00  0.00    -0.380 OA 
HETATM    8  H   UNL     1      -8.794  12.993  68.360  1.00  0.00     0.000 HD 
ENDBRANCH   4   5
BRANCH   4   9
HETATM    9  C   UNL     1      -9.402   9.394  69.406  1.00  0.00    -0.169 C  
HETATM   10  O   UNL     1      -8.471   9.564  70.195  1.00  0.00    -0.171 OA 
BRANCH   9  11
HETATM   11  N   UNL     1      -9.589   8.186  68.761  1.00  0.00    -0.148 N  
HETATM   12  H   UNL     1      -9.425   7.321  69.276  1.00  0.00     0.000 HD 
BRANCH  11  13
HETATM   13  C   UNL     1     -10.013   8.109  67.364  1.00  0.00    -0.209 C  
HETATM   14  C   UNL     1      -8.836   8.196  66.384  1.00  0.00    -0.182 C  
HETATM   15  C   UNL     1      -7.973   6.934  66.364  1.00  0.00    -0.106 C  
HETATM   16  C   UNL     1      -8.784   5.653  66.193  1.00  0.00    -0.136 C  
HETATM   17  C   UNL     1      -9.986   5.570  67.129  1.00  0.00    -0.193 C  
HETATM   18  C   UNL     1     -10.833   6.840  67.109  1.00  0.00    -0.462 C  
ENDBRANCH  11  13
ENDBRANCH   9  11
ENDBRANCH   4   9
ENDBRANCH   3   4
TORSDOF 5
ENDMDL
MODEL      239
REMARK 921   NORMALIZED FREE ENERGY PREDICTED BY IDOCK:   -2.77 KCAL/MOL
REMARK 922        TOTAL FREE ENERGY PREDICTED BY IDOCK:   -4.18 KCAL/MOL
REMARK 923 INTER-LIGAND FREE ENERGY PREDICTED BY IDOCK:   -3.79 KCAL/MOL
REMARK 924 INTRA-LIGAND FREE ENERGY PREDICTED BY IDOCK:   -0.39 KCAL/MOL
REMARK 927      BINDING AFFINITY PREDICTED BY RF-SCORE:    0.00 PKD
ROOT
HETATM    1 CL   UNL     1      -6.080   9.881  70.042  1.00  0.00    -0.047 Cl 
HETATM    2  C   UNL     1      -7.758  10.412  69.756  1.00  0.00    -0.116 C  
HETATM    3  C   UNL     1      -7.823  11.347  68.553  1.00  0.00    -0.140 C  
ENDROOT
BRANCH   3   4
HETATM    4  N   UNL     1      -9.178  11.844  68.295  1.00  0.00    -0.186 N  
BRANCH   4   5
HETATM    5  N   UNL     1     -10.283  10.991  68.409  1.00  0.00    -0.177 NA 
HETATM    6  H   UNL     1     -10.622  10.639  69.305  1.00  0.00     0.000 HD 
HETATM    7  O   UNL     1     -10.812  10.702  67.330  1.00  0.00    -0.262 OA 
HETATM    8  H   UNL     1     -11.561  10.124  67.407  1.00  0.00     0.000 HD 
ENDBRANCH   4   5
BRANCH   4   9
HETATM    9  C   UNL     1      -9.366  13.213  68.118  1.00  0.00    -0.217 C  
HETATM   10  O   UNL     1      -8.899  13.817  67.152  1.00  0.00    -0.215 OA 
BRANCH   9  11
HETATM   11  N   UNL     1     -10.073  13.870  69.107  1.00  0.00    -0.433 N  
HETATM   12  H   UNL     1      -9.609  14.074  69.992  1.00  0.00     0.000 HD 
BRANCH  11  13
HETATM   13  C   UNL     1     -11.464  14.283  68.925  1.00  0.00    -0.286 C  
HETATM   14  C   UNL     1     -12.412  13.620  69.933  1.00  0.00    -0.226 C  
HETATM   15  C   UNL     1     -12.262  14.166  71.352  1.00  0.00    -0.383 C  
HETATM   16  C   UNL     1     -12.309  15.690  71.419  1.00  0.00    -0.485 C  
HETATM   17  C   UNL     1     -11.406  16.367  70.393  1.00  0.00    -0.209 C  
HETATM   18  C   UNL     1     -11.596  15.807  68.985  1.00  0.00    -0.406 C  
ENDBRANCH  11  13
ENDBRANCH   9  11
ENDBRANCH   4   9
ENDBRANCH   3   4
TORSDOF 5
ENDMDL
MODEL      240
REMARK 921   NORMALIZED FREE ENERGY PREDICTED BY IDOCK:   -2.77 KCAL/MOL
REMARK 922        TOTAL FREE ENERGY PREDICTED BY IDOCK:   -4.18 KCAL/MOL
REMARK 923 INTER-LIGAND FREE ENERGY PREDICTED BY IDOCK:   -3.82 KCAL/MOL
REMARK 924 INTRA-LIGAND FREE ENERGY PREDICTED BY IDOCK:   -0.36 KCAL/MOL
REMARK 927      BINDING AFFINITY PREDICTED BY RF-SCORE:    0.00 PKD
ROOT
HETATM    1 CL   UNL     1     -14.275  14.619  72.126  1.00  0.00    -0.579 Cl 
HETATM    2  C   UNL     1     -12.693  14.299  71.369  1.00  0.00    -0.352 C  
HETATM    3  C   UNL     1     -12.653  14.871  69.956  1.00  0.00    -0.218 C  
ENDROOT
BRANCH   3   4
HETATM    4  N   UNL     1     -11.384  14.603  69.272  1.00  0.00    -0.271 N  
BRANCH   4   5
HETATM    5  N   UNL     1     -10.193  15.181  69.729  1.00  0.00    -0.404 NA 
HETATM    6  H   UNL     1      -9.382  14.630  70.011  1.00  0.00     0.000 HD 
HETATM    7  O   UNL     1     -10.210  16.416  69.761  1.00  0.00    -0.238 OA 
HETATM    8  H   UNL     1      -9.403  16.808  70.071  1.00  0.00     0.000 HD 
ENDBRANCH   4   5
BRANCH   4   9
HETATM    9  C   UNL     1     -11.352  13.624  68.281  1.00  0.00    -0.289 C  
HETATM   10  O   UNL     1     -12.301  13.434  67.519  1.00  0.00    -0.246 OA 
BRANCH   9  11
HETATM   11  N   UNL     1     -10.212  12.846  68.222  1.00  0.00    -0.241 N  
HETATM   12  H   UNL     1      -9.980  12.250  69.016  1.00  0.00     0.000 HD 
BRANCH  11  13
HETATM   13  C   UNL     1      -9.327  12.850  67.057  1.00  0.00    -0.235 C  
HETATM   14  C   UNL     1      -7.848  12.980  67.441  1.00  0.00    -0.166 C  
HETATM   15  C   UNL     1      -7.276  11.714  68.078  1.00  0.00    -0.083 C  
HETATM   16  C   UNL     1      -7.562  10.452  67.271  1.00  0.00    -0.095 C  
HETATM   17  C   UNL     1      -9.021  10.327  66.842  1.00  0.00    -0.149 C  
HETATM   18  C   UNL     1      -9.552  11.604  66.194  1.00  0.00    -0.252 C  
ENDBRANCH  11  13
ENDBRANCH   9  11
ENDBRANCH   4   9
ENDBRANCH   3   4
TORSDOF 5
ENDMDL
MODEL      241
REMARK 921   NORMALIZED FREE ENERGY PREDICTED BY IDOCK:   -2.77 KCAL/MOL
REMARK 922        TOTAL FREE ENERGY PREDICTED BY IDOCK:   -4.17 KCAL/MOL
REMARK 923 INTER-LIGAND FREE ENERGY PREDICTED BY IDOCK:   -3.60 KCAL/MOL
REMARK 924 INTRA-LIGAND FREE ENERGY PREDICTED BY IDOCK:   -0.56 KCAL/MOL
REMARK 927      BINDING AFFINITY PREDICTED BY RF-SCORE:    0.00 PKD
ROOT
HETATM    1 CL   UNL     1     -10.040   4.710  73.638  1.00  0.00    -0.186 Cl 
HETATM    2  C   UNL     1      -9.978   5.997  72.405  1.00  0.00    -0.170 C  
HETATM    3  C   UNL     1     -10.697   7.246  72.903  1.00  0.00    -0.322 C  
ENDROOT
BRANCH   3   4
HETATM    4  N   UNL     1     -10.709   8.325  71.911  1.00  0.00    -0.261 N  
BRANCH   4   5
HETATM    5  N   UNL     1      -9.622   8.511  71.048  1.00  0.00    -0.178 NA 
HETATM    6  H   UNL     1      -8.652   8.478  71.363  1.00  0.00     0.000 HD 
HETATM    7  O   UNL     1      -9.939   8.718  69.872  1.00  0.00    -0.179 OA 
HETATM    8  H   UNL     1      -9.202   8.844  69.286  1.00  0.00     0.000 HD 
ENDBRANCH   4   5
BRANCH   4   9
HETATM    9  C   UNL     1     -11.887   9.043  71.716  1.00  0.00    -0.372 C  
HETATM   10  O   UNL     1     -12.997   8.539  71.895  1.00  0.00    -0.330 OA 
BRANCH   9  11
HETATM   11  N   UNL     1     -11.749  10.343  71.270  1.00  0.00    -0.303 N  
HETATM   12  H   UNL     1     -10.941  10.886  71.574  1.00  0.00     0.000 HD 
BRANCH  11  13
HETATM   13  C   UNL     1     -12.725  10.966  70.376  1.00  0.00    -0.248 C  
HETATM   14  C   UNL     1     -13.269  12.290  70.927  1.00  0.00     0.271 C  
HETATM   15  C   UNL     1     -12.250  13.428  70.878  1.00  0.00    -0.367 C  
HETATM   16  C   UNL     1     -11.593  13.590  69.511  1.00  0.00    -0.355 C  
HETATM   17  C   UNL     1     -11.085  12.275  68.926  1.00  0.00    -0.291 C  
HETATM   18  C   UNL     1     -12.135  11.167  68.976  1.00  0.00    -0.315 C  
ENDBRANCH  11  13
ENDBRANCH   9  11
ENDBRANCH   4   9
ENDBRANCH   3   4
TORSDOF 5
ENDMDL
MODEL      242
REMARK 921   NORMALIZED FREE ENERGY PREDICTED BY IDOCK:   -2.76 KCAL/MOL
REMARK 922        TOTAL FREE ENERGY PREDICTED BY IDOCK:   -4.16 KCAL/MOL
REMARK 923 INTER-LIGAND FREE ENERGY PREDICTED BY IDOCK:   -3.74 KCAL/MOL
REMARK 924 INTRA-LIGAND FREE ENERGY PREDICTED BY IDOCK:   -0.43 KCAL/MOL
REMARK 927      BINDING AFFINITY PREDICTED BY RF-SCORE:    0.00 PKD
ROOT
HETATM    1 CL   UNL     1      -6.181  14.099  68.155  1.00  0.00    -0.119 Cl 
HETATM    2  C   UNL     1      -7.763  14.904  68.320  1.00  0.00    -0.113 C  
HETATM    3  C   UNL     1      -8.557  14.790  67.024  1.00  0.00    -0.234 C  
ENDROOT
BRANCH   3   4
HETATM    4  N   UNL     1      -9.855  15.470  67.093  1.00  0.00    -0.233 N  
BRANCH   4   5
HETATM    5  N   UNL     1      -9.924  16.854  67.291  1.00  0.00    -0.270 NA 
HETATM    6  H   UNL     1      -9.345  17.346  67.971  1.00  0.00     0.000 HD 
HETATM    7  O   UNL     1     -10.748  17.427  66.570  1.00  0.00    -0.229 OA 
HETATM    8  H   UNL     1     -10.795  18.366  66.704  1.00  0.00     0.000 HD 
ENDBRANCH   4   5
BRANCH   4   9
HETATM    9  C   UNL     1     -11.005  14.750  66.776  1.00  0.00    -0.327 C  
HETATM   10  O   UNL     1     -11.627  14.939  65.730  1.00  0.00    -0.325 OA 
BRANCH   9  11
HETATM   11  N   UNL     1     -11.438  13.836  67.718  1.00  0.00    -0.303 N  
HETATM   12  H   UNL     1     -11.455  14.110  68.700  1.00  0.00     0.000 HD 
BRANCH  11  13
HETATM   13  C   UNL     1     -11.873  12.489  67.351  1.00  0.00    -0.312 C  
HETATM   14  C   UNL     1     -10.993  11.861  66.263  1.00  0.00    -0.345 C  
HETATM   15  C   UNL     1      -9.607  11.456  66.766  1.00  0.00    -0.207 C  
HETATM   16  C   UNL     1      -9.652  10.617  68.040  1.00  0.00    -0.167 C  
HETATM   17  C   UNL     1     -10.558  11.203  69.118  1.00  0.00    -0.238 C  
HETATM   18  C   UNL     1     -11.938  11.580  68.582  1.00  0.00    -0.312 C  
ENDBRANCH  11  13
ENDBRANCH   9  11
ENDBRANCH   4   9
ENDBRANCH   3   4
TORSDOF 5
ENDMDL
MODEL      243
REMARK 921   NORMALIZED FREE ENERGY PREDICTED BY IDOCK:   -2.72 KCAL/MOL
REMARK 922        TOTAL FREE ENERGY PREDICTED BY IDOCK:   -4.10 KCAL/MOL
REMARK 923 INTER-LIGAND FREE ENERGY PREDICTED BY IDOCK:   -3.59 KCAL/MOL
REMARK 924 INTRA-LIGAND FREE ENERGY PREDICTED BY IDOCK:   -0.52 KCAL/MOL
REMARK 927      BINDING AFFINITY PREDICTED BY RF-SCORE:    0.00 PKD
ROOT
HETATM    1 CL   UNL     1      -9.311  10.834  67.830  1.00  0.00    -0.149 Cl 
HETATM    2  C   UNL     1      -9.619  10.117  69.434  1.00  0.00    -0.232 C  
HETATM    3  C   UNL     1     -10.742   9.089  69.351  1.00  0.00    -0.191 C  
ENDROOT
BRANCH   3   4
HETATM    4  N   UNL     1     -11.062   8.493  70.652  1.00  0.00    -0.251 N  
BRANCH   4   5
HETATM    5  N   UNL     1     -11.551   9.287  71.697  1.00  0.00    -0.372 NA 
HETATM    6  H   UNL     1     -11.186  10.217  71.904  1.00  0.00     0.000 HD 
HETATM    7  O   UNL     1     -12.461   8.762  72.347  1.00  0.00    -0.379 OA 
HETATM    8  H   UNL     1     -12.793   9.300  73.056  1.00  0.00     0.000 HD 
ENDBRANCH   4   5
BRANCH   4   9
HETATM    9  C   UNL     1     -11.048   7.106  70.775  1.00  0.00    -0.269 C  
HETATM   10  O   UNL     1     -11.631   6.372  69.975  1.00  0.00    -0.425 OA 
BRANCH   9  11
HETATM   11  N   UNL     1     -10.378   6.591  71.868  1.00  0.00    -0.199 N  
HETATM   12  H   UNL     1      -9.597   7.117  72.260  1.00  0.00     0.000 HD 
BRANCH  11  13
HETATM   13  C   UNL     1     -10.754   5.318  72.481  1.00  0.00    -0.236 C  
HETATM   14  C   UNL     1      -9.939   4.138  71.935  1.00  0.00    -0.253 C  
HETATM   15  C   UNL     1      -8.488   4.131  72.417  1.00  0.00    -0.105 C  
HETATM   16  C   UNL     1      -8.355   4.284  73.929  1.00  0.00    -0.096 C  
HETATM   17  C   UNL     1      -9.193   5.426  74.496  1.00  0.00    -0.124 C  
HETATM   18  C   UNL     1     -10.640   5.389  74.007  1.00  0.00    -0.305 C  
ENDBRANCH  11  13
ENDBRANCH   9  11
ENDBRANCH   4   9
ENDBRANCH   3   4
TORSDOF 5
ENDMDL
MODEL      244
REMARK 921   NORMALIZED FREE ENERGY PREDICTED BY IDOCK:   -2.71 KCAL/MOL
REMARK 922        TOTAL FREE ENERGY PREDICTED BY IDOCK:   -4.10 KCAL/MOL
REMARK 923 INTER-LIGAND FREE ENERGY PREDICTED BY IDOCK:   -3.95 KCAL/MOL
REMARK 924 INTRA-LIGAND FREE ENERGY PREDICTED BY IDOCK:   -0.16 KCAL/MOL
REMARK 927      BINDING AFFINITY PREDICTED BY RF-SCORE:    0.00 PKD
ROOT
HETATM    1 CL   UNL     1      -7.003  11.099  67.776  1.00  0.00    -0.076 Cl 
HETATM    2  C   UNL     1      -8.734  10.681  67.861  1.00  0.00    -0.127 C  
HETATM    3  C   UNL     1      -9.175  10.532  69.313  1.00  0.00    -0.148 C  
ENDROOT
BRANCH   3   4
HETATM    4  N   UNL     1     -10.586  10.151  69.439  1.00  0.00    -0.221 N  
BRANCH   4   5
HETATM    5  N   UNL     1     -11.447  10.231  68.338  1.00  0.00    -0.557 NA 
HETATM    6  H   UNL     1     -11.293   9.707  67.476  1.00  0.00     0.000 HD 
HETATM    7  O   UNL     1     -12.408  10.990  68.501  1.00  0.00    -0.762 OA 
HETATM    8  H   UNL     1     -12.992  11.044  67.754  1.00  0.00     0.000 HD 
ENDBRANCH   4   5
BRANCH   4   9
HETATM    9  C   UNL     1     -11.010   9.537  70.616  1.00  0.00    -0.306 C  
HETATM   10  O   UNL     1     -11.594  10.158  71.504  1.00  0.00    -0.319 OA 
BRANCH   9  11
HETATM   11  N   UNL     1     -10.704   8.197  70.755  1.00  0.00    -0.219 N  
HETATM   12  H   UNL     1     -11.065   7.689  71.562  1.00  0.00     0.000 HD 
BRANCH  11  13
HETATM   13  C   UNL     1      -9.878   7.483  69.782  1.00  0.00    -0.180 C  
HETATM   14  C   UNL     1      -8.473   7.175  70.314  1.00  0.00    -0.138 C  
HETATM   15  C   UNL     1      -8.457   6.079  71.379  1.00  0.00    -0.128 C  
HETATM   16  C   UNL     1      -9.212   4.821  70.960  1.00  0.00    -0.194 C  
HETATM   17  C   UNL     1     -10.596   5.111  70.386  1.00  0.00    -0.225 C  
HETATM   18  C   UNL     1     -10.569   6.199  69.314  1.00  0.00    -0.348 C  
ENDBRANCH  11  13
ENDBRANCH   9  11
ENDBRANCH   4   9
ENDBRANCH   3   4
TORSDOF 5
ENDMDL
MODEL      245
REMARK 921   NORMALIZED FREE ENERGY PREDICTED BY IDOCK:   -2.71 KCAL/MOL
REMARK 922        TOTAL FREE ENERGY PREDICTED BY IDOCK:   -4.10 KCAL/MOL
REMARK 923 INTER-LIGAND FREE ENERGY PREDICTED BY IDOCK:   -3.84 KCAL/MOL
REMARK 924 INTRA-LIGAND FREE ENERGY PREDICTED BY IDOCK:   -0.26 KCAL/MOL
REMARK 927      BINDING AFFINITY PREDICTED BY RF-SCORE:    0.00 PKD
ROOT
HETATM    1 CL   UNL     1     -13.242  10.099  71.927  1.00  0.00    -0.552 Cl 
HETATM    2  C   UNL     1     -11.737  10.139  70.971  1.00  0.00    -0.382 C  
HETATM    3  C   UNL     1     -12.032  10.545  69.531  1.00  0.00    -0.186 C  
ENDROOT
BRANCH   3   4
HETATM    4  N   UNL     1     -10.831  10.558  68.690  1.00  0.00    -0.220 N  
BRANCH   4   5
HETATM    5  N   UNL     1      -9.869   9.547  68.806  1.00  0.00    -0.164 NA 
HETATM    6  H   UNL     1     -10.055   8.575  68.558  1.00  0.00     0.000 HD 
HETATM    7  O   UNL     1      -8.777   9.934  69.235  1.00  0.00    -0.144 OA 
HETATM    8  H   UNL     1      -8.125   9.249  69.313  1.00  0.00     0.000 HD 
ENDBRANCH   4   5
BRANCH   4   9
HETATM    9  C   UNL     1     -10.751  11.484  67.652  1.00  0.00    -0.211 C  
HETATM   10  O   UNL     1     -10.918  11.162  66.475  1.00  0.00    -0.271 OA 
BRANCH   9  11
HETATM   11  N   UNL     1     -10.434  12.781  68.007  1.00  0.00    -0.220 N  
HETATM   12  H   UNL     1     -10.911  13.206  68.802  1.00  0.00     0.000 HD 
BRANCH  11  13
HETATM   13  C   UNL     1      -9.435  13.563  67.280  1.00  0.00    -0.230 C  
HETATM   14  C   UNL     1     -10.037  14.336  66.100  1.00  0.00    -0.325 C  
HETATM   15  C   UNL     1     -10.896  15.524  66.531  1.00  0.00    -0.284 C  
HETATM   16  C   UNL     1     -10.199  16.439  67.534  1.00  0.00    -0.273 C  
HETATM   17  C   UNL     1      -9.556  15.683  68.693  1.00  0.00    -0.202 C  
HETATM   18  C   UNL     1      -8.692  14.515  68.223  1.00  0.00    -0.173 C  
ENDBRANCH  11  13
ENDBRANCH   9  11
ENDBRANCH   4   9
ENDBRANCH   3   4
TORSDOF 5
ENDMDL
MODEL      246
REMARK 921   NORMALIZED FREE ENERGY PREDICTED BY IDOCK:   -2.71 KCAL/MOL
REMARK 922        TOTAL FREE ENERGY PREDICTED BY IDOCK:   -4.10 KCAL/MOL
REMARK 923 INTER-LIGAND FREE ENERGY PREDICTED BY IDOCK:   -3.42 KCAL/MOL
REMARK 924 INTRA-LIGAND FREE ENERGY PREDICTED BY IDOCK:   -0.67 KCAL/MOL
REMARK 927      BINDING AFFINITY PREDICTED BY RF-SCORE:    0.00 PKD
ROOT
HETATM    1 CL   UNL     1     -10.455  12.771  66.785  1.00  0.00    -0.248 Cl 
HETATM    2  C   UNL     1     -10.376  11.745  68.242  1.00  0.00    -0.206 C  
HETATM    3  C   UNL     1     -10.932  10.357  67.946  1.00  0.00    -0.297 C  
ENDROOT
BRANCH   3   4
HETATM    4  N   UNL     1     -10.925   9.482  69.123  1.00  0.00    -0.175 N  
BRANCH   4   5
HETATM    5  N   UNL     1     -11.986   9.509  70.036  1.00  0.00    -0.455 NA 
HETATM    6  H   UNL     1     -12.922   9.831  69.790  1.00  0.00     0.000 HD 
HETATM    7  O   UNL     1     -11.689   9.109  71.167  1.00  0.00    -0.279 OA 
HETATM    8  H   UNL     1     -12.408   9.127  71.787  1.00  0.00     0.000 HD 
ENDBRANCH   4   5
BRANCH   4   9
HETATM    9  C   UNL     1      -9.943   8.498  69.219  1.00  0.00    -0.195 C  
HETATM   10  O   UNL     1      -9.056   8.540  70.072  1.00  0.00    -0.143 OA 
BRANCH   9  11
HETATM   11  N   UNL     1      -9.991   7.487  68.277  1.00  0.00    -0.167 N  
HETATM   12  H   UNL     1      -9.300   7.479  67.528  1.00  0.00     0.000 HD 
BRANCH  11  13
HETATM   13  C   UNL     1     -11.001   6.430  68.322  1.00  0.00    -0.312 C  
HETATM   14  C   UNL     1     -11.059   5.616  67.023  1.00  0.00     0.054 C  
HETATM   15  C   UNL     1      -9.858   4.689  66.837  1.00  0.00    -0.235 C  
HETATM   16  C   UNL     1      -9.572   3.822  68.059  1.00  0.00    -0.179 C  
HETATM   17  C   UNL     1      -9.554   4.608  69.366  1.00  0.00    -0.257 C  
HETATM   18  C   UNL     1     -10.777   5.509  69.525  1.00  0.00    -0.332 C  
ENDBRANCH  11  13
ENDBRANCH   9  11
ENDBRANCH   4   9
ENDBRANCH   3   4
TORSDOF 5
ENDMDL
MODEL      247
REMARK 921   NORMALIZED FREE ENERGY PREDICTED BY IDOCK:   -2.71 KCAL/MOL
REMARK 922        TOTAL FREE ENERGY PREDICTED BY IDOCK:   -4.09 KCAL/MOL
REMARK 923 INTER-LIGAND FREE ENERGY PREDICTED BY IDOCK:   -3.86 KCAL/MOL
REMARK 924 INTRA-LIGAND FREE ENERGY PREDICTED BY IDOCK:   -0.23 KCAL/MOL
REMARK 927      BINDING AFFINITY PREDICTED BY RF-SCORE:    0.00 PKD
ROOT
HETATM    1 CL   UNL     1      -6.065  11.342  68.193  1.00  0.00    -0.045 Cl 
HETATM    2  C   UNL     1      -7.846  11.418  68.244  1.00  0.00    -0.132 C  
HETATM    3  C   UNL     1      -8.395  10.389  69.226  1.00  0.00    -0.155 C  
ENDROOT
BRANCH   3   4
HETATM    4  N   UNL     1      -9.860  10.383  69.279  1.00  0.00    -0.222 N  
BRANCH   4   5
HETATM    5  N   UNL     1     -10.528  10.095  70.476  1.00  0.00    -0.408 NA 
HETATM    6  H   UNL     1     -10.205  10.427  71.385  1.00  0.00     0.000 HD 
HETATM    7  O   UNL     1     -11.542   9.402  70.335  1.00  0.00    -0.332 OA 
HETATM    8  H   UNL     1     -11.994   9.207  71.147  1.00  0.00     0.000 HD 
ENDBRANCH   4   5
BRANCH   4   9
HETATM    9  C   UNL     1     -10.572  10.848  68.175  1.00  0.00    -0.198 C  
HETATM   10  O   UNL     1     -10.900  10.105  67.249  1.00  0.00    -0.271 OA 
BRANCH   9  11
HETATM   11  N   UNL     1     -10.858  12.200  68.152  1.00  0.00    -0.211 N  
HETATM   12  H   UNL     1     -10.742  12.743  69.007  1.00  0.00     0.000 HD 
BRANCH  11  13
HETATM   13  C   UNL     1     -11.320  12.875  66.941  1.00  0.00    -0.312 C  
HETATM   14  C   UNL     1     -12.150  14.129  67.246  1.00  0.00    -0.407 C  
HETATM   15  C   UNL     1     -11.312  15.294  67.775  1.00  0.00    -0.331 C  
HETATM   16  C   UNL     1     -10.090  15.596  66.914  1.00  0.00    -0.265 C  
HETATM   17  C   UNL     1      -9.277  14.354  66.563  1.00  0.00    -0.269 C  
HETATM   18  C   UNL     1     -10.144  13.219  66.022  1.00  0.00    -0.301 C  
ENDBRANCH  11  13
ENDBRANCH   9  11
ENDBRANCH   4   9
ENDBRANCH   3   4
TORSDOF 5
ENDMDL
MODEL      248
REMARK 921   NORMALIZED FREE ENERGY PREDICTED BY IDOCK:   -2.69 KCAL/MOL
REMARK 922        TOTAL FREE ENERGY PREDICTED BY IDOCK:   -4.07 KCAL/MOL
REMARK 923 INTER-LIGAND FREE ENERGY PREDICTED BY IDOCK:   -3.50 KCAL/MOL
REMARK 924 INTRA-LIGAND FREE ENERGY PREDICTED BY IDOCK:   -0.57 KCAL/MOL
REMARK 927      BINDING AFFINITY PREDICTED BY RF-SCORE:    0.00 PKD
ROOT
HETATM    1 CL   UNL     1      -9.855   2.708  64.027  1.00  0.00    -0.148 Cl 
HETATM    2  C   UNL     1      -9.339   3.981  65.164  1.00  0.00    -0.163 C  
HETATM    3  C   UNL     1     -10.530   4.491  65.968  1.00  0.00    -0.198 C  
ENDROOT
BRANCH   3   4
HETATM    4  N   UNL     1     -10.167   5.567  66.896  1.00  0.00    -0.206 N  
BRANCH   4   5
HETATM    5  N   UNL     1      -9.960   6.871  66.428  1.00  0.00    -0.414 NA 
HETATM    6  H   UNL     1      -9.059   7.198  66.081  1.00  0.00     0.000 HD 
HETATM    7  O   UNL     1     -10.964   7.589  66.472  1.00  0.00    -0.258 OA 
HETATM    8  H   UNL     1     -10.824   8.473  66.154  1.00  0.00     0.000 HD 
ENDBRANCH   4   5
BRANCH   4   9
HETATM    9  C   UNL     1     -10.213   5.315  68.265  1.00  0.00    -0.134 C  
HETATM   10  O   UNL     1      -9.835   4.245  68.746  1.00  0.00    -0.140 OA 
BRANCH   9  11
HETATM   11  N   UNL     1     -10.744   6.314  69.058  1.00  0.00    -0.267 N  
HETATM   12  H   UNL     1     -11.583   6.800  68.742  1.00  0.00     0.000 HD 
BRANCH  11  13
HETATM   13  C   UNL     1     -10.141   6.697  70.334  1.00  0.00    -0.183 C  
HETATM   14  C   UNL     1      -9.223   7.920  70.209  1.00  0.00    -0.152 C  
HETATM   15  C   UNL     1      -9.984   9.226  69.987  1.00  0.00    -0.238 C  
HETATM   16  C   UNL     1     -11.113   9.443  70.990  1.00  0.00    -0.414 C  
HETATM   17  C   UNL     1     -12.011   8.222  71.161  1.00  0.00    -0.290 C  
HETATM   18  C   UNL     1     -11.217   6.939  71.397  1.00  0.00    -0.296 C  
ENDBRANCH  11  13
ENDBRANCH   9  11
ENDBRANCH   4   9
ENDBRANCH   3   4
TORSDOF 5
ENDMDL
MODEL      249
REMARK 921   NORMALIZED FREE ENERGY PREDICTED BY IDOCK:   -2.69 KCAL/MOL
REMARK 922        TOTAL FREE ENERGY PREDICTED BY IDOCK:   -4.06 KCAL/MOL
REMARK 923 INTER-LIGAND FREE ENERGY PREDICTED BY IDOCK:   -3.58 KCAL/MOL
REMARK 924 INTRA-LIGAND FREE ENERGY PREDICTED BY IDOCK:   -0.48 KCAL/MOL
REMARK 927      BINDING AFFINITY PREDICTED BY RF-SCORE:    0.00 PKD
ROOT
HETATM    1 CL   UNL     1      -8.420  10.248  63.490  1.00  0.00    -0.174 Cl 
HETATM    2  C   UNL     1      -8.871  10.497  65.197  1.00  0.00    -0.190 C  
HETATM    3  C   UNL     1     -10.037  11.475  65.302  1.00  0.00    -0.269 C  
ENDROOT
BRANCH   3   4
HETATM    4  N   UNL     1     -10.426  11.744  66.690  1.00  0.00    -0.218 N  
BRANCH   4   5
HETATM    5  N   UNL     1     -11.452  11.011  67.298  1.00  0.00    -0.481 NA 
HETATM    6  H   UNL     1     -12.351  10.839  66.848  1.00  0.00     0.000 HD 
HETATM    7  O   UNL     1     -11.174  10.590  68.425  1.00  0.00    -0.264 OA 
HETATM    8  H   UNL     1     -11.869  10.092  68.838  1.00  0.00     0.000 HD 
ENDBRANCH   4   5
BRANCH   4   9
HETATM    9  C   UNL     1      -9.639  12.608  67.449  1.00  0.00    -0.194 C  
HETATM   10  O   UNL     1      -8.634  12.222  68.048  1.00  0.00    -0.160 OA 
BRANCH   9  11
HETATM   11  N   UNL     1     -10.068  13.919  67.532  1.00  0.00    -0.242 N  
HETATM   12  H   UNL     1     -10.879  14.208  66.984  1.00  0.00     0.000 HD 
BRANCH  11  13
HETATM   13  C   UNL     1      -9.398  14.905  68.379  1.00  0.00    -0.197 C  
HETATM   14  C   UNL     1      -8.784  16.056  67.571  1.00  0.00    -0.193 C  
HETATM   15  C   UNL     1      -9.828  17.014  66.997  1.00  0.00    -0.270 C  
HETATM   16  C   UNL     1     -10.835  17.499  68.035  1.00  0.00    -0.260 C  
HETATM   17  C   UNL     1     -11.423  16.372  68.878  1.00  0.00    -0.216 C  
HETATM   18  C   UNL     1     -10.351  15.446  69.449  1.00  0.00    -0.258 C  
ENDBRANCH  11  13
ENDBRANCH   9  11
ENDBRANCH   4   9
ENDBRANCH   3   4
TORSDOF 5
ENDMDL
MODEL      250
REMARK 921   NORMALIZED FREE ENERGY PREDICTED BY IDOCK:   -2.68 KCAL/MOL
REMARK 922        TOTAL FREE ENERGY PREDICTED BY IDOCK:   -4.05 KCAL/MOL
REMARK 923 INTER-LIGAND FREE ENERGY PREDICTED BY IDOCK:   -3.77 KCAL/MOL
REMARK 924 INTRA-LIGAND FREE ENERGY PREDICTED BY IDOCK:   -0.29 KCAL/MOL
REMARK 927      BINDING AFFINITY PREDICTED BY RF-SCORE:    0.00 PKD
ROOT
HETATM    1 CL   UNL     1     -11.498   7.008  70.184  1.00  0.00    -0.320 Cl 
HETATM    2  C   UNL     1     -10.432   6.353  68.914  1.00  0.00    -0.223 C  
HETATM    3  C   UNL     1     -11.022   6.619  67.533  1.00  0.00    -0.338 C  
ENDROOT
BRANCH   3   4
HETATM    4  N   UNL     1     -10.201   6.067  66.451  1.00  0.00    -0.121 N  
BRANCH   4   5
HETATM    5  N   UNL     1     -10.694   5.042  65.635  1.00  0.00    -0.612 NA 
HETATM    6  H   UNL     1     -11.326   5.212  64.852  1.00  0.00     0.000 HD 
HETATM    7  O   UNL     1     -10.298   3.913  65.945  1.00  0.00    -0.432 OA 
HETATM    8  H   UNL     1     -10.633   3.218  65.392  1.00  0.00     0.000 HD 
ENDBRANCH   4   5
BRANCH   4   9
HETATM    9  C   UNL     1      -9.002   6.700  66.131  1.00  0.00    -0.139 C  
HETATM   10  O   UNL     1      -7.930   6.368  66.639  1.00  0.00    -0.106 OA 
BRANCH   9  11
HETATM   11  N   UNL     1      -9.081   7.753  65.239  1.00  0.00    -0.365 N  
HETATM   12  H   UNL     1      -9.405   7.572  64.290  1.00  0.00     0.000 HD 
BRANCH  11  13
HETATM   13  C   UNL     1      -8.715   9.119  65.615  1.00  0.00    -0.174 C  
HETATM   14  C   UNL     1      -7.221   9.404  65.416  1.00  0.00    -0.092 C  
HETATM   15  C   UNL     1      -6.820   9.524  63.946  1.00  0.00    -0.105 C  
HETATM   16  C   UNL     1      -7.709  10.480  63.155  1.00  0.00    -0.048 C  
HETATM   17  C   UNL     1      -9.199  10.239  63.375  1.00  0.00    -0.321 C  
HETATM   18  C   UNL     1      -9.565  10.142  64.855  1.00  0.00    -0.369 C  
ENDBRANCH  11  13
ENDBRANCH   9  11
ENDBRANCH   4   9
ENDBRANCH   3   4
TORSDOF 5
ENDMDL
MODEL      251
REMARK 921   NORMALIZED FREE ENERGY PREDICTED BY IDOCK:   -2.67 KCAL/MOL
REMARK 922        TOTAL FREE ENERGY PREDICTED BY IDOCK:   -4.04 KCAL/MOL
REMARK 923 INTER-LIGAND FREE ENERGY PREDICTED BY IDOCK:   -3.47 KCAL/MOL
REMARK 924 INTRA-LIGAND FREE ENERGY PREDICTED BY IDOCK:   -0.57 KCAL/MOL
REMARK 927      BINDING AFFINITY PREDICTED BY RF-SCORE:    0.00 PKD
ROOT
HETATM    1 CL   UNL     1      -7.791   3.519  65.639  1.00  0.00    -0.088 Cl 
HETATM    2  C   UNL     1      -8.416   5.131  65.201  1.00  0.00    -0.147 C  
HETATM    3  C   UNL     1      -8.680   5.958  66.455  1.00  0.00    -0.126 C  
ENDROOT
BRANCH   3   4
HETATM    4  N   UNL     1      -9.231   7.283  66.153  1.00  0.00    -0.133 N  
BRANCH   4   5
HETATM    5  N   UNL     1      -8.858   7.960  64.986  1.00  0.00    -0.381 NA 
HETATM    6  H   UNL     1      -9.320   7.813  64.088  1.00  0.00     0.000 HD 
HETATM    7  O   UNL     1      -7.921   8.751  65.138  1.00  0.00    -0.111 OA 
HETATM    8  H   UNL     1      -7.668   9.210  64.346  1.00  0.00     0.000 HD 
ENDBRANCH   4   5
BRANCH   4   9
HETATM    9  C   UNL     1     -10.266   7.773  66.946  1.00  0.00    -0.303 C  
HETATM   10  O   UNL     1     -10.937   7.040  67.674  1.00  0.00    -0.233 OA 
BRANCH   9  11
HETATM   11  N   UNL     1     -10.531   9.126  66.845  1.00  0.00    -0.243 N  
HETATM   12  H   UNL     1     -11.216   9.444  66.159  1.00  0.00     0.000 HD 
BRANCH  11  13
HETATM   13  C   UNL     1      -9.862  10.114  67.689  1.00  0.00    -0.172 C  
HETATM   14  C   UNL     1      -9.860  11.517  67.067  1.00  0.00    -0.212 C  
HETATM   15  C   UNL     1     -11.234  12.187  67.086  1.00  0.00    -0.372 C  
HETATM   16  C   UNL     1     -11.900  12.156  68.458  1.00  0.00    -0.365 C  
HETATM   17  C   UNL     1     -11.871  10.778  69.112  1.00  0.00    -0.347 C  
HETATM   18  C   UNL     1     -10.480  10.148  69.090  1.00  0.00    -0.242 C  
ENDBRANCH  11  13
ENDBRANCH   9  11
ENDBRANCH   4   9
ENDBRANCH   3   4
TORSDOF 5
ENDMDL
MODEL      252
REMARK 921   NORMALIZED FREE ENERGY PREDICTED BY IDOCK:   -2.66 KCAL/MOL
REMARK 922        TOTAL FREE ENERGY PREDICTED BY IDOCK:   -4.04 KCAL/MOL
REMARK 923 INTER-LIGAND FREE ENERGY PREDICTED BY IDOCK:   -3.90 KCAL/MOL
REMARK 924 INTRA-LIGAND FREE ENERGY PREDICTED BY IDOCK:   -0.14 KCAL/MOL
REMARK 927      BINDING AFFINITY PREDICTED BY RF-SCORE:    0.00 PKD
ROOT
HETATM    1 CL   UNL     1     -14.392   8.877  72.628  1.00  0.00    -0.365 Cl 
HETATM    2  C   UNL     1     -13.398   8.731  71.155  1.00  0.00    -0.047 C  
HETATM    3  C   UNL     1     -12.008   9.313  71.391  1.00  0.00    -0.351 C  
ENDROOT
BRANCH   3   4
HETATM    4  N   UNL     1     -11.159   9.252  70.197  1.00  0.00    -0.240 N  
BRANCH   4   5
HETATM    5  N   UNL     1     -11.155  10.303  69.272  1.00  0.00    -0.237 NA 
HETATM    6  H   UNL     1     -10.330  10.873  69.083  1.00  0.00     0.000 HD 
HETATM    7  O   UNL     1     -12.238  10.480  68.703  1.00  0.00    -0.794 OA 
HETATM    8  H   UNL     1     -12.236  11.192  68.075  1.00  0.00     0.000 HD 
ENDBRANCH   4   5
BRANCH   4   9
HETATM    9  C   UNL     1     -10.224   8.224  70.093  1.00  0.00    -0.199 C  
HETATM   10  O   UNL     1      -9.282   8.275  69.301  1.00  0.00    -0.150 OA 
BRANCH   9  11
HETATM   11  N   UNL     1     -10.431   7.120  70.897  1.00  0.00    -0.209 N  
HETATM   12  H   UNL     1     -11.207   6.494  70.686  1.00  0.00     0.000 HD 
BRANCH  11  13
HETATM   13  C   UNL     1      -9.573   6.822  72.043  1.00  0.00    -0.147 C  
HETATM   14  C   UNL     1     -10.372   6.430  73.292  1.00  0.00    -0.251 C  
HETATM   15  C   UNL     1     -11.005   5.042  73.194  1.00  0.00    -0.375 C  
HETATM   16  C   UNL     1     -10.018   3.960  72.768  1.00  0.00    -0.209 C  
HETATM   17  C   UNL     1      -9.182   4.350  71.553  1.00  0.00    -0.190 C  
HETATM   18  C   UNL     1      -8.552   5.734  71.695  1.00  0.00    -0.132 C  
ENDBRANCH  11  13
ENDBRANCH   9  11
ENDBRANCH   4   9
ENDBRANCH   3   4
TORSDOF 5
ENDMDL
MODEL      253
REMARK 921   NORMALIZED FREE ENERGY PREDICTED BY IDOCK:   -2.66 KCAL/MOL
REMARK 922        TOTAL FREE ENERGY PREDICTED BY IDOCK:   -4.03 KCAL/MOL
REMARK 923 INTER-LIGAND FREE ENERGY PREDICTED BY IDOCK:   -3.48 KCAL/MOL
REMARK 924 INTRA-LIGAND FREE ENERGY PREDICTED BY IDOCK:   -0.55 KCAL/MOL
REMARK 927      BINDING AFFINITY PREDICTED BY RF-SCORE:    0.00 PKD
ROOT
HETATM    1 CL   UNL     1      -6.438  13.828  67.755  1.00  0.00    -0.169 Cl 
HETATM    2  C   UNL     1      -8.172  13.550  68.066  1.00  0.00    -0.163 C  
HETATM    3  C   UNL     1      -8.812  12.816  66.893  1.00  0.00    -0.194 C  
ENDROOT
BRANCH   3   4
HETATM    4  N   UNL     1     -10.250  12.594  67.081  1.00  0.00    -0.224 N  
BRANCH   4   5
HETATM    5  N   UNL     1     -11.081  13.636  67.510  1.00  0.00    -0.271 NA 
HETATM    6  H   UNL     1     -10.830  14.267  68.271  1.00  0.00     0.000 HD 
HETATM    7  O   UNL     1     -12.144  13.724  66.887  1.00  0.00    -0.414 OA 
HETATM    8  H   UNL     1     -12.708  14.431  67.178  1.00  0.00     0.000 HD 
ENDBRANCH   4   5
BRANCH   4   9
HETATM    9  C   UNL     1     -10.803  11.390  66.651  1.00  0.00    -0.289 C  
HETATM   10  O   UNL     1     -11.195  11.226  65.495  1.00  0.00    -0.148 OA 
BRANCH   9  11
HETATM   11  N   UNL     1     -10.928  10.396  67.603  1.00  0.00    -0.307 N  
HETATM   12  H   UNL     1     -11.820  10.284  68.085  1.00  0.00     0.000 HD 
BRANCH  11  13
HETATM   13  C   UNL     1      -9.823   9.500  67.941  1.00  0.00    -0.156 C  
HETATM   14  C   UNL     1      -9.887   9.007  69.393  1.00  0.00    -0.183 C  
HETATM   15  C   UNL     1     -11.003   7.992  69.637  1.00  0.00    -0.106 C  
HETATM   16  C   UNL     1     -11.006   6.847  68.630  1.00  0.00    -0.203 C  
HETATM   17  C   UNL     1     -10.898   7.316  67.182  1.00  0.00    -0.378 C  
HETATM   18  C   UNL     1      -9.762   8.315  66.973  1.00  0.00    -0.274 C  
ENDBRANCH  11  13
ENDBRANCH   9  11
ENDBRANCH   4   9
ENDBRANCH   3   4
TORSDOF 5
ENDMDL
MODEL      254
REMARK 921   NORMALIZED FREE ENERGY PREDICTED BY IDOCK:   -2.65 KCAL/MOL
REMARK 922        TOTAL FREE ENERGY PREDICTED BY IDOCK:   -4.02 KCAL/MOL
REMARK 923 INTER-LIGAND FREE ENERGY PREDICTED BY IDOCK:   -3.71 KCAL/MOL
REMARK 924 INTRA-LIGAND FREE ENERGY PREDICTED BY IDOCK:   -0.31 KCAL/MOL
REMARK 927      BINDING AFFINITY PREDICTED BY RF-SCORE:    0.00 PKD
ROOT
HETATM    1 CL   UNL     1     -12.646  12.302  71.591  1.00  0.00    -0.272 Cl 
HETATM    2  C   UNL     1     -12.542  10.589  71.108  1.00  0.00    -0.417 C  
HETATM    3  C   UNL     1     -12.696   9.683  72.324  1.00  0.00    -0.282 C  
ENDROOT
BRANCH   3   4
HETATM    4  N   UNL     1     -12.581   8.260  71.988  1.00  0.00    -0.336 N  
BRANCH   4   5
HETATM    5  N   UNL     1     -13.723   7.454  71.901  1.00  0.00    -0.535 NA 
HETATM    6  H   UNL     1     -14.214   7.098  72.721  1.00  0.00     0.000 HD 
HETATM    7  O   UNL     1     -14.084   7.212  70.744  1.00  0.00    -0.390 OA 
HETATM    8  H   UNL     1     -14.858   6.665  70.685  1.00  0.00     0.000 HD 
ENDBRANCH   4   5
BRANCH   4   9
HETATM    9  C   UNL     1     -11.344   7.768  71.577  1.00  0.00    -0.255 C  
HETATM   10  O   UNL     1     -10.993   7.784  70.396  1.00  0.00    -0.246 OA 
BRANCH   9  11
HETATM   11  N   UNL     1     -10.543   7.219  72.560  1.00  0.00    -0.230 N  
HETATM   12  H   UNL     1     -10.379   7.749  73.415  1.00  0.00     0.000 HD 
BRANCH  11  13
HETATM   13  C   UNL     1      -9.922   5.903  72.412  1.00  0.00    -0.171 C  
HETATM   14  C   UNL     1      -8.625   5.952  71.595  1.00  0.00    -0.132 C  
HETATM   15  C   UNL     1      -7.462   6.600  72.345  1.00  0.00    -0.093 C  
HETATM   16  C   UNL     1      -7.251   6.024  73.742  1.00  0.00    -0.085 C  
HETATM   17  C   UNL     1      -8.539   5.927  74.555  1.00  0.00    -0.119 C  
HETATM   18  C   UNL     1      -9.672   5.259  73.779  1.00  0.00    -0.151 C  
ENDBRANCH  11  13
ENDBRANCH   9  11
ENDBRANCH   4   9
ENDBRANCH   3   4
TORSDOF 5
ENDMDL
MODEL      255
REMARK 921   NORMALIZED FREE ENERGY PREDICTED BY IDOCK:   -2.65 KCAL/MOL
REMARK 922        TOTAL FREE ENERGY PREDICTED BY IDOCK:   -4.02 KCAL/MOL
REMARK 923 INTER-LIGAND FREE ENERGY PREDICTED BY IDOCK:   -3.40 KCAL/MOL
REMARK 924 INTRA-LIGAND FREE ENERGY PREDICTED BY IDOCK:   -0.62 KCAL/MOL
REMARK 927      BINDING AFFINITY PREDICTED BY RF-SCORE:    0.00 PKD
ROOT
HETATM    1 CL   UNL     1     -12.532  13.696  64.094  1.00  0.00    -0.345 Cl 
HETATM    2  C   UNL     1     -11.768  12.101  63.863  1.00  0.00    -0.458 C  
HETATM    3  C   UNL     1     -10.279  12.260  63.577  1.00  0.00    -0.379 C  
ENDROOT
BRANCH   3   4
HETATM    4  N   UNL     1      -9.608  10.978  63.342  1.00  0.00    -0.297 N  
BRANCH   4   5
HETATM    5  N   UNL     1     -10.148  10.045  62.448  1.00  0.00    -0.528 NA 
HETATM    6  H   UNL     1     -11.013  10.208  61.933  1.00  0.00     0.000 HD 
HETATM    7  O   UNL     1      -9.485   9.008  62.338  1.00  0.00    -0.529 OA 
HETATM    8  H   UNL     1      -9.851   8.375  61.732  1.00  0.00     0.000 HD 
ENDBRANCH   4   5
BRANCH   4   9
HETATM    9  C   UNL     1      -8.336  10.780  63.876  1.00  0.00     0.062 C  
HETATM   10  O   UNL     1      -7.314  11.087  63.262  1.00  0.00     0.285 OA 
BRANCH   9  11
HETATM   11  N   UNL     1      -8.278  10.182  65.120  1.00  0.00    -0.146 N  
HETATM   12  H   UNL     1      -7.877   9.247  65.200  1.00  0.00     0.000 HD 
BRANCH  11  13
HETATM   13  C   UNL     1      -8.774  10.845  66.326  1.00  0.00    -0.171 C  
HETATM   14  C   UNL     1     -10.142  10.312  66.771  1.00  0.00    -0.272 C  
HETATM   15  C   UNL     1     -10.077   8.907  67.370  1.00  0.00    -0.288 C  
HETATM   16  C   UNL     1      -9.012   8.763  68.453  1.00  0.00    -0.141 C  
HETATM   17  C   UNL     1      -7.655   9.328  68.044  1.00  0.00    -0.084 C  
HETATM   18  C   UNL     1      -7.757  10.739  67.467  1.00  0.00    -0.105 C  
ENDBRANCH  11  13
ENDBRANCH   9  11
ENDBRANCH   4   9
ENDBRANCH   3   4
TORSDOF 5
ENDMDL
MODEL      256
REMARK 921   NORMALIZED FREE ENERGY PREDICTED BY IDOCK:   -2.64 KCAL/MOL
REMARK 922        TOTAL FREE ENERGY PREDICTED BY IDOCK:   -4.01 KCAL/MOL
REMARK 923 INTER-LIGAND FREE ENERGY PREDICTED BY IDOCK:   -3.74 KCAL/MOL
REMARK 924 INTRA-LIGAND FREE ENERGY PREDICTED BY IDOCK:   -0.27 KCAL/MOL
REMARK 927      BINDING AFFINITY PREDICTED BY RF-SCORE:    0.00 PKD
ROOT
HETATM    1 CL   UNL     1      -8.960   2.856  72.022  1.00  0.00    -0.123 Cl 
HETATM    2  C   UNL     1     -10.255   4.065  72.228  1.00  0.00    -0.157 C  
HETATM    3  C   UNL     1     -10.197   5.102  71.113  1.00  0.00    -0.221 C  
ENDROOT
BRANCH   3   4
HETATM    4  N   UNL     1     -11.220   6.144  71.255  1.00  0.00    -0.292 N  
BRANCH   4   5
HETATM    5  N   UNL     1     -12.036   6.189  72.391  1.00  0.00    -0.522 NA 
HETATM    6  H   UNL     1     -12.637   5.414  72.673  1.00  0.00     0.000 HD 
HETATM    7  O   UNL     1     -11.966   7.249  73.023  1.00  0.00    -0.520 OA 
HETATM    8  H   UNL     1     -12.520   7.280  73.793  1.00  0.00     0.000 HD 
ENDBRANCH   4   5
BRANCH   4   9
HETATM    9  C   UNL     1     -11.241   7.190  70.336  1.00  0.00    -0.287 C  
HETATM   10  O   UNL     1     -11.948   8.187  70.495  1.00  0.00    -0.114 OA 
BRANCH   9  11
HETATM   11  N   UNL     1     -10.457   7.035  69.209  1.00  0.00    -0.204 N  
HETATM   12  H   UNL     1     -10.682   6.291  68.549  1.00  0.00     0.000 HD 
BRANCH  11  13
HETATM   13  C   UNL     1      -9.314   7.905  68.931  1.00  0.00    -0.150 C  
HETATM   14  C   UNL     1      -8.448   7.389  67.775  1.00  0.00    -0.118 C  
HETATM   15  C   UNL     1      -9.110   7.545  66.407  1.00  0.00    -0.210 C  
HETATM   16  C   UNL     1      -9.645   8.952  66.154  1.00  0.00    -0.335 C  
HETATM   17  C   UNL     1     -10.473   9.499  67.313  1.00  0.00    -0.328 C  
HETATM   18  C   UNL     1      -9.772   9.342  68.660  1.00  0.00    -0.158 C  
ENDBRANCH  11  13
ENDBRANCH   9  11
ENDBRANCH   4   9
ENDBRANCH   3   4
TORSDOF 5
ENDMDL
MODEL      257
REMARK 921   NORMALIZED FREE ENERGY PREDICTED BY IDOCK:   -2.61 KCAL/MOL
REMARK 922        TOTAL FREE ENERGY PREDICTED BY IDOCK:   -3.97 KCAL/MOL
REMARK 923 INTER-LIGAND FREE ENERGY PREDICTED BY IDOCK:   -3.30 KCAL/MOL
REMARK 924 INTRA-LIGAND FREE ENERGY PREDICTED BY IDOCK:   -0.68 KCAL/MOL
REMARK 927      BINDING AFFINITY PREDICTED BY RF-SCORE:    0.00 PKD
ROOT
HETATM    1 CL   UNL     1      -8.245  10.451  64.075  1.00  0.00    -0.149 Cl 
HETATM    2  C   UNL     1      -8.116   9.119  65.253  1.00  0.00    -0.124 C  
HETATM    3  C   UNL     1      -9.467   8.856  65.909  1.00  0.00    -0.234 C  
ENDROOT
BRANCH   3   4
HETATM    4  N   UNL     1      -9.410   7.792  66.917  1.00  0.00    -0.159 N  
BRANCH   4   5
HETATM    5  N   UNL     1      -8.410   6.813  66.862  1.00  0.00    -0.113 NA 
HETATM    6  H   UNL     1      -8.358   6.115  66.120  1.00  0.00     0.000 HD 
HETATM    7  O   UNL     1      -7.597   6.869  67.791  1.00  0.00    -0.102 OA 
HETATM    8  H   UNL     1      -6.919   6.205  67.754  1.00  0.00     0.000 HD 
ENDBRANCH   4   5
BRANCH   4   9
HETATM    9  C   UNL     1     -10.248   7.875  68.027  1.00  0.00    -0.208 C  
HETATM   10  O   UNL     1     -10.474   6.904  68.750  1.00  0.00    -0.187 OA 
BRANCH   9  11
HETATM   11  N   UNL     1     -10.848   9.099  68.254  1.00  0.00    -0.454 N  
HETATM   12  H   UNL     1     -11.570   9.421  67.609  1.00  0.00     0.000 HD 
BRANCH  11  13
HETATM   13  C   UNL     1     -10.481   9.946  69.388  1.00  0.00    -0.231 C  
HETATM   14  C   UNL     1      -9.117  10.623  69.201  1.00  0.00    -0.152 C  
HETATM   15  C   UNL     1      -9.136  11.741  68.159  1.00  0.00    -0.185 C  
HETATM   16  C   UNL     1     -10.263  12.746  68.374  1.00  0.00    -0.237 C  
HETATM   17  C   UNL     1     -11.621  12.090  68.606  1.00  0.00    -0.372 C  
HETATM   18  C   UNL     1     -11.567  10.991  69.665  1.00  0.00    -0.390 C  
ENDBRANCH  11  13
ENDBRANCH   9  11
ENDBRANCH   4   9
ENDBRANCH   3   4
TORSDOF 5
ENDMDL
MODEL      258
REMARK 921   NORMALIZED FREE ENERGY PREDICTED BY IDOCK:   -2.61 KCAL/MOL
REMARK 922        TOTAL FREE ENERGY PREDICTED BY IDOCK:   -3.97 KCAL/MOL
REMARK 923 INTER-LIGAND FREE ENERGY PREDICTED BY IDOCK:   -3.94 KCAL/MOL
REMARK 924 INTRA-LIGAND FREE ENERGY PREDICTED BY IDOCK:   -0.03 KCAL/MOL
REMARK 927      BINDING AFFINITY PREDICTED BY RF-SCORE:    0.00 PKD
ROOT
HETATM    1 CL   UNL     1     -13.489  10.063  71.818  1.00  0.00    -0.444 Cl 
HETATM    2  C   UNL     1     -11.771   9.657  71.570  1.00  0.00    -0.400 C  
HETATM    3  C   UNL     1     -11.261  10.270  70.271  1.00  0.00    -0.323 C  
ENDROOT
BRANCH   3   4
HETATM    4  N   UNL     1      -9.859   9.935  69.999  1.00  0.00    -0.251 N  
BRANCH   4   5
HETATM    5  N   UNL     1      -9.062  10.784  69.222  1.00  0.00    -0.376 NA 
HETATM    6  H   UNL     1      -8.094  10.569  68.982  1.00  0.00     0.000 HD 
HETATM    7  O   UNL     1      -9.632  11.816  68.853  1.00  0.00    -0.393 OA 
HETATM    8  H   UNL     1      -9.092  12.392  68.326  1.00  0.00     0.000 HD 
ENDBRANCH   4   5
BRANCH   4   9
HETATM    9  C   UNL     1      -9.285   8.861  70.676  1.00  0.00    -0.213 C  
HETATM   10  O   UNL     1      -8.732   8.996  71.768  1.00  0.00    -0.350 OA 
BRANCH   9  11
HETATM   11  N   UNL     1      -9.330   7.636  70.037  1.00  0.00    -0.154 N  
HETATM   12  H   UNL     1     -10.129   7.421  69.440  1.00  0.00     0.000 HD 
BRANCH  11  13
HETATM   13  C   UNL     1      -8.271   6.640  70.189  1.00  0.00    -0.133 C  
HETATM   14  C   UNL     1      -8.537   5.669  71.346  1.00  0.00    -0.132 C  
HETATM   15  C   UNL     1      -9.658   4.673  71.053  1.00  0.00    -0.245 C  
HETATM   16  C   UNL     1      -9.494   3.958  69.715  1.00  0.00    -0.264 C  
HETATM   17  C   UNL     1      -9.185   4.905  68.560  1.00  0.00    -0.157 C  
HETATM   18  C   UNL     1      -8.048   5.872  68.883  1.00  0.00    -0.103 C  
ENDBRANCH  11  13
ENDBRANCH   9  11
ENDBRANCH   4   9
ENDBRANCH   3   4
TORSDOF 5
ENDMDL
MODEL      259
REMARK 921   NORMALIZED FREE ENERGY PREDICTED BY IDOCK:   -2.60 KCAL/MOL
REMARK 922        TOTAL FREE ENERGY PREDICTED BY IDOCK:   -3.96 KCAL/MOL
REMARK 923 INTER-LIGAND FREE ENERGY PREDICTED BY IDOCK:   -4.25 KCAL/MOL
REMARK 924 INTRA-LIGAND FREE ENERGY PREDICTED BY IDOCK:    0.30 KCAL/MOL
REMARK 927      BINDING AFFINITY PREDICTED BY RF-SCORE:    0.00 PKD
ROOT
HETATM    1 CL   UNL     1      -6.535  17.272  66.260  1.00  0.00    -0.261 Cl 
HETATM    2  C   UNL     1      -7.839  16.386  67.092  1.00  0.00    -0.189 C  
HETATM    3  C   UNL     1      -9.202  16.836  66.577  1.00  0.00    -0.268 C  
ENDROOT
BRANCH   3   4
HETATM    4  N   UNL     1     -10.314  16.163  67.256  1.00  0.00    -0.282 N  
BRANCH   4   5
HETATM    5  N   UNL     1     -10.990  16.791  68.309  1.00  0.00    -0.362 NA 
HETATM    6  H   UNL     1     -11.985  16.655  68.488  1.00  0.00     0.000 HD 
HETATM    7  O   UNL     1     -10.277  17.525  69.002  1.00  0.00    -0.345 OA 
HETATM    8  H   UNL     1     -10.736  17.951  69.715  1.00  0.00     0.000 HD 
ENDBRANCH   4   5
BRANCH   4   9
HETATM    9  C   UNL     1     -10.804  14.974  66.720  1.00  0.00    -0.318 C  
HETATM   10  O   UNL     1     -10.650  14.679  65.534  1.00  0.00    -0.311 OA 
BRANCH   9  11
HETATM   11  N   UNL     1     -11.511  14.157  67.580  1.00  0.00    -0.319 N  
HETATM   12  H   UNL     1     -12.531  14.179  67.556  1.00  0.00     0.000 HD 
BRANCH  11  13
HETATM   13  C   UNL     1     -10.845  13.261  68.525  1.00  0.00    -0.265 C  
HETATM   14  C   UNL     1     -11.430  11.843  68.505  1.00  0.00    -0.349 C  
HETATM   15  C   UNL     1     -11.065  11.056  67.246  1.00  0.00    -0.359 C  
HETATM   16  C   UNL     1      -9.572  11.078  66.935  1.00  0.00    -0.205 C  
HETATM   17  C   UNL     1      -8.963  12.475  66.994  1.00  0.00    -0.211 C  
HETATM   18  C   UNL     1      -9.335  13.223  68.273  1.00  0.00    -0.205 C  
ENDBRANCH  11  13
ENDBRANCH   9  11
ENDBRANCH   4   9
ENDBRANCH   3   4
TORSDOF 5
ENDMDL
MODEL      260
REMARK 921   NORMALIZED FREE ENERGY PREDICTED BY IDOCK:   -2.60 KCAL/MOL
REMARK 922        TOTAL FREE ENERGY PREDICTED BY IDOCK:   -3.95 KCAL/MOL
REMARK 923 INTER-LIGAND FREE ENERGY PREDICTED BY IDOCK:   -3.36 KCAL/MOL
REMARK 924 INTRA-LIGAND FREE ENERGY PREDICTED BY IDOCK:   -0.59 KCAL/MOL
REMARK 927      BINDING AFFINITY PREDICTED BY RF-SCORE:    0.00 PKD
ROOT
HETATM    1 CL   UNL     1      -5.926  11.594  68.204  1.00  0.00    -0.045 Cl 
HETATM    2  C   UNL     1      -7.684  11.875  68.304  1.00  0.00    -0.127 C  
HETATM    3  C   UNL     1      -8.333  10.862  69.240  1.00  0.00    -0.012 C  
ENDROOT
BRANCH   3   4
HETATM    4  N   UNL     1      -9.788  11.025  69.330  1.00  0.00    -0.104 N  
BRANCH   4   5
HETATM    5  N   UNL     1     -10.415  12.141  68.764  1.00  0.00    -0.338 NA 
HETATM    6  H   UNL     1     -10.343  12.375  67.774  1.00  0.00     0.000 HD 
HETATM    7  O   UNL     1     -11.063  12.819  69.569  1.00  0.00    -0.437 OA 
HETATM    8  H   UNL     1     -11.488  13.577  69.186  1.00  0.00     0.000 HD 
ENDBRANCH   4   5
BRANCH   4   9
HETATM    9  C   UNL     1     -10.551   9.967  69.821  1.00  0.00    -0.267 C  
HETATM   10  O   UNL     1     -11.090  10.008  70.928  1.00  0.00    -0.328 OA 
BRANCH   9  11
HETATM   11  N   UNL     1     -10.639   8.847  69.016  1.00  0.00    -0.316 N  
HETATM   12  H   UNL     1     -10.870   8.965  68.030  1.00  0.00     0.000 HD 
BRANCH  11  13
HETATM   13  C   UNL     1     -10.411   7.499  69.534  1.00  0.00    -0.226 C  
HETATM   14  C   UNL     1     -11.272   6.443  68.828  1.00  0.00    -0.358 C  
HETATM   15  C   UNL     1     -10.818   6.150  67.399  1.00  0.00    -0.431 C  
HETATM   16  C   UNL     1      -9.325   5.855  67.290  1.00  0.00    -0.113 C  
HETATM   17  C   UNL     1      -8.454   6.870  68.024  1.00  0.00    -0.124 C  
HETATM   18  C   UNL     1      -8.928   7.124  69.454  1.00  0.00    -0.136 C  
ENDBRANCH  11  13
ENDBRANCH   9  11
ENDBRANCH   4   9
ENDBRANCH   3   4
TORSDOF 5
ENDMDL
MODEL      261
REMARK 921   NORMALIZED FREE ENERGY PREDICTED BY IDOCK:   -2.59 KCAL/MOL
REMARK 922        TOTAL FREE ENERGY PREDICTED BY IDOCK:   -3.94 KCAL/MOL
REMARK 923 INTER-LIGAND FREE ENERGY PREDICTED BY IDOCK:   -3.56 KCAL/MOL
REMARK 924 INTRA-LIGAND FREE ENERGY PREDICTED BY IDOCK:   -0.39 KCAL/MOL
REMARK 927      BINDING AFFINITY PREDICTED BY RF-SCORE:    0.00 PKD
ROOT
HETATM    1 CL   UNL     1     -12.631  13.755  65.360  1.00  0.00    -0.525 Cl 
HETATM    2  C   UNL     1     -11.914  12.360  66.208  1.00  0.00    -0.298 C  
HETATM    3  C   UNL     1     -10.404  12.528  66.327  1.00  0.00    -0.250 C  
ENDROOT
BRANCH   3   4
HETATM    4  N   UNL     1      -9.758  11.388  66.985  1.00  0.00    -0.189 N  
BRANCH   4   5
HETATM    5  N   UNL     1      -9.550  10.189  66.293  1.00  0.00    -0.182 NA 
HETATM    6  H   UNL     1     -10.250   9.778  65.675  1.00  0.00     0.000 HD 
HETATM    7  O   UNL     1      -8.447   9.672  66.495  1.00  0.00    -0.122 OA 
HETATM    8  H   UNL     1      -8.306   8.859  66.025  1.00  0.00     0.000 HD 
ENDBRANCH   4   5
BRANCH   4   9
HETATM    9  C   UNL     1      -9.190  11.576  68.244  1.00  0.00    -0.186 C  
HETATM   10  O   UNL     1      -8.559  12.594  68.531  1.00  0.00    -0.146 OA 
BRANCH   9  11
HETATM   11  N   UNL     1      -9.335  10.539  69.145  1.00  0.00    -0.247 N  
HETATM   12  H   UNL     1      -8.511  10.191  69.635  1.00  0.00     0.000 HD 
BRANCH  11  13
HETATM   13  C   UNL     1     -10.633   9.924  69.420  1.00  0.00    -0.229 C  
HETATM   14  C   UNL     1     -10.728   8.487  68.893  1.00  0.00    -0.100 C  
HETATM   15  C   UNL     1      -9.899   7.490  69.703  1.00  0.00    -0.180 C  
HETATM   16  C   UNL     1     -10.149   7.580  71.205  1.00  0.00    -0.195 C  
HETATM   17  C   UNL     1     -10.103   9.008  71.740  1.00  0.00    -0.373 C  
HETATM   18  C   UNL     1     -10.956   9.970  70.917  1.00  0.00    -0.337 C  
ENDBRANCH  11  13
ENDBRANCH   9  11
ENDBRANCH   4   9
ENDBRANCH   3   4
TORSDOF 5
ENDMDL
MODEL      262
REMARK 921   NORMALIZED FREE ENERGY PREDICTED BY IDOCK:   -2.57 KCAL/MOL
REMARK 922        TOTAL FREE ENERGY PREDICTED BY IDOCK:   -3.92 KCAL/MOL
REMARK 923 INTER-LIGAND FREE ENERGY PREDICTED BY IDOCK:   -3.46 KCAL/MOL
REMARK 924 INTRA-LIGAND FREE ENERGY PREDICTED BY IDOCK:   -0.46 KCAL/MOL
REMARK 927      BINDING AFFINITY PREDICTED BY RF-SCORE:    0.00 PKD
ROOT
HETATM    1 CL   UNL     1      -6.545  11.428  68.343  1.00  0.00    -0.060 Cl 
HETATM    2  C   UNL     1      -8.105  10.564  68.359  1.00  0.00    -0.119 C  
HETATM    3  C   UNL     1      -8.487  10.183  69.785  1.00  0.00    -0.128 C  
ENDROOT
BRANCH   3   4
HETATM    4  N   UNL     1      -9.747   9.435  69.852  1.00  0.00    -0.198 N  
BRANCH   4   5
HETATM    5  N   UNL     1     -10.155   8.629  68.783  1.00  0.00    -0.191 NA 
HETATM    6  H   UNL     1      -9.582   7.871  68.411  1.00  0.00     0.000 HD 
HETATM    7  O   UNL     1     -11.268   8.915  68.329  1.00  0.00    -0.418 OA 
HETATM    8  H   UNL     1     -11.544   8.368  67.604  1.00  0.00     0.000 HD 
ENDBRANCH   4   5
BRANCH   4   9
HETATM    9  C   UNL     1     -10.437   9.395  71.062  1.00  0.00    -0.322 C  
HETATM   10  O   UNL     1     -11.572   9.859  71.184  1.00  0.00    -0.341 OA 
BRANCH   9  11
HETATM   11  N   UNL     1      -9.765   8.841  72.135  1.00  0.00    -0.306 N  
HETATM   12  H   UNL     1      -9.661   9.390  72.988  1.00  0.00     0.000 HD 
BRANCH  11  13
HETATM   13  C   UNL     1      -9.199   7.494  72.086  1.00  0.00    -0.136 C  
HETATM   14  C   UNL     1      -8.703   7.013  73.456  1.00  0.00    -0.164 C  
HETATM   15  C   UNL     1      -9.837   6.681  74.426  1.00  0.00    -0.349 C  
HETATM   16  C   UNL     1     -10.890   5.754  73.827  1.00  0.00    -0.169 C  
HETATM   17  C   UNL     1     -11.363   6.192  72.444  1.00  0.00    -0.340 C  
HETATM   18  C   UNL     1     -10.204   6.498  71.498  1.00  0.00    -0.215 C  
ENDBRANCH  11  13
ENDBRANCH   9  11
ENDBRANCH   4   9
ENDBRANCH   3   4
TORSDOF 5
ENDMDL
MODEL      263
REMARK 921   NORMALIZED FREE ENERGY PREDICTED BY IDOCK:   -2.57 KCAL/MOL
REMARK 922        TOTAL FREE ENERGY PREDICTED BY IDOCK:   -3.91 KCAL/MOL
REMARK 923 INTER-LIGAND FREE ENERGY PREDICTED BY IDOCK:   -3.77 KCAL/MOL
REMARK 924 INTRA-LIGAND FREE ENERGY PREDICTED BY IDOCK:   -0.14 KCAL/MOL
REMARK 927      BINDING AFFINITY PREDICTED BY RF-SCORE:    0.00 PKD
ROOT
HETATM    1 CL   UNL     1     -11.385  14.096  64.370  1.00  0.00    -0.344 Cl 
HETATM    2  C   UNL     1     -10.792  12.621  65.177  1.00  0.00    -0.290 C  
HETATM    3  C   UNL     1     -10.598  12.872  66.669  1.00  0.00    -0.261 C  
ENDROOT
BRANCH   3   4
HETATM    4  N   UNL     1     -10.074  11.699  67.377  1.00  0.00    -0.197 N  
BRANCH   4   5
HETATM    5  N   UNL     1      -8.840  11.756  68.035  1.00  0.00    -0.158 NA 
HETATM    6  H   UNL     1      -8.754  11.915  69.039  1.00  0.00     0.000 HD 
HETATM    7  O   UNL     1      -7.864  11.599  67.294  1.00  0.00    -0.140 OA 
HETATM    8  H   UNL     1      -7.027  11.638  67.740  1.00  0.00     0.000 HD 
ENDBRANCH   4   5
BRANCH   4   9
HETATM    9  C   UNL     1     -10.904  10.591  67.540  1.00  0.00    -0.301 C  
HETATM   10  O   UNL     1     -11.800  10.564  68.385  1.00  0.00    -0.380 OA 
BRANCH   9  11
HETATM   11  N   UNL     1     -10.643   9.503  66.730  1.00  0.00    -0.182 N  
HETATM   12  H   UNL     1     -11.213   9.361  65.896  1.00  0.00     0.000 HD 
BRANCH  11  13
HETATM   13  C   UNL     1      -9.577   8.548  67.029  1.00  0.00    -0.188 C  
HETATM   14  C   UNL     1      -9.344   8.379  68.536  1.00  0.00    -0.139 C  
HETATM   15  C   UNL     1     -10.460   7.605  69.237  1.00  0.00    -0.220 C  
HETATM   16  C   UNL     1     -10.805   6.289  68.547  1.00  0.00    -0.394 C  
HETATM   17  C   UNL     1     -10.996   6.430  67.040  1.00  0.00    -0.463 C  
HETATM   18  C   UNL     1      -9.854   7.192  66.373  1.00  0.00    -0.116 C  
ENDBRANCH  11  13
ENDBRANCH   9  11
ENDBRANCH   4   9
ENDBRANCH   3   4
TORSDOF 5
ENDMDL
MODEL      264
REMARK 921   NORMALIZED FREE ENERGY PREDICTED BY IDOCK:   -2.57 KCAL/MOL
REMARK 922        TOTAL FREE ENERGY PREDICTED BY IDOCK:   -3.91 KCAL/MOL
REMARK 923 INTER-LIGAND FREE ENERGY PREDICTED BY IDOCK:   -3.66 KCAL/MOL
REMARK 924 INTRA-LIGAND FREE ENERGY PREDICTED BY IDOCK:   -0.25 KCAL/MOL
REMARK 927      BINDING AFFINITY PREDICTED BY RF-SCORE:    0.00 PKD
ROOT
HETATM    1 CL   UNL     1      -9.861  10.575  66.191  1.00  0.00    -0.258 Cl 
HETATM    2  C   UNL     1     -10.731  10.168  67.693  1.00  0.00    -0.285 C  
HETATM    3  C   UNL     1      -9.804  10.295  68.896  1.00  0.00    -0.195 C  
ENDROOT
BRANCH   3   4
HETATM    4  N   UNL     1     -10.461   9.935  70.157  1.00  0.00    -0.269 N  
BRANCH   4   5
HETATM    5  N   UNL     1     -11.815  10.226  70.363  1.00  0.00    -0.289 NA 
HETATM    6  H   UNL     1     -12.238  11.114  70.093  1.00  0.00     0.000 HD 
HETATM    7  O   UNL     1     -12.453   9.314  70.899  1.00  0.00    -0.442 OA 
HETATM    8  H   UNL     1     -13.371   9.511  71.039  1.00  0.00     0.000 HD 
ENDBRANCH   4   5
BRANCH   4   9
HETATM    9  C   UNL     1      -9.770   9.139  71.068  1.00  0.00    -0.289 C  
HETATM   10  O   UNL     1     -10.112   9.048  72.248  1.00  0.00    -0.236 OA 
BRANCH   9  11
HETATM   11  N   UNL     1      -8.652   8.484  70.588  1.00  0.00    -0.137 N  
HETATM   12  H   UNL     1      -7.847   9.035  70.292  1.00  0.00     0.000 HD 
BRANCH  11  13
HETATM   13  C   UNL     1      -8.586   7.026  70.492  1.00  0.00    -0.141 C  
HETATM   14  C   UNL     1      -9.924   6.353  70.824  1.00  0.00    -0.212 C  
HETATM   15  C   UNL     1     -10.982   6.543  69.737  1.00  0.00    -0.396 C  
HETATM   16  C   UNL     1     -10.480   6.190  68.340  1.00  0.00    -0.280 C  
HETATM   17  C   UNL     1      -9.129   6.815  68.009  1.00  0.00    -0.119 C  
HETATM   18  C   UNL     1      -8.093   6.590  69.108  1.00  0.00    -0.112 C  
ENDBRANCH  11  13
ENDBRANCH   9  11
ENDBRANCH   4   9
ENDBRANCH   3   4
TORSDOF 5
ENDMDL
MODEL      265
REMARK 921   NORMALIZED FREE ENERGY PREDICTED BY IDOCK:   -2.56 KCAL/MOL
REMARK 922        TOTAL FREE ENERGY PREDICTED BY IDOCK:   -3.90 KCAL/MOL
REMARK 923 INTER-LIGAND FREE ENERGY PREDICTED BY IDOCK:   -3.33 KCAL/MOL
REMARK 924 INTRA-LIGAND FREE ENERGY PREDICTED BY IDOCK:   -0.58 KCAL/MOL
REMARK 927      BINDING AFFINITY PREDICTED BY RF-SCORE:    0.00 PKD
ROOT
HETATM    1 CL   UNL     1     -12.089  13.726  63.710  1.00  0.00    -0.454 Cl 
HETATM    2  C   UNL     1     -11.678  11.994  63.818  1.00  0.00    -0.481 C  
HETATM    3  C   UNL     1     -10.557  11.775  64.828  1.00  0.00    -0.301 C  
ENDROOT
BRANCH   3   4
HETATM    4  N   UNL     1     -10.154  10.368  64.929  1.00  0.00    -0.334 N  
BRANCH   4   5
HETATM    5  N   UNL     1      -9.616   9.701  63.822  1.00  0.00    -0.453 NA 
HETATM    6  H   UNL     1     -10.065   8.894  63.389  1.00  0.00     0.000 HD 
HETATM    7  O   UNL     1      -8.549  10.173  63.416  1.00  0.00    -0.168 OA 
HETATM    8  H   UNL     1      -8.183   9.721  62.666  1.00  0.00     0.000 HD 
ENDBRANCH   4   5
BRANCH   4   9
HETATM    9  C   UNL     1     -10.142   9.764  66.184  1.00  0.00    -0.245 C  
HETATM   10  O   UNL     1     -10.856  10.159  67.107  1.00  0.00    -0.251 OA 
BRANCH   9  11
HETATM   11  N   UNL     1      -9.254   8.719  66.356  1.00  0.00    -0.174 N  
HETATM   12  H   UNL     1      -9.323   7.908  65.742  1.00  0.00     0.000 HD 
BRANCH  11  13
HETATM   13  C   UNL     1      -8.219   8.740  67.389  1.00  0.00    -0.109 C  
HETATM   14  C   UNL     1      -7.356   7.473  67.384  1.00  0.00    -0.099 C  
HETATM   15  C   UNL     1      -6.399   7.398  66.194  1.00  0.00    -0.042 C  
HETATM   16  C   UNL     1      -5.576   8.668  66.003  1.00  0.00    -0.042 C  
HETATM   17  C   UNL     1      -6.412   9.943  66.050  1.00  0.00    -0.084 C  
HETATM   18  C   UNL     1      -7.342   9.989  67.261  1.00  0.00    -0.090 C  
ENDBRANCH  11  13
ENDBRANCH   9  11
ENDBRANCH   4   9
ENDBRANCH   3   4
TORSDOF 5
ENDMDL
MODEL      266
REMARK 921   NORMALIZED FREE ENERGY PREDICTED BY IDOCK:   -2.55 KCAL/MOL
REMARK 922        TOTAL FREE ENERGY PREDICTED BY IDOCK:   -3.89 KCAL/MOL
REMARK 923 INTER-LIGAND FREE ENERGY PREDICTED BY IDOCK:   -3.63 KCAL/MOL
REMARK 924 INTRA-LIGAND FREE ENERGY PREDICTED BY IDOCK:   -0.25 KCAL/MOL
REMARK 927      BINDING AFFINITY PREDICTED BY RF-SCORE:    0.00 PKD
ROOT
HETATM    1 CL   UNL     1      -8.470  18.348  66.160  1.00  0.00    -0.206 Cl 
HETATM    2  C   UNL     1      -8.304  16.944  67.246  1.00  0.00    -0.184 C  
HETATM    3  C   UNL     1      -8.852  15.687  66.578  1.00  0.00    -0.310 C  
ENDROOT
BRANCH   3   4
HETATM    4  N   UNL     1      -8.774  14.506  67.444  1.00  0.00    -0.187 N  
BRANCH   4   5
HETATM    5  N   UNL     1      -7.533  13.964  67.798  1.00  0.00    -0.150 NA 
HETATM    6  H   UNL     1      -6.974  14.319  68.573  1.00  0.00     0.000 HD 
HETATM    7  O   UNL     1      -7.174  13.017  67.089  1.00  0.00    -0.340 OA 
HETATM    8  H   UNL     1      -6.332  12.649  67.329  1.00  0.00     0.000 HD 
ENDBRANCH   4   5
BRANCH   4   9
HETATM    9  C   UNL     1      -9.939  14.047  68.055  1.00  0.00    -0.235 C  
HETATM   10  O   UNL     1     -11.021  14.618  67.913  1.00  0.00    -0.263 OA 
BRANCH   9  11
HETATM   11  N   UNL     1      -9.810  12.936  68.867  1.00  0.00    -0.420 N  
HETATM   12  H   UNL     1      -9.170  12.976  69.659  1.00  0.00     0.000 HD 
BRANCH  11  13
HETATM   13  C   UNL     1     -10.564  11.706  68.626  1.00  0.00    -0.209 C  
HETATM   14  C   UNL     1     -11.086  11.608  67.187  1.00  0.00    -0.354 C  
HETATM   15  C   UNL     1      -9.986  11.331  66.162  1.00  0.00    -0.268 C  
HETATM   16  C   UNL     1      -9.092  10.154  66.542  1.00  0.00    -0.166 C  
HETATM   17  C   UNL     1      -8.599  10.212  67.985  1.00  0.00    -0.118 C  
HETATM   18  C   UNL     1      -9.727  10.473  68.980  1.00  0.00    -0.221 C  
ENDBRANCH  11  13
ENDBRANCH   9  11
ENDBRANCH   4   9
ENDBRANCH   3   4
TORSDOF 5
ENDMDL
MODEL      267
REMARK 921   NORMALIZED FREE ENERGY PREDICTED BY IDOCK:   -2.54 KCAL/MOL
REMARK 922        TOTAL FREE ENERGY PREDICTED BY IDOCK:   -3.87 KCAL/MOL
REMARK 923 INTER-LIGAND FREE ENERGY PREDICTED BY IDOCK:   -3.23 KCAL/MOL
REMARK 924 INTRA-LIGAND FREE ENERGY PREDICTED BY IDOCK:   -0.64 KCAL/MOL
REMARK 927      BINDING AFFINITY PREDICTED BY RF-SCORE:    0.00 PKD
ROOT
HETATM    1 CL   UNL     1      -5.877  13.210  67.465  1.00  0.00    -0.118 Cl 
HETATM    2  C   UNL     1      -7.301  12.327  66.854  1.00  0.00     0.033 C  
HETATM    3  C   UNL     1      -8.464  12.452  67.832  1.00  0.00    -0.166 C  
ENDROOT
BRANCH   3   4
HETATM    4  N   UNL     1      -9.653  11.712  67.395  1.00  0.00    -0.166 N  
BRANCH   4   5
HETATM    5  N   UNL     1      -9.730  11.193  66.097  1.00  0.00    -0.210 NA 
HETATM    6  H   UNL     1      -9.277  11.633  65.296  1.00  0.00     0.000 HD 
HETATM    7  O   UNL     1     -10.395  10.155  66.006  1.00  0.00    -0.232 OA 
HETATM    8  H   UNL     1     -10.448   9.803  65.126  1.00  0.00     0.000 HD 
ENDBRANCH   4   5
BRANCH   4   9
HETATM    9  C   UNL     1     -10.618  11.377  68.342  1.00  0.00    -0.202 C  
HETATM   10  O   UNL     1     -11.785  11.761  68.251  1.00  0.00    -0.313 OA 
BRANCH   9  11
HETATM   11  N   UNL     1     -10.189  10.621  69.416  1.00  0.00    -0.313 N  
HETATM   12  H   UNL     1      -9.774  11.094  70.218  1.00  0.00     0.000 HD 
BRANCH  11  13
HETATM   13  C   UNL     1     -10.313   9.164  69.439  1.00  0.00    -0.216 C  
HETATM   14  C   UNL     1      -9.040   8.472  69.945  1.00  0.00    -0.150 C  
HETATM   15  C   UNL     1      -8.817   8.643  71.448  1.00  0.00    -0.276 C  
HETATM   16  C   UNL     1     -10.045   8.292  72.282  1.00  0.00    -0.370 C  
HETATM   17  C   UNL     1     -11.329   8.935  71.766  1.00  0.00    -0.431 C  
HETATM   18  C   UNL     1     -11.526   8.729  70.266  1.00  0.00    -0.102 C  
ENDBRANCH  11  13
ENDBRANCH   9  11
ENDBRANCH   4   9
ENDBRANCH   3   4
TORSDOF 5
ENDMDL
MODEL      268
REMARK 921   NORMALIZED FREE ENERGY PREDICTED BY IDOCK:   -2.53 KCAL/MOL
REMARK 922        TOTAL FREE ENERGY PREDICTED BY IDOCK:   -3.86 KCAL/MOL
REMARK 923 INTER-LIGAND FREE ENERGY PREDICTED BY IDOCK:   -3.42 KCAL/MOL
REMARK 924 INTRA-LIGAND FREE ENERGY PREDICTED BY IDOCK:   -0.44 KCAL/MOL
REMARK 927      BINDING AFFINITY PREDICTED BY RF-SCORE:    0.00 PKD
ROOT
HETATM    1 CL   UNL     1     -13.388  10.242  71.982  1.00  0.00    -0.525 Cl 
HETATM    2  C   UNL     1     -11.773   9.634  71.533  1.00  0.00    -0.400 C  
HETATM    3  C   UNL     1     -11.434  10.031  70.101  1.00  0.00    -0.277 C  
ENDROOT
BRANCH   3   4
HETATM    4  N   UNL     1     -10.128   9.523  69.667  1.00  0.00    -0.198 N  
BRANCH   4   5
HETATM    5  N   UNL     1      -8.954   9.946  70.300  1.00  0.00    -0.360 NA 
HETATM    6  H   UNL     1      -8.730  10.930  70.453  1.00  0.00     0.000 HD 
HETATM    7  O   UNL     1      -8.211   9.025  70.656  1.00  0.00    -0.144 OA 
HETATM    8  H   UNL     1      -7.414   9.312  71.085  1.00  0.00     0.000 HD 
ENDBRANCH   4   5
BRANCH   4   9
HETATM    9  C   UNL     1     -10.090   8.480  68.744  1.00  0.00    -0.196 C  
HETATM   10  O   UNL     1     -10.667   7.409  68.943  1.00  0.00    -0.200 OA 
BRANCH   9  11
HETATM   11  N   UNL     1      -9.333   8.691  67.608  1.00  0.00    -0.136 N  
HETATM   12  H   UNL     1      -8.935   7.887  67.123  1.00  0.00     0.000 HD 
BRANCH  11  13
HETATM   13  C   UNL     1      -9.083  10.031  67.078  1.00  0.00    -0.142 C  
HETATM   14  C   UNL     1      -7.587  10.358  66.982  1.00  0.00    -0.101 C  
HETATM   15  C   UNL     1      -6.875   9.602  65.861  1.00  0.00    -0.089 C  
HETATM   16  C   UNL     1      -7.586   9.712  64.515  1.00  0.00    -0.127 C  
HETATM   17  C   UNL     1      -9.083   9.434  64.599  1.00  0.00    -0.228 C  
HETATM   18  C   UNL     1      -9.763  10.219  65.719  1.00  0.00    -0.297 C  
ENDBRANCH  11  13
ENDBRANCH   9  11
ENDBRANCH   4   9
ENDBRANCH   3   4
TORSDOF 5
ENDMDL
MODEL      269
REMARK 921   NORMALIZED FREE ENERGY PREDICTED BY IDOCK:   -2.52 KCAL/MOL
REMARK 922        TOTAL FREE ENERGY PREDICTED BY IDOCK:   -3.86 KCAL/MOL
REMARK 923 INTER-LIGAND FREE ENERGY PREDICTED BY IDOCK:   -3.76 KCAL/MOL
REMARK 924 INTRA-LIGAND FREE ENERGY PREDICTED BY IDOCK:   -0.10 KCAL/MOL
REMARK 927      BINDING AFFINITY PREDICTED BY RF-SCORE:    0.00 PKD
ROOT
HETATM    1 CL   UNL     1     -12.233  13.465  67.485  1.00  0.00    -0.307 Cl 
HETATM    2  C   UNL     1     -11.074  12.111  67.451  1.00  0.00    -0.276 C  
HETATM    3  C   UNL     1     -10.791  11.617  68.866  1.00  0.00    -0.220 C  
ENDROOT
BRANCH   3   4
HETATM    4  N   UNL     1      -9.813  10.525  68.899  1.00  0.00    -0.192 N  
BRANCH   4   5
HETATM    5  N   UNL     1      -8.456  10.791  69.114  1.00  0.00    -0.293 NA 
HETATM    6  H   UNL     1      -8.113  11.300  69.929  1.00  0.00     0.000 HD 
HETATM    7  O   UNL     1      -7.709  10.356  68.231  1.00  0.00    -0.093 OA 
HETATM    8  H   UNL     1      -6.788  10.536  68.377  1.00  0.00     0.000 HD 
ENDBRANCH   4   5
BRANCH   4   9
HETATM    9  C   UNL     1     -10.277   9.211  68.899  1.00  0.00    -0.207 C  
HETATM   10  O   UNL     1     -10.496   8.595  67.855  1.00  0.00    -0.228 OA 
BRANCH   9  11
HETATM   11  N   UNL     1     -10.521   8.645  70.135  1.00  0.00    -0.211 N  
HETATM   12  H   UNL     1     -10.000   8.982  70.944  1.00  0.00     0.000 HD 
BRANCH  11  13
HETATM   13  C   UNL     1     -11.504   7.577  70.321  1.00  0.00    -0.152 C  
HETATM   14  C   UNL     1     -11.100   6.276  69.616  1.00  0.00    -0.479 C  
HETATM   15  C   UNL     1      -9.940   5.553  70.300  1.00  0.00    -0.281 C  
HETATM   16  C   UNL     1     -10.148   5.366  71.800  1.00  0.00    -0.251 C  
HETATM   17  C   UNL     1     -10.593   6.640  72.511  1.00  0.00    -0.245 C  
HETATM   18  C   UNL     1     -11.764   7.325  71.809  1.00  0.00    -0.321 C  
ENDBRANCH  11  13
ENDBRANCH   9  11
ENDBRANCH   4   9
ENDBRANCH   3   4
TORSDOF 5
ENDMDL
MODEL      270
REMARK 921   NORMALIZED FREE ENERGY PREDICTED BY IDOCK:   -2.52 KCAL/MOL
REMARK 922        TOTAL FREE ENERGY PREDICTED BY IDOCK:   -3.85 KCAL/MOL
REMARK 923 INTER-LIGAND FREE ENERGY PREDICTED BY IDOCK:   -3.33 KCAL/MOL
REMARK 924 INTRA-LIGAND FREE ENERGY PREDICTED BY IDOCK:   -0.53 KCAL/MOL
REMARK 927      BINDING AFFINITY PREDICTED BY RF-SCORE:    0.00 PKD
ROOT
HETATM    1 CL   UNL     1      -8.702   8.016  74.140  1.00  0.00    -0.279 Cl 
HETATM    2  C   UNL     1     -10.077   7.777  73.030  1.00  0.00    -0.320 C  
HETATM    3  C   UNL     1      -9.662   8.081  71.594  1.00  0.00    -0.171 C  
ENDROOT
BRANCH   3   4
HETATM    4  N   UNL     1     -10.768   7.936  70.642  1.00  0.00    -0.224 N  
BRANCH   4   5
HETATM    5  N   UNL     1     -11.837   8.840  70.650  1.00  0.00    -0.457 NA 
HETATM    6  H   UNL     1     -12.465   8.949  71.447  1.00  0.00     0.000 HD 
HETATM    7  O   UNL     1     -11.954   9.493  69.608  1.00  0.00    -0.372 OA 
HETATM    8  H   UNL     1     -12.679  10.107  69.613  1.00  0.00     0.000 HD 
ENDBRANCH   4   5
BRANCH   4   9
HETATM    9  C   UNL     1     -10.649   7.001  69.616  1.00  0.00    -0.234 C  
HETATM   10  O   UNL     1     -11.583   6.269  69.286  1.00  0.00    -0.363 OA 
BRANCH   9  11
HETATM   11  N   UNL     1      -9.410   6.907  69.010  1.00  0.00    -0.136 N  
HETATM   12  H   UNL     1      -8.756   6.195  69.332  1.00  0.00     0.000 HD 
BRANCH  11  13
HETATM   13  C   UNL     1      -9.008   7.798  67.922  1.00  0.00    -0.125 C  
HETATM   14  C   UNL     1      -7.486   7.966  67.830  1.00  0.00    -0.104 C  
HETATM   15  C   UNL     1      -6.772   6.723  67.300  1.00  0.00    -0.067 C  
HETATM   16  C   UNL     1      -7.379   6.185  66.008  1.00  0.00    -0.080 C  
HETATM   17  C   UNL     1      -8.898   6.053  66.065  1.00  0.00    -0.159 C  
HETATM   18  C   UNL     1      -9.578   7.319  66.583  1.00  0.00    -0.236 C  
ENDBRANCH  11  13
ENDBRANCH   9  11
ENDBRANCH   4   9
ENDBRANCH   3   4
TORSDOF 5
ENDMDL
MODEL      271
REMARK 921   NORMALIZED FREE ENERGY PREDICTED BY IDOCK:   -2.46 KCAL/MOL
REMARK 922        TOTAL FREE ENERGY PREDICTED BY IDOCK:   -3.77 KCAL/MOL
REMARK 923 INTER-LIGAND FREE ENERGY PREDICTED BY IDOCK:   -3.27 KCAL/MOL
REMARK 924 INTRA-LIGAND FREE ENERGY PREDICTED BY IDOCK:   -0.50 KCAL/MOL
REMARK 927      BINDING AFFINITY PREDICTED BY RF-SCORE:    0.00 PKD
ROOT
HETATM    1 CL   UNL     1      -6.672   4.932  65.894  1.00  0.00    -0.052 Cl 
HETATM    2  C   UNL     1      -7.546   6.486  65.878  1.00  0.00    -0.087 C  
HETATM    3  C   UNL     1      -7.781   6.978  67.302  1.00  0.00    -0.109 C  
ENDROOT
BRANCH   3   4
HETATM    4  N   UNL     1      -8.530   8.238  67.348  1.00  0.00    -0.124 N  
BRANCH   4   5
HETATM    5  N   UNL     1      -7.956   9.426  66.878  1.00  0.00    -0.108 NA 
HETATM    6  H   UNL     1      -8.352   9.967  66.109  1.00  0.00     0.000 HD 
HETATM    7  O   UNL     1      -6.928   9.761  67.475  1.00  0.00    -0.081 OA 
HETATM    8  H   UNL     1      -6.538  10.566  67.156  1.00  0.00     0.000 HD 
ENDBRANCH   4   5
BRANCH   4   9
HETATM    9  C   UNL     1      -9.880   8.202  67.693  1.00  0.00    -0.169 C  
HETATM   10  O   UNL     1     -10.772   8.339  66.855  1.00  0.00    -0.299 OA 
BRANCH   9  11
HETATM   11  N   UNL     1     -10.168   8.044  69.035  1.00  0.00    -0.207 N  
HETATM   12  H   UNL     1     -10.687   7.220  69.334  1.00  0.00     0.000 HD 
BRANCH  11  13
HETATM   13  C   UNL     1      -9.751   9.022  70.039  1.00  0.00    -0.185 C  
HETATM   14  C   UNL     1     -10.313  10.424  69.766  1.00  0.00    -0.252 C  
HETATM   15  C   UNL     1     -11.813  10.536  70.038  1.00  0.00    -0.388 C  
HETATM   16  C   UNL     1     -12.218  10.000  71.408  1.00  0.00    -0.510 C  
HETATM   17  C   UNL     1     -11.632   8.626  71.715  1.00  0.00    -0.403 C  
HETATM   18  C   UNL     1     -10.130   8.556  71.448  1.00  0.00    -0.302 C  
ENDBRANCH  11  13
ENDBRANCH   9  11
ENDBRANCH   4   9
ENDBRANCH   3   4
TORSDOF 5
ENDMDL
MODEL      272
REMARK 921   NORMALIZED FREE ENERGY PREDICTED BY IDOCK:   -2.45 KCAL/MOL
REMARK 922        TOTAL FREE ENERGY PREDICTED BY IDOCK:   -3.76 KCAL/MOL
REMARK 923 INTER-LIGAND FREE ENERGY PREDICTED BY IDOCK:   -3.15 KCAL/MOL
REMARK 924 INTRA-LIGAND FREE ENERGY PREDICTED BY IDOCK:   -0.62 KCAL/MOL
REMARK 927      BINDING AFFINITY PREDICTED BY RF-SCORE:    0.00 PKD
ROOT
HETATM    1 CL   UNL     1     -14.408   8.104  71.740  1.00  0.00    -0.533 Cl 
HETATM    2  C   UNL     1     -12.646   8.119  72.013  1.00  0.00    -0.330 C  
HETATM    3  C   UNL     1     -11.916   7.529  70.811  1.00  0.00    -0.197 C  
ENDROOT
BRANCH   3   4
HETATM    4  N   UNL     1     -10.462   7.483  70.998  1.00  0.00    -0.214 N  
BRANCH   4   5
HETATM    5  N   UNL     1      -9.803   6.258  71.152  1.00  0.00    -0.179 NA 
HETATM    6  H   UNL     1     -10.206   5.471  71.661  1.00  0.00     0.000 HD 
HETATM    7  O   UNL     1      -8.690   6.212  70.617  1.00  0.00    -0.136 OA 
HETATM    8  H   UNL     1      -8.243   5.381  70.721  1.00  0.00     0.000 HD 
ENDBRANCH   4   5
BRANCH   4   9
HETATM    9  C   UNL     1      -9.729   8.657  70.836  1.00  0.00    -0.204 C  
HETATM   10  O   UNL     1      -9.229   9.253  71.791  1.00  0.00    -0.306 OA 
BRANCH   9  11
HETATM   11  N   UNL     1      -9.626   9.145  69.547  1.00  0.00    -0.163 N  
HETATM   12  H   UNL     1     -10.479   9.366  69.033  1.00  0.00     0.000 HD 
BRANCH  11  13
HETATM   13  C   UNL     1      -8.333   9.353  68.897  1.00  0.00    -0.120 C  
HETATM   14  C   UNL     1      -8.346   8.951  67.416  1.00  0.00    -0.108 C  
HETATM   15  C   UNL     1      -9.133   9.919  66.534  1.00  0.00    -0.179 C  
HETATM   16  C   UNL     1      -8.738  11.378  66.739  1.00  0.00    -0.174 C  
HETATM   17  C   UNL     1      -8.676  11.785  68.208  1.00  0.00    -0.167 C  
HETATM   18  C   UNL     1      -7.868  10.804  69.055  1.00  0.00    -0.138 C  
ENDBRANCH  11  13
ENDBRANCH   9  11
ENDBRANCH   4   9
ENDBRANCH   3   4
TORSDOF 5
ENDMDL
MODEL      273
REMARK 921   NORMALIZED FREE ENERGY PREDICTED BY IDOCK:   -2.45 KCAL/MOL
REMARK 922        TOTAL FREE ENERGY PREDICTED BY IDOCK:   -3.76 KCAL/MOL
REMARK 923 INTER-LIGAND FREE ENERGY PREDICTED BY IDOCK:   -3.26 KCAL/MOL
REMARK 924 INTRA-LIGAND FREE ENERGY PREDICTED BY IDOCK:   -0.50 KCAL/MOL
REMARK 927      BINDING AFFINITY PREDICTED BY RF-SCORE:    0.00 PKD
ROOT
HETATM    1 CL   UNL     1     -10.431  11.333  66.516  1.00  0.00    -0.287 Cl 
HETATM    2  C   UNL     1      -9.278   9.981  66.667  1.00  0.00    -0.149 C  
HETATM    3  C   UNL     1      -9.894   8.846  67.479  1.00  0.00    -0.184 C  
ENDROOT
BRANCH   3   4
HETATM    4  N   UNL     1      -8.973   7.720  67.666  1.00  0.00    -0.127 N  
BRANCH   4   5
HETATM    5  N   UNL     1      -8.287   7.172  66.576  1.00  0.00    -0.113 NA 
HETATM    6  H   UNL     1      -8.741   6.587  65.873  1.00  0.00     0.000 HD 
HETATM    7  O   UNL     1      -7.086   7.458  66.537  1.00  0.00    -0.071 OA 
HETATM    8  H   UNL     1      -6.621   7.086  65.798  1.00  0.00     0.000 HD 
ENDBRANCH   4   5
BRANCH   4   9
HETATM    9  C   UNL     1      -8.650   7.328  68.964  1.00  0.00    -0.129 C  
HETATM   10  O   UNL     1      -7.503   7.020  69.288  1.00  0.00    -0.089 OA 
BRANCH   9  11
HETATM   11  N   UNL     1      -9.697   7.263  69.864  1.00  0.00    -0.174 N  
HETATM   12  H   UNL     1      -9.761   7.968  70.598  1.00  0.00     0.000 HD 
BRANCH  11  13
HETATM   13  C   UNL     1     -10.715   6.215  69.798  1.00  0.00    -0.310 C  
HETATM   14  C   UNL     1     -10.185   4.849  70.253  1.00  0.00    -0.299 C  
HETATM   15  C   UNL     1      -9.957   4.762  71.762  1.00  0.00    -0.255 C  
HETATM   16  C   UNL     1     -11.158   5.226  72.580  1.00  0.00    -0.319 C  
HETATM   17  C   UNL     1     -11.726   6.563  72.113  1.00  0.00    -0.353 C  
HETATM   18  C   UNL     1     -11.957   6.606  70.604  1.00  0.00    -0.404 C  
ENDBRANCH  11  13
ENDBRANCH   9  11
ENDBRANCH   4   9
ENDBRANCH   3   4
TORSDOF 5
ENDMDL
MODEL      274
REMARK 921   NORMALIZED FREE ENERGY PREDICTED BY IDOCK:   -2.44 KCAL/MOL
REMARK 922        TOTAL FREE ENERGY PREDICTED BY IDOCK:   -3.75 KCAL/MOL
REMARK 923 INTER-LIGAND FREE ENERGY PREDICTED BY IDOCK:   -3.46 KCAL/MOL
REMARK 924 INTRA-LIGAND FREE ENERGY PREDICTED BY IDOCK:   -0.29 KCAL/MOL
REMARK 927      BINDING AFFINITY PREDICTED BY RF-SCORE:    0.00 PKD
ROOT
HETATM    1 CL   UNL     1      -6.628   9.159  71.248  1.00  0.00    -0.090 Cl 
HETATM    2  C   UNL     1      -7.746   9.459  69.892  1.00  0.00    -0.114 C  
HETATM    3  C   UNL     1      -7.069  10.311  68.823  1.00  0.00    -0.072 C  
ENDROOT
BRANCH   3   4
HETATM    4  N   UNL     1      -7.958  10.620  67.699  1.00  0.00    -0.106 N  
BRANCH   4   5
HETATM    5  N   UNL     1      -7.501  10.514  66.380  1.00  0.00    -0.126 NA 
HETATM    6  H   UNL     1      -7.809   9.778  65.744  1.00  0.00     0.000 HD 
HETATM    7  O   UNL     1      -6.692  11.388  66.053  1.00  0.00    -0.367 OA 
HETATM    8  H   UNL     1      -6.381  11.316  65.158  1.00  0.00     0.000 HD 
ENDBRANCH   4   5
BRANCH   4   9
HETATM    9  C   UNL     1      -9.310  10.840  67.955  1.00  0.00    -0.150 C  
HETATM   10  O   UNL     1     -10.184  10.063  67.570  1.00  0.00    -0.186 OA 
BRANCH   9  11
HETATM   11  N   UNL     1      -9.626  12.002  68.633  1.00  0.00    -0.375 N  
HETATM   12  H   UNL     1     -10.033  11.934  69.566  1.00  0.00     0.000 HD 
BRANCH  11  13
HETATM   13  C   UNL     1      -9.396  13.326  68.056  1.00  0.00    -0.218 C  
HETATM   14  C   UNL     1      -9.655  13.362  66.544  1.00  0.00    -0.277 C  
HETATM   15  C   UNL     1     -11.138  13.281  66.183  1.00  0.00    -0.300 C  
HETATM   16  C   UNL     1     -12.000  14.280  66.949  1.00  0.00    -0.467 C  
HETATM   17  C   UNL     1     -11.724  14.290  68.450  1.00  0.00    -0.373 C  
HETATM   18  C   UNL     1     -10.234  14.389  68.771  1.00  0.00    -0.239 C  
ENDBRANCH  11  13
ENDBRANCH   9  11
ENDBRANCH   4   9
ENDBRANCH   3   4
TORSDOF 5
ENDMDL
MODEL      275
REMARK 921   NORMALIZED FREE ENERGY PREDICTED BY IDOCK:   -2.42 KCAL/MOL
REMARK 922        TOTAL FREE ENERGY PREDICTED BY IDOCK:   -3.73 KCAL/MOL
REMARK 923 INTER-LIGAND FREE ENERGY PREDICTED BY IDOCK:   -3.01 KCAL/MOL
REMARK 924 INTRA-LIGAND FREE ENERGY PREDICTED BY IDOCK:   -0.72 KCAL/MOL
REMARK 927      BINDING AFFINITY PREDICTED BY RF-SCORE:    0.00 PKD
ROOT
HETATM    1 CL   UNL     1     -14.225   8.701  72.024  1.00  0.00    -0.511 Cl 
HETATM    2  C   UNL     1     -13.151   7.311  71.716  1.00  0.00    -0.317 C  
HETATM    3  C   UNL     1     -11.896   7.762  70.977  1.00  0.00    -0.272 C  
ENDROOT
BRANCH   3   4
HETATM    4  N   UNL     1     -10.992   6.650  70.665  1.00  0.00    -0.262 N  
BRANCH   4   5
HETATM    5  N   UNL     1     -10.561   6.430  69.352  1.00  0.00    -0.229 NA 
HETATM    6  H   UNL     1     -10.588   7.152  68.631  1.00  0.00     0.000 HD 
HETATM    7  O   UNL     1     -10.145   5.286  69.141  1.00  0.00    -0.189 OA 
HETATM    8  H   UNL     1      -9.852   5.137  68.250  1.00  0.00     0.000 HD 
ENDBRANCH   4   5
BRANCH   4   9
HETATM    9  C   UNL     1     -10.426   5.933  71.717  1.00  0.00    -0.227 C  
HETATM   10  O   UNL     1     -10.626   4.727  71.869  1.00  0.00    -0.173 OA 
BRANCH   9  11
HETATM   11  N   UNL     1      -9.658   6.655  72.610  1.00  0.00    -0.147 N  
HETATM   12  H   UNL     1     -10.002   6.790  73.561  1.00  0.00     0.000 HD 
BRANCH  11  13
HETATM   13  C   UNL     1      -8.367   7.231  72.237  1.00  0.00    -0.104 C  
HETATM   14  C   UNL     1      -7.779   8.124  73.336  1.00  0.00    -0.212 C  
HETATM   15  C   UNL     1      -7.267   7.339  74.543  1.00  0.00    -0.124 C  
HETATM   16  C   UNL     1      -6.337   6.191  74.164  1.00  0.00    -0.070 C  
HETATM   17  C   UNL     1      -6.885   5.317  73.040  1.00  0.00    -0.077 C  
HETATM   18  C   UNL     1      -7.371   6.135  71.845  1.00  0.00    -0.093 C  
ENDBRANCH  11  13
ENDBRANCH   9  11
ENDBRANCH   4   9
ENDBRANCH   3   4
TORSDOF 5
ENDMDL
MODEL      276
REMARK 921   NORMALIZED FREE ENERGY PREDICTED BY IDOCK:   -2.42 KCAL/MOL
REMARK 922        TOTAL FREE ENERGY PREDICTED BY IDOCK:   -3.72 KCAL/MOL
REMARK 923 INTER-LIGAND FREE ENERGY PREDICTED BY IDOCK:   -3.31 KCAL/MOL
REMARK 924 INTRA-LIGAND FREE ENERGY PREDICTED BY IDOCK:   -0.41 KCAL/MOL
REMARK 927      BINDING AFFINITY PREDICTED BY RF-SCORE:    0.00 PKD
ROOT
HETATM    1 CL   UNL     1     -11.884  13.027  63.988  1.00  0.00    -0.471 Cl 
HETATM    2  C   UNL     1     -11.095  11.439  63.801  1.00  0.00    -0.334 C  
HETATM    3  C   UNL     1      -9.600  11.612  63.558  1.00  0.00    -0.250 C  
ENDROOT
BRANCH   3   4
HETATM    4  N   UNL     1      -8.907  10.335  63.360  1.00  0.00    -0.199 N  
BRANCH   4   5
HETATM    5  N   UNL     1      -9.423   9.374  62.483  1.00  0.00    -0.556 NA 
HETATM    6  H   UNL     1     -10.265   9.526  61.926  1.00  0.00     0.000 HD 
HETATM    7  O   UNL     1      -8.772   8.325  62.441  1.00  0.00    -0.407 OA 
HETATM    8  H   UNL     1      -9.121   7.672  61.847  1.00  0.00     0.000 HD 
ENDBRANCH   4   5
BRANCH   4   9
HETATM    9  C   UNL     1      -7.639  10.169  63.913  1.00  0.00    -0.128 C  
HETATM   10  O   UNL     1      -6.615  10.485  63.306  1.00  0.00    -0.104 OA 
BRANCH   9  11
HETATM   11  N   UNL     1      -7.585   9.591  65.167  1.00  0.00    -0.108 N  
HETATM   12  H   UNL     1      -7.077  10.071  65.909  1.00  0.00     0.000 HD 
BRANCH  11  13
HETATM   13  C   UNL     1      -8.234   8.315  65.463  1.00  0.00    -0.138 C  
HETATM   14  C   UNL     1      -7.228   7.201  65.780  1.00  0.00    -0.073 C  
HETATM   15  C   UNL     1      -6.556   7.365  67.143  1.00  0.00    -0.061 C  
HETATM   16  C   UNL     1      -7.547   7.598  68.279  1.00  0.00    -0.114 C  
HETATM   17  C   UNL     1      -8.584   8.672  67.964  1.00  0.00    -0.137 C  
HETATM   18  C   UNL     1      -9.246   8.466  66.603  1.00  0.00    -0.226 C  
ENDBRANCH  11  13
ENDBRANCH   9  11
ENDBRANCH   4   9
ENDBRANCH   3   4
TORSDOF 5
ENDMDL
MODEL      277
REMARK 921   NORMALIZED FREE ENERGY PREDICTED BY IDOCK:   -2.41 KCAL/MOL
REMARK 922        TOTAL FREE ENERGY PREDICTED BY IDOCK:   -3.71 KCAL/MOL
REMARK 923 INTER-LIGAND FREE ENERGY PREDICTED BY IDOCK:   -3.14 KCAL/MOL
REMARK 924 INTRA-LIGAND FREE ENERGY PREDICTED BY IDOCK:   -0.58 KCAL/MOL
REMARK 927      BINDING AFFINITY PREDICTED BY RF-SCORE:    0.00 PKD
ROOT
HETATM    1 CL   UNL     1      -7.795   4.587  73.445  1.00  0.00    -0.090 Cl 
HETATM    2  C   UNL     1      -8.349   6.261  73.179  1.00  0.00    -0.116 C  
HETATM    3  C   UNL     1      -9.000   6.395  71.807  1.00  0.00    -0.139 C  
ENDROOT
BRANCH   3   4
HETATM    4  N   UNL     1      -9.442   7.764  71.521  1.00  0.00    -0.143 N  
BRANCH   4   5
HETATM    5  N   UNL     1      -8.863   8.852  72.185  1.00  0.00    -0.380 NA 
HETATM    6  H   UNL     1      -9.221   9.216  73.069  1.00  0.00     0.000 HD 
HETATM    7  O   UNL     1      -7.882   9.333  71.608  1.00  0.00    -0.329 OA 
HETATM    8  H   UNL     1      -7.490  10.071  72.058  1.00  0.00     0.000 HD 
ENDBRANCH   4   5
BRANCH   4   9
HETATM    9  C   UNL     1     -10.309   7.977  70.452  1.00  0.00    -0.206 C  
HETATM   10  O   UNL     1     -11.181   7.163  70.144  1.00  0.00    -0.272 OA 
BRANCH   9  11
HETATM   11  N   UNL     1     -10.116   9.136  69.724  1.00  0.00    -0.191 N  
HETATM   12  H   UNL     1     -10.336  10.033  70.157  1.00  0.00     0.000 HD 
BRANCH  11  13
HETATM   13  C   UNL     1      -9.605   9.117  68.354  1.00  0.00    -0.151 C  
HETATM   14  C   UNL     1     -10.650   9.575  67.329  1.00  0.00    -0.317 C  
HETATM   15  C   UNL     1     -10.929  11.077  67.381  1.00  0.00    -0.349 C  
HETATM   16  C   UNL     1      -9.662  11.926  67.343  1.00  0.00    -0.189 C  
HETATM   17  C   UNL     1      -8.592  11.457  68.326  1.00  0.00    -0.156 C  
HETATM   18  C   UNL     1      -8.329   9.956  68.233  1.00  0.00    -0.110 C  
ENDBRANCH  11  13
ENDBRANCH   9  11
ENDBRANCH   4   9
ENDBRANCH   3   4
TORSDOF 5
ENDMDL
MODEL      278
REMARK 921   NORMALIZED FREE ENERGY PREDICTED BY IDOCK:   -2.41 KCAL/MOL
REMARK 922        TOTAL FREE ENERGY PREDICTED BY IDOCK:   -3.71 KCAL/MOL
REMARK 923 INTER-LIGAND FREE ENERGY PREDICTED BY IDOCK:   -3.16 KCAL/MOL
REMARK 924 INTRA-LIGAND FREE ENERGY PREDICTED BY IDOCK:   -0.56 KCAL/MOL
REMARK 927      BINDING AFFINITY PREDICTED BY RF-SCORE:    0.00 PKD
ROOT
HETATM    1 CL   UNL     1      -8.615  18.093  66.245  1.00  0.00    -0.247 Cl 
HETATM    2  C   UNL     1      -8.548  16.314  66.342  1.00  0.00    -0.326 C  
HETATM    3  C   UNL     1      -9.890  15.708  65.945  1.00  0.00    -0.350 C  
ENDROOT
BRANCH   3   4
HETATM    4  N   UNL     1      -9.901  14.245  66.043  1.00  0.00    -0.314 N  
BRANCH   4   5
HETATM    5  N   UNL     1      -8.703  13.530  66.153  1.00  0.00    -0.195 NA 
HETATM    6  H   UNL     1      -7.787  13.962  66.033  1.00  0.00     0.000 HD 
HETATM    7  O   UNL     1      -8.852  12.330  66.407  1.00  0.00    -0.341 OA 
HETATM    8  H   UNL     1      -8.039  11.844  66.481  1.00  0.00     0.000 HD 
ENDBRANCH   4   5
BRANCH   4   9
HETATM    9  C   UNL     1     -11.122  13.595  66.212  1.00  0.00    -0.301 C  
HETATM   10  O   UNL     1     -11.436  12.609  65.544  1.00  0.00    -0.311 OA 
BRANCH   9  11
HETATM   11  N   UNL     1     -11.986  14.141  67.143  1.00  0.00    -0.421 N  
HETATM   12  H   UNL     1     -12.559  14.941  66.875  1.00  0.00     0.000 HD 
BRANCH  11  13
HETATM   13  C   UNL     1     -12.104  13.607  68.499  1.00  0.00    -0.286 C  
HETATM   14  C   UNL     1     -10.748  13.206  69.095  1.00  0.00    -0.072 C  
HETATM   15  C   UNL     1      -9.872  14.403  69.464  1.00  0.00     0.246 C  
HETATM   16  C   UNL     1     -10.600  15.442  70.312  1.00  0.00    -0.299 C  
HETATM   17  C   UNL     1     -11.970  15.821  69.759  1.00  0.00    -0.337 C  
HETATM   18  C   UNL     1     -12.822  14.601  69.418  1.00  0.00     0.394 C  
ENDBRANCH  11  13
ENDBRANCH   9  11
ENDBRANCH   4   9
ENDBRANCH   3   4
TORSDOF 5
ENDMDL
MODEL      279
REMARK 921   NORMALIZED FREE ENERGY PREDICTED BY IDOCK:   -2.41 KCAL/MOL
REMARK 922        TOTAL FREE ENERGY PREDICTED BY IDOCK:   -3.70 KCAL/MOL
REMARK 923 INTER-LIGAND FREE ENERGY PREDICTED BY IDOCK:   -3.24 KCAL/MOL
REMARK 924 INTRA-LIGAND FREE ENERGY PREDICTED BY IDOCK:   -0.46 KCAL/MOL
REMARK 927      BINDING AFFINITY PREDICTED BY RF-SCORE:    0.00 PKD
ROOT
HETATM    1 CL   UNL     1     -11.068   7.041  72.322  1.00  0.00    -0.272 Cl 
HETATM    2  C   UNL     1     -10.759   8.591  71.498  1.00  0.00    -0.261 C  
HETATM    3  C   UNL     1      -9.735   8.406  70.383  1.00  0.00    -0.173 C  
ENDROOT
BRANCH   3   4
HETATM    4  N   UNL     1      -9.415   9.661  69.695  1.00  0.00    -0.196 N  
BRANCH   4   5
HETATM    5  N   UNL     1      -8.106   9.931  69.278  1.00  0.00    -0.115 NA 
HETATM    6  H   UNL     1      -7.311   9.931  69.917  1.00  0.00     0.000 HD 
HETATM    7  O   UNL     1      -7.998  10.170  68.071  1.00  0.00    -0.100 OA 
HETATM    8  H   UNL     1      -7.111  10.354  67.789  1.00  0.00     0.000 HD 
ENDBRANCH   4   5
BRANCH   4   9
HETATM    9  C   UNL     1     -10.461  10.492  69.298  1.00  0.00    -0.235 C  
HETATM   10  O   UNL     1     -11.453  10.060  68.710  1.00  0.00    -0.122 OA 
BRANCH   9  11
HETATM   11  N   UNL     1     -10.311  11.840  69.564  1.00  0.00    -0.346 N  
HETATM   12  H   UNL     1      -9.896  12.125  70.451  1.00  0.00     0.000 HD 
BRANCH  11  13
HETATM   13  C   UNL     1     -10.727  12.870  68.614  1.00  0.00    -0.247 C  
HETATM   14  C   UNL     1     -11.972  13.635  69.082  1.00  0.00    -0.394 C  
HETATM   15  C   UNL     1     -11.694  14.587  70.245  1.00  0.00    -0.356 C  
HETATM   16  C   UNL     1     -10.501  15.505  70.001  1.00  0.00    -0.322 C  
HETATM   17  C   UNL     1      -9.266  14.767  69.492  1.00  0.00     0.117 C  
HETATM   18  C   UNL     1      -9.579  13.841  68.319  1.00  0.00    -0.219 C  
ENDBRANCH  11  13
ENDBRANCH   9  11
ENDBRANCH   4   9
ENDBRANCH   3   4
TORSDOF 5
ENDMDL
MODEL      280
REMARK 921   NORMALIZED FREE ENERGY PREDICTED BY IDOCK:   -2.40 KCAL/MOL
REMARK 922        TOTAL FREE ENERGY PREDICTED BY IDOCK:   -3.70 KCAL/MOL
REMARK 923 INTER-LIGAND FREE ENERGY PREDICTED BY IDOCK:   -3.17 KCAL/MOL
REMARK 924 INTRA-LIGAND FREE ENERGY PREDICTED BY IDOCK:   -0.53 KCAL/MOL
REMARK 927      BINDING AFFINITY PREDICTED BY RF-SCORE:    0.00 PKD
ROOT
HETATM    1 CL   UNL     1      -8.380   4.535  71.977  1.00  0.00    -0.110 Cl 
HETATM    2  C   UNL     1      -9.262   5.721  70.979  1.00  0.00    -0.149 C  
HETATM    3  C   UNL     1     -10.216   5.010  70.025  1.00  0.00    -0.269 C  
ENDROOT
BRANCH   3   4
HETATM    4  N   UNL     1     -10.941   5.939  69.153  1.00  0.00    -0.341 N  
BRANCH   4   5
HETATM    5  N   UNL     1     -11.883   6.827  69.685  1.00  0.00    -0.646 NA 
HETATM    6  H   UNL     1     -12.831   6.547  69.933  1.00  0.00     0.000 HD 
HETATM    7  O   UNL     1     -11.465   7.981  69.828  1.00  0.00    -0.454 OA 
HETATM    8  H   UNL     1     -12.103   8.584  70.189  1.00  0.00     0.000 HD 
ENDBRANCH   4   5
BRANCH   4   9
HETATM    9  C   UNL     1     -10.547   6.052  67.821  1.00  0.00    -0.267 C  
HETATM   10  O   UNL     1     -11.303   6.482  66.949  1.00  0.00    -0.330 OA 
BRANCH   9  11
HETATM   11  N   UNL     1      -9.271   5.616  67.518  1.00  0.00    -0.110 N  
HETATM   12  H   UNL     1      -8.995   4.672  67.788  1.00  0.00     0.000 HD 
BRANCH  11  13
HETATM   13  C   UNL     1      -8.304   6.466  66.824  1.00  0.00    -0.111 C  
HETATM   14  C   UNL     1      -8.360   7.926  67.291  1.00  0.00    -0.122 C  
HETATM   15  C   UNL     1      -7.787   8.134  68.693  1.00  0.00    -0.114 C  
HETATM   16  C   UNL     1      -6.405   7.514  68.876  1.00  0.00    -0.039 C  
HETATM   17  C   UNL     1      -6.318   6.076  68.376  1.00  0.00    -0.043 C  
HETATM   18  C   UNL     1      -6.884   5.910  66.967  1.00  0.00    -0.063 C  
ENDBRANCH  11  13
ENDBRANCH   9  11
ENDBRANCH   4   9
ENDBRANCH   3   4
TORSDOF 5
ENDMDL
MODEL      281
REMARK 921   NORMALIZED FREE ENERGY PREDICTED BY IDOCK:   -2.39 KCAL/MOL
REMARK 922        TOTAL FREE ENERGY PREDICTED BY IDOCK:   -3.68 KCAL/MOL
REMARK 923 INTER-LIGAND FREE ENERGY PREDICTED BY IDOCK:   -3.07 KCAL/MOL
REMARK 924 INTRA-LIGAND FREE ENERGY PREDICTED BY IDOCK:   -0.60 KCAL/MOL
REMARK 927      BINDING AFFINITY PREDICTED BY RF-SCORE:    0.00 PKD
ROOT
HETATM    1 CL   UNL     1      -8.468  10.008  67.156  1.00  0.00    -0.125 Cl 
HETATM    2  C   UNL     1      -8.923   8.491  67.976  1.00  0.00    -0.141 C  
HETATM    3  C   UNL     1     -10.409   8.496  68.318  1.00  0.00    -0.201 C  
ENDROOT
BRANCH   3   4
HETATM    4  N   UNL     1     -10.831   7.285  69.028  1.00  0.00    -0.161 N  
BRANCH   4   5
HETATM    5  N   UNL     1     -10.816   6.041  68.386  1.00  0.00    -0.285 NA 
HETATM    6  H   UNL     1     -11.159   5.904  67.435  1.00  0.00     0.000 HD 
HETATM    7  O   UNL     1     -10.352   5.123  69.070  1.00  0.00    -0.199 OA 
HETATM    8  H   UNL     1     -10.342   4.280  68.635  1.00  0.00     0.000 HD 
ENDBRANCH   4   5
BRANCH   4   9
HETATM    9  C   UNL     1     -11.068   7.361  70.399  1.00  0.00    -0.265 C  
HETATM   10  O   UNL     1     -12.144   7.747  70.856  1.00  0.00    -0.274 OA 
BRANCH   9  11
HETATM   11  N   UNL     1     -10.014   7.020  71.225  1.00  0.00    -0.190 N  
HETATM   12  H   UNL     1      -9.074   7.332  70.981  1.00  0.00     0.000 HD 
BRANCH  11  13
HETATM   13  C   UNL     1     -10.204   6.226  72.439  1.00  0.00    -0.187 C  
HETATM   14  C   UNL     1      -9.172   5.099  72.572  1.00  0.00    -0.145 C  
HETATM   15  C   UNL     1      -7.771   5.600  72.921  1.00  0.00    -0.098 C  
HETATM   16  C   UNL     1      -7.752   6.555  74.111  1.00  0.00    -0.097 C  
HETATM   17  C   UNL     1      -8.802   7.658  74.016  1.00  0.00    -0.305 C  
HETATM   18  C   UNL     1     -10.191   7.117  73.684  1.00  0.00    -0.402 C  
ENDBRANCH  11  13
ENDBRANCH   9  11
ENDBRANCH   4   9
ENDBRANCH   3   4
TORSDOF 5
ENDMDL
MODEL      282
REMARK 921   NORMALIZED FREE ENERGY PREDICTED BY IDOCK:   -2.38 KCAL/MOL
REMARK 922        TOTAL FREE ENERGY PREDICTED BY IDOCK:   -3.67 KCAL/MOL
REMARK 923 INTER-LIGAND FREE ENERGY PREDICTED BY IDOCK:   -3.01 KCAL/MOL
REMARK 924 INTRA-LIGAND FREE ENERGY PREDICTED BY IDOCK:   -0.67 KCAL/MOL
REMARK 927      BINDING AFFINITY PREDICTED BY RF-SCORE:    0.00 PKD
ROOT
HETATM    1 CL   UNL     1     -14.062   8.681  71.662  1.00  0.00    -0.470 Cl 
HETATM    2  C   UNL     1     -12.418   8.525  72.332  1.00  0.00    -0.353 C  
HETATM    3  C   UNL     1     -11.376   8.696  71.232  1.00  0.00    -0.281 C  
ENDROOT
BRANCH   3   4
HETATM    4  N   UNL     1     -10.003   8.540  71.724  1.00  0.00    -0.246 N  
BRANCH   4   5
HETATM    5  N   UNL     1      -9.760   8.167  73.052  1.00  0.00    -0.276 NA 
HETATM    6  H   UNL     1     -10.421   7.618  73.603  1.00  0.00     0.000 HD 
HETATM    7  O   UNL     1      -8.677   8.560  73.498  1.00  0.00    -0.314 OA 
HETATM    8  H   UNL     1      -8.512   8.307  74.398  1.00  0.00     0.000 HD 
ENDBRANCH   4   5
BRANCH   4   9
HETATM    9  C   UNL     1      -8.954   8.587  70.808  1.00  0.00    -0.165 C  
HETATM   10  O   UNL     1      -8.100   9.474  70.836  1.00  0.00    -0.297 OA 
BRANCH   9  11
HETATM   11  N   UNL     1      -8.943   7.606  69.835  1.00  0.00    -0.144 N  
HETATM   12  H   UNL     1      -9.066   7.877  68.859  1.00  0.00     0.000 HD 
BRANCH  11  13
HETATM   13  C   UNL     1      -8.762   6.191  70.159  1.00  0.00    -0.141 C  
HETATM   14  C   UNL     1      -8.595   5.317  68.910  1.00  0.00    -0.091 C  
HETATM   15  C   UNL     1      -7.244   5.502  68.219  1.00  0.00    -0.071 C  
HETATM   16  C   UNL     1      -6.059   5.391  69.173  1.00  0.00    -0.025 C  
HETATM   17  C   UNL     1      -6.227   6.220  70.443  1.00  0.00    -0.035 C  
HETATM   18  C   UNL     1      -7.580   5.995  71.115  1.00  0.00    -0.100 C  
ENDBRANCH  11  13
ENDBRANCH   9  11
ENDBRANCH   4   9
ENDBRANCH   3   4
TORSDOF 5
ENDMDL
MODEL      283
REMARK 921   NORMALIZED FREE ENERGY PREDICTED BY IDOCK:   -2.38 KCAL/MOL
REMARK 922        TOTAL FREE ENERGY PREDICTED BY IDOCK:   -3.67 KCAL/MOL
REMARK 923 INTER-LIGAND FREE ENERGY PREDICTED BY IDOCK:   -3.16 KCAL/MOL
REMARK 924 INTRA-LIGAND FREE ENERGY PREDICTED BY IDOCK:   -0.51 KCAL/MOL
REMARK 927      BINDING AFFINITY PREDICTED BY RF-SCORE:    0.00 PKD
ROOT
HETATM    1 CL   UNL     1     -11.536  10.598  69.232  1.00  0.00    -0.341 Cl 
HETATM    2  C   UNL     1     -10.649  10.751  67.693  1.00  0.00    -0.231 C  
HETATM    3  C   UNL     1     -10.468   9.383  67.045  1.00  0.00    -0.231 C  
ENDROOT
BRANCH   3   4
HETATM    4  N   UNL     1      -9.710   9.447  65.790  1.00  0.00    -0.283 N  
BRANCH   4   5
HETATM    5  N   UNL     1      -9.971  10.452  64.852  1.00  0.00    -0.327 NA 
HETATM    6  H   UNL     1     -10.132  11.426  65.112  1.00  0.00     0.000 HD 
HETATM    7  O   UNL     1      -9.990  10.058  63.681  1.00  0.00    -0.484 OA 
HETATM    8  H   UNL     1     -10.167  10.740  63.044  1.00  0.00     0.000 HD 
ENDBRANCH   4   5
BRANCH   4   9
HETATM    9  C   UNL     1      -8.608   8.610  65.631  1.00  0.00    -0.168 C  
HETATM   10  O   UNL     1      -7.506   8.882  66.109  1.00  0.00    -0.088 OA 
BRANCH   9  11
HETATM   11  N   UNL     1      -8.804   7.473  64.871  1.00  0.00    -0.324 N  
HETATM   12  H   UNL     1      -9.562   7.460  64.189  1.00  0.00     0.000 HD 
BRANCH  11  13
HETATM   13  C   UNL     1      -7.960   6.287  65.015  1.00  0.00    -0.120 C  
HETATM   14  C   UNL     1      -8.672   5.142  65.747  1.00  0.00    -0.139 C  
HETATM   15  C   UNL     1      -9.758   4.471  64.907  1.00  0.00    -0.109 C  
HETATM   16  C   UNL     1      -9.279   4.068  63.515  1.00  0.00    -0.130 C  
HETATM   17  C   UNL     1      -8.530   5.180  62.789  1.00  0.00    -0.113 C  
HETATM   18  C   UNL     1      -7.442   5.815  63.653  1.00  0.00    -0.069 C  
ENDBRANCH  11  13
ENDBRANCH   9  11
ENDBRANCH   4   9
ENDBRANCH   3   4
TORSDOF 5
ENDMDL
MODEL      284
REMARK 921   NORMALIZED FREE ENERGY PREDICTED BY IDOCK:   -2.37 KCAL/MOL
REMARK 922        TOTAL FREE ENERGY PREDICTED BY IDOCK:   -3.65 KCAL/MOL
REMARK 923 INTER-LIGAND FREE ENERGY PREDICTED BY IDOCK:   -3.20 KCAL/MOL
REMARK 924 INTRA-LIGAND FREE ENERGY PREDICTED BY IDOCK:   -0.45 KCAL/MOL
REMARK 927      BINDING AFFINITY PREDICTED BY RF-SCORE:    0.00 PKD
ROOT
HETATM    1 CL   UNL     1     -14.312   8.119  71.625  1.00  0.00    -0.535 Cl 
HETATM    2  C   UNL     1     -12.554   7.865  71.774  1.00  0.00    -0.328 C  
HETATM    3  C   UNL     1     -12.069   6.870  70.725  1.00  0.00    -0.349 C  
ENDROOT
BRANCH   3   4
HETATM    4  N   UNL     1     -10.632   6.595  70.827  1.00  0.00    -0.220 N  
BRANCH   4   5
HETATM    5  N   UNL     1     -10.174   5.323  71.189  1.00  0.00    -0.215 NA 
HETATM    6  H   UNL     1     -10.717   4.683  71.770  1.00  0.00     0.000 HD 
HETATM    7  O   UNL     1      -9.056   5.042  70.745  1.00  0.00    -0.128 OA 
HETATM    8  H   UNL     1      -8.745   4.179  70.991  1.00  0.00     0.000 HD 
ENDBRANCH   4   5
BRANCH   4   9
HETATM    9  C   UNL     1      -9.733   7.562  70.381  1.00  0.00    -0.179 C  
HETATM   10  O   UNL     1      -9.442   8.548  71.060  1.00  0.00    -0.161 OA 
BRANCH   9  11
HETATM   11  N   UNL     1      -9.212   7.379  69.114  1.00  0.00    -0.147 N  
HETATM   12  H   UNL     1      -8.305   6.924  69.015  1.00  0.00     0.000 HD 
BRANCH  11  13
HETATM   13  C   UNL     1      -9.920   7.817  67.912  1.00  0.00    -0.172 C  
HETATM   14  C   UNL     1      -9.353   9.122  67.337  1.00  0.00    -0.161 C  
HETATM   15  C   UNL     1      -7.989   8.946  66.671  1.00  0.00    -0.103 C  
HETATM   16  C   UNL     1      -7.954   7.800  65.664  1.00  0.00    -0.118 C  
HETATM   17  C   UNL     1      -8.555   6.505  66.204  1.00  0.00    -0.146 C  
HETATM   18  C   UNL     1      -9.924   6.717  66.846  1.00  0.00    -0.238 C  
ENDBRANCH  11  13
ENDBRANCH   9  11
ENDBRANCH   4   9
ENDBRANCH   3   4
TORSDOF 5
ENDMDL
MODEL      285
REMARK 921   NORMALIZED FREE ENERGY PREDICTED BY IDOCK:   -2.36 KCAL/MOL
REMARK 922        TOTAL FREE ENERGY PREDICTED BY IDOCK:   -3.64 KCAL/MOL
REMARK 923 INTER-LIGAND FREE ENERGY PREDICTED BY IDOCK:   -3.34 KCAL/MOL
REMARK 924 INTRA-LIGAND FREE ENERGY PREDICTED BY IDOCK:   -0.31 KCAL/MOL
REMARK 927      BINDING AFFINITY PREDICTED BY RF-SCORE:    0.00 PKD
ROOT
HETATM    1 CL   UNL     1      -9.380  11.572  65.676  1.00  0.00    -0.236 Cl 
HETATM    2  C   UNL     1      -9.638  12.058  67.372  1.00  0.00    -0.176 C  
HETATM    3  C   UNL     1     -10.652  13.194  67.452  1.00  0.00    -0.242 C  
ENDROOT
BRANCH   3   4
HETATM    4  N   UNL     1     -10.875  13.658  68.825  1.00  0.00    -0.253 N  
BRANCH   4   5
HETATM    5  N   UNL     1     -10.322  14.865  69.267  1.00  0.00    -0.254 NA 
HETATM    6  H   UNL     1      -9.767  15.474  68.665  1.00  0.00     0.000 HD 
HETATM    7  O   UNL     1     -10.563  15.129  70.450  1.00  0.00    -0.465 OA 
HETATM    8  H   UNL     1     -10.187  15.948  70.750  1.00  0.00     0.000 HD 
ENDBRANCH   4   5
BRANCH   4   9
HETATM    9  C   UNL     1     -11.793  12.976  69.621  1.00  0.00    -0.319 C  
HETATM   10  O   UNL     1     -12.965  13.341  69.728  1.00  0.00     0.350 OA 
BRANCH   9  11
HETATM   11  N   UNL     1     -11.311  11.886  70.321  1.00  0.00    -0.452 N  
HETATM   12  H   UNL     1     -10.989  12.019  71.279  1.00  0.00     0.000 HD 
BRANCH  11  13
HETATM   13  C   UNL     1     -11.246  10.550  69.730  1.00  0.00    -0.298 C  
HETATM   14  C   UNL     1     -10.165   9.673  70.375  1.00  0.00    -0.348 C  
HETATM   15  C   UNL     1     -10.525   9.212  71.788  1.00  0.00    -0.361 C  
HETATM   16  C   UNL     1     -11.915   8.592  71.883  1.00  0.00    -0.424 C  
HETATM   17  C   UNL     1     -12.997   9.430  71.208  1.00  0.00    -0.373 C  
HETATM   18  C   UNL     1     -12.610   9.856  69.794  1.00  0.00     0.515 C  
ENDBRANCH  11  13
ENDBRANCH   9  11
ENDBRANCH   4   9
ENDBRANCH   3   4
TORSDOF 5
ENDMDL
MODEL      286
REMARK 921   NORMALIZED FREE ENERGY PREDICTED BY IDOCK:   -2.32 KCAL/MOL
REMARK 922        TOTAL FREE ENERGY PREDICTED BY IDOCK:   -3.59 KCAL/MOL
REMARK 923 INTER-LIGAND FREE ENERGY PREDICTED BY IDOCK:   -3.95 KCAL/MOL
REMARK 924 INTRA-LIGAND FREE ENERGY PREDICTED BY IDOCK:    0.36 KCAL/MOL
REMARK 927      BINDING AFFINITY PREDICTED BY RF-SCORE:    0.00 PKD
ROOT
HETATM    1 CL   UNL     1      -8.477  19.205  66.244  1.00  0.00    -0.323 Cl 
HETATM    2  C   UNL     1      -8.098  17.871  67.365  1.00  0.00    -0.211 C  
HETATM    3  C   UNL     1      -8.499  16.532  66.755  1.00  0.00    -0.238 C  
ENDROOT
BRANCH   3   4
HETATM    4  N   UNL     1      -8.243  15.401  67.653  1.00  0.00    -0.148 N  
BRANCH   4   5
HETATM    5  N   UNL     1      -6.933  15.056  68.007  1.00  0.00    -0.122 NA 
HETATM    6  H   UNL     1      -6.524  15.291  68.912  1.00  0.00     0.000 HD 
HETATM    7  O   UNL     1      -6.316  14.444  67.129  1.00  0.00    -0.339 OA 
HETATM    8  H   UNL     1      -5.428  14.210  67.370  1.00  0.00     0.000 HD 
ENDBRANCH   4   5
BRANCH   4   9
HETATM    9  C   UNL     1      -9.324  14.795  68.291  1.00  0.00    -0.199 C  
HETATM   10  O   UNL     1     -10.401  15.373  68.443  1.00  0.00    -0.224 OA 
BRANCH   9  11
HETATM   11  N   UNL     1      -9.112  13.522  68.783  1.00  0.00    -0.389 N  
HETATM   12  H   UNL     1      -8.855  13.408  69.763  1.00  0.00     0.000 HD 
BRANCH  11  13
HETATM   13  C   UNL     1      -9.244  12.332  67.943  1.00  0.00    -0.190 C  
HETATM   14  C   UNL     1     -10.418  11.439  68.367  1.00  0.00    -0.221 C  
HETATM   15  C   UNL     1     -11.783  12.034  68.026  1.00  0.00    -0.398 C  
HETATM   16  C   UNL     1     -11.894  12.497  66.577  1.00  0.00    -0.434 C  
HETATM   17  C   UNL     1     -10.713  13.350  66.124  1.00  0.00    -0.288 C  
HETATM   18  C   UNL     1      -9.367  12.715  66.465  1.00  0.00    -0.228 C  
ENDBRANCH  11  13
ENDBRANCH   9  11
ENDBRANCH   4   9
ENDBRANCH   3   4
TORSDOF 5
ENDMDL
MODEL      287
REMARK 921   NORMALIZED FREE ENERGY PREDICTED BY IDOCK:   -2.31 KCAL/MOL
REMARK 922        TOTAL FREE ENERGY PREDICTED BY IDOCK:   -3.58 KCAL/MOL
REMARK 923 INTER-LIGAND FREE ENERGY PREDICTED BY IDOCK:   -3.00 KCAL/MOL
REMARK 924 INTRA-LIGAND FREE ENERGY PREDICTED BY IDOCK:   -0.58 KCAL/MOL
REMARK 927      BINDING AFFINITY PREDICTED BY RF-SCORE:    0.00 PKD
ROOT
HETATM    1 CL   UNL     1      -8.028   7.986  74.249  1.00  0.00    -0.275 Cl 
HETATM    2  C   UNL     1      -8.947   7.099  73.004  1.00  0.00    -0.133 C  
HETATM    3  C   UNL     1      -8.146   5.902  72.504  1.00  0.00    -0.106 C  
ENDROOT
BRANCH   3   4
HETATM    4  N   UNL     1      -8.841   5.157  71.450  1.00  0.00    -0.131 N  
BRANCH   4   5
HETATM    5  N   UNL     1      -9.982   4.402  71.746  1.00  0.00    -0.183 NA 
HETATM    6  H   UNL     1     -10.744   4.753  72.326  1.00  0.00     0.000 HD 
HETATM    7  O   UNL     1      -9.986   3.273  71.244  1.00  0.00    -0.149 OA 
HETATM    8  H   UNL     1     -10.760   2.760  71.445  1.00  0.00     0.000 HD 
ENDBRANCH   4   5
BRANCH   4   9
HETATM    9  C   UNL     1      -8.461   5.359  70.125  1.00  0.00    -0.119 C  
HETATM   10  O   UNL     1      -7.809   4.524  69.496  1.00  0.00    -0.058 OA 
BRANCH   9  11
HETATM   11  N   UNL     1      -8.818   6.569  69.560  1.00  0.00    -0.137 N  
HETATM   12  H   UNL     1      -8.092   7.153  69.145  1.00  0.00     0.000 HD 
BRANCH  11  13
HETATM   13  C   UNL     1     -10.202   7.038  69.539  1.00  0.00    -0.199 C  
HETATM   14  C   UNL     1     -10.306   8.564  69.414  1.00  0.00    -0.218 C  
HETATM   15  C   UNL     1      -9.935   9.082  68.025  1.00  0.00    -0.213 C  
HETATM   16  C   UNL     1     -10.658   8.352  66.897  1.00  0.00    -0.285 C  
HETATM   17  C   UNL     1     -10.604   6.833  67.029  1.00  0.00    -0.405 C  
HETATM   18  C   UNL     1     -10.997   6.352  68.424  1.00  0.00    -0.390 C  
ENDBRANCH  11  13
ENDBRANCH   9  11
ENDBRANCH   4   9
ENDBRANCH   3   4
TORSDOF 5
ENDMDL
MODEL      288
REMARK 921   NORMALIZED FREE ENERGY PREDICTED BY IDOCK:   -2.31 KCAL/MOL
REMARK 922        TOTAL FREE ENERGY PREDICTED BY IDOCK:   -3.57 KCAL/MOL
REMARK 923 INTER-LIGAND FREE ENERGY PREDICTED BY IDOCK:   -3.91 KCAL/MOL
REMARK 924 INTRA-LIGAND FREE ENERGY PREDICTED BY IDOCK:    0.33 KCAL/MOL
REMARK 927      BINDING AFFINITY PREDICTED BY RF-SCORE:    0.00 PKD
ROOT
HETATM    1 CL   UNL     1      -7.238  17.072  67.374  1.00  0.00    -0.171 Cl 
HETATM    2  C   UNL     1      -7.816  15.631  68.251  1.00  0.00    -0.128 C  
HETATM    3  C   UNL     1      -7.082  14.385  67.769  1.00  0.00    -0.176 C  
ENDROOT
BRANCH   3   4
HETATM    4  N   UNL     1      -7.546  13.162  68.433  1.00  0.00    -0.128 N  
BRANCH   4   5
HETATM    5  N   UNL     1      -6.927  12.709  69.604  1.00  0.00    -0.333 NA 
HETATM    6  H   UNL     1      -6.693  11.729  69.764  1.00  0.00     0.000 HD 
HETATM    7  O   UNL     1      -6.689  13.599  70.428  1.00  0.00    -0.380 OA 
HETATM    8  H   UNL     1      -6.268  13.292  71.222  1.00  0.00     0.000 HD 
ENDBRANCH   4   5
BRANCH   4   9
HETATM    9  C   UNL     1      -8.724  12.565  67.988  1.00  0.00    -0.186 C  
HETATM   10  O   UNL     1      -8.944  12.365  66.793  1.00  0.00    -0.207 OA 
BRANCH   9  11
HETATM   11  N   UNL     1      -9.655  12.245  68.958  1.00  0.00    -0.380 N  
HETATM   12  H   UNL     1      -9.436  12.436  69.935  1.00  0.00     0.000 HD 
BRANCH  11  13
HETATM   13  C   UNL     1     -10.945  11.641  68.626  1.00  0.00    -0.220 C  
HETATM   14  C   UNL     1     -10.812  10.468  67.647  1.00  0.00    -0.355 C  
HETATM   15  C   UNL     1     -10.203   9.218  68.281  1.00  0.00    -0.236 C  
HETATM   16  C   UNL     1     -10.879   8.815  69.588  1.00  0.00    -0.175 C  
HETATM   17  C   UNL     1     -11.060   9.979  70.557  1.00  0.00    -0.400 C  
HETATM   18  C   UNL     1     -11.687  11.203  69.893  1.00  0.00    -0.433 C  
ENDBRANCH  11  13
ENDBRANCH   9  11
ENDBRANCH   4   9
ENDBRANCH   3   4
TORSDOF 5
ENDMDL
MODEL      289
REMARK 921   NORMALIZED FREE ENERGY PREDICTED BY IDOCK:   -2.29 KCAL/MOL
REMARK 922        TOTAL FREE ENERGY PREDICTED BY IDOCK:   -3.55 KCAL/MOL
REMARK 923 INTER-LIGAND FREE ENERGY PREDICTED BY IDOCK:   -3.31 KCAL/MOL
REMARK 924 INTRA-LIGAND FREE ENERGY PREDICTED BY IDOCK:   -0.25 KCAL/MOL
REMARK 927      BINDING AFFINITY PREDICTED BY RF-SCORE:    0.00 PKD
ROOT
HETATM    1 CL   UNL     1     -11.106  10.137  68.089  1.00  0.00    -0.311 Cl 
HETATM    2  C   UNL     1     -10.474   9.872  69.735  1.00  0.00    -0.261 C  
HETATM    3  C   UNL     1      -9.653   8.588  69.790  1.00  0.00    -0.170 C  
ENDROOT
BRANCH   3   4
HETATM    4  N   UNL     1      -9.139   8.303  71.134  1.00  0.00    -0.152 N  
BRANCH   4   5
HETATM    5  N   UNL     1      -7.793   8.527  71.443  1.00  0.00    -0.115 NA 
HETATM    6  H   UNL     1      -7.029   8.260  70.822  1.00  0.00     0.000 HD 
HETATM    7  O   UNL     1      -7.609   9.078  72.535  1.00  0.00    -0.339 OA 
HETATM    8  H   UNL     1      -6.696   9.230  72.745  1.00  0.00     0.000 HD 
ENDBRANCH   4   5
BRANCH   4   9
HETATM    9  C   UNL     1     -10.045   7.983  72.143  1.00  0.00    -0.234 C  
HETATM   10  O   UNL     1     -10.995   8.715  72.426  1.00  0.00    -0.353 OA 
BRANCH   9  11
HETATM   11  N   UNL     1      -9.801   6.816  72.841  1.00  0.00    -0.162 N  
HETATM   12  H   UNL     1      -9.382   6.875  73.769  1.00  0.00     0.000 HD 
BRANCH  11  13
HETATM   13  C   UNL     1     -10.125   5.499  72.293  1.00  0.00    -0.183 C  
HETATM   14  C   UNL     1      -8.875   4.672  71.967  1.00  0.00    -0.136 C  
HETATM   15  C   UNL     1      -8.150   4.159  73.211  1.00  0.00    -0.090 C  
HETATM   16  C   UNL     1      -9.075   3.456  74.200  1.00  0.00    -0.098 C  
HETATM   17  C   UNL     1     -10.346   4.245  74.502  1.00  0.00    -0.291 C  
HETATM   18  C   UNL     1     -11.052   4.726  73.236  1.00  0.00    -0.411 C  
ENDBRANCH  11  13
ENDBRANCH   9  11
ENDBRANCH   4   9
ENDBRANCH   3   4
TORSDOF 5
ENDMDL
MODEL      290
REMARK 921   NORMALIZED FREE ENERGY PREDICTED BY IDOCK:   -2.29 KCAL/MOL
REMARK 922        TOTAL FREE ENERGY PREDICTED BY IDOCK:   -3.55 KCAL/MOL
REMARK 923 INTER-LIGAND FREE ENERGY PREDICTED BY IDOCK:   -3.25 KCAL/MOL
REMARK 924 INTRA-LIGAND FREE ENERGY PREDICTED BY IDOCK:   -0.30 KCAL/MOL
REMARK 927      BINDING AFFINITY PREDICTED BY RF-SCORE:    0.00 PKD
ROOT
HETATM    1 CL   UNL     1      -7.363   9.329  64.743  1.00  0.00    -0.101 Cl 
HETATM    2  C   UNL     1      -8.333  10.538  65.625  1.00  0.00    -0.167 C  
HETATM    3  C   UNL     1      -8.063  10.448  67.123  1.00  0.00    -0.115 C  
ENDROOT
BRANCH   3   4
HETATM    4  N   UNL     1      -8.864  11.398  67.901  1.00  0.00    -0.144 N  
BRANCH   4   5
HETATM    5  N   UNL     1      -8.246  12.321  68.753  1.00  0.00    -0.343 NA 
HETATM    6  H   UNL     1      -7.945  12.086  69.699  1.00  0.00     0.000 HD 
HETATM    7  O   UNL     1      -8.097  13.444  68.260  1.00  0.00    -0.141 OA 
HETATM    8  H   UNL     1      -7.678  14.070  68.837  1.00  0.00     0.000 HD 
ENDBRANCH   4   5
BRANCH   4   9
HETATM    9  C   UNL     1     -10.230  11.491  67.641  1.00  0.00    -0.184 C  
HETATM   10  O   UNL     1     -10.980  10.518  67.729  1.00  0.00    -0.271 OA 
BRANCH   9  11
HETATM   11  N   UNL     1     -10.696  12.727  67.238  1.00  0.00    -0.235 N  
HETATM   12  H   UNL     1     -10.088  13.540  67.335  1.00  0.00     0.000 HD 
BRANCH  11  13
HETATM   13  C   UNL     1     -12.035  12.908  66.677  1.00  0.00    -0.366 C  
HETATM   14  C   UNL     1     -12.374  14.383  66.425  1.00  0.00    -0.298 C  
HETATM   15  C   UNL     1     -11.616  14.984  65.242  1.00  0.00    -0.258 C  
HETATM   16  C   UNL     1     -11.709  14.138  63.975  1.00  0.00    -0.234 C  
HETATM   17  C   UNL     1     -11.418  12.660  64.215  1.00  0.00    -0.420 C  
HETATM   18  C   UNL     1     -12.206  12.090  65.393  1.00  0.00     0.032 C  
ENDBRANCH  11  13
ENDBRANCH   9  11
ENDBRANCH   4   9
ENDBRANCH   3   4
TORSDOF 5
ENDMDL
MODEL      291
REMARK 921   NORMALIZED FREE ENERGY PREDICTED BY IDOCK:   -2.28 KCAL/MOL
REMARK 922        TOTAL FREE ENERGY PREDICTED BY IDOCK:   -3.54 KCAL/MOL
REMARK 923 INTER-LIGAND FREE ENERGY PREDICTED BY IDOCK:   -2.93 KCAL/MOL
REMARK 924 INTRA-LIGAND FREE ENERGY PREDICTED BY IDOCK:   -0.61 KCAL/MOL
REMARK 927      BINDING AFFINITY PREDICTED BY RF-SCORE:    0.00 PKD
ROOT
HETATM    1 CL   UNL     1     -10.590   3.492  73.320  1.00  0.00    -0.258 Cl 
HETATM    2  C   UNL     1      -9.815   4.123  71.844  1.00  0.00    -0.181 C  
HETATM    3  C   UNL     1      -9.841   5.648  71.839  1.00  0.00    -0.166 C  
ENDROOT
BRANCH   3   4
HETATM    4  N   UNL     1      -9.248   6.220  70.626  1.00  0.00    -0.157 N  
BRANCH   4   5
HETATM    5  N   UNL     1      -7.867   6.149  70.407  1.00  0.00    -0.104 NA 
HETATM    6  H   UNL     1      -7.180   6.443  71.101  1.00  0.00     0.000 HD 
HETATM    7  O   UNL     1      -7.553   5.699  69.299  1.00  0.00    -0.083 OA 
HETATM    8  H   UNL     1      -6.617   5.651  69.151  1.00  0.00     0.000 HD 
ENDBRANCH   4   5
BRANCH   4   9
HETATM    9  C   UNL     1     -10.095   6.668  69.614  1.00  0.00    -0.181 C  
HETATM   10  O   UNL     1     -11.022   5.980  69.185  1.00  0.00    -0.328 OA 
BRANCH   9  11
HETATM   11  N   UNL     1      -9.815   7.913  69.084  1.00  0.00    -0.171 N  
HETATM   12  H   UNL     1      -9.522   7.981  68.110  1.00  0.00     0.000 HD 
BRANCH  11  13
HETATM   13  C   UNL     1      -9.927   9.138  69.877  1.00  0.00    -0.197 C  
HETATM   14  C   UNL     1      -8.704  10.051  69.724  1.00  0.00    -0.198 C  
HETATM   15  C   UNL     1      -8.631  10.742  68.363  1.00  0.00    -0.141 C  
HETATM   16  C   UNL     1      -9.932  11.435  67.970  1.00  0.00    -0.192 C  
HETATM   17  C   UNL     1     -11.165  10.556  68.157  1.00  0.00    -0.357 C  
HETATM   18  C   UNL     1     -11.212   9.898  69.534  1.00  0.00    -0.220 C  
ENDBRANCH  11  13
ENDBRANCH   9  11
ENDBRANCH   4   9
ENDBRANCH   3   4
TORSDOF 5
ENDMDL
MODEL      292
REMARK 921   NORMALIZED FREE ENERGY PREDICTED BY IDOCK:   -2.27 KCAL/MOL
REMARK 922        TOTAL FREE ENERGY PREDICTED BY IDOCK:   -3.53 KCAL/MOL
REMARK 923 INTER-LIGAND FREE ENERGY PREDICTED BY IDOCK:   -2.84 KCAL/MOL
REMARK 924 INTRA-LIGAND FREE ENERGY PREDICTED BY IDOCK:   -0.69 KCAL/MOL
REMARK 927      BINDING AFFINITY PREDICTED BY RF-SCORE:    0.00 PKD
ROOT
HETATM    1 CL   UNL     1     -11.873   6.963  71.150  1.00  0.00    -0.373 Cl 
HETATM    2  C   UNL     1     -11.019   8.398  70.524  1.00  0.00    -0.242 C  
HETATM    3  C   UNL     1      -9.522   8.126  70.427  1.00  0.00    -0.163 C  
ENDROOT
BRANCH   3   4
HETATM    4  N   UNL     1      -8.765   9.289  69.951  1.00  0.00    -0.162 N  
BRANCH   4   5
HETATM    5  N   UNL     1      -7.779   9.874  70.754  1.00  0.00    -0.394 NA 
HETATM    6  H   UNL     1      -7.989  10.348  71.633  1.00  0.00     0.000 HD 
HETATM    7  O   UNL     1      -6.632   9.765  70.307  1.00  0.00    -0.074 OA 
HETATM    8  H   UNL     1      -5.963  10.162  70.852  1.00  0.00     0.000 HD 
ENDBRANCH   4   5
BRANCH   4   9
HETATM    9  C   UNL     1      -8.912   9.686  68.624  1.00  0.00    -0.129 C  
HETATM   10  O   UNL     1      -9.490  10.728  68.313  1.00  0.00    -0.152 OA 
BRANCH   9  11
HETATM   11  N   UNL     1      -8.412   8.825  67.665  1.00  0.00    -0.124 N  
HETATM   12  H   UNL     1      -7.451   8.493  67.753  1.00  0.00     0.000 HD 
BRANCH  11  13
HETATM   13  C   UNL     1      -9.215   8.375  66.529  1.00  0.00    -0.189 C  
HETATM   14  C   UNL     1      -8.357   7.831  65.380  1.00  0.00    -0.141 C  
HETATM   15  C   UNL     1      -7.728   6.472  65.686  1.00  0.00    -0.094 C  
HETATM   16  C   UNL     1      -8.733   5.447  66.202  1.00  0.00    -0.129 C  
HETATM   17  C   UNL     1      -9.625   5.984  67.316  1.00  0.00    -0.124 C  
HETATM   18  C   UNL     1     -10.249   7.334  66.968  1.00  0.00    -0.348 C  
ENDBRANCH  11  13
ENDBRANCH   9  11
ENDBRANCH   4   9
ENDBRANCH   3   4
TORSDOF 5
ENDMDL
MODEL      293
REMARK 921   NORMALIZED FREE ENERGY PREDICTED BY IDOCK:   -2.27 KCAL/MOL
REMARK 922        TOTAL FREE ENERGY PREDICTED BY IDOCK:   -3.53 KCAL/MOL
REMARK 923 INTER-LIGAND FREE ENERGY PREDICTED BY IDOCK:   -2.94 KCAL/MOL
REMARK 924 INTRA-LIGAND FREE ENERGY PREDICTED BY IDOCK:   -0.59 KCAL/MOL
REMARK 927      BINDING AFFINITY PREDICTED BY RF-SCORE:    0.00 PKD
ROOT
HETATM    1 CL   UNL     1     -11.673   8.528  72.423  1.00  0.00    -0.447 Cl 
HETATM    2  C   UNL     1     -10.643   8.043  71.051  1.00  0.00    -0.213 C  
HETATM    3  C   UNL     1      -9.175   8.311  71.366  1.00  0.00    -0.169 C  
ENDROOT
BRANCH   3   4
HETATM    4  N   UNL     1      -8.285   7.963  70.254  1.00  0.00    -0.122 N  
BRANCH   4   5
HETATM    5  N   UNL     1      -7.624   8.963  69.531  1.00  0.00    -0.078 NA 
HETATM    6  H   UNL     1      -7.590   9.936  69.836  1.00  0.00     0.000 HD 
HETATM    7  O   UNL     1      -7.087   8.565  68.492  1.00  0.00    -0.070 OA 
HETATM    8  H   UNL     1      -6.638   9.244  68.002  1.00  0.00     0.000 HD 
ENDBRANCH   4   5
BRANCH   4   9
HETATM    9  C   UNL     1      -7.965   6.623  70.048  1.00  0.00    -0.116 C  
HETATM   10  O   UNL     1      -7.244   5.995  70.825  1.00  0.00    -0.072 OA 
BRANCH   9  11
HETATM   11  N   UNL     1      -8.465   6.040  68.899  1.00  0.00    -0.116 N  
HETATM   12  H   UNL     1      -7.984   6.202  68.014  1.00  0.00     0.000 HD 
BRANCH  11  13
HETATM   13  C   UNL     1      -9.662   5.200  68.911  1.00  0.00    -0.156 C  
HETATM   14  C   UNL     1     -10.858   5.869  68.220  1.00  0.00    -0.325 C  
HETATM   15  C   UNL     1     -10.717   5.934  66.699  1.00  0.00    -0.323 C  
HETATM   16  C   UNL     1     -10.353   4.593  66.070  1.00  0.00    -0.318 C  
HETATM   17  C   UNL     1      -9.193   3.892  66.772  1.00  0.00    -0.186 C  
HETATM   18  C   UNL     1      -9.377   3.831  68.287  1.00  0.00    -0.225 C  
ENDBRANCH  11  13
ENDBRANCH   9  11
ENDBRANCH   4   9
ENDBRANCH   3   4
TORSDOF 5
ENDMDL
MODEL      294
REMARK 921   NORMALIZED FREE ENERGY PREDICTED BY IDOCK:   -2.26 KCAL/MOL
REMARK 922        TOTAL FREE ENERGY PREDICTED BY IDOCK:   -3.52 KCAL/MOL
REMARK 923 INTER-LIGAND FREE ENERGY PREDICTED BY IDOCK:   -2.98 KCAL/MOL
REMARK 924 INTRA-LIGAND FREE ENERGY PREDICTED BY IDOCK:   -0.54 KCAL/MOL
REMARK 927      BINDING AFFINITY PREDICTED BY RF-SCORE:    0.00 PKD
ROOT
HETATM    1 CL   UNL     1     -10.027  10.117  64.096  1.00  0.00    -0.258 Cl 
HETATM    2  C   UNL     1      -9.737  10.718  65.750  1.00  0.00    -0.228 C  
HETATM    3  C   UNL     1      -8.297  11.196  65.897  1.00  0.00    -0.076 C  
ENDROOT
BRANCH   3   4
HETATM    4  N   UNL     1      -7.994  11.668  67.252  1.00  0.00    -0.149 N  
BRANCH   4   5
HETATM    5  N   UNL     1      -8.527  11.014  68.370  1.00  0.00    -0.138 NA 
HETATM    6  H   UNL     1      -8.436  10.009  68.520  1.00  0.00     0.000 HD 
HETATM    7  O   UNL     1      -9.118  11.760  69.158  1.00  0.00    -0.373 OA 
HETATM    8  H   UNL     1      -9.480  11.317  69.916  1.00  0.00     0.000 HD 
ENDBRANCH   4   5
BRANCH   4   9
HETATM    9  C   UNL     1      -7.024  12.656  67.416  1.00  0.00    -0.142 C  
HETATM   10  O   UNL     1      -5.856  12.385  67.698  1.00  0.00    -0.096 OA 
BRANCH   9  11
HETATM   11  N   UNL     1      -7.451  13.963  67.285  1.00  0.00    -0.339 N  
HETATM   12  H   UNL     1      -7.974  14.231  66.452  1.00  0.00     0.000 HD 
BRANCH  11  13
HETATM   13  C   UNL     1      -7.175  14.976  68.304  1.00  0.00    -0.112 C  
HETATM   14  C   UNL     1      -6.648  16.286  67.705  1.00  0.00    -0.173 C  
HETATM   15  C   UNL     1      -7.720  17.085  66.963  1.00  0.00    -0.219 C  
HETATM   16  C   UNL     1      -8.993  17.286  67.779  1.00  0.00    -0.234 C  
HETATM   17  C   UNL     1      -9.508  16.000  68.419  1.00  0.00    -0.207 C  
HETATM   18  C   UNL     1      -8.414  15.239  69.165  1.00  0.00    -0.234 C  
ENDBRANCH  11  13
ENDBRANCH   9  11
ENDBRANCH   4   9
ENDBRANCH   3   4
TORSDOF 5
ENDMDL
MODEL      295
REMARK 921   NORMALIZED FREE ENERGY PREDICTED BY IDOCK:   -2.26 KCAL/MOL
REMARK 922        TOTAL FREE ENERGY PREDICTED BY IDOCK:   -3.51 KCAL/MOL
REMARK 923 INTER-LIGAND FREE ENERGY PREDICTED BY IDOCK:   -3.46 KCAL/MOL
REMARK 924 INTRA-LIGAND FREE ENERGY PREDICTED BY IDOCK:   -0.05 KCAL/MOL
REMARK 927      BINDING AFFINITY PREDICTED BY RF-SCORE:    0.00 PKD
ROOT
HETATM    1 CL   UNL     1      -7.687   6.415  65.071  1.00  0.00    -0.092 Cl 
HETATM    2  C   UNL     1      -7.838   7.798  66.187  1.00  0.00    -0.095 C  
HETATM    3  C   UNL     1      -9.306   8.090  66.477  1.00  0.00    -0.205 C  
ENDROOT
BRANCH   3   4
HETATM    4  N   UNL     1      -9.489   9.244  67.363  1.00  0.00    -0.130 N  
BRANCH   4   5
HETATM    5  N   UNL     1     -10.120   9.096  68.604  1.00  0.00    -0.188 NA 
HETATM    6  H   UNL     1      -9.833   9.611  69.437  1.00  0.00     0.000 HD 
HETATM    7  O   UNL     1     -11.054   8.287  68.603  1.00  0.00    -0.414 OA 
HETATM    8  H   UNL     1     -11.482   8.187  69.445  1.00  0.00     0.000 HD 
ENDBRANCH   4   5
BRANCH   4   9
HETATM    9  C   UNL     1      -8.865  10.445  67.034  1.00  0.00    -0.136 C  
HETATM   10  O   UNL     1      -7.719  10.710  67.403  1.00  0.00    -0.103 OA 
BRANCH   9  11
HETATM   11  N   UNL     1      -9.613  11.348  66.304  1.00  0.00    -0.207 N  
HETATM   12  H   UNL     1     -10.315  10.995  65.653  1.00  0.00     0.000 HD 
BRANCH  11  13
HETATM   13  C   UNL     1      -9.432  12.793  66.434  1.00  0.00    -0.229 C  
HETATM   14  C   UNL     1     -10.353  13.589  65.500  1.00  0.00    -0.309 C  
HETATM   15  C   UNL     1     -11.818  13.567  65.934  1.00  0.00    -0.405 C  
HETATM   16  C   UNL     1     -12.017  13.932  67.401  1.00  0.00    -0.436 C  
HETATM   17  C   UNL     1     -11.078  13.183  68.342  1.00  0.00    -0.298 C  
HETATM   18  C   UNL     1      -9.622  13.241  67.886  1.00  0.00    -0.217 C  
ENDBRANCH  11  13
ENDBRANCH   9  11
ENDBRANCH   4   9
ENDBRANCH   3   4
TORSDOF 5
ENDMDL
MODEL      296
REMARK 921   NORMALIZED FREE ENERGY PREDICTED BY IDOCK:   -2.25 KCAL/MOL
REMARK 922        TOTAL FREE ENERGY PREDICTED BY IDOCK:   -3.50 KCAL/MOL
REMARK 923 INTER-LIGAND FREE ENERGY PREDICTED BY IDOCK:   -2.86 KCAL/MOL
REMARK 924 INTRA-LIGAND FREE ENERGY PREDICTED BY IDOCK:   -0.63 KCAL/MOL
REMARK 927      BINDING AFFINITY PREDICTED BY RF-SCORE:    0.00 PKD
ROOT
HETATM    1 CL   UNL     1     -10.671  10.115  67.079  1.00  0.00    -0.291 Cl 
HETATM    2  C   UNL     1      -9.783   9.088  68.235  1.00  0.00    -0.152 C  
HETATM    3  C   UNL     1     -10.535   9.005  69.559  1.00  0.00    -0.219 C  
ENDROOT
BRANCH   3   4
HETATM    4  N   UNL     1      -9.828   8.201  70.561  1.00  0.00    -0.185 N  
BRANCH   4   5
HETATM    5  N   UNL     1      -8.933   8.801  71.454  1.00  0.00    -0.220 NA 
HETATM    6  H   UNL     1      -8.083   9.277  71.151  1.00  0.00     0.000 HD 
HETATM    7  O   UNL     1      -9.262   8.706  72.642  1.00  0.00    -0.299 OA 
HETATM    8  H   UNL     1      -8.656   9.113  73.248  1.00  0.00     0.000 HD 
ENDBRANCH   4   5
BRANCH   4   9
HETATM    9  C   UNL     1     -10.198   6.868  70.731  1.00  0.00    -0.195 C  
HETATM   10  O   UNL     1     -11.129   6.536  71.467  1.00  0.00    -0.245 OA 
BRANCH   9  11
HETATM   11  N   UNL     1      -9.438   5.928  70.061  1.00  0.00    -0.156 N  
HETATM   12  H   UNL     1      -8.437   5.878  70.250  1.00  0.00     0.000 HD 
BRANCH  11  13
HETATM   13  C   UNL     1     -10.023   5.005  69.090  1.00  0.00    -0.196 C  
HETATM   14  C   UNL     1      -9.989   5.555  67.659  1.00  0.00    -0.187 C  
HETATM   15  C   UNL     1      -8.587   5.569  67.050  1.00  0.00    -0.109 C  
HETATM   16  C   UNL     1      -7.862   4.233  67.180  1.00  0.00    -0.096 C  
HETATM   17  C   UNL     1      -7.923   3.648  68.588  1.00  0.00    -0.069 C  
HETATM   18  C   UNL     1      -9.340   3.635  69.156  1.00  0.00    -0.244 C  
ENDBRANCH  11  13
ENDBRANCH   9  11
ENDBRANCH   4   9
ENDBRANCH   3   4
TORSDOF 5
ENDMDL
MODEL      297
REMARK 921   NORMALIZED FREE ENERGY PREDICTED BY IDOCK:   -2.24 KCAL/MOL
REMARK 922        TOTAL FREE ENERGY PREDICTED BY IDOCK:   -3.48 KCAL/MOL
REMARK 923 INTER-LIGAND FREE ENERGY PREDICTED BY IDOCK:   -2.93 KCAL/MOL
REMARK 924 INTRA-LIGAND FREE ENERGY PREDICTED BY IDOCK:   -0.55 KCAL/MOL
REMARK 927      BINDING AFFINITY PREDICTED BY RF-SCORE:    0.00 PKD
ROOT
HETATM    1 CL   UNL     1     -12.657  12.536  64.729  1.00  0.00    -0.554 Cl 
HETATM    2  C   UNL     1     -11.969  12.855  66.343  1.00  0.00    -0.395 C  
HETATM    3  C   UNL     1     -10.477  12.544  66.356  1.00  0.00    -0.247 C  
ENDROOT
BRANCH   3   4
HETATM    4  N   UNL     1      -9.867  12.755  67.673  1.00  0.00    -0.209 N  
BRANCH   4   5
HETATM    5  N   UNL     1      -9.953  14.000  68.307  1.00  0.00    -0.231 NA 
HETATM    6  H   UNL     1      -9.601  14.861  67.888  1.00  0.00     0.000 HD 
HETATM    7  O   UNL     1     -10.493  13.966  69.418  1.00  0.00    -0.435 OA 
HETATM    8  H   UNL     1     -10.552  14.811  69.848  1.00  0.00     0.000 HD 
ENDBRANCH   4   5
BRANCH   4   9
HETATM    9  C   UNL     1      -9.364  11.653  68.362  1.00  0.00    -0.191 C  
HETATM   10  O   UNL     1      -9.968  11.138  69.304  1.00  0.00    -0.139 OA 
BRANCH   9  11
HETATM   11  N   UNL     1      -8.126  11.188  67.959  1.00  0.00    -0.118 N  
HETATM   12  H   UNL     1      -7.515  11.808  67.428  1.00  0.00     0.000 HD 
BRANCH  11  13
HETATM   13  C   UNL     1      -7.665   9.836  68.270  1.00  0.00    -0.085 C  
HETATM   14  C   UNL     1      -8.030   8.823  67.178  1.00  0.00    -0.096 C  
HETATM   15  C   UNL     1      -7.206   8.988  65.901  1.00  0.00    -0.093 C  
HETATM   16  C   UNL     1      -5.704   9.056  66.158  1.00  0.00    -0.053 C  
HETATM   17  C   UNL     1      -5.325  10.026  67.273  1.00  0.00    -0.041 C  
HETATM   18  C   UNL     1      -6.157   9.819  68.537  1.00  0.00    -0.042 C  
ENDBRANCH  11  13
ENDBRANCH   9  11
ENDBRANCH   4   9
ENDBRANCH   3   4
TORSDOF 5
ENDMDL
MODEL      298
REMARK 921   NORMALIZED FREE ENERGY PREDICTED BY IDOCK:   -2.23 KCAL/MOL
REMARK 922        TOTAL FREE ENERGY PREDICTED BY IDOCK:   -3.48 KCAL/MOL
REMARK 923 INTER-LIGAND FREE ENERGY PREDICTED BY IDOCK:   -2.91 KCAL/MOL
REMARK 924 INTRA-LIGAND FREE ENERGY PREDICTED BY IDOCK:   -0.57 KCAL/MOL
REMARK 927      BINDING AFFINITY PREDICTED BY RF-SCORE:    0.00 PKD
ROOT
HETATM    1 CL   UNL     1      -6.597   4.385  66.231  1.00  0.00    -0.044 Cl 
HETATM    2  C   UNL     1      -8.120   5.288  66.438  1.00  0.00    -0.108 C  
HETATM    3  C   UNL     1      -8.208   5.868  67.846  1.00  0.00    -0.108 C  
ENDROOT
BRANCH   3   4
HETATM    4  N   UNL     1      -9.461   6.592  68.082  1.00  0.00    -0.116 N  
BRANCH   4   5
HETATM    5  N   UNL     1     -10.695   5.956  67.904  1.00  0.00    -0.263 NA 
HETATM    6  H   UNL     1     -10.811   5.123  67.326  1.00  0.00     0.000 HD 
HETATM    7  O   UNL     1     -11.632   6.490  68.506  1.00  0.00    -0.539 OA 
HETATM    8  H   UNL     1     -12.470   6.059  68.385  1.00  0.00     0.000 HD 
ENDBRANCH   4   5
BRANCH   4   9
HETATM    9  C   UNL     1      -9.404   7.857  68.663  1.00  0.00    -0.145 C  
HETATM   10  O   UNL     1      -8.984   8.033  69.807  1.00  0.00    -0.143 OA 
BRANCH   9  11
HETATM   11  N   UNL     1      -9.883   8.906  67.901  1.00  0.00    -0.161 N  
HETATM   12  H   UNL     1     -10.507   8.704  67.120  1.00  0.00     0.000 HD 
BRANCH  11  13
HETATM   13  C   UNL     1      -9.523  10.296  68.178  1.00  0.00    -0.147 C  
HETATM   14  C   UNL     1      -8.577  10.882  67.122  1.00  0.00    -0.130 C  
HETATM   15  C   UNL     1      -9.261  11.152  65.782  1.00  0.00    -0.234 C  
HETATM   16  C   UNL     1     -10.554  11.951  65.917  1.00  0.00    -0.306 C  
HETATM   17  C   UNL     1     -11.489  11.409  66.994  1.00  0.00    -0.234 C  
HETATM   18  C   UNL     1     -10.775  11.167  68.322  1.00  0.00    -0.234 C  
ENDBRANCH  11  13
ENDBRANCH   9  11
ENDBRANCH   4   9
ENDBRANCH   3   4
TORSDOF 5
ENDMDL
MODEL      299
REMARK 921   NORMALIZED FREE ENERGY PREDICTED BY IDOCK:   -2.23 KCAL/MOL
REMARK 922        TOTAL FREE ENERGY PREDICTED BY IDOCK:   -3.47 KCAL/MOL
REMARK 923 INTER-LIGAND FREE ENERGY PREDICTED BY IDOCK:   -2.88 KCAL/MOL
REMARK 924 INTRA-LIGAND FREE ENERGY PREDICTED BY IDOCK:   -0.59 KCAL/MOL
REMARK 927      BINDING AFFINITY PREDICTED BY RF-SCORE:    0.00 PKD
ROOT
HETATM    1 CL   UNL     1      -5.614  12.321  70.680  1.00  0.00    -0.165 Cl 
HETATM    2  C   UNL     1      -6.175  11.117  69.490  1.00  0.00    -0.091 C  
HETATM    3  C   UNL     1      -7.643  11.349  69.149  1.00  0.00    -0.038 C  
ENDROOT
BRANCH   3   4
HETATM    4  N   UNL     1      -8.166  10.362  68.200  1.00  0.00    -0.113 N  
BRANCH   4   5
HETATM    5  N   UNL     1      -8.834   9.219  68.657  1.00  0.00    -0.131 NA 
HETATM    6  H   UNL     1      -8.390   8.517  69.250  1.00  0.00     0.000 HD 
HETATM    7  O   UNL     1     -10.007   9.134  68.280  1.00  0.00    -0.163 OA 
HETATM    8  H   UNL     1     -10.460   8.359  68.589  1.00  0.00     0.000 HD 
ENDBRANCH   4   5
BRANCH   4   9
HETATM    9  C   UNL     1      -8.152  10.667  66.841  1.00  0.00    -0.124 C  
HETATM   10  O   UNL     1      -7.155  10.488  66.140  1.00  0.00    -0.122 OA 
BRANCH   9  11
HETATM   11  N   UNL     1      -9.307  11.223  66.323  1.00  0.00    -0.200 N  
HETATM   12  H   UNL     1     -10.187  10.720  66.430  1.00  0.00     0.000 HD 
BRANCH  11  13
HETATM   13  C   UNL     1      -9.306  12.510  65.629  1.00  0.00     0.090 C  
HETATM   14  C   UNL     1     -10.393  12.597  64.549  1.00  0.00    -0.369 C  
HETATM   15  C   UNL     1     -11.805  12.719  65.121  1.00  0.00    -0.428 C  
HETATM   16  C   UNL     1     -11.935  13.817  66.172  1.00  0.00    -0.449 C  
HETATM   17  C   UNL     1     -10.837  13.773  67.230  1.00  0.00    -0.292 C  
HETATM   18  C   UNL     1      -9.440  13.669  66.621  1.00  0.00    -0.285 C  
ENDBRANCH  11  13
ENDBRANCH   9  11
ENDBRANCH   4   9
ENDBRANCH   3   4
TORSDOF 5
ENDMDL
MODEL      300
REMARK 921   NORMALIZED FREE ENERGY PREDICTED BY IDOCK:   -2.22 KCAL/MOL
REMARK 922        TOTAL FREE ENERGY PREDICTED BY IDOCK:   -3.46 KCAL/MOL
REMARK 923 INTER-LIGAND FREE ENERGY PREDICTED BY IDOCK:   -2.90 KCAL/MOL
REMARK 924 INTRA-LIGAND FREE ENERGY PREDICTED BY IDOCK:   -0.56 KCAL/MOL
REMARK 927      BINDING AFFINITY PREDICTED BY RF-SCORE:    0.00 PKD
ROOT
HETATM    1 CL   UNL     1      -8.230  13.331  68.307  1.00  0.00    -0.154 Cl 
HETATM    2  C   UNL     1      -8.638  11.827  67.441  1.00  0.00    -0.160 C  
HETATM    3  C   UNL     1      -9.941  11.242  67.974  1.00  0.00    -0.179 C  
ENDROOT
BRANCH   3   4
HETATM    4  N   UNL     1     -10.305   9.981  67.320  1.00  0.00    -0.222 N  
BRANCH   4   5
HETATM    5  N   UNL     1     -11.027   9.002  68.013  1.00  0.00    -0.492 NA 
HETATM    6  H   UNL     1     -12.003   9.120  68.283  1.00  0.00     0.000 HD 
HETATM    7  O   UNL     1     -10.377   7.982  68.269  1.00  0.00    -0.201 OA 
HETATM    8  H   UNL     1     -10.866   7.317  68.739  1.00  0.00     0.000 HD 
ENDBRANCH   4   5
BRANCH   4   9
HETATM    9  C   UNL     1     -10.086   9.850  65.950  1.00  0.00    -0.245 C  
HETATM   10  O   UNL     1     -10.527  10.663  65.136  1.00  0.00    -0.280 OA 
BRANCH   9  11
HETATM   11  N   UNL     1      -9.378   8.735  65.544  1.00  0.00    -0.428 N  
HETATM   12  H   UNL     1      -9.862   8.008  65.018  1.00  0.00     0.000 HD 
BRANCH  11  13
HETATM   13  C   UNL     1      -7.957   8.564  65.845  1.00  0.00    -0.105 C  
HETATM   14  C   UNL     1      -7.469   7.133  65.588  1.00  0.00    -0.082 C  
HETATM   15  C   UNL     1      -7.366   6.787  64.103  1.00  0.00    -0.085 C  
HETATM   16  C   UNL     1      -6.590   7.823  63.296  1.00  0.00    -0.067 C  
HETATM   17  C   UNL     1      -7.032   9.257  63.571  1.00  0.00    -0.091 C  
HETATM   18  C   UNL     1      -7.107   9.571  65.064  1.00  0.00    -0.109 C  
ENDBRANCH  11  13
ENDBRANCH   9  11
ENDBRANCH   4   9
ENDBRANCH   3   4
TORSDOF 5
ENDMDL
MODEL      301
REMARK 921   NORMALIZED FREE ENERGY PREDICTED BY IDOCK:   -2.21 KCAL/MOL
REMARK 922        TOTAL FREE ENERGY PREDICTED BY IDOCK:   -3.45 KCAL/MOL
REMARK 923 INTER-LIGAND FREE ENERGY PREDICTED BY IDOCK:   -3.18 KCAL/MOL
REMARK 924 INTRA-LIGAND FREE ENERGY PREDICTED BY IDOCK:   -0.28 KCAL/MOL
REMARK 927      BINDING AFFINITY PREDICTED BY RF-SCORE:    0.00 PKD
ROOT
HETATM    1 CL   UNL     1      -6.414   4.738  63.282  1.00  0.00    -0.026 Cl 
HETATM    2  C   UNL     1      -7.738   3.886  64.120  1.00  0.00    -0.083 C  
HETATM    3  C   UNL     1      -8.890   4.843  64.406  1.00  0.00    -0.119 C  
ENDROOT
BRANCH   3   4
HETATM    4  N   UNL     1      -9.993   4.201  65.129  1.00  0.00    -0.204 N  
BRANCH   4   5
HETATM    5  N   UNL     1     -11.047   3.601  64.430  1.00  0.00    -0.635 NA 
HETATM    6  H   UNL     1     -11.845   3.169  64.896  1.00  0.00     0.000 HD 
HETATM    7  O   UNL     1     -10.927   3.640  63.201  1.00  0.00    -0.180 OA 
HETATM    8  H   UNL     1     -11.642   3.233  62.727  1.00  0.00     0.000 HD 
ENDBRANCH   4   5
BRANCH   4   9
HETATM    9  C   UNL     1      -9.883   4.036  66.508  1.00  0.00    -0.152 C  
HETATM   10  O   UNL     1      -9.502   2.978  67.011  1.00  0.00    -0.163 OA 
BRANCH   9  11
HETATM   11  N   UNL     1     -10.263   5.111  67.288  1.00  0.00    -0.198 N  
HETATM   12  H   UNL     1     -11.183   5.526  67.142  1.00  0.00     0.000 HD 
BRANCH  11  13
HETATM   13  C   UNL     1      -9.389   5.672  68.318  1.00  0.00    -0.112 C  
HETATM   14  C   UNL     1      -9.082   7.157  68.085  1.00  0.00    -0.133 C  
HETATM   15  C   UNL     1     -10.274   8.071  68.365  1.00  0.00    -0.239 C  
HETATM   16  C   UNL     1     -10.924   7.814  69.721  1.00  0.00    -0.162 C  
HETATM   17  C   UNL     1     -11.197   6.337  69.989  1.00  0.00    -0.480 C  
HETATM   18  C   UNL     1      -9.979   5.457  69.715  1.00  0.00    -0.294 C  
ENDBRANCH  11  13
ENDBRANCH   9  11
ENDBRANCH   4   9
ENDBRANCH   3   4
TORSDOF 5
ENDMDL
MODEL      302
REMARK 921   NORMALIZED FREE ENERGY PREDICTED BY IDOCK:   -2.21 KCAL/MOL
REMARK 922        TOTAL FREE ENERGY PREDICTED BY IDOCK:   -3.45 KCAL/MOL
REMARK 923 INTER-LIGAND FREE ENERGY PREDICTED BY IDOCK:   -3.08 KCAL/MOL
REMARK 924 INTRA-LIGAND FREE ENERGY PREDICTED BY IDOCK:   -0.37 KCAL/MOL
REMARK 927      BINDING AFFINITY PREDICTED BY RF-SCORE:    0.00 PKD
ROOT
HETATM    1 CL   UNL     1      -8.321   4.480  66.777  1.00  0.00    -0.106 Cl 
HETATM    2  C   UNL     1      -8.848   6.023  66.058  1.00  0.00    -0.153 C  
HETATM    3  C   UNL     1      -7.782   7.095  66.255  1.00  0.00    -0.100 C  
ENDROOT
BRANCH   3   4
HETATM    4  N   UNL     1      -8.181   8.398  65.713  1.00  0.00    -0.123 N  
BRANCH   4   5
HETATM    5  N   UNL     1      -9.041   8.477  64.611  1.00  0.00    -0.339 NA 
HETATM    6  H   UNL     1      -9.760   7.779  64.418  1.00  0.00     0.000 HD 
HETATM    7  O   UNL     1      -8.853   9.464  63.893  1.00  0.00    -0.270 OA 
HETATM    8  H   UNL     1      -9.437   9.518  63.145  1.00  0.00     0.000 HD 
ENDBRANCH   4   5
BRANCH   4   9
HETATM    9  C   UNL     1      -7.842   9.549  66.421  1.00  0.00    -0.097 C  
HETATM   10  O   UNL     1      -6.804  10.174  66.195  1.00  0.00    -0.095 OA 
BRANCH   9  11
HETATM   11  N   UNL     1      -8.713   9.935  67.421  1.00  0.00    -0.128 N  
HETATM   12  H   UNL     1      -8.466  10.728  68.012  1.00  0.00     0.000 HD 
BRANCH  11  13
HETATM   13  C   UNL     1      -9.978   9.241  67.660  1.00  0.00    -0.196 C  
HETATM   14  C   UNL     1      -9.976   8.447  68.973  1.00  0.00    -0.194 C  
HETATM   15  C   UNL     1     -10.037   9.334  70.216  1.00  0.00    -0.262 C  
HETATM   16  C   UNL     1     -11.155  10.370  70.162  1.00  0.00    -0.383 C  
HETATM   17  C   UNL     1     -11.200  11.140  68.845  1.00  0.00    -0.317 C  
HETATM   18  C   UNL     1     -11.156  10.221  67.627  1.00  0.00    -0.319 C  
ENDBRANCH  11  13
ENDBRANCH   9  11
ENDBRANCH   4   9
ENDBRANCH   3   4
TORSDOF 5
ENDMDL
MODEL      303
REMARK 921   NORMALIZED FREE ENERGY PREDICTED BY IDOCK:   -2.20 KCAL/MOL
REMARK 922        TOTAL FREE ENERGY PREDICTED BY IDOCK:   -3.44 KCAL/MOL
REMARK 923 INTER-LIGAND FREE ENERGY PREDICTED BY IDOCK:   -3.16 KCAL/MOL
REMARK 924 INTRA-LIGAND FREE ENERGY PREDICTED BY IDOCK:   -0.28 KCAL/MOL
REMARK 927      BINDING AFFINITY PREDICTED BY RF-SCORE:    0.00 PKD
ROOT
HETATM    1 CL   UNL     1     -11.396  11.828  67.551  1.00  0.00    -0.358 Cl 
HETATM    2  C   UNL     1     -10.956  10.188  67.009  1.00  0.00    -0.092 C  
HETATM    3  C   UNL     1     -10.781   9.260  68.207  1.00  0.00    -0.145 C  
ENDROOT
BRANCH   3   4
HETATM    4  N   UNL     1     -10.382   7.904  67.818  1.00  0.00    -0.218 N  
BRANCH   4   5
HETATM    5  N   UNL     1      -9.799   7.663  66.568  1.00  0.00    -0.384 NA 
HETATM    6  H   UNL     1      -9.318   8.386  66.033  1.00  0.00     0.000 HD 
HETATM    7  O   UNL     1      -9.918   6.500  66.170  1.00  0.00    -0.407 OA 
HETATM    8  H   UNL     1      -9.523   6.336  65.322  1.00  0.00     0.000 HD 
ENDBRANCH   4   5
BRANCH   4   9
HETATM    9  C   UNL     1     -10.421   6.894  68.778  1.00  0.00    -0.205 C  
HETATM   10  O   UNL     1     -11.468   6.325  69.087  1.00  0.00    -0.394 OA 
BRANCH   9  11
HETATM   11  N   UNL     1      -9.225   6.591  69.400  1.00  0.00    -0.144 N  
HETATM   12  H   UNL     1      -8.423   6.329  68.827  1.00  0.00     0.000 HD 
BRANCH  11  13
HETATM   13  C   UNL     1      -9.072   6.634  70.854  1.00  0.00    -0.154 C  
HETATM   14  C   UNL     1      -9.922   5.574  71.567  1.00  0.00    -0.229 C  
HETATM   15  C   UNL     1      -9.390   4.152  71.387  1.00  0.00    -0.211 C  
HETATM   16  C   UNL     1      -7.904   4.021  71.704  1.00  0.00    -0.070 C  
HETATM   17  C   UNL     1      -7.048   5.094  71.039  1.00  0.00    -0.059 C  
HETATM   18  C   UNL     1      -7.600   6.501  71.255  1.00  0.00    -0.094 C  
ENDBRANCH  11  13
ENDBRANCH   9  11
ENDBRANCH   4   9
ENDBRANCH   3   4
TORSDOF 5
ENDMDL
MODEL      304
REMARK 921   NORMALIZED FREE ENERGY PREDICTED BY IDOCK:   -2.20 KCAL/MOL
REMARK 922        TOTAL FREE ENERGY PREDICTED BY IDOCK:   -3.44 KCAL/MOL
REMARK 923 INTER-LIGAND FREE ENERGY PREDICTED BY IDOCK:   -3.00 KCAL/MOL
REMARK 924 INTRA-LIGAND FREE ENERGY PREDICTED BY IDOCK:   -0.44 KCAL/MOL
REMARK 927      BINDING AFFINITY PREDICTED BY RF-SCORE:    0.00 PKD
ROOT
HETATM    1 CL   UNL     1     -10.635   9.996  66.778  1.00  0.00    -0.262 Cl 
HETATM    2  C   UNL     1      -9.467   8.697  67.137  1.00  0.00    -0.160 C  
HETATM    3  C   UNL     1      -9.039   8.755  68.599  1.00  0.00    -0.141 C  
ENDROOT
BRANCH   3   4
HETATM    4  N   UNL     1      -8.048   7.729  68.940  1.00  0.00    -0.124 N  
BRANCH   4   5
HETATM    5  N   UNL     1      -6.692   8.057  69.047  1.00  0.00    -0.051 NA 
HETATM    6  H   UNL     1      -6.197   8.086  69.938  1.00  0.00     0.000 HD 
HETATM    7  O   UNL     1      -6.146   8.309  67.967  1.00  0.00    -0.045 OA 
HETATM    8  H   UNL     1      -5.225   8.531  68.039  1.00  0.00     0.000 HD 
ENDBRANCH   4   5
BRANCH   4   9
HETATM    9  C   UNL     1      -8.497   6.470  69.335  1.00  0.00    -0.127 C  
HETATM   10  O   UNL     1      -7.800   5.461  69.220  1.00  0.00    -0.086 OA 
BRANCH   9  11
HETATM   11  N   UNL     1      -9.786   6.404  69.828  1.00  0.00    -0.163 N  
HETATM   12  H   UNL     1     -10.568   6.532  69.185  1.00  0.00     0.000 HD 
BRANCH  11  13
HETATM   13  C   UNL     1     -10.066   6.155  71.241  1.00  0.00    -0.188 C  
HETATM   14  C   UNL     1      -9.365   7.159  72.166  1.00  0.00    -0.148 C  
HETATM   15  C   UNL     1      -9.982   8.556  72.119  1.00  0.00    -0.387 C  
HETATM   16  C   UNL     1     -11.496   8.553  72.301  1.00  0.00    -0.445 C  
HETATM   17  C   UNL     1     -12.207   7.529  71.421  1.00  0.00    -0.363 C  
HETATM   18  C   UNL     1     -11.575   6.142  71.507  1.00  0.00    -0.304 C  
ENDBRANCH  11  13
ENDBRANCH   9  11
ENDBRANCH   4   9
ENDBRANCH   3   4
TORSDOF 5
ENDMDL
MODEL      305
REMARK 921   NORMALIZED FREE ENERGY PREDICTED BY IDOCK:   -2.19 KCAL/MOL
REMARK 922        TOTAL FREE ENERGY PREDICTED BY IDOCK:   -3.43 KCAL/MOL
REMARK 923 INTER-LIGAND FREE ENERGY PREDICTED BY IDOCK:   -2.95 KCAL/MOL
REMARK 924 INTRA-LIGAND FREE ENERGY PREDICTED BY IDOCK:   -0.48 KCAL/MOL
REMARK 927      BINDING AFFINITY PREDICTED BY RF-SCORE:    0.00 PKD
ROOT
HETATM    1 CL   UNL     1      -8.393   3.701  66.169  1.00  0.00    -0.101 Cl 
HETATM    2  C   UNL     1      -9.268   5.174  66.662  1.00  0.00    -0.129 C  
HETATM    3  C   UNL     1      -8.802   5.636  68.038  1.00  0.00    -0.105 C  
ENDROOT
BRANCH   3   4
HETATM    4  N   UNL     1      -9.518   6.826  68.508  1.00  0.00    -0.132 N  
BRANCH   4   5
HETATM    5  N   UNL     1      -9.222   8.089  67.983  1.00  0.00    -0.136 NA 
HETATM    6  H   UNL     1      -9.639   8.443  67.121  1.00  0.00     0.000 HD 
HETATM    7  O   UNL     1      -8.412   8.738  68.653  1.00  0.00    -0.127 OA 
HETATM    8  H   UNL     1      -8.210   9.595  68.296  1.00  0.00     0.000 HD 
ENDBRANCH   4   5
BRANCH   4   9
HETATM    9  C   UNL     1     -10.619   6.657  69.346  1.00  0.00    -0.240 C  
HETATM   10  O   UNL     1     -11.650   6.099  68.967  1.00  0.00    -0.236 OA 
BRANCH   9  11
HETATM   11  N   UNL     1     -10.511   7.186  70.618  1.00  0.00    -0.208 N  
HETATM   12  H   UNL     1     -10.071   8.098  70.737  1.00  0.00     0.000 HD 
BRANCH  11  13
HETATM   13  C   UNL     1     -11.008   6.480  71.798  1.00  0.00    -0.247 C  
HETATM   14  C   UNL     1     -10.237   5.183  72.077  1.00  0.00    -0.260 C  
HETATM   15  C   UNL     1      -8.825   5.423  72.610  1.00  0.00    -0.123 C  
HETATM   16  C   UNL     1      -8.782   6.393  73.787  1.00  0.00    -0.132 C  
HETATM   17  C   UNL     1      -9.582   7.670  73.545  1.00  0.00    -0.348 C  
HETATM   18  C   UNL     1     -10.992   7.391  73.029  1.00  0.00    -0.422 C  
ENDBRANCH  11  13
ENDBRANCH   9  11
ENDBRANCH   4   9
ENDBRANCH   3   4
TORSDOF 5
ENDMDL
MODEL      306
REMARK 921   NORMALIZED FREE ENERGY PREDICTED BY IDOCK:   -2.16 KCAL/MOL
REMARK 922        TOTAL FREE ENERGY PREDICTED BY IDOCK:   -3.39 KCAL/MOL
REMARK 923 INTER-LIGAND FREE ENERGY PREDICTED BY IDOCK:   -2.83 KCAL/MOL
REMARK 924 INTRA-LIGAND FREE ENERGY PREDICTED BY IDOCK:   -0.56 KCAL/MOL
REMARK 927      BINDING AFFINITY PREDICTED BY RF-SCORE:    0.00 PKD
ROOT
HETATM    1 CL   UNL     1     -11.553   6.237  70.813  1.00  0.00    -0.393 Cl 
HETATM    2  C   UNL     1     -10.638   5.545  69.447  1.00  0.00    -0.279 C  
HETATM    3  C   UNL     1     -10.839   6.386  68.191  1.00  0.00    -0.308 C  
ENDROOT
BRANCH   3   4
HETATM    4  N   UNL     1     -10.137   5.840  67.026  1.00  0.00    -0.166 N  
BRANCH   4   5
HETATM    5  N   UNL     1     -10.490   4.589  66.504  1.00  0.00    -0.321 NA 
HETATM    6  H   UNL     1     -10.462   3.731  67.054  1.00  0.00     0.000 HD 
HETATM    7  O   UNL     1     -10.838   4.616  65.318  1.00  0.00    -0.555 OA 
HETATM    8  H   UNL     1     -11.077   3.768  64.964  1.00  0.00     0.000 HD 
ENDBRANCH   4   5
BRANCH   4   9
HETATM    9  C   UNL     1      -9.245   6.659  66.337  1.00  0.00    -0.151 C  
HETATM   10  O   UNL     1      -9.393   7.880  66.276  1.00  0.00    -0.188 OA 
BRANCH   9  11
HETATM   11  N   UNL     1      -8.203   6.025  65.688  1.00  0.00    -0.133 N  
HETATM   12  H   UNL     1      -7.656   5.330  66.195  1.00  0.00     0.000 HD 
BRANCH  11  13
HETATM   13  C   UNL     1      -7.860   6.320  64.297  1.00  0.00    -0.115 C  
HETATM   14  C   UNL     1      -6.406   6.783  64.134  1.00  0.00    -0.035 C  
HETATM   15  C   UNL     1      -5.389   5.658  64.321  1.00  0.00    -0.013 C  
HETATM   16  C   UNL     1      -5.704   4.418  63.490  1.00  0.00    -0.017 C  
HETATM   17  C   UNL     1      -7.158   3.968  63.604  1.00  0.00    -0.049 C  
HETATM   18  C   UNL     1      -8.144   5.115  63.395  1.00  0.00    -0.107 C  
ENDBRANCH  11  13
ENDBRANCH   9  11
ENDBRANCH   4   9
ENDBRANCH   3   4
TORSDOF 5
ENDMDL
MODEL      307
REMARK 921   NORMALIZED FREE ENERGY PREDICTED BY IDOCK:   -2.16 KCAL/MOL
REMARK 922        TOTAL FREE ENERGY PREDICTED BY IDOCK:   -3.38 KCAL/MOL
REMARK 923 INTER-LIGAND FREE ENERGY PREDICTED BY IDOCK:   -2.97 KCAL/MOL
REMARK 924 INTRA-LIGAND FREE ENERGY PREDICTED BY IDOCK:   -0.41 KCAL/MOL
REMARK 927      BINDING AFFINITY PREDICTED BY RF-SCORE:    0.00 PKD
ROOT
HETATM    1 CL   UNL     1     -12.123   8.286  72.574  1.00  0.00    -0.439 Cl 
HETATM    2  C   UNL     1     -10.720   8.323  71.474  1.00  0.00    -0.235 C  
HETATM    3  C   UNL     1      -9.419   8.259  72.267  1.00  0.00    -0.271 C  
ENDROOT
BRANCH   3   4
HETATM    4  N   UNL     1      -8.231   8.324  71.411  1.00  0.00    -0.119 N  
BRANCH   4   5
HETATM    5  N   UNL     1      -7.108   9.061  71.806  1.00  0.00    -0.306 NA 
HETATM    6  H   UNL     1      -7.146   9.789  72.519  1.00  0.00     0.000 HD 
HETATM    7  O   UNL     1      -6.068   8.754  71.214  1.00  0.00    -0.041 OA 
HETATM    8  H   UNL     1      -5.306   9.255  71.482  1.00  0.00     0.000 HD 
ENDBRANCH   4   5
BRANCH   4   9
HETATM    9  C   UNL     1      -8.165   7.494  70.294  1.00  0.00    -0.128 C  
HETATM   10  O   UNL     1      -7.623   6.389  70.330  1.00  0.00    -0.092 OA 
BRANCH   9  11
HETATM   11  N   UNL     1      -8.707   7.994  69.124  1.00  0.00    -0.137 N  
HETATM   12  H   UNL     1      -9.485   7.498  68.690  1.00  0.00     0.000 HD 
BRANCH  11  13
HETATM   13  C   UNL     1      -8.199   9.210  68.490  1.00  0.00    -0.115 C  
HETATM   14  C   UNL     1      -7.787   8.985  67.030  1.00  0.00    -0.098 C  
HETATM   15  C   UNL     1      -8.977   8.793  66.090  1.00  0.00    -0.225 C  
HETATM   16  C   UNL     1     -10.042   9.876  66.238  1.00  0.00    -0.311 C  
HETATM   17  C   UNL     1     -10.431  10.145  67.688  1.00  0.00    -0.293 C  
HETATM   18  C   UNL     1      -9.218  10.348  68.593  1.00  0.00    -0.164 C  
ENDBRANCH  11  13
ENDBRANCH   9  11
ENDBRANCH   4   9
ENDBRANCH   3   4
TORSDOF 5
ENDMDL
MODEL      308
REMARK 921   NORMALIZED FREE ENERGY PREDICTED BY IDOCK:   -2.15 KCAL/MOL
REMARK 922        TOTAL FREE ENERGY PREDICTED BY IDOCK:   -3.37 KCAL/MOL
REMARK 923 INTER-LIGAND FREE ENERGY PREDICTED BY IDOCK:   -3.34 KCAL/MOL
REMARK 924 INTRA-LIGAND FREE ENERGY PREDICTED BY IDOCK:   -0.03 KCAL/MOL
REMARK 927      BINDING AFFINITY PREDICTED BY RF-SCORE:    0.00 PKD
ROOT
HETATM    1 CL   UNL     1      -8.882   6.265  66.429  1.00  0.00    -0.139 Cl 
HETATM    2  C   UNL     1      -8.348   7.749  65.598  1.00  0.00    -0.139 C  
HETATM    3  C   UNL     1      -9.479   8.771  65.554  1.00  0.00    -0.026 C  
ENDROOT
BRANCH   3   4
HETATM    4  N   UNL     1      -9.103  10.000  64.846  1.00  0.00    -0.202 N  
BRANCH   4   5
HETATM    5  N   UNL     1      -9.421  10.168  63.493  1.00  0.00    -0.289 NA 
HETATM    6  H   UNL     1     -10.025  10.917  63.154  1.00  0.00     0.000 HD 
HETATM    7  O   UNL     1      -8.908   9.329  62.745  1.00  0.00    -0.275 OA 
HETATM    8  H   UNL     1      -9.123   9.442  61.827  1.00  0.00     0.000 HD 
ENDBRANCH   4   5
BRANCH   4   9
HETATM    9  C   UNL     1      -8.594  11.067  65.583  1.00  0.00    -0.130 C  
HETATM   10  O   UNL     1      -7.446  11.065  66.029  1.00  0.00    -0.123 OA 
BRANCH   9  11
HETATM   11  N   UNL     1      -9.460  12.116  65.825  1.00  0.00    -0.384 N  
HETATM   12  H   UNL     1     -10.299  12.205  65.253  1.00  0.00     0.000 HD 
BRANCH  11  13
HETATM   13  C   UNL     1      -9.211  13.103  66.876  1.00  0.00    -0.236 C  
HETATM   14  C   UNL     1     -10.259  14.223  66.892  1.00  0.00    -0.266 C  
HETATM   15  C   UNL     1     -11.622  13.767  67.413  1.00  0.00    -0.393 C  
HETATM   16  C   UNL     1     -11.540  13.023  68.742  1.00  0.00    -0.350 C  
HETATM   17  C   UNL     1     -10.472  11.934  68.759  1.00  0.00    -0.207 C  
HETATM   18  C   UNL     1      -9.121  12.430  68.249  1.00  0.00    -0.183 C  
ENDBRANCH  11  13
ENDBRANCH   9  11
ENDBRANCH   4   9
ENDBRANCH   3   4
TORSDOF 5
ENDMDL
MODEL      309
REMARK 921   NORMALIZED FREE ENERGY PREDICTED BY IDOCK:   -2.15 KCAL/MOL
REMARK 922        TOTAL FREE ENERGY PREDICTED BY IDOCK:   -3.37 KCAL/MOL
REMARK 923 INTER-LIGAND FREE ENERGY PREDICTED BY IDOCK:   -3.00 KCAL/MOL
REMARK 924 INTRA-LIGAND FREE ENERGY PREDICTED BY IDOCK:   -0.37 KCAL/MOL
REMARK 927      BINDING AFFINITY PREDICTED BY RF-SCORE:    0.00 PKD
ROOT
HETATM    1 CL   UNL     1     -10.876   3.435  73.504  1.00  0.00    -0.301 Cl 
HETATM    2  C   UNL     1      -9.792   4.576  72.666  1.00  0.00    -0.152 C  
HETATM    3  C   UNL     1      -9.693   5.884  73.443  1.00  0.00    -0.157 C  
ENDROOT
BRANCH   3   4
HETATM    4  N   UNL     1      -8.840   6.874  72.777  1.00  0.00    -0.120 N  
BRANCH   4   5
HETATM    5  N   UNL     1      -7.446   6.790  72.869  1.00  0.00    -0.083 NA 
HETATM    6  H   UNL     1      -6.956   6.653  73.754  1.00  0.00     0.000 HD 
HETATM    7  O   UNL     1      -6.860   6.898  71.787  1.00  0.00    -0.063 OA 
HETATM    8  H   UNL     1      -5.914   6.842  71.849  1.00  0.00     0.000 HD 
ENDBRANCH   4   5
BRANCH   4   9
HETATM    9  C   UNL     1      -9.431   7.785  71.903  1.00  0.00    -0.153 C  
HETATM   10  O   UNL     1      -9.529   8.982  72.175  1.00  0.00    -0.340 OA 
BRANCH   9  11
HETATM   11  N   UNL     1      -9.940   7.268  70.727  1.00  0.00    -0.186 N  
HETATM   12  H   UNL     1     -10.925   7.006  70.689  1.00  0.00     0.000 HD 
BRANCH  11  13
HETATM   13  C   UNL     1      -9.112   7.085  69.536  1.00  0.00    -0.146 C  
HETATM   14  C   UNL     1      -9.512   5.846  68.725  1.00  0.00    -0.143 C  
HETATM   15  C   UNL     1     -10.837   6.012  67.981  1.00  0.00    -0.374 C  
HETATM   16  C   UNL     1     -10.909   7.296  67.161  1.00  0.00    -0.378 C  
HETATM   17  C   UNL     1     -10.472   8.534  67.938  1.00  0.00    -0.262 C  
HETATM   18  C   UNL     1      -9.137   8.337  68.653  1.00  0.00    -0.140 C  
ENDBRANCH  11  13
ENDBRANCH   9  11
ENDBRANCH   4   9
ENDBRANCH   3   4
TORSDOF 5
ENDMDL
MODEL      310
REMARK 921   NORMALIZED FREE ENERGY PREDICTED BY IDOCK:   -2.15 KCAL/MOL
REMARK 922        TOTAL FREE ENERGY PREDICTED BY IDOCK:   -3.37 KCAL/MOL
REMARK 923 INTER-LIGAND FREE ENERGY PREDICTED BY IDOCK:   -2.76 KCAL/MOL
REMARK 924 INTRA-LIGAND FREE ENERGY PREDICTED BY IDOCK:   -0.61 KCAL/MOL
REMARK 927      BINDING AFFINITY PREDICTED BY RF-SCORE:    0.00 PKD
ROOT
HETATM    1 CL   UNL     1      -9.100   3.034  70.121  1.00  0.00    -0.173 Cl 
HETATM    2  C   UNL     1      -8.332   4.418  70.941  1.00  0.00    -0.087 C  
HETATM    3  C   UNL     1      -9.200   4.900  72.098  1.00  0.00    -0.135 C  
ENDROOT
BRANCH   3   4
HETATM    4  N   UNL     1      -8.631   6.063  72.787  1.00  0.00    -0.125 N  
BRANCH   4   5
HETATM    5  N   UNL     1      -7.273   6.097  73.124  1.00  0.00    -0.084 NA 
HETATM    6  H   UNL     1      -6.866   5.500  73.844  1.00  0.00     0.000 HD 
HETATM    7  O   UNL     1      -6.610   6.912  72.474  1.00  0.00    -0.057 OA 
HETATM    8  H   UNL     1      -5.689   6.935  72.703  1.00  0.00     0.000 HD 
ENDBRANCH   4   5
BRANCH   4   9
HETATM    9  C   UNL     1      -9.417   7.204  72.932  1.00  0.00    -0.151 C  
HETATM   10  O   UNL     1      -9.956   7.495  74.001  1.00  0.00    -0.220 OA 
BRANCH   9  11
HETATM   11  N   UNL     1      -9.596   7.977  71.801  1.00  0.00    -0.165 N  
HETATM   12  H   UNL     1      -8.779   8.382  71.346  1.00  0.00     0.000 HD 
BRANCH  11  13
HETATM   13  C   UNL     1     -10.921   8.231  71.235  1.00  0.00    -0.243 C  
HETATM   14  C   UNL     1     -11.069   9.662  70.702  1.00  0.00    -0.384 C  
HETATM   15  C   UNL     1     -10.288   9.910  69.412  1.00  0.00    -0.238 C  
HETATM   16  C   UNL     1     -10.547   8.857  68.340  1.00  0.00    -0.190 C  
HETATM   17  C   UNL     1     -10.447   7.427  68.861  1.00  0.00    -0.213 C  
HETATM   18  C   UNL     1     -11.254   7.212  70.140  1.00  0.00    -0.295 C  
ENDBRANCH  11  13
ENDBRANCH   9  11
ENDBRANCH   4   9
ENDBRANCH   3   4
TORSDOF 5
ENDMDL
MODEL      311
REMARK 921   NORMALIZED FREE ENERGY PREDICTED BY IDOCK:   -2.13 KCAL/MOL
REMARK 922        TOTAL FREE ENERGY PREDICTED BY IDOCK:   -3.35 KCAL/MOL
REMARK 923 INTER-LIGAND FREE ENERGY PREDICTED BY IDOCK:   -2.80 KCAL/MOL
REMARK 924 INTRA-LIGAND FREE ENERGY PREDICTED BY IDOCK:   -0.55 KCAL/MOL
REMARK 927      BINDING AFFINITY PREDICTED BY RF-SCORE:    0.00 PKD
ROOT
HETATM    1 CL   UNL     1     -11.994  14.420  68.321  1.00  0.00    -0.353 Cl 
HETATM    2  C   UNL     1     -10.562  13.490  68.835  1.00  0.00    -0.165 C  
HETATM    3  C   UNL     1      -9.638  13.235  67.649  1.00  0.00    -0.213 C  
ENDROOT
BRANCH   3   4
HETATM    4  N   UNL     1      -8.460  12.441  68.011  1.00  0.00    -0.167 N  
BRANCH   4   5
HETATM    5  N   UNL     1      -8.448  11.678  69.184  1.00  0.00    -0.358 NA 
HETATM    6  H   UNL     1      -8.250  12.076  70.103  1.00  0.00     0.000 HD 
HETATM    7  O   UNL     1      -8.698  10.480  69.012  1.00  0.00    -0.146 OA 
HETATM    8  H   UNL     1      -8.690   9.962  69.808  1.00  0.00     0.000 HD 
ENDBRANCH   4   5
BRANCH   4   9
HETATM    9  C   UNL     1      -7.430  12.311  67.081  1.00  0.00    -0.113 C  
HETATM   10  O   UNL     1      -6.439  13.042  67.097  1.00  0.00    -0.224 OA 
BRANCH   9  11
HETATM   11  N   UNL     1      -7.596  11.342  66.110  1.00  0.00    -0.350 N  
HETATM   12  H   UNL     1      -8.361  11.438  65.443  1.00  0.00     0.000 HD 
BRANCH  11  13
HETATM   13  C   UNL     1      -6.710  10.182  66.009  1.00  0.00    -0.106 C  
HETATM   14  C   UNL     1      -7.475   8.877  65.757  1.00  0.00    -0.089 C  
HETATM   15  C   UNL     1      -8.044   8.773  64.342  1.00  0.00    -0.155 C  
HETATM   16  C   UNL     1      -7.013   9.067  63.256  1.00  0.00    -0.089 C  
HETATM   17  C   UNL     1      -6.212  10.339  63.513  1.00  0.00    -0.127 C  
HETATM   18  C   UNL     1      -5.645  10.399  64.930  1.00  0.00    -0.143 C  
ENDBRANCH  11  13
ENDBRANCH   9  11
ENDBRANCH   4   9
ENDBRANCH   3   4
TORSDOF 5
ENDMDL
MODEL      312
REMARK 921   NORMALIZED FREE ENERGY PREDICTED BY IDOCK:   -2.13 KCAL/MOL
REMARK 922        TOTAL FREE ENERGY PREDICTED BY IDOCK:   -3.34 KCAL/MOL
REMARK 923 INTER-LIGAND FREE ENERGY PREDICTED BY IDOCK:   -2.98 KCAL/MOL
REMARK 924 INTRA-LIGAND FREE ENERGY PREDICTED BY IDOCK:   -0.36 KCAL/MOL
REMARK 927      BINDING AFFINITY PREDICTED BY RF-SCORE:    0.00 PKD
ROOT
HETATM    1 CL   UNL     1     -10.706   3.576  73.861  1.00  0.00    -0.279 Cl 
HETATM    2  C   UNL     1     -10.387   4.756  72.563  1.00  0.00    -0.201 C  
HETATM    3  C   UNL     1     -10.988   6.112  72.916  1.00  0.00    -0.262 C  
ENDROOT
BRANCH   3   4
HETATM    4  N   UNL     1     -10.786   7.113  71.863  1.00  0.00    -0.214 N  
BRANCH   4   5
HETATM    5  N   UNL     1     -11.852   7.515  71.050  1.00  0.00    -0.296 NA 
HETATM    6  H   UNL     1     -12.489   8.271  71.304  1.00  0.00     0.000 HD 
HETATM    7  O   UNL     1     -11.955   6.876  69.997  1.00  0.00    -0.618 OA 
HETATM    8  H   UNL     1     -12.678   7.149  69.446  1.00  0.00     0.000 HD 
ENDBRANCH   4   5
BRANCH   4   9
HETATM    9  C   UNL     1      -9.568   7.787  71.806  1.00  0.00    -0.163 C  
HETATM   10  O   UNL     1      -9.462   8.973  72.123  1.00  0.00    -0.340 OA 
BRANCH   9  11
HETATM   11  N   UNL     1      -8.487   7.068  71.334  1.00  0.00    -0.114 N  
HETATM   12  H   UNL     1      -7.688   6.916  71.949  1.00  0.00     0.000 HD 
BRANCH  11  13
HETATM   13  C   UNL     1      -8.453   6.516  69.980  1.00  0.00    -0.135 C  
HETATM   14  C   UNL     1      -8.746   7.571  68.906  1.00  0.00    -0.132 C  
HETATM   15  C   UNL     1      -7.602   8.565  68.708  1.00  0.00    -0.097 C  
HETATM   16  C   UNL     1      -6.246   7.892  68.513  1.00  0.00    -0.044 C  
HETATM   17  C   UNL     1      -5.957   6.808  69.546  1.00  0.00    -0.018 C  
HETATM   18  C   UNL     1      -7.114   5.824  69.704  1.00  0.00    -0.064 C  
ENDBRANCH  11  13
ENDBRANCH   9  11
ENDBRANCH   4   9
ENDBRANCH   3   4
TORSDOF 5
ENDMDL
MODEL      313
REMARK 921   NORMALIZED FREE ENERGY PREDICTED BY IDOCK:   -2.12 KCAL/MOL
REMARK 922        TOTAL FREE ENERGY PREDICTED BY IDOCK:   -3.34 KCAL/MOL
REMARK 923 INTER-LIGAND FREE ENERGY PREDICTED BY IDOCK:   -2.67 KCAL/MOL
REMARK 924 INTRA-LIGAND FREE ENERGY PREDICTED BY IDOCK:   -0.66 KCAL/MOL
REMARK 927      BINDING AFFINITY PREDICTED BY RF-SCORE:    0.00 PKD
ROOT
HETATM    1 CL   UNL     1     -11.103  11.655  65.324  1.00  0.00    -0.329 Cl 
HETATM    2  C   UNL     1     -10.361  11.722  66.944  1.00  0.00    -0.217 C  
HETATM    3  C   UNL     1      -8.922  11.222  66.891  1.00  0.00    -0.162 C  
ENDROOT
BRANCH   3   4
HETATM    4  N   UNL     1      -8.275  11.221  68.207  1.00  0.00    -0.136 N  
BRANCH   4   5
HETATM    5  N   UNL     1      -8.884  10.593  69.300  1.00  0.00    -0.330 NA 
HETATM    6  H   UNL     1      -9.886  10.405  69.344  1.00  0.00     0.000 HD 
HETATM    7  O   UNL     1      -8.103  10.287  70.208  1.00  0.00    -0.388 OA 
HETATM    8  H   UNL     1      -8.516   9.861  70.949  1.00  0.00     0.000 HD 
ENDBRANCH   4   5
BRANCH   4   9
HETATM    9  C   UNL     1      -6.967  11.691  68.310  1.00  0.00    -0.074 C  
HETATM   10  O   UNL     1      -5.998  11.003  67.985  1.00  0.00    -0.049 OA 
BRANCH   9  11
HETATM   11  N   UNL     1      -6.808  12.959  68.836  1.00  0.00    -0.096 N  
HETATM   12  H   UNL     1      -6.941  13.098  69.837  1.00  0.00     0.000 HD 
BRANCH  11  13
HETATM   13  C   UNL     1      -6.454  14.107  68.002  1.00  0.00    -0.149 C  
HETATM   14  C   UNL     1      -7.559  15.172  67.967  1.00  0.00    -0.127 C  
HETATM   15  C   UNL     1      -7.688  15.951  69.275  1.00  0.00    -0.222 C  
HETATM   16  C   UNL     1      -6.358  16.503  69.780  1.00  0.00    -0.183 C  
HETATM   17  C   UNL     1      -5.236  15.469  69.780  1.00  0.00    -0.100 C  
HETATM   18  C   UNL     1      -5.127  14.724  68.452  1.00  0.00    -0.108 C  
ENDBRANCH  11  13
ENDBRANCH   9  11
ENDBRANCH   4   9
ENDBRANCH   3   4
TORSDOF 5
ENDMDL
MODEL      314
REMARK 921   NORMALIZED FREE ENERGY PREDICTED BY IDOCK:   -2.12 KCAL/MOL
REMARK 922        TOTAL FREE ENERGY PREDICTED BY IDOCK:   -3.33 KCAL/MOL
REMARK 923 INTER-LIGAND FREE ENERGY PREDICTED BY IDOCK:   -2.86 KCAL/MOL
REMARK 924 INTRA-LIGAND FREE ENERGY PREDICTED BY IDOCK:   -0.47 KCAL/MOL
REMARK 927      BINDING AFFINITY PREDICTED BY RF-SCORE:    0.00 PKD
ROOT
HETATM    1 CL   UNL     1      -6.777  10.180  63.827  1.00  0.00    -0.131 Cl 
HETATM    2  C   UNL     1      -6.894  10.008  65.597  1.00  0.00    -0.114 C  
HETATM    3  C   UNL     1      -7.412   8.622  65.964  1.00  0.00    -0.085 C  
ENDROOT
BRANCH   3   4
HETATM    4  N   UNL     1      -7.563   8.439  67.412  1.00  0.00    -0.096 N  
BRANCH   4   5
HETATM    5  N   UNL     1      -6.523   8.779  68.284  1.00  0.00    -0.059 NA 
HETATM    6  H   UNL     1      -6.160   9.729  68.371  1.00  0.00     0.000 HD 
HETATM    7  O   UNL     1      -6.082   7.829  68.941  1.00  0.00    -0.033 OA 
HETATM    8  H   UNL     1      -5.376   8.060  69.533  1.00  0.00     0.000 HD 
ENDBRANCH   4   5
BRANCH   4   9
HETATM    9  C   UNL     1      -8.816   8.098  67.915  1.00  0.00    -0.131 C  
HETATM   10  O   UNL     1      -9.126   6.932  68.166  1.00  0.00    -0.126 OA 
BRANCH   9  11
HETATM   11  N   UNL     1      -9.714   9.134  68.083  1.00  0.00    -0.151 N  
HETATM   12  H   UNL     1     -10.509   9.206  67.448  1.00  0.00     0.000 HD 
BRANCH  11  13
HETATM   13  C   UNL     1      -9.562  10.132  69.142  1.00  0.00    -0.212 C  
HETATM   14  C   UNL     1     -10.330  11.426  68.847  1.00  0.00    -0.203 C  
HETATM   15  C   UNL     1     -11.845  11.274  68.981  1.00  0.00    -0.421 C  
HETATM   16  C   UNL     1     -12.270  10.627  70.296  1.00  0.00    -0.417 C  
HETATM   17  C   UNL     1     -11.485   9.362  70.628  1.00  0.00    -0.344 C  
HETATM   18  C   UNL     1      -9.976   9.558  70.500  1.00  0.00    -0.335 C  
ENDBRANCH  11  13
ENDBRANCH   9  11
ENDBRANCH   4   9
ENDBRANCH   3   4
TORSDOF 5
ENDMDL
MODEL      315
REMARK 921   NORMALIZED FREE ENERGY PREDICTED BY IDOCK:   -2.09 KCAL/MOL
REMARK 922        TOTAL FREE ENERGY PREDICTED BY IDOCK:   -3.29 KCAL/MOL
REMARK 923 INTER-LIGAND FREE ENERGY PREDICTED BY IDOCK:   -2.84 KCAL/MOL
REMARK 924 INTRA-LIGAND FREE ENERGY PREDICTED BY IDOCK:   -0.45 KCAL/MOL
REMARK 927      BINDING AFFINITY PREDICTED BY RF-SCORE:    0.00 PKD
ROOT
HETATM    1 CL   UNL     1      -7.304  11.033  69.222  1.00  0.00    -0.123 Cl 
HETATM    2  C   UNL     1      -8.376   9.717  68.676  1.00  0.00    -0.114 C  
HETATM    3  C   UNL     1      -9.551   9.554  69.635  1.00  0.00    -0.202 C  
ENDROOT
BRANCH   3   4
HETATM    4  N   UNL     1     -10.447   8.458  69.252  1.00  0.00    -0.222 N  
BRANCH   4   5
HETATM    5  N   UNL     1     -11.010   8.413  67.971  1.00  0.00    -0.464 NA 
HETATM    6  H   UNL     1     -11.798   8.998  67.692  1.00  0.00     0.000 HD 
HETATM    7  O   UNL     1     -10.471   7.604  67.209  1.00  0.00    -0.271 OA 
HETATM    8  H   UNL     1     -10.853   7.573  66.340  1.00  0.00     0.000 HD 
ENDBRANCH   4   5
BRANCH   4   9
HETATM    9  C   UNL     1     -10.580   7.371  70.113  1.00  0.00    -0.230 C  
HETATM   10  O   UNL     1     -11.039   7.490  71.250  1.00  0.00    -0.241 OA 
BRANCH   9  11
HETATM   11  N   UNL     1     -10.130   6.153  69.641  1.00  0.00    -0.170 N  
HETATM   12  H   UNL     1     -10.396   5.859  68.701  1.00  0.00     0.000 HD 
BRANCH  11  13
HETATM   13  C   UNL     1      -9.284   5.272  70.445  1.00  0.00    -0.148 C  
HETATM   14  C   UNL     1      -9.679   3.795  70.314  1.00  0.00    -0.222 C  
HETATM   15  C   UNL     1      -9.309   3.189  68.961  1.00  0.00    -0.230 C  
HETATM   16  C   UNL     1      -7.859   3.444  68.563  1.00  0.00    -0.059 C  
HETATM   17  C   UNL     1      -7.435   4.900  68.729  1.00  0.00    -0.065 C  
HETATM   18  C   UNL     1      -7.805   5.466  70.099  1.00  0.00    -0.081 C  
ENDBRANCH  11  13
ENDBRANCH   9  11
ENDBRANCH   4   9
ENDBRANCH   3   4
TORSDOF 5
ENDMDL
MODEL      316
REMARK 921   NORMALIZED FREE ENERGY PREDICTED BY IDOCK:   -2.08 KCAL/MOL
REMARK 922        TOTAL FREE ENERGY PREDICTED BY IDOCK:   -3.29 KCAL/MOL
REMARK 923 INTER-LIGAND FREE ENERGY PREDICTED BY IDOCK:   -2.64 KCAL/MOL
REMARK 924 INTRA-LIGAND FREE ENERGY PREDICTED BY IDOCK:   -0.64 KCAL/MOL
REMARK 927      BINDING AFFINITY PREDICTED BY RF-SCORE:    0.00 PKD
ROOT
HETATM    1 CL   UNL     1      -6.362   4.715  65.515  1.00  0.00    -0.034 Cl 
HETATM    2  C   UNL     1      -7.538   6.038  65.722  1.00  0.00    -0.084 C  
HETATM    3  C   UNL     1      -7.212   6.850  66.971  1.00  0.00    -0.084 C  
ENDROOT
BRANCH   3   4
HETATM    4  N   UNL     1      -8.173   7.932  67.209  1.00  0.00    -0.121 N  
BRANCH   4   5
HETATM    5  N   UNL     1      -7.807   9.267  67.002  1.00  0.00    -0.098 NA 
HETATM    6  H   UNL     1      -6.868   9.547  66.721  1.00  0.00     0.000 HD 
HETATM    7  O   UNL     1      -8.721  10.077  67.191  1.00  0.00    -0.128 OA 
HETATM    8  H   UNL     1      -8.473  10.983  67.051  1.00  0.00     0.000 HD 
ENDBRANCH   4   5
BRANCH   4   9
HETATM    9  C   UNL     1      -9.503   7.602  67.464  1.00  0.00    -0.140 C  
HETATM   10  O   UNL     1     -10.417   7.942  66.712  1.00  0.00    -0.327 OA 
BRANCH   9  11
HETATM   11  N   UNL     1      -9.751   6.904  68.630  1.00  0.00    -0.136 N  
HETATM   12  H   UNL     1     -10.030   5.925  68.570  1.00  0.00     0.000 HD 
BRANCH  11  13
HETATM   13  C   UNL     1      -9.624   7.525  69.949  1.00  0.00    -0.160 C  
HETATM   14  C   UNL     1     -10.974   7.988  70.513  1.00  0.00    -0.247 C  
HETATM   15  C   UNL     1     -11.870   6.833  70.960  1.00  0.00    -0.427 C  
HETATM   16  C   UNL     1     -11.162   5.840  71.876  1.00  0.00    -0.289 C  
HETATM   17  C   UNL     1      -9.797   5.402  71.352  1.00  0.00    -0.221 C  
HETATM   18  C   UNL     1      -8.924   6.583  70.933  1.00  0.00    -0.147 C  
ENDBRANCH  11  13
ENDBRANCH   9  11
ENDBRANCH   4   9
ENDBRANCH   3   4
TORSDOF 5
ENDMDL
MODEL      317
REMARK 921   NORMALIZED FREE ENERGY PREDICTED BY IDOCK:   -2.06 KCAL/MOL
REMARK 922        TOTAL FREE ENERGY PREDICTED BY IDOCK:   -3.26 KCAL/MOL
REMARK 923 INTER-LIGAND FREE ENERGY PREDICTED BY IDOCK:   -2.54 KCAL/MOL
REMARK 924 INTRA-LIGAND FREE ENERGY PREDICTED BY IDOCK:   -0.73 KCAL/MOL
REMARK 927      BINDING AFFINITY PREDICTED BY RF-SCORE:    0.00 PKD
ROOT
HETATM    1 CL   UNL     1      -7.511   5.018  72.911  1.00  0.00    -0.090 Cl 
HETATM    2  C   UNL     1      -8.122   5.942  71.514  1.00  0.00    -0.115 C  
HETATM    3  C   UNL     1      -9.157   5.126  70.748  1.00  0.00    -0.135 C  
ENDROOT
BRANCH   3   4
HETATM    4  N   UNL     1      -9.667   5.826  69.564  1.00  0.00    -0.146 N  
BRANCH   4   5
HETATM    5  N   UNL     1     -10.940   6.410  69.576  1.00  0.00    -0.322 NA 
HETATM    6  H   UNL     1     -11.776   5.923  69.252  1.00  0.00     0.000 HD 
HETATM    7  O   UNL     1     -10.962   7.566  70.012  1.00  0.00    -0.257 OA 
HETATM    8  H   UNL     1     -11.825   7.962  70.019  1.00  0.00     0.000 HD 
ENDBRANCH   4   5
BRANCH   4   9
HETATM    9  C   UNL     1      -8.799   6.061  68.500  1.00  0.00    -0.112 C  
HETATM   10  O   UNL     1      -8.241   5.144  67.897  1.00  0.00    -0.098 OA 
BRANCH   9  11
HETATM   11  N   UNL     1      -8.562   7.384  68.180  1.00  0.00    -0.123 N  
HETATM   12  H   UNL     1      -8.252   8.021  68.914  1.00  0.00     0.000 HD 
BRANCH  11  13
HETATM   13  C   UNL     1      -8.741   7.900  66.824  1.00  0.00    -0.134 C  
HETATM   14  C   UNL     1     -10.176   8.372  66.557  1.00  0.00    -0.277 C  
HETATM   15  C   UNL     1     -10.527   9.674  67.277  1.00  0.00    -0.323 C  
HETATM   16  C   UNL     1      -9.498  10.779  67.058  1.00  0.00    -0.186 C  
HETATM   17  C   UNL     1      -8.061  10.316  67.275  1.00  0.00    -0.120 C  
HETATM   18  C   UNL     1      -7.742   9.023  66.528  1.00  0.00    -0.096 C  
ENDBRANCH  11  13
ENDBRANCH   9  11
ENDBRANCH   4   9
ENDBRANCH   3   4
TORSDOF 5
ENDMDL
MODEL      318
REMARK 921   NORMALIZED FREE ENERGY PREDICTED BY IDOCK:   -2.00 KCAL/MOL
REMARK 922        TOTAL FREE ENERGY PREDICTED BY IDOCK:   -3.18 KCAL/MOL
REMARK 923 INTER-LIGAND FREE ENERGY PREDICTED BY IDOCK:   -2.63 KCAL/MOL
REMARK 924 INTRA-LIGAND FREE ENERGY PREDICTED BY IDOCK:   -0.56 KCAL/MOL
REMARK 927      BINDING AFFINITY PREDICTED BY RF-SCORE:    0.00 PKD
ROOT
HETATM    1 CL   UNL     1      -6.232  11.472  68.180  1.00  0.00    -0.045 Cl 
HETATM    2  C   UNL     1      -7.495  10.295  67.732  1.00  0.00    -0.088 C  
HETATM    3  C   UNL     1      -7.746   9.321  68.877  1.00  0.00    -0.079 C  
ENDROOT
BRANCH   3   4
HETATM    4  N   UNL     1      -8.752   8.306  68.547  1.00  0.00    -0.133 N  
BRANCH   4   5
HETATM    5  N   UNL     1      -8.433   7.237  67.701  1.00  0.00    -0.117 NA 
HETATM    6  H   UNL     1      -7.790   7.325  66.914  1.00  0.00     0.000 HD 
HETATM    7  O   UNL     1      -9.001   6.178  67.989  1.00  0.00    -0.115 OA 
HETATM    8  H   UNL     1      -8.785   5.453  67.415  1.00  0.00     0.000 HD 
ENDBRANCH   4   5
BRANCH   4   9
HETATM    9  C   UNL     1      -9.966   8.320  69.231  1.00  0.00    -0.192 C  
HETATM   10  O   UNL     1     -10.954   8.913  68.796  1.00  0.00    -0.066 OA 
BRANCH   9  11
HETATM   11  N   UNL     1      -9.993   7.667  70.448  1.00  0.00    -0.188 N  
HETATM   12  H   UNL     1      -9.119   7.527  70.953  1.00  0.00     0.000 HD 
BRANCH  11  13
HETATM   13  C   UNL     1     -11.237   7.169  71.034  1.00  0.00    -0.269 C  
HETATM   14  C   UNL     1     -11.146   5.694  71.445  1.00  0.00    -0.221 C  
HETATM   15  C   UNL     1     -10.277   5.463  72.681  1.00  0.00    -0.225 C  
HETATM   16  C   UNL     1     -10.639   6.375  73.850  1.00  0.00    -0.237 C  
HETATM   17  C   UNL     1     -10.777   7.841  73.451  1.00  0.00    -0.225 C  
HETATM   18  C   UNL     1     -11.666   8.033  72.224  1.00  0.00    -0.428 C  
ENDBRANCH  11  13
ENDBRANCH   9  11
ENDBRANCH   4   9
ENDBRANCH   3   4
TORSDOF 5
ENDMDL
MODEL      319
REMARK 921   NORMALIZED FREE ENERGY PREDICTED BY IDOCK:   -1.98 KCAL/MOL
REMARK 922        TOTAL FREE ENERGY PREDICTED BY IDOCK:   -3.15 KCAL/MOL
REMARK 923 INTER-LIGAND FREE ENERGY PREDICTED BY IDOCK:   -2.84 KCAL/MOL
REMARK 924 INTRA-LIGAND FREE ENERGY PREDICTED BY IDOCK:   -0.31 KCAL/MOL
REMARK 927      BINDING AFFINITY PREDICTED BY RF-SCORE:    0.00 PKD
ROOT
HETATM    1 CL   UNL     1     -10.819   7.586  73.432  1.00  0.00    -0.418 Cl 
HETATM    2  C   UNL     1     -10.329   5.944  72.939  1.00  0.00    -0.200 C  
HETATM    3  C   UNL     1      -9.038   5.995  72.129  1.00  0.00    -0.142 C  
ENDROOT
BRANCH   3   4
HETATM    4  N   UNL     1      -8.609   4.671  71.665  1.00  0.00    -0.115 N  
BRANCH   4   5
HETATM    5  N   UNL     1      -7.421   4.102  72.139  1.00  0.00    -0.068 NA 
HETATM    6  H   UNL     1      -6.872   3.433  71.597  1.00  0.00     0.000 HD 
HETATM    7  O   UNL     1      -7.095   4.479  73.269  1.00  0.00    -0.072 OA 
HETATM    8  H   UNL     1      -6.289   4.093  73.591  1.00  0.00     0.000 HD 
ENDBRANCH   4   5
BRANCH   4   9
HETATM    9  C   UNL     1      -9.489   3.914  70.894  1.00  0.00    -0.166 C  
HETATM   10  O   UNL     1      -9.814   2.768  71.208  1.00  0.00    -0.155 OA 
BRANCH   9  11
HETATM   11  N   UNL     1      -9.949   4.502  69.731  1.00  0.00    -0.229 N  
HETATM   12  H   UNL     1     -10.945   4.457  69.517  1.00  0.00     0.000 HD 
BRANCH  11  13
HETATM   13  C   UNL     1      -9.054   5.186  68.799  1.00  0.00    -0.114 C  
HETATM   14  C   UNL     1      -8.520   4.254  67.704  1.00  0.00    -0.101 C  
HETATM   15  C   UNL     1      -9.577   3.872  66.668  1.00  0.00    -0.215 C  
HETATM   16  C   UNL     1     -10.325   5.074  66.100  1.00  0.00    -0.309 C  
HETATM   17  C   UNL     1     -10.826   6.036  67.173  1.00  0.00    -0.414 C  
HETATM   18  C   UNL     1      -9.739   6.408  68.179  1.00  0.00    -0.122 C  
ENDBRANCH  11  13
ENDBRANCH   9  11
ENDBRANCH   4   9
ENDBRANCH   3   4
TORSDOF 5
ENDMDL
MODEL      320
REMARK 921   NORMALIZED FREE ENERGY PREDICTED BY IDOCK:   -1.98 KCAL/MOL
REMARK 922        TOTAL FREE ENERGY PREDICTED BY IDOCK:   -3.15 KCAL/MOL
REMARK 923 INTER-LIGAND FREE ENERGY PREDICTED BY IDOCK:   -2.57 KCAL/MOL
REMARK 924 INTRA-LIGAND FREE ENERGY PREDICTED BY IDOCK:   -0.57 KCAL/MOL
REMARK 927      BINDING AFFINITY PREDICTED BY RF-SCORE:    0.00 PKD
ROOT
HETATM    1 CL   UNL     1     -11.518  12.078  67.227  1.00  0.00    -0.395 Cl 
HETATM    2  C   UNL     1     -10.611  10.858  68.158  1.00  0.00    -0.198 C  
HETATM    3  C   UNL     1      -9.140  11.246  68.254  1.00  0.00    -0.173 C  
ENDROOT
BRANCH   3   4
HETATM    4  N   UNL     1      -8.339  10.255  68.980  1.00  0.00    -0.137 N  
BRANCH   4   5
HETATM    5  N   UNL     1      -8.296  10.262  70.379  1.00  0.00    -0.332 NA 
HETATM    6  H   UNL     1      -9.134  10.242  70.960  1.00  0.00     0.000 HD 
HETATM    7  O   UNL     1      -7.154  10.295  70.850  1.00  0.00    -0.388 OA 
HETATM    8  H   UNL     1      -7.124  10.300  71.799  1.00  0.00     0.000 HD 
ENDBRANCH   4   5
BRANCH   4   9
HETATM    9  C   UNL     1      -7.774   9.200  68.268  1.00  0.00    -0.091 C  
HETATM   10  O   UNL     1      -7.600   9.252  67.049  1.00  0.00    -0.090 OA 
BRANCH   9  11
HETATM   11  N   UNL     1      -7.455   8.069  68.994  1.00  0.00    -0.091 N  
HETATM   12  H   UNL     1      -6.881   8.166  69.831  1.00  0.00     0.000 HD 
BRANCH  11  13
HETATM   13  C   UNL     1      -7.914   6.737  68.601  1.00  0.00    -0.119 C  
HETATM   14  C   UNL     1      -6.985   5.622  69.101  1.00  0.00    -0.063 C  
HETATM   15  C   UNL     1      -7.078   5.390  70.609  1.00  0.00    -0.061 C  
HETATM   16  C   UNL     1      -8.512   5.225  71.105  1.00  0.00    -0.123 C  
HETATM   17  C   UNL     1      -9.459   6.300  70.582  1.00  0.00    -0.182 C  
HETATM   18  C   UNL     1      -9.351   6.491  69.070  1.00  0.00    -0.128 C  
ENDBRANCH  11  13
ENDBRANCH   9  11
ENDBRANCH   4   9
ENDBRANCH   3   4
TORSDOF 5
ENDMDL
MODEL      321
REMARK 921   NORMALIZED FREE ENERGY PREDICTED BY IDOCK:   -1.97 KCAL/MOL
REMARK 922        TOTAL FREE ENERGY PREDICTED BY IDOCK:   -3.14 KCAL/MOL
REMARK 923 INTER-LIGAND FREE ENERGY PREDICTED BY IDOCK:   -2.85 KCAL/MOL
REMARK 924 INTRA-LIGAND FREE ENERGY PREDICTED BY IDOCK:   -0.28 KCAL/MOL
REMARK 927      BINDING AFFINITY PREDICTED BY RF-SCORE:    0.00 PKD
ROOT
HETATM    1 CL   UNL     1      -9.590   8.478  66.406  1.00  0.00    -0.296 Cl 
HETATM    2  C   UNL     1      -8.615   8.509  67.898  1.00  0.00    -0.134 C  
HETATM    3  C   UNL     1      -9.508   8.738  69.113  1.00  0.00    -0.157 C  
ENDROOT
BRANCH   3   4
HETATM    4  N   UNL     1      -8.751   8.809  70.367  1.00  0.00    -0.152 N  
BRANCH   4   5
HETATM    5  N   UNL     1      -7.601   9.601  70.459  1.00  0.00    -0.215 NA 
HETATM    6  H   UNL     1      -6.688   9.225  70.717  1.00  0.00     0.000 HD 
HETATM    7  O   UNL     1      -7.787  10.796  70.203  1.00  0.00    -0.372 OA 
HETATM    8  H   UNL     1      -7.007  11.333  70.266  1.00  0.00     0.000 HD 
ENDBRANCH   4   5
BRANCH   4   9
HETATM    9  C   UNL     1      -9.294   8.227  71.510  1.00  0.00    -0.180 C  
HETATM   10  O   UNL     1      -9.743   8.902  72.438  1.00  0.00    -0.239 OA 
BRANCH   9  11
HETATM   11  N   UNL     1      -9.267   6.847  71.570  1.00  0.00    -0.152 N  
HETATM   12  H   UNL     1      -9.013   6.322  70.734  1.00  0.00     0.000 HD 
BRANCH  11  13
HETATM   13  C   UNL     1      -9.591   6.116  72.794  1.00  0.00    -0.155 C  
HETATM   14  C   UNL     1     -10.590   4.976  72.554  1.00  0.00    -0.277 C  
HETATM   15  C   UNL     1      -9.983   3.789  71.807  1.00  0.00    -0.227 C  
HETATM   16  C   UNL     1      -8.674   3.299  72.419  1.00  0.00    -0.101 C  
HETATM   17  C   UNL     1      -7.685   4.424  72.706  1.00  0.00    -0.086 C  
HETATM   18  C   UNL     1      -8.322   5.584  73.468  1.00  0.00    -0.113 C  
ENDBRANCH  11  13
ENDBRANCH   9  11
ENDBRANCH   4   9
ENDBRANCH   3   4
TORSDOF 5
ENDMDL
MODEL      322
REMARK 921   NORMALIZED FREE ENERGY PREDICTED BY IDOCK:   -1.96 KCAL/MOL
REMARK 922        TOTAL FREE ENERGY PREDICTED BY IDOCK:   -3.13 KCAL/MOL
REMARK 923 INTER-LIGAND FREE ENERGY PREDICTED BY IDOCK:   -2.49 KCAL/MOL
REMARK 924 INTRA-LIGAND FREE ENERGY PREDICTED BY IDOCK:   -0.64 KCAL/MOL
REMARK 927      BINDING AFFINITY PREDICTED BY RF-SCORE:    0.00 PKD
ROOT
HETATM    1 CL   UNL     1      -6.615  11.511  68.345  1.00  0.00    -0.058 Cl 
HETATM    2  C   UNL     1      -8.098  10.522  68.293  1.00  0.00    -0.115 C  
HETATM    3  C   UNL     1      -8.527  10.131  69.703  1.00  0.00    -0.157 C  
ENDROOT
BRANCH   3   4
HETATM    4  N   UNL     1      -9.724   9.284  69.716  1.00  0.00    -0.179 N  
BRANCH   4   5
HETATM    5  N   UNL     1     -10.869   9.658  69.002  1.00  0.00    -0.320 NA 
HETATM    6  H   UNL     1     -10.861   9.841  67.999  1.00  0.00     0.000 HD 
HETATM    7  O   UNL     1     -11.889   9.749  69.693  1.00  0.00    -0.452 OA 
HETATM    8  H   UNL     1     -12.665  10.003  69.209  1.00  0.00     0.000 HD 
ENDBRANCH   4   5
BRANCH   4   9
HETATM    9  C   UNL     1      -9.642   8.019  70.295  1.00  0.00    -0.171 C  
HETATM   10  O   UNL     1     -10.464   7.624  71.123  1.00  0.00    -0.208 OA 
BRANCH   9  11
HETATM   11  N   UNL     1      -8.563   7.241  69.922  1.00  0.00    -0.140 N  
HETATM   12  H   UNL     1      -7.866   6.995  70.624  1.00  0.00     0.000 HD 
BRANCH  11  13
HETATM   13  C   UNL     1      -8.390   6.758  68.552  1.00  0.00    -0.120 C  
HETATM   14  C   UNL     1      -7.057   6.025  68.350  1.00  0.00    -0.082 C  
HETATM   15  C   UNL     1      -7.017   4.650  69.016  1.00  0.00    -0.051 C  
HETATM   16  C   UNL     1      -8.221   3.780  68.672  1.00  0.00    -0.084 C  
HETATM   17  C   UNL     1      -9.554   4.506  68.824  1.00  0.00    -0.227 C  
HETATM   18  C   UNL     1      -9.562   5.867  68.132  1.00  0.00    -0.130 C  
ENDBRANCH  11  13
ENDBRANCH   9  11
ENDBRANCH   4   9
ENDBRANCH   3   4
TORSDOF 5
ENDMDL
MODEL      323
REMARK 921   NORMALIZED FREE ENERGY PREDICTED BY IDOCK:   -1.94 KCAL/MOL
REMARK 922        TOTAL FREE ENERGY PREDICTED BY IDOCK:   -3.10 KCAL/MOL
REMARK 923 INTER-LIGAND FREE ENERGY PREDICTED BY IDOCK:   -2.54 KCAL/MOL
REMARK 924 INTRA-LIGAND FREE ENERGY PREDICTED BY IDOCK:   -0.56 KCAL/MOL
REMARK 927      BINDING AFFINITY PREDICTED BY RF-SCORE:    0.00 PKD
ROOT
HETATM    1 CL   UNL     1     -10.753   9.626  66.902  1.00  0.00    -0.237 Cl 
HETATM    2  C   UNL     1      -9.108   9.396  67.550  1.00  0.00    -0.124 C  
HETATM    3  C   UNL     1      -8.940   7.979  68.086  1.00  0.00    -0.135 C  
ENDROOT
BRANCH   3   4
HETATM    4  N   UNL     1      -7.613   7.747  68.665  1.00  0.00    -0.103 N  
BRANCH   4   5
HETATM    5  N   UNL     1      -6.485   8.392  68.143  1.00  0.00    -0.055 NA 
HETATM    6  H   UNL     1      -6.430   9.404  68.028  1.00  0.00     0.000 HD 
HETATM    7  O   UNL     1      -5.564   7.629  67.834  1.00  0.00    -0.029 OA 
HETATM    8  H   UNL     1      -4.799   8.067  67.480  1.00  0.00     0.000 HD 
ENDBRANCH   4   5
BRANCH   4   9
HETATM    9  C   UNL     1      -7.518   7.023  69.852  1.00  0.00    -0.090 C  
HETATM   10  O   UNL     1      -6.560   6.289  70.096  1.00  0.00    -0.042 OA 
BRANCH   9  11
HETATM   11  N   UNL     1      -8.579   7.139  70.730  1.00  0.00    -0.144 N  
HETATM   12  H   UNL     1      -9.417   6.582  70.567  1.00  0.00     0.000 HD 
BRANCH  11  13
HETATM   13  C   UNL     1      -8.538   8.036  71.884  1.00  0.00    -0.137 C  
HETATM   14  C   UNL     1      -9.887   8.717  72.150  1.00  0.00    -0.387 C  
HETATM   15  C   UNL     1     -10.942   7.766  72.716  1.00  0.00    -0.447 C  
HETATM   16  C   UNL     1     -10.446   6.962  73.914  1.00  0.00    -0.352 C  
HETATM   17  C   UNL     1      -9.084   6.314  73.684  1.00  0.00    -0.134 C  
HETATM   18  C   UNL     1      -8.053   7.297  73.135  1.00  0.00    -0.123 C  
ENDBRANCH  11  13
ENDBRANCH   9  11
ENDBRANCH   4   9
ENDBRANCH   3   4
TORSDOF 5
ENDMDL
MODEL      324
REMARK 921   NORMALIZED FREE ENERGY PREDICTED BY IDOCK:   -1.94 KCAL/MOL
REMARK 922        TOTAL FREE ENERGY PREDICTED BY IDOCK:   -3.10 KCAL/MOL
REMARK 923 INTER-LIGAND FREE ENERGY PREDICTED BY IDOCK:   -2.39 KCAL/MOL
REMARK 924 INTRA-LIGAND FREE ENERGY PREDICTED BY IDOCK:   -0.71 KCAL/MOL
REMARK 927      BINDING AFFINITY PREDICTED BY RF-SCORE:    0.00 PKD
ROOT
HETATM    1 CL   UNL     1      -7.643   4.793  72.369  1.00  0.00    -0.084 Cl 
HETATM    2  C   UNL     1      -8.321   5.927  71.171  1.00  0.00    -0.124 C  
HETATM    3  C   UNL     1      -9.704   5.465  70.725  1.00  0.00    -0.180 C  
ENDROOT
BRANCH   3   4
HETATM    4  N   UNL     1     -10.294   6.344  69.710  1.00  0.00    -0.188 N  
BRANCH   4   5
HETATM    5  N   UNL     1     -10.762   7.618  70.055  1.00  0.00    -0.239 NA 
HETATM    6  H   UNL     1     -10.140   8.402  70.254  1.00  0.00     0.000 HD 
HETATM    7  O   UNL     1     -11.993   7.709  70.099  1.00  0.00    -0.478 OA 
HETATM    8  H   UNL     1     -12.311   8.573  70.334  1.00  0.00     0.000 HD 
ENDBRANCH   4   5
BRANCH   4   9
HETATM    9  C   UNL     1     -10.212   5.968  68.371  1.00  0.00    -0.181 C  
HETATM   10  O   UNL     1     -10.471   6.750  67.455  1.00  0.00    -0.196 OA 
BRANCH   9  11
HETATM   11  N   UNL     1      -9.864   4.655  68.121  1.00  0.00    -0.136 N  
HETATM   12  H   UNL     1     -10.366   3.910  68.604  1.00  0.00     0.000 HD 
BRANCH  11  13
HETATM   13  C   UNL     1      -8.797   4.298  67.186  1.00  0.00    -0.113 C  
HETATM   14  C   UNL     1      -7.412   4.295  67.846  1.00  0.00    -0.068 C  
HETATM   15  C   UNL     1      -7.198   3.117  68.797  1.00  0.00    -0.049 C  
HETATM   16  C   UNL     1      -7.554   1.770  68.176  1.00  0.00    -0.053 C  
HETATM   17  C   UNL     1      -8.910   1.766  67.477  1.00  0.00    -0.147 C  
HETATM   18  C   UNL     1      -9.080   2.946  66.522  1.00  0.00    -0.153 C  
ENDBRANCH  11  13
ENDBRANCH   9  11
ENDBRANCH   4   9
ENDBRANCH   3   4
TORSDOF 5
ENDMDL
MODEL      325
REMARK 921   NORMALIZED FREE ENERGY PREDICTED BY IDOCK:   -1.90 KCAL/MOL
REMARK 922        TOTAL FREE ENERGY PREDICTED BY IDOCK:   -3.05 KCAL/MOL
REMARK 923 INTER-LIGAND FREE ENERGY PREDICTED BY IDOCK:   -2.50 KCAL/MOL
REMARK 924 INTRA-LIGAND FREE ENERGY PREDICTED BY IDOCK:   -0.55 KCAL/MOL
REMARK 927      BINDING AFFINITY PREDICTED BY RF-SCORE:    0.00 PKD
ROOT
HETATM    1 CL   UNL     1      -6.203  11.476  68.138  1.00  0.00    -0.045 Cl 
HETATM    2  C   UNL     1      -7.172  10.271  67.250  1.00  0.00    -0.089 C  
HETATM    3  C   UNL     1      -7.337   9.004  68.081  1.00  0.00    -0.083 C  
ENDROOT
BRANCH   3   4
HETATM    4  N   UNL     1      -8.096   7.963  67.381  1.00  0.00    -0.121 N  
BRANCH   4   5
HETATM    5  N   UNL     1      -7.537   7.286  66.290  1.00  0.00    -0.089 NA 
HETATM    6  H   UNL     1      -6.906   7.733  65.624  1.00  0.00     0.000 HD 
HETATM    7  O   UNL     1      -7.876   6.101  66.203  1.00  0.00    -0.100 OA 
HETATM    8  H   UNL     1      -7.497   5.642  65.463  1.00  0.00     0.000 HD 
ENDBRANCH   4   5
BRANCH   4   9
HETATM    9  C   UNL     1      -9.302   7.531  67.929  1.00  0.00    -0.138 C  
HETATM   10  O   UNL     1     -10.378   8.054  67.636  1.00  0.00    -0.217 OA 
BRANCH   9  11
HETATM   11  N   UNL     1      -9.226   6.509  68.855  1.00  0.00    -0.130 N  
HETATM   12  H   UNL     1      -8.367   6.393  69.393  1.00  0.00     0.000 HD 
BRANCH  11  13
HETATM   13  C   UNL     1     -10.337   5.587  69.088  1.00  0.00    -0.248 C  
HETATM   14  C   UNL     1      -9.884   4.122  69.154  1.00  0.00    -0.121 C  
HETATM   15  C   UNL     1      -9.117   3.784  70.433  1.00  0.00    -0.195 C  
HETATM   16  C   UNL     1      -9.837   4.232  71.702  1.00  0.00    -0.257 C  
HETATM   17  C   UNL     1     -10.334   5.673  71.637  1.00  0.00    -0.270 C  
HETATM   18  C   UNL     1     -11.109   5.968  70.355  1.00  0.00    -0.399 C  
ENDBRANCH  11  13
ENDBRANCH   9  11
ENDBRANCH   4   9
ENDBRANCH   3   4
TORSDOF 5
ENDMDL
MODEL      326
REMARK 921   NORMALIZED FREE ENERGY PREDICTED BY IDOCK:   -1.82 KCAL/MOL
REMARK 922        TOTAL FREE ENERGY PREDICTED BY IDOCK:   -2.94 KCAL/MOL
REMARK 923 INTER-LIGAND FREE ENERGY PREDICTED BY IDOCK:   -2.51 KCAL/MOL
REMARK 924 INTRA-LIGAND FREE ENERGY PREDICTED BY IDOCK:   -0.43 KCAL/MOL
REMARK 927      BINDING AFFINITY PREDICTED BY RF-SCORE:    0.00 PKD
ROOT
HETATM    1 CL   UNL     1      -7.468   7.934  68.645  1.00  0.00    -0.097 Cl 
HETATM    2  C   UNL     1      -8.805   6.830  68.229  1.00  0.00    -0.125 C  
HETATM    3  C   UNL     1      -8.468   6.034  66.974  1.00  0.00    -0.108 C  
ENDROOT
BRANCH   3   4
HETATM    4  N   UNL     1      -9.552   5.135  66.565  1.00  0.00    -0.146 N  
BRANCH   4   5
HETATM    5  N   UNL     1     -10.696   5.640  65.936  1.00  0.00    -0.509 NA 
HETATM    6  H   UNL     1     -10.879   6.639  65.836  1.00  0.00     0.000 HD 
HETATM    7  O   UNL     1     -11.466   4.771  65.512  1.00  0.00    -0.935 OA 
HETATM    8  H   UNL     1     -12.242   5.113  65.085  1.00  0.00     0.000 HD 
ENDBRANCH   4   5
BRANCH   4   9
HETATM    9  C   UNL     1      -9.347   3.759  66.645  1.00  0.00    -0.190 C  
HETATM   10  O   UNL     1      -9.835   3.076  67.546  1.00  0.00     0.022 OA 
BRANCH   9  11
HETATM   11  N   UNL     1      -8.529   3.203  65.680  1.00  0.00    -0.104 N  
HETATM   12  H   UNL     1      -7.785   2.569  65.969  1.00  0.00     0.000 HD 
BRANCH  11  13
HETATM   13  C   UNL     1      -8.697   3.494  64.256  1.00  0.00    -0.093 C  
HETATM   14  C   UNL     1      -7.774   4.620  63.772  1.00  0.00    -0.073 C  
HETATM   15  C   UNL     1      -6.307   4.202  63.683  1.00  0.00    -0.026 C  
HETATM   16  C   UNL     1      -6.098   2.902  62.912  1.00  0.00    -0.013 C  
HETATM   17  C   UNL     1      -7.038   1.783  63.350  1.00  0.00    -0.032 C  
HETATM   18  C   UNL     1      -8.496   2.233  63.411  1.00  0.00    -0.085 C  
ENDBRANCH  11  13
ENDBRANCH   9  11
ENDBRANCH   4   9
ENDBRANCH   3   4
TORSDOF 5
ENDMDL
MODEL      327
REMARK 921   NORMALIZED FREE ENERGY PREDICTED BY IDOCK:   -1.79 KCAL/MOL
REMARK 922        TOTAL FREE ENERGY PREDICTED BY IDOCK:   -2.90 KCAL/MOL
REMARK 923 INTER-LIGAND FREE ENERGY PREDICTED BY IDOCK:   -2.64 KCAL/MOL
REMARK 924 INTRA-LIGAND FREE ENERGY PREDICTED BY IDOCK:   -0.27 KCAL/MOL
REMARK 927      BINDING AFFINITY PREDICTED BY RF-SCORE:    0.00 PKD
ROOT
HETATM    1 CL   UNL     1      -9.599   2.445  72.815  1.00  0.00    -0.140 Cl 
HETATM    2  C   UNL     1      -9.315   4.079  72.160  1.00  0.00    -0.128 C  
HETATM    3  C   UNL     1     -10.483   4.998  72.499  1.00  0.00    -0.215 C  
ENDROOT
BRANCH   3   4
HETATM    4  N   UNL     1     -10.318   6.349  71.951  1.00  0.00    -0.200 N  
BRANCH   4   5
HETATM    5  N   UNL     1     -10.435   7.472  72.779  1.00  0.00    -0.264 NA 
HETATM    6  H   UNL     1     -10.111   8.400  72.503  1.00  0.00     0.000 HD 
HETATM    7  O   UNL     1     -10.963   7.242  73.872  1.00  0.00    -0.533 OA 
HETATM    8  H   UNL     1     -11.042   8.004  74.433  1.00  0.00     0.000 HD 
ENDBRANCH   4   5
BRANCH   4   9
HETATM    9  C   UNL     1      -9.863   6.488  70.642  1.00  0.00    -0.183 C  
HETATM   10  O   UNL     1     -10.478   6.022  69.682  1.00  0.00    -0.208 OA 
BRANCH   9  11
HETATM   11  N   UNL     1      -8.658   7.144  70.476  1.00  0.00    -0.142 N  
HETATM   12  H   UNL     1      -8.045   7.261  71.282  1.00  0.00     0.000 HD 
BRANCH  11  13
HETATM   13  C   UNL     1      -8.235   7.677  69.182  1.00  0.00    -0.130 C  
HETATM   14  C   UNL     1      -8.919   9.007  68.840  1.00  0.00    -0.140 C  
HETATM   15  C   UNL     1      -8.409  10.181  69.676  1.00  0.00    -0.174 C  
HETATM   16  C   UNL     1      -6.887  10.292  69.692  1.00  0.00    -0.094 C  
HETATM   17  C   UNL     1      -6.188   8.968  69.986  1.00  0.00    -0.037 C  
HETATM   18  C   UNL     1      -6.711   7.824  69.121  1.00  0.00    -0.048 C  
ENDBRANCH  11  13
ENDBRANCH   9  11
ENDBRANCH   4   9
ENDBRANCH   3   4
TORSDOF 5
ENDMDL
MODEL      328
REMARK 921   NORMALIZED FREE ENERGY PREDICTED BY IDOCK:   -1.78 KCAL/MOL
REMARK 922        TOTAL FREE ENERGY PREDICTED BY IDOCK:   -2.90 KCAL/MOL
REMARK 923 INTER-LIGAND FREE ENERGY PREDICTED BY IDOCK:   -2.59 KCAL/MOL
REMARK 924 INTRA-LIGAND FREE ENERGY PREDICTED BY IDOCK:   -0.31 KCAL/MOL
REMARK 927      BINDING AFFINITY PREDICTED BY RF-SCORE:    0.00 PKD
ROOT
HETATM    1 CL   UNL     1      -6.440  11.957  68.698  1.00  0.00    -0.057 Cl 
HETATM    2  C   UNL     1      -8.073  11.654  68.050  1.00  0.00    -0.139 C  
HETATM    3  C   UNL     1      -8.011  10.663  66.893  1.00  0.00    -0.124 C  
ENDROOT
BRANCH   3   4
HETATM    4  N   UNL     1      -9.327  10.405  66.298  1.00  0.00    -0.162 N  
BRANCH   4   5
HETATM    5  N   UNL     1      -9.939  11.365  65.483  1.00  0.00    -0.228 NA 
HETATM    6  H   UNL     1     -10.875  11.729  65.663  1.00  0.00     0.000 HD 
HETATM    7  O   UNL     1      -9.248  11.732  64.527  1.00  0.00    -0.419 OA 
HETATM    8  H   UNL     1      -9.664  12.382  63.974  1.00  0.00     0.000 HD 
ENDBRANCH   4   5
BRANCH   4   9
HETATM    9  C   UNL     1      -9.870   9.127  66.403  1.00  0.00    -0.280 C  
HETATM   10  O   UNL     1     -10.829   8.882  67.137  1.00  0.00    -0.209 OA 
BRANCH   9  11
HETATM   11  N   UNL     1      -9.250   8.132  65.670  1.00  0.00    -0.412 N  
HETATM   12  H   UNL     1      -9.454   8.054  64.674  1.00  0.00     0.000 HD 
BRANCH  11  13
HETATM   13  C   UNL     1      -8.312   7.189  66.278  1.00  0.00    -0.129 C  
HETATM   14  C   UNL     1      -8.777   5.733  66.153  1.00  0.00    -0.139 C  
HETATM   15  C   UNL     1      -8.667   5.183  64.731  1.00  0.00    -0.133 C  
HETATM   16  C   UNL     1      -7.298   5.415  64.101  1.00  0.00    -0.057 C  
HETATM   17  C   UNL     1      -6.798   6.849  64.254  1.00  0.00    -0.046 C  
HETATM   18  C   UNL     1      -6.908   7.358  65.689  1.00  0.00    -0.056 C  
ENDBRANCH  11  13
ENDBRANCH   9  11
ENDBRANCH   4   9
ENDBRANCH   3   4
TORSDOF 5
ENDMDL
MODEL      329
REMARK 921   NORMALIZED FREE ENERGY PREDICTED BY IDOCK:   -1.76 KCAL/MOL
REMARK 922        TOTAL FREE ENERGY PREDICTED BY IDOCK:   -2.87 KCAL/MOL
REMARK 923 INTER-LIGAND FREE ENERGY PREDICTED BY IDOCK:   -2.29 KCAL/MOL
REMARK 924 INTRA-LIGAND FREE ENERGY PREDICTED BY IDOCK:   -0.58 KCAL/MOL
REMARK 927      BINDING AFFINITY PREDICTED BY RF-SCORE:    0.00 PKD
ROOT
HETATM    1 CL   UNL     1      -8.300  10.724  69.068  1.00  0.00    -0.151 Cl 
HETATM    2  C   UNL     1      -8.432   8.971  68.770  1.00  0.00    -0.131 C  
HETATM    3  C   UNL     1      -8.204   8.663  67.294  1.00  0.00    -0.105 C  
ENDROOT
BRANCH   3   4
HETATM    4  N   UNL     1      -8.338   7.235  66.986  1.00  0.00    -0.117 N  
BRANCH   4   5
HETATM    5  N   UNL     1      -7.342   6.328  67.367  1.00  0.00    -0.082 NA 
HETATM    6  H   UNL     1      -6.440   6.265  66.894  1.00  0.00     0.000 HD 
HETATM    7  O   UNL     1      -7.650   5.612  68.326  1.00  0.00    -0.080 OA 
HETATM    8  H   UNL     1      -6.974   4.996  68.584  1.00  0.00     0.000 HD 
ENDBRANCH   4   5
BRANCH   4   9
HETATM    9  C   UNL     1      -9.549   6.771  66.477  1.00  0.00    -0.140 C  
HETATM   10  O   UNL     1     -10.626   7.286  66.781  1.00  0.00    -0.298 OA 
BRANCH   9  11
HETATM   11  N   UNL     1      -9.484   5.673  65.641  1.00  0.00    -0.357 N  
HETATM   12  H   UNL     1      -8.816   5.677  64.871  1.00  0.00     0.000 HD 
BRANCH  11  13
HETATM   13  C   UNL     1     -10.344   4.504  65.826  1.00  0.00    -0.258 C  
HETATM   14  C   UNL     1     -10.807   3.897  64.495  1.00  0.00    -0.120 C  
HETATM   15  C   UNL     1      -9.694   3.166  63.745  1.00  0.00    -0.140 C  
HETATM   16  C   UNL     1      -8.939   2.164  64.614  1.00  0.00    -0.121 C  
HETATM   17  C   UNL     1      -8.510   2.738  65.961  1.00  0.00    -0.103 C  
HETATM   18  C   UNL     1      -9.651   3.445  66.689  1.00  0.00    -0.090 C  
ENDBRANCH  11  13
ENDBRANCH   9  11
ENDBRANCH   4   9
ENDBRANCH   3   4
TORSDOF 5
ENDMDL
MODEL      330
REMARK 921   NORMALIZED FREE ENERGY PREDICTED BY IDOCK:   -1.71 KCAL/MOL
REMARK 922        TOTAL FREE ENERGY PREDICTED BY IDOCK:   -2.81 KCAL/MOL
REMARK 923 INTER-LIGAND FREE ENERGY PREDICTED BY IDOCK:   -2.47 KCAL/MOL
REMARK 924 INTRA-LIGAND FREE ENERGY PREDICTED BY IDOCK:   -0.34 KCAL/MOL
REMARK 927      BINDING AFFINITY PREDICTED BY RF-SCORE:    0.00 PKD
ROOT
HETATM    1 CL   UNL     1      -6.491   9.486  63.136  1.00  0.00    -0.100 Cl 
HETATM    2  C   UNL     1      -7.139   9.809  64.766  1.00  0.00    -0.126 C  
HETATM    3  C   UNL     1      -7.369   8.502  65.516  1.00  0.00    -0.084 C  
ENDROOT
BRANCH   3   4
HETATM    4  N   UNL     1      -7.937   8.709  66.852  1.00  0.00    -0.095 N  
BRANCH   4   5
HETATM    5  N   UNL     1      -7.220   9.409  67.830  1.00  0.00    -0.082 NA 
HETATM    6  H   UNL     1      -6.476   8.983  68.383  1.00  0.00     0.000 HD 
HETATM    7  O   UNL     1      -7.567  10.587  67.966  1.00  0.00    -0.089 OA 
HETATM    8  H   UNL     1      -7.082  11.062  68.629  1.00  0.00     0.000 HD 
ENDBRANCH   4   5
BRANCH   4   9
HETATM    9  C   UNL     1      -9.268   8.362  67.074  1.00  0.00    -0.151 C  
HETATM   10  O   UNL     1     -10.196   8.922  66.489  1.00  0.00    -0.284 OA 
BRANCH   9  11
HETATM   11  N   UNL     1      -9.499   7.380  68.018  1.00  0.00    -0.140 N  
HETATM   12  H   UNL     1      -9.014   7.433  68.914  1.00  0.00     0.000 HD 
BRANCH  11  13
HETATM   13  C   UNL     1     -10.417   6.268  67.775  1.00  0.00    -0.232 C  
HETATM   14  C   UNL     1      -9.809   5.190  66.869  1.00  0.00    -0.201 C  
HETATM   15  C   UNL     1      -8.725   4.362  67.559  1.00  0.00    -0.112 C  
HETATM   16  C   UNL     1      -9.160   3.811  68.914  1.00  0.00    -0.201 C  
HETATM   17  C   UNL     1      -9.808   4.860  69.812  1.00  0.00    -0.292 C  
HETATM   18  C   UNL     1     -10.896   5.655  69.094  1.00  0.00    -0.281 C  
ENDBRANCH  11  13
ENDBRANCH   9  11
ENDBRANCH   4   9
ENDBRANCH   3   4
TORSDOF 5
ENDMDL
MODEL      331
REMARK 921   NORMALIZED FREE ENERGY PREDICTED BY IDOCK:   -1.44 KCAL/MOL
REMARK 922        TOTAL FREE ENERGY PREDICTED BY IDOCK:   -2.46 KCAL/MOL
REMARK 923 INTER-LIGAND FREE ENERGY PREDICTED BY IDOCK:   -2.04 KCAL/MOL
REMARK 924 INTRA-LIGAND FREE ENERGY PREDICTED BY IDOCK:   -0.42 KCAL/MOL
REMARK 927      BINDING AFFINITY PREDICTED BY RF-SCORE:    0.00 PKD
ROOT
HETATM    1 CL   UNL     1      -9.025   4.500  65.460  1.00  0.00    -0.132 Cl 
HETATM    2  C   UNL     1      -7.707   5.694  65.326  1.00  0.00    -0.088 C  
HETATM    3  C   UNL     1      -8.181   7.064  65.798  1.00  0.00    -0.132 C  
ENDROOT
BRANCH   3   4
HETATM    4  N   UNL     1      -7.144   8.094  65.674  1.00  0.00    -0.066 N  
BRANCH   4   5
HETATM    5  N   UNL     1      -6.774   8.584  64.416  1.00  0.00    -0.066 NA 
HETATM    6  H   UNL     1      -6.647   7.981  63.602  1.00  0.00     0.000 HD 
HETATM    7  O   UNL     1      -6.613   9.808  64.376  1.00  0.00    -0.105 OA 
HETATM    8  H   UNL     1      -6.362  10.140  63.523  1.00  0.00     0.000 HD 
ENDBRANCH   4   5
BRANCH   4   9
HETATM    9  C   UNL     1      -6.669   8.708  66.831  1.00  0.00    -0.065 C  
HETATM   10  O   UNL     1      -5.482   8.662  67.155  1.00  0.00    -0.036 OA 
BRANCH   9  11
HETATM   11  N   UNL     1      -7.609   9.339  67.623  1.00  0.00    -0.088 N  
HETATM   12  H   UNL     1      -7.833   8.941  68.535  1.00  0.00     0.000 HD 
BRANCH  11  13
HETATM   13  C   UNL     1      -8.293  10.558  67.196  1.00  0.00    -0.127 C  
HETATM   14  C   UNL     1      -9.492  10.272  66.282  1.00  0.00    -0.223 C  
HETATM   15  C   UNL     1     -10.684   9.665  67.021  1.00  0.00    -0.225 C  
HETATM   16  C   UNL     1     -11.076  10.444  68.273  1.00  0.00    -0.338 C  
HETATM   17  C   UNL     1      -9.889  10.776  69.173  1.00  0.00    -0.194 C  
HETATM   18  C   UNL     1      -8.725  11.397  68.403  1.00  0.00    -0.157 C  
ENDBRANCH  11  13
ENDBRANCH   9  11
ENDBRANCH   4   9
ENDBRANCH   3   4
TORSDOF 5
ENDMDL
MODEL      332
REMARK 921   NORMALIZED FREE ENERGY PREDICTED BY IDOCK:   -1.29 KCAL/MOL
REMARK 922        TOTAL FREE ENERGY PREDICTED BY IDOCK:   -2.26 KCAL/MOL
REMARK 923 INTER-LIGAND FREE ENERGY PREDICTED BY IDOCK:   -1.99 KCAL/MOL
REMARK 924 INTRA-LIGAND FREE ENERGY PREDICTED BY IDOCK:   -0.27 KCAL/MOL
REMARK 927      BINDING AFFINITY PREDICTED BY RF-SCORE:    0.00 PKD
ROOT
HETATM    1 CL   UNL     1      -9.051   4.496  65.438  1.00  0.00    -0.140 Cl 
HETATM    2  C   UNL     1      -8.036   5.911  65.052  1.00  0.00    -0.132 C  
HETATM    3  C   UNL     1      -8.841   7.198  65.197  1.00  0.00     0.265 C  
ENDROOT
BRANCH   3   4
HETATM    4  N   UNL     1      -8.063   8.393  64.855  1.00  0.00    -0.142 N  
BRANCH   4   5
HETATM    5  N   UNL     1      -7.533   8.554  63.569  1.00  0.00    -0.107 NA 
HETATM    6  H   UNL     1      -6.534   8.501  63.370  1.00  0.00     0.000 HD 
HETATM    7  O   UNL     1      -8.381   8.767  62.696  1.00  0.00    -0.185 OA 
HETATM    8  H   UNL     1      -8.022   8.876  61.824  1.00  0.00     0.000 HD 
ENDBRANCH   4   5
BRANCH   4   9
HETATM    9  C   UNL     1      -8.016   9.445  65.768  1.00  0.00    -0.110 C  
HETATM   10  O   UNL     1      -6.959   9.828  66.271  1.00  0.00    -0.089 OA 
BRANCH   9  11
HETATM   11  N   UNL     1      -9.228  10.013  66.114  1.00  0.00    -0.158 N  
HETATM   12  H   UNL     1     -10.063   9.750  65.591  1.00  0.00     0.000 HD 
BRANCH  11  13
HETATM   13  C   UNL     1      -9.349  10.979  67.205  1.00  0.00    -0.156 C  
HETATM   14  C   UNL     1      -9.032  12.413  66.761  1.00  0.00    -0.205 C  
HETATM   15  C   UNL     1     -10.117  13.026  65.877  1.00  0.00    -0.291 C  
HETATM   16  C   UNL     1     -11.519  12.892  66.464  1.00  0.00    -0.390 C  
HETATM   17  C   UNL     1     -11.837  11.482  66.952  1.00  0.00     0.124 C  
HETATM   18  C   UNL     1     -10.739  10.910  67.846  1.00  0.00    -0.274 C  
ENDBRANCH  11  13
ENDBRANCH   9  11
ENDBRANCH   4   9
ENDBRANCH   3   4
TORSDOF 5
ENDMDL
MODEL      333
REMARK 921   NORMALIZED FREE ENERGY PREDICTED BY IDOCK:   -0.91 KCAL/MOL
REMARK 922        TOTAL FREE ENERGY PREDICTED BY IDOCK:   -1.77 KCAL/MOL
REMARK 923 INTER-LIGAND FREE ENERGY PREDICTED BY IDOCK:   -1.19 KCAL/MOL
REMARK 924 INTRA-LIGAND FREE ENERGY PREDICTED BY IDOCK:   -0.58 KCAL/MOL
REMARK 927      BINDING AFFINITY PREDICTED BY RF-SCORE:    0.00 PKD
ROOT
HETATM    1 CL   UNL     1      -5.677   4.460  65.329  1.00  0.00    -0.017 Cl 
HETATM    2  C   UNL     1      -6.726   5.764  65.944  1.00  0.00    -0.056 C  
HETATM    3  C   UNL     1      -6.490   5.978  67.435  1.00  0.00    -0.047 C  
ENDROOT
BRANCH   3   4
HETATM    4  N   UNL     1      -7.355   7.018  68.002  1.00  0.00    -0.094 N  
BRANCH   4   5
HETATM    5  N   UNL     1      -8.723   7.044  67.706  1.00  0.00    -0.122 NA 
HETATM    6  H   UNL     1      -9.117   6.624  66.863  1.00  0.00     0.000 HD 
HETATM    7  O   UNL     1      -9.413   7.621  68.553  1.00  0.00    -0.146 OA 
HETATM    8  H   UNL     1     -10.341   7.640  68.352  1.00  0.00     0.000 HD 
ENDBRANCH   4   5
BRANCH   4   9
HETATM    9  C   UNL     1      -6.834   7.862  68.979  1.00  0.00    -0.057 C  
HETATM   10  O   UNL     1      -6.764   7.528  70.163  1.00  0.00    -0.048 OA 
BRANCH   9  11
HETATM   11  N   UNL     1      -6.436   9.117  68.560  1.00  0.00    -0.054 N  
HETATM   12  H   UNL     1      -5.451   9.277  68.347  1.00  0.00     0.000 HD 
BRANCH  11  13
HETATM   13  C   UNL     1      -7.381  10.223  68.410  1.00  0.00    -0.084 C  
HETATM   14  C   UNL     1      -7.247  11.267  69.527  1.00  0.00    -0.020 C  
HETATM   15  C   UNL     1      -5.980  12.115  69.411  1.00  0.00    -0.095 C  
HETATM   16  C   UNL     1      -5.782  12.715  68.023  1.00  0.00    -0.091 C  
HETATM   17  C   UNL     1      -5.955  11.700  66.897  1.00  0.00    -0.145 C  
HETATM   18  C   UNL     1      -7.238  10.884  67.036  1.00  0.00    -0.114 C  
ENDBRANCH  11  13
ENDBRANCH   9  11
ENDBRANCH   4   9
ENDBRANCH   3   4
TORSDOF 5
ENDMDL
MODEL      334
REMARK 921   NORMALIZED FREE ENERGY PREDICTED BY IDOCK:   -0.73 KCAL/MOL
REMARK 922        TOTAL FREE ENERGY PREDICTED BY IDOCK:   -1.54 KCAL/MOL
REMARK 923 INTER-LIGAND FREE ENERGY PREDICTED BY IDOCK:   -1.59 KCAL/MOL
REMARK 924 INTRA-LIGAND FREE ENERGY PREDICTED BY IDOCK:    0.05 KCAL/MOL
REMARK 927      BINDING AFFINITY PREDICTED BY RF-SCORE:    0.00 PKD
ROOT
HETATM    1 CL   UNL     1      -9.434   6.063  66.016  1.00  0.00    -0.118 Cl 
HETATM    2  C   UNL     1      -8.676   7.371  65.071  1.00  0.00     0.215 C  
HETATM    3  C   UNL     1      -9.353   8.705  65.369  1.00  0.00     0.048 C  
ENDROOT
BRANCH   3   4
HETATM    4  N   UNL     1      -8.791   9.812  64.589  1.00  0.00    -0.196 N  
BRANCH   4   5
HETATM    5  N   UNL     1      -9.144   9.987  63.245  1.00  0.00    -0.259 NA 
HETATM    6  H   UNL     1     -10.080   9.791  62.888  1.00  0.00     0.000 HD 
HETATM    7  O   UNL     1      -8.225  10.398  62.530  1.00  0.00    -0.149 OA 
HETATM    8  H   UNL     1      -8.464  10.516  61.619  1.00  0.00     0.000 HD 
ENDBRANCH   4   5
BRANCH   4   9
HETATM    9  C   UNL     1      -8.050  10.788  65.250  1.00  0.00    -0.021 C  
HETATM   10  O   UNL     1      -6.878  10.607  65.583  1.00  0.00    -0.131 OA 
BRANCH   9  11
HETATM   11  N   UNL     1      -8.712  11.963  65.553  1.00  0.00    -0.334 N  
HETATM   12  H   UNL     1      -8.598  12.767  64.936  1.00  0.00     0.000 HD 
BRANCH  11  13
HETATM   13  C   UNL     1      -9.571  12.090  66.730  1.00  0.00    -0.208 C  
HETATM   14  C   UNL     1      -9.277  11.023  67.792  1.00  0.00    -0.155 C  
HETATM   15  C   UNL     1      -7.956  11.250  68.527  1.00  0.00    -0.145 C  
HETATM   16  C   UNL     1      -7.803  12.670  69.065  1.00  0.00     0.250 C  
HETATM   17  C   UNL     1      -8.135  13.745  68.035  1.00  0.00    -0.163 C  
HETATM   18  C   UNL     1      -9.469  13.493  67.335  1.00  0.00    -0.225 C  
ENDBRANCH  11  13
ENDBRANCH   9  11
ENDBRANCH   4   9
ENDBRANCH   3   4
TORSDOF 5
ENDMDL
MODEL      335
REMARK 921   NORMALIZED FREE ENERGY PREDICTED BY IDOCK:   -0.21 KCAL/MOL
REMARK 922        TOTAL FREE ENERGY PREDICTED BY IDOCK:   -0.86 KCAL/MOL
REMARK 923 INTER-LIGAND FREE ENERGY PREDICTED BY IDOCK:   -3.06 KCAL/MOL
REMARK 924 INTRA-LIGAND FREE ENERGY PREDICTED BY IDOCK:    2.19 KCAL/MOL
REMARK 927      BINDING AFFINITY PREDICTED BY RF-SCORE:    0.00 PKD
ROOT
HETATM    1 CL   UNL     1      -8.053   7.682  68.469  1.00  0.00    -0.123 Cl 
HETATM    2  C   UNL     1      -9.229   6.469  67.899  1.00  0.00    -0.110 C  
HETATM    3  C   UNL     1      -8.703   5.761  66.656  1.00  0.00    -0.119 C  
ENDROOT
BRANCH   3   4
HETATM    4  N   UNL     1      -9.650   4.776  66.122  1.00  0.00    -0.163 N  
BRANCH   4   5
HETATM    5  N   UNL     1     -10.813   5.191  65.464  1.00  0.00    -0.628 NA 
HETATM    6  H   UNL     1     -11.031   6.173  65.289  1.00  0.00     0.000 HD 
HETATM    7  O   UNL     1     -11.554   4.267  65.113  1.00  0.00    -0.928 OA 
HETATM    8  H   UNL     1     -12.343   4.548  64.666  1.00  0.00     0.000 HD 
ENDBRANCH   4   5
BRANCH   4   9
HETATM    9  C   UNL     1      -9.285   3.431  66.118  1.00  0.00    -0.163 C  
HETATM   10  O   UNL     1      -9.335   2.744  65.097  1.00  0.00    -0.151 OA 
BRANCH   9  11
HETATM   11  N   UNL     1      -8.901   2.894  67.331  1.00  0.00    -0.124 N  
HETATM   12  H   UNL     1      -9.312   2.011  67.632  1.00  0.00     0.000 HD 
BRANCH  11  13
HETATM   13  C   UNL     1      -7.923   3.552  68.198  1.00  0.00    -0.071 C  
HETATM   14  C   UNL     1      -8.582   4.332  69.343  1.00  0.00    -0.109 C  
HETATM   15  C   UNL     1      -9.179   3.431  70.423  1.00  0.00    -0.221 C  
HETATM   16  C   UNL     1      -8.208   2.365  70.923  1.00  0.00    -0.068 C  
HETATM   17  C   UNL     1      -7.510   1.609  69.797  1.00  0.00    -0.036 C  
HETATM   18  C   UNL     1      -6.911   2.542  68.747  1.00  0.00    -0.044 C  
ENDBRANCH  11  13
ENDBRANCH   9  11
ENDBRANCH   4   9
ENDBRANCH   3   4
TORSDOF 5
ENDMDL
MODEL      336
REMARK 921   NORMALIZED FREE ENERGY PREDICTED BY IDOCK:   13.29 KCAL/MOL
REMARK 922        TOTAL FREE ENERGY PREDICTED BY IDOCK:   16.57 KCAL/MOL
REMARK 923 INTER-LIGAND FREE ENERGY PREDICTED BY IDOCK:   15.73 KCAL/MOL
REMARK 924 INTRA-LIGAND FREE ENERGY PREDICTED BY IDOCK:    0.84 KCAL/MOL
REMARK 927      BINDING AFFINITY PREDICTED BY RF-SCORE:    0.00 PKD
ROOT
HETATM    1 CL   UNL     1      -7.568  19.825  71.573  1.00  0.00     1.706 Cl 
HETATM    2  C   UNL     1      -7.681  18.441  70.455  1.00  0.00     2.602 C  
HETATM    3  C   UNL     1      -8.832  17.525  70.857  1.00  0.00     6.193 C  
ENDROOT
BRANCH   3   4
HETATM    4  N   UNL     1      -8.948  16.348  69.990  1.00  0.00     0.842 N  
BRANCH   4   5
HETATM    5  N   UNL     1      -9.085  15.068  70.542  1.00  0.00     0.394 NA 
HETATM    6  H   UNL     1      -8.298  14.431  70.668  1.00  0.00     0.000 HD 
HETATM    7  O   UNL     1     -10.242  14.778  70.863  1.00  0.00    -0.082 OA 
HETATM    8  H   UNL     1     -10.336  13.910  71.237  1.00  0.00     0.000 HD 
ENDBRANCH   4   5
BRANCH   4   9
HETATM    9  C   UNL     1      -9.104  16.539  68.619  1.00  0.00    -0.239 C  
HETATM   10  O   UNL     1      -9.285  15.599  67.844  1.00  0.00    -0.189 OA 
BRANCH   9  11
HETATM   11  N   UNL     1      -9.005  17.840  68.164  1.00  0.00    -0.264 N  
HETATM   12  H   UNL     1      -9.629  18.547  68.553  1.00  0.00     0.000 HD 
BRANCH  11  13
HETATM   13  C   UNL     1      -8.034  18.235  67.144  1.00  0.00    -0.220 C  
HETATM   14  C   UNL     1      -8.233  17.485  65.821  1.00  0.00     0.177 C  
HETATM   15  C   UNL     1      -9.474  17.936  65.051  1.00  0.00     2.714 C  
HETATM   16  C   UNL     1      -9.562  19.450  64.885  1.00  0.00     2.795 C  
HETATM   17  C   UNL     1      -9.323  20.215  66.183  1.00  0.00    -0.365 C  
HETATM   18  C   UNL     1      -8.066  19.749  66.915  1.00  0.00    -0.328 C  
ENDBRANCH  11  13
ENDBRANCH   9  11
ENDBRANCH   4   9
ENDBRANCH   3   4
TORSDOF 5
ENDMDL
