MODEL        1
REMARK 921   NORMALIZED FREE ENERGY PREDICTED BY IDOCK:   -7.20 KCAL/MOL
REMARK 922        TOTAL FREE ENERGY PREDICTED BY IDOCK:  -10.52 KCAL/MOL
REMARK 923 INTER-LIGAND FREE ENERGY PREDICTED BY IDOCK:  -10.14 KCAL/MOL
REMARK 924 INTRA-LIGAND FREE ENERGY PREDICTED BY IDOCK:   -0.37 KCAL/MOL
REMARK 927      BINDING AFFINITY PREDICTED BY RF-SCORE:    0.00 PKD
ROOT
HETATM    1  C   UNL     1     -11.718   9.961  70.656  1.00  0.00    -0.323 C  
HETATM    2  N   UNL     1     -10.732  10.120  69.590  1.00  0.00    -0.245 N  
HETATM    3  C   UNL     1      -9.346   9.920  69.975  1.00  0.00    -0.190 C  
HETATM    4  C   UNL     1     -11.177  10.734  68.416  1.00  0.00    -0.284 C  
HETATM    5  O   UNL     1     -12.374  11.060  68.344  1.00  0.00    -0.528 OA 
ENDROOT
BRANCH   4   6
HETATM    6  C   UNL     1     -10.201  11.007  67.172  1.00  0.00    -0.243 C  
BRANCH   6   7
HETATM    7  C   UNL     1      -9.168  12.099  67.720  1.00  0.00    -0.189 C  
BRANCH   7   8
HETATM    8  C   UNL     1      -9.743  13.343  68.423  1.00  0.00    -0.201 C  
BRANCH   8   9
HETATM    9  N   UNL     1      -8.854  14.523  68.474  1.00  0.00    -0.180 NA 
HETATM   10  C   UNL     1      -8.077  14.776  67.252  1.00  0.00    -0.207 C  
HETATM   11  C   UNL     1      -8.916  15.339  66.104  1.00  0.00    -0.251 C  
HETATM   12  C   UNL     1      -9.602  16.662  66.514  1.00  0.00    -0.273 C  
HETATM   13  H   UNL     1     -10.918  17.859  65.710  1.00  0.00     0.000 HD 
HETATM   14  O   UNL     1     -10.496  17.046  65.458  1.00  0.00    -0.572 OA 
HETATM   15  C   UNL     1     -10.451  16.337  67.762  1.00  0.00    -0.295 C  
HETATM   16  C   UNL     1      -9.594  15.733  68.879  1.00  0.00    -0.229 C  
BRANCH  12  17
HETATM   17  C   UNL     1      -8.656  17.865  66.665  1.00  0.00    -0.283 A  
HETATM   18  C   UNL     1      -9.003  18.978  67.457  1.00  0.00    -0.322 A  
HETATM   19  C   UNL     1      -8.133  20.062  67.625  1.00  0.00    -0.341 A  
HETATM   20  C   UNL     1      -6.883  20.047  67.022  1.00  0.00    -0.221 A  
HETATM   21  C   UNL     1      -6.498  18.956  66.252  1.00  0.00    -0.224 A  
HETATM   22 CL   UNL     1      -5.804  21.365  67.249  1.00  0.00    -0.403 Cl 
HETATM   23  C   UNL     1      -7.373  17.875  66.084  1.00  0.00    -0.327 A  
ENDBRANCH  12  17
ENDBRANCH   8   9
ENDBRANCH   7   8
ENDBRANCH   6   7
BRANCH   6  24
HETATM   24  C   UNL     1      -9.426   9.683  66.854  1.00  0.00    -0.198 A  
HETATM   25  C   UNL     1      -8.041   9.716  66.592  1.00  0.00    -0.119 A  
HETATM   26  C   UNL     1     -10.043   8.420  66.822  1.00  0.00    -0.373 A  
HETATM   27  C   UNL     1      -7.334   8.554  66.255  1.00  0.00    -0.079 A  
HETATM   28  C   UNL     1      -7.988   7.328  66.186  1.00  0.00    -0.112 A  
HETATM   29  C   UNL     1      -9.344   7.263  66.476  1.00  0.00    -0.216 A  
ENDBRANCH   6  24
BRANCH   6  30
HETATM   30  C   UNL     1     -10.970  11.625  65.953  1.00  0.00    -0.334 A  
HETATM   31  C   UNL     1     -11.350  11.875  63.545  1.00  0.00    -0.516 A  
HETATM   32  C   UNL     1     -11.906  12.669  66.134  1.00  0.00    -0.477 A  
HETATM   33  C   UNL     1     -10.748  11.216  64.626  1.00  0.00    -0.350 A  
HETATM   34  C   UNL     1     -12.251  12.910  63.764  1.00  0.00    -0.555 A  
HETATM   35  C   UNL     1     -12.548  13.293  65.063  1.00  0.00    -0.483 A  
ENDBRANCH   6  30
ENDBRANCH   4   6
TORSDOF 7
ENDMDL
MODEL        2
REMARK 921   NORMALIZED FREE ENERGY PREDICTED BY IDOCK:   -6.83 KCAL/MOL
REMARK 922        TOTAL FREE ENERGY PREDICTED BY IDOCK:   -9.99 KCAL/MOL
REMARK 923 INTER-LIGAND FREE ENERGY PREDICTED BY IDOCK:   -9.76 KCAL/MOL
REMARK 924 INTRA-LIGAND FREE ENERGY PREDICTED BY IDOCK:   -0.24 KCAL/MOL
REMARK 927      BINDING AFFINITY PREDICTED BY RF-SCORE:    0.00 PKD
ROOT
HETATM    1  C   UNL     1      -8.087  17.710  66.086  1.00  0.00    -0.193 C  
HETATM    2  N   UNL     1      -8.495  16.434  66.667  1.00  0.00    -0.240 N  
HETATM    3  C   UNL     1      -7.519  15.788  67.526  1.00  0.00    -0.172 C  
HETATM    4  C   UNL     1      -9.627  15.829  66.111  1.00  0.00    -0.332 C  
HETATM    5  O   UNL     1     -10.222  16.430  65.201  1.00  0.00    -0.582 OA 
ENDROOT
BRANCH   4   6
HETATM    6  C   UNL     1     -10.175  14.411  66.622  1.00  0.00    -0.277 C  
BRANCH   6   7
HETATM    7  C   UNL     1      -8.850  13.577  66.955  1.00  0.00    -0.194 C  
BRANCH   7   8
HETATM    8  C   UNL     1      -8.936  12.500  68.052  1.00  0.00    -0.192 C  
BRANCH   8   9
HETATM    9  N   UNL     1      -8.739  11.106  67.602  1.00  0.00    -0.128 NA 
HETATM   10  C   UNL     1      -8.162  10.199  68.605  1.00  0.00    -0.111 C  
HETATM   11  C   UNL     1      -9.148   9.805  69.705  1.00  0.00    -0.246 C  
HETATM   12  C   UNL     1     -10.401   9.122  69.111  1.00  0.00    -0.212 C  
HETATM   13  H   UNL     1     -12.119   8.510  69.807  1.00  0.00     0.000 HD 
HETATM   14  O   UNL     1     -11.349   8.930  70.172  1.00  0.00    -0.217 OA 
HETATM   15  C   UNL     1     -11.005  10.130  68.109  1.00  0.00    -0.313 C  
HETATM   16  C   UNL     1      -9.983  10.542  67.046  1.00  0.00    -0.201 C  
BRANCH  12  17
HETATM   17  C   UNL     1     -10.168   7.709  68.551  1.00  0.00    -0.220 A  
HETATM   18  C   UNL     1      -9.312   6.794  69.196  1.00  0.00    -0.135 A  
HETATM   19  C   UNL     1      -9.121   5.496  68.710  1.00  0.00    -0.131 A  
HETATM   20  C   UNL     1      -9.802   5.074  67.576  1.00  0.00    -0.165 A  
HETATM   21  C   UNL     1     -10.671   5.941  66.926  1.00  0.00    -0.395 A  
HETATM   22 CL   UNL     1      -9.589   3.471  66.993  1.00  0.00    -0.209 Cl 
HETATM   23  C   UNL     1     -10.857   7.241  67.415  1.00  0.00    -0.317 A  
ENDBRANCH  12  17
ENDBRANCH   8   9
ENDBRANCH   7   8
ENDBRANCH   6   7
BRANCH   6  24
HETATM   24  C   UNL     1     -10.980  14.642  67.947  1.00  0.00    -0.283 A  
HETATM   25  C   UNL     1     -11.114  15.940  68.479  1.00  0.00    -0.340 A  
HETATM   26  C   UNL     1     -11.607  13.602  68.656  1.00  0.00    -0.364 A  
HETATM   27  C   UNL     1     -11.785  16.167  69.688  1.00  0.00    -0.193 A  
HETATM   28  C   UNL     1     -12.352  15.107  70.388  1.00  0.00    -0.411 A  
HETATM   29  C   UNL     1     -12.266  13.824  69.866  1.00  0.00    -0.383 A  
ENDBRANCH   6  24
BRANCH   6  30
HETATM   30  C   UNL     1     -10.965  13.652  65.499  1.00  0.00    -0.297 A  
HETATM   31  C   UNL     1     -13.030  12.716  64.573  1.00  0.00    -0.236 A  
HETATM   32  C   UNL     1     -10.288  13.032  64.424  1.00  0.00    -0.397 A  
HETATM   33  C   UNL     1     -12.364  13.509  65.516  1.00  0.00    -0.524 A  
HETATM   34  C   UNL     1     -12.328  12.105  63.541  1.00  0.00    -0.682 A  
HETATM   35  C   UNL     1     -10.955  12.284  63.452  1.00  0.00    -0.467 A  
ENDBRANCH   6  30
ENDBRANCH   4   6
TORSDOF 7
ENDMDL
MODEL        3
REMARK 921   NORMALIZED FREE ENERGY PREDICTED BY IDOCK:   -6.75 KCAL/MOL
REMARK 922        TOTAL FREE ENERGY PREDICTED BY IDOCK:   -9.89 KCAL/MOL
REMARK 923 INTER-LIGAND FREE ENERGY PREDICTED BY IDOCK:   -9.52 KCAL/MOL
REMARK 924 INTRA-LIGAND FREE ENERGY PREDICTED BY IDOCK:   -0.37 KCAL/MOL
REMARK 927      BINDING AFFINITY PREDICTED BY RF-SCORE:    0.00 PKD
ROOT
HETATM    1  C   UNL     1      -9.052   7.672  68.109  1.00  0.00    -0.132 C  
HETATM    2  N   UNL     1      -9.123   9.127  68.212  1.00  0.00    -0.133 N  
HETATM    3  C   UNL     1      -8.467   9.713  69.368  1.00  0.00    -0.156 C  
HETATM    4  C   UNL     1     -10.050   9.766  67.383  1.00  0.00    -0.208 C  
HETATM    5  O   UNL     1     -10.710   9.067  66.597  1.00  0.00    -0.159 OA 
ENDROOT
BRANCH   4   6
HETATM    6  C   UNL     1     -10.265  11.356  67.410  1.00  0.00    -0.221 C  
BRANCH   6   7
HETATM    7  C   UNL     1      -8.792  11.945  67.621  1.00  0.00    -0.169 C  
BRANCH   7   8
HETATM    8  C   UNL     1      -8.599  13.023  68.703  1.00  0.00     0.045 C  
BRANCH   8   9
HETATM    9  N   UNL     1      -7.837  14.221  68.289  1.00  0.00    -0.131 NA 
HETATM   10  C   UNL     1      -8.174  14.751  66.960  1.00  0.00    -0.179 C  
HETATM   11  C   UNL     1      -9.520  15.476  66.919  1.00  0.00    -0.244 C  
HETATM   12  C   UNL     1      -9.549  16.652  67.921  1.00  0.00    -0.234 C  
HETATM   13  H   UNL     1     -10.901  17.903  68.566  1.00  0.00     0.000 HD 
HETATM   14  O   UNL     1     -10.884  17.180  67.950  1.00  0.00    -0.363 OA 
HETATM   15  C   UNL     1      -9.248  16.042  69.308  1.00  0.00    -0.243 C  
HETATM   16  C   UNL     1      -7.917  15.285  69.309  1.00  0.00    -0.223 C  
BRANCH  12  17
HETATM   17  C   UNL     1      -8.674  17.856  67.536  1.00  0.00    -0.243 A  
HETATM   18  C   UNL     1      -8.368  18.871  68.465  1.00  0.00    -0.384 A  
HETATM   19  C   UNL     1      -7.545  19.952  68.131  1.00  0.00    -0.316 A  
HETATM   20  C   UNL     1      -6.989  20.032  66.861  1.00  0.00    -0.220 A  
HETATM   21  C   UNL     1      -7.250  19.039  65.926  1.00  0.00    -0.287 A  
HETATM   22 CL   UNL     1      -5.956  21.346  66.458  1.00  0.00    -0.355 Cl 
HETATM   23  C   UNL     1      -8.076  17.959  66.265  1.00  0.00    -0.266 A  
ENDBRANCH  12  17
ENDBRANCH   8   9
ENDBRANCH   7   8
ENDBRANCH   6   7
BRANCH   6  24
HETATM   24  C   UNL     1     -10.799  11.805  66.007  1.00  0.00    -0.343 A  
HETATM   25  C   UNL     1      -9.959  11.749  64.876  1.00  0.00    -0.280 A  
HETATM   26  C   UNL     1     -12.110  12.266  65.795  1.00  0.00    -0.287 A  
HETATM   27  C   UNL     1     -10.395  12.192  63.620  1.00  0.00    -0.482 A  
HETATM   28  C   UNL     1     -11.685  12.688  63.459  1.00  0.00    -0.604 A  
HETATM   29  C   UNL     1     -12.544  12.718  64.548  1.00  0.00    -0.463 A  
ENDBRANCH   6  24
BRANCH   6  30
HETATM   30  C   UNL     1     -11.153  11.803  68.623  1.00  0.00    -0.289 A  
HETATM   31  C   UNL     1     -12.148  13.533  70.045  1.00  0.00    -0.411 A  
HETATM   32  C   UNL     1     -11.653  10.859  69.548  1.00  0.00    -0.384 A  
HETATM   33  C   UNL     1     -11.464  13.150  68.883  1.00  0.00    -0.343 A  
HETATM   34  C   UNL     1     -12.607  12.575  70.941  1.00  0.00    -0.331 A  
HETATM   35  C   UNL     1     -12.380  11.232  70.680  1.00  0.00    -0.477 A  
ENDBRANCH   6  30
ENDBRANCH   4   6
TORSDOF 7
ENDMDL
MODEL        4
REMARK 921   NORMALIZED FREE ENERGY PREDICTED BY IDOCK:   -6.74 KCAL/MOL
REMARK 922        TOTAL FREE ENERGY PREDICTED BY IDOCK:   -9.87 KCAL/MOL
REMARK 923 INTER-LIGAND FREE ENERGY PREDICTED BY IDOCK:   -9.79 KCAL/MOL
REMARK 924 INTRA-LIGAND FREE ENERGY PREDICTED BY IDOCK:   -0.07 KCAL/MOL
REMARK 927      BINDING AFFINITY PREDICTED BY RF-SCORE:    0.00 PKD
ROOT
HETATM    1  C   UNL     1      -8.532   6.325  73.947  1.00  0.00    -0.119 C  
HETATM    2  N   UNL     1      -9.413   6.571  72.808  1.00  0.00    -0.143 N  
HETATM    3  C   UNL     1     -10.110   5.409  72.284  1.00  0.00    -0.186 C  
HETATM    4  C   UNL     1      -9.266   7.801  72.160  1.00  0.00    -0.149 C  
HETATM    5  O   UNL     1      -8.437   8.606  72.616  1.00  0.00    -0.378 OA 
ENDROOT
BRANCH   4   6
HETATM    6  C   UNL     1     -10.140   8.198  70.875  1.00  0.00    -0.215 C  
BRANCH   6   7
HETATM    7  C   UNL     1      -9.554   9.619  70.429  1.00  0.00    -0.292 C  
BRANCH   7   8
HETATM    8  C   UNL     1      -9.874  10.113  69.006  1.00  0.00    -0.205 C  
BRANCH   8   9
HETATM    9  N   UNL     1      -9.624  11.547  68.750  1.00  0.00    -0.150 NA 
HETATM   10  C   UNL     1      -9.172  11.872  67.390  1.00  0.00    -0.177 C  
HETATM   11  C   UNL     1     -10.282  11.782  66.343  1.00  0.00    -0.248 C  
HETATM   12  C   UNL     1     -11.455  12.726  66.693  1.00  0.00    -0.350 C  
HETATM   13  H   UNL     1     -13.244  13.053  65.983  1.00  0.00     0.000 HD 
HETATM   14  O   UNL     1     -12.523  12.472  65.768  1.00  0.00    -0.626 OA 
HETATM   15  C   UNL     1     -11.935  12.312  68.101  1.00  0.00    -0.256 C  
HETATM   16  C   UNL     1     -10.792  12.368  69.119  1.00  0.00    -0.097 C  
BRANCH  12  17
HETATM   17  C   UNL     1     -11.155  14.225  66.522  1.00  0.00    -0.323 A  
HETATM   18  C   UNL     1     -11.051  15.085  67.633  1.00  0.00    -0.317 A  
HETATM   19  C   UNL     1     -10.746  16.444  67.487  1.00  0.00    -0.298 A  
HETATM   20  C   UNL     1     -10.516  16.969  66.223  1.00  0.00    -0.258 A  
HETATM   21  C   UNL     1     -10.589  16.147  65.106  1.00  0.00    -0.366 A  
HETATM   22 CL   UNL     1     -10.116  18.632  66.044  1.00  0.00    -0.373 Cl 
HETATM   23  C   UNL     1     -10.896  14.788  65.257  1.00  0.00    -0.395 A  
ENDBRANCH  12  17
ENDBRANCH   8   9
ENDBRANCH   7   8
ENDBRANCH   6   7
BRANCH   6  24
HETATM   24  C   UNL     1      -9.859   7.150  69.744  1.00  0.00    -0.173 A  
HETATM   25  C   UNL     1      -8.536   6.765  69.445  1.00  0.00    -0.132 A  
HETATM   26  C   UNL     1     -10.878   6.543  68.989  1.00  0.00    -0.357 A  
HETATM   27  C   UNL     1      -8.254   5.869  68.406  1.00  0.00    -0.109 A  
HETATM   28  C   UNL     1      -9.286   5.324  67.648  1.00  0.00    -0.121 A  
HETATM   29  C   UNL     1     -10.599   5.658  67.946  1.00  0.00    -0.266 A  
ENDBRANCH   6  24
BRANCH   6  30
HETATM   30  C   UNL     1     -11.655   8.382  71.236  1.00  0.00    -0.326 A  
HETATM   31  C   UNL     1     -13.534   9.741  72.026  1.00  0.00    -0.498 A  
HETATM   32  C   UNL     1     -12.535   7.276  71.272  1.00  0.00    -0.402 A  
HETATM   33  C   UNL     1     -12.211   9.627  71.581  1.00  0.00    -0.484 A  
HETATM   34  C   UNL     1     -14.363   8.626  72.067  1.00  0.00    -0.512 A  
HETATM   35  C   UNL     1     -13.870   7.395  71.665  1.00  0.00    -0.490 A  
ENDBRANCH   6  30
ENDBRANCH   4   6
TORSDOF 7
ENDMDL
MODEL        5
REMARK 921   NORMALIZED FREE ENERGY PREDICTED BY IDOCK:   -6.69 KCAL/MOL
REMARK 922        TOTAL FREE ENERGY PREDICTED BY IDOCK:   -9.81 KCAL/MOL
REMARK 923 INTER-LIGAND FREE ENERGY PREDICTED BY IDOCK:   -9.41 KCAL/MOL
REMARK 924 INTRA-LIGAND FREE ENERGY PREDICTED BY IDOCK:   -0.39 KCAL/MOL
REMARK 927      BINDING AFFINITY PREDICTED BY RF-SCORE:    0.00 PKD
ROOT
HETATM    1  C   UNL     1      -8.257  16.348  66.244  1.00  0.00    -0.308 C  
HETATM    2  N   UNL     1      -9.250  15.277  66.267  1.00  0.00    -0.302 N  
HETATM    3  C   UNL     1     -10.599  15.656  65.888  1.00  0.00    -0.343 C  
HETATM    4  C   UNL     1      -8.883  14.101  66.928  1.00  0.00    -0.203 C  
HETATM    5  O   UNL     1      -7.739  14.033  67.408  1.00  0.00    -0.176 OA 
ENDROOT
BRANCH   4   6
HETATM    6  C   UNL     1      -9.880  12.851  67.064  1.00  0.00    -0.233 C  
BRANCH   6   7
HETATM    7  C   UNL     1      -8.907  11.596  67.264  1.00  0.00    -0.164 C  
BRANCH   7   8
HETATM    8  C   UNL     1      -8.524  11.209  68.705  1.00  0.00    -0.153 C  
BRANCH   8   9
HETATM    9  N   UNL     1      -8.285   9.769  68.943  1.00  0.00    -0.112 NA 
HETATM   10  C   UNL     1      -8.290   9.358  70.354  1.00  0.00    -0.205 C  
HETATM   11  C   UNL     1      -9.688   9.325  70.972  1.00  0.00    -0.341 C  
HETATM   12  C   UNL     1     -10.617   8.367  70.194  1.00  0.00    -0.233 C  
HETATM   13  H   UNL     1     -12.517   7.919  70.242  1.00  0.00     0.000 HD 
HETATM   14  O   UNL     1     -11.945   8.508  70.721  1.00  0.00    -0.236 OA 
HETATM   15  C   UNL     1     -10.628   8.870  68.734  1.00  0.00    -0.185 C  
HETATM   16  C   UNL     1      -9.212   8.936  68.155  1.00  0.00    -0.139 C  
BRANCH  12  17
HETATM   17  C   UNL     1     -10.300   6.872  70.364  1.00  0.00    -0.221 A  
HETATM   18  C   UNL     1     -10.111   6.300  71.638  1.00  0.00    -0.214 A  
HETATM   19  C   UNL     1      -9.854   4.934  71.802  1.00  0.00    -0.240 A  
HETATM   20  C   UNL     1      -9.803   4.101  70.693  1.00  0.00    -0.179 A  
HETATM   21  C   UNL     1     -10.007   4.626  69.422  1.00  0.00    -0.249 A  
HETATM   22 CL   UNL     1      -9.515   2.419  70.895  1.00  0.00    -0.214 Cl 
HETATM   23  C   UNL     1     -10.261   5.994  69.263  1.00  0.00    -0.263 A  
ENDBRANCH  12  17
ENDBRANCH   8   9
ENDBRANCH   7   8
ENDBRANCH   6   7
BRANCH   6  24
HETATM   24  C   UNL     1     -10.740  13.045  68.359  1.00  0.00    -0.273 A  
HETATM   25  C   UNL     1     -11.450  11.958  68.910  1.00  0.00    -0.358 A  
HETATM   26  C   UNL     1     -10.845  14.273  69.035  1.00  0.00    -0.274 A  
HETATM   27  C   UNL     1     -12.266  12.116  70.038  1.00  0.00    -0.270 A  
HETATM   28  C   UNL     1     -12.383  13.359  70.652  1.00  0.00    -0.423 A  
HETATM   29  C   UNL     1     -11.666  14.436  70.152  1.00  0.00    -0.361 A  
ENDBRANCH   6  24
BRANCH   6  30
HETATM   30  C   UNL     1     -10.711  12.625  65.753  1.00  0.00    -0.295 A  
HETATM   31  C   UNL     1     -12.838  12.502  64.543  1.00  0.00    -0.352 A  
HETATM   32  C   UNL     1     -10.097  12.148  64.572  1.00  0.00    -0.286 A  
HETATM   33  C   UNL     1     -12.100  12.837  65.685  1.00  0.00    -0.514 A  
HETATM   34  C   UNL     1     -12.199  12.017  63.408  1.00  0.00    -0.627 A  
HETATM   35  C   UNL     1     -10.822  11.863  63.414  1.00  0.00    -0.469 A  
ENDBRANCH   6  30
ENDBRANCH   4   6
TORSDOF 7
ENDMDL
MODEL        6
REMARK 921   NORMALIZED FREE ENERGY PREDICTED BY IDOCK:   -6.53 KCAL/MOL
REMARK 922        TOTAL FREE ENERGY PREDICTED BY IDOCK:   -9.58 KCAL/MOL
REMARK 923 INTER-LIGAND FREE ENERGY PREDICTED BY IDOCK:   -9.63 KCAL/MOL
REMARK 924 INTRA-LIGAND FREE ENERGY PREDICTED BY IDOCK:    0.06 KCAL/MOL
REMARK 927      BINDING AFFINITY PREDICTED BY RF-SCORE:    0.00 PKD
ROOT
HETATM    1  C   UNL     1      -6.206  15.431  68.063  1.00  0.00    -0.141 C  
HETATM    2  N   UNL     1      -7.518  15.854  67.582  1.00  0.00    -0.139 N  
HETATM    3  C   UNL     1      -7.514  16.777  66.461  1.00  0.00    -0.287 C  
HETATM    4  C   UNL     1      -8.605  15.583  68.418  1.00  0.00    -0.168 C  
HETATM    5  O   UNL     1      -8.389  14.973  69.478  1.00  0.00    -0.184 OA 
ENDROOT
BRANCH   4   6
HETATM    6  C   UNL     1     -10.102  16.018  68.039  1.00  0.00    -0.240 C  
BRANCH   6   7
HETATM    7  C   UNL     1     -10.462  15.112  66.770  1.00  0.00    -0.283 C  
BRANCH   7   8
HETATM    8  C   UNL     1      -9.631  13.836  66.541  1.00  0.00    -0.285 C  
BRANCH   8   9
HETATM    9  N   UNL     1     -10.016  12.663  67.354  1.00  0.00    -0.203 NA 
HETATM   10  C   UNL     1     -10.917  11.709  66.691  1.00  0.00    -0.299 C  
HETATM   11  C   UNL     1     -10.225  10.861  65.623  1.00  0.00    -0.323 C  
HETATM   12  C   UNL     1      -9.046  10.063  66.224  1.00  0.00    -0.151 C  
HETATM   13  H   UNL     1      -7.621   8.933  65.516  1.00  0.00     0.000 HD 
HETATM   14  O   UNL     1      -8.346   9.424  65.146  1.00  0.00    -0.130 OA 
HETATM   15  C   UNL     1      -8.099  11.106  66.856  1.00  0.00    -0.150 C  
HETATM   16  C   UNL     1      -8.828  11.970  67.889  1.00  0.00    -0.174 C  
BRANCH  12  17
HETATM   17  C   UNL     1      -9.451   8.905  67.152  1.00  0.00    -0.202 A  
HETATM   18  C   UNL     1     -10.520   8.045  66.832  1.00  0.00    -0.387 A  
HETATM   19  C   UNL     1     -10.872   6.969  67.655  1.00  0.00    -0.312 A  
HETATM   20  C   UNL     1     -10.146   6.715  68.811  1.00  0.00    -0.158 A  
HETATM   21  C   UNL     1      -9.072   7.529  69.147  1.00  0.00    -0.138 A  
HETATM   22 CL   UNL     1     -10.561   5.379  69.810  1.00  0.00    -0.383 Cl 
HETATM   23  C   UNL     1      -8.724   8.606  68.321  1.00  0.00    -0.142 A  
ENDBRANCH  12  17
ENDBRANCH   8   9
ENDBRANCH   7   8
ENDBRANCH   6   7
BRANCH   6  24
HETATM   24  C   UNL     1     -11.045  15.630  69.229  1.00  0.00    -0.293 A  
HETATM   25  C   UNL     1     -11.072  16.414  70.400  1.00  0.00    -0.246 A  
HETATM   26  C   UNL     1     -11.902  14.516  69.197  1.00  0.00    -0.354 A  
HETATM   27  C   UNL     1     -11.868  16.060  71.497  1.00  0.00    -0.554 A  
HETATM   28  C   UNL     1     -12.668  14.923  71.448  1.00  0.00    -0.408 A  
HETATM   29  C   UNL     1     -12.688  14.154  70.293  1.00  0.00    -0.287 A  
ENDBRANCH   6  24
BRANCH   6  30
HETATM   30  C   UNL     1     -10.179  17.524  67.607  1.00  0.00    -0.343 A  
HETATM   31  C   UNL     1     -10.475  19.269  65.914  1.00  0.00    -0.534 A  
HETATM   32  C   UNL     1      -9.839  18.559  68.508  1.00  0.00    -0.414 A  
HETATM   33  C   UNL     1     -10.543  17.927  66.310  1.00  0.00    -0.241 A  
HETATM   34  C   UNL     1     -10.117  20.257  66.824  1.00  0.00    -0.556 A  
HETATM   35  C   UNL     1      -9.821  19.903  68.131  1.00  0.00    -0.524 A  
ENDBRANCH   6  30
ENDBRANCH   4   6
TORSDOF 7
ENDMDL
MODEL        7
REMARK 921   NORMALIZED FREE ENERGY PREDICTED BY IDOCK:   -6.53 KCAL/MOL
REMARK 922        TOTAL FREE ENERGY PREDICTED BY IDOCK:   -9.57 KCAL/MOL
REMARK 923 INTER-LIGAND FREE ENERGY PREDICTED BY IDOCK:   -9.60 KCAL/MOL
REMARK 924 INTRA-LIGAND FREE ENERGY PREDICTED BY IDOCK:    0.03 KCAL/MOL
REMARK 927      BINDING AFFINITY PREDICTED BY RF-SCORE:    0.00 PKD
ROOT
HETATM    1  C   UNL     1     -11.694  14.880  64.702  1.00  0.00    -0.404 C  
HETATM    2  N   UNL     1     -10.847  15.271  65.826  1.00  0.00    -0.346 N  
HETATM    3  C   UNL     1      -9.501  15.696  65.487  1.00  0.00    -0.129 C  
HETATM    4  C   UNL     1     -11.298  14.912  67.100  1.00  0.00    -0.343 C  
HETATM    5  O   UNL     1     -12.392  14.331  67.190  1.00  0.00    -0.360 OA 
ENDROOT
BRANCH   4   6
HETATM    6  C   UNL     1     -10.459  15.243  68.427  1.00  0.00    -0.236 C  
BRANCH   6   7
HETATM    7  C   UNL     1      -9.209  14.245  68.356  1.00  0.00    -0.196 C  
BRANCH   7   8
HETATM    8  C   UNL     1      -9.325  13.014  67.439  1.00  0.00    -0.209 C  
BRANCH   8   9
HETATM    9  N   UNL     1      -9.522  11.718  68.123  1.00  0.00    -0.188 NA 
HETATM   10  C   UNL     1     -10.671  10.929  67.653  1.00  0.00    -0.242 C  
HETATM   11  C   UNL     1     -10.444  10.282  66.286  1.00  0.00    -0.214 C  
HETATM   12  C   UNL     1      -9.208   9.355  66.307  1.00  0.00    -0.180 C  
HETATM   13  H   UNL     1      -8.198   8.344  64.978  1.00  0.00     0.000 HD 
HETATM   14  O   UNL     1      -8.958   8.914  64.964  1.00  0.00    -0.189 OA 
HETATM   15  C   UNL     1      -8.018  10.235  66.749  1.00  0.00    -0.114 C  
HETATM   16  C   UNL     1      -8.290  10.907  68.098  1.00  0.00    -0.123 C  
BRANCH  12  17
HETATM   17  C   UNL     1      -9.386   8.053  67.106  1.00  0.00    -0.186 A  
HETATM   18  C   UNL     1     -10.638   7.414  67.204  1.00  0.00    -0.413 A  
HETATM   19  C   UNL     1     -10.799   6.212  67.902  1.00  0.00    -0.406 A  
HETATM   20  C   UNL     1      -9.703   5.607  68.502  1.00  0.00    -0.136 A  
HETATM   21  C   UNL     1      -8.448   6.197  68.408  1.00  0.00    -0.114 A  
HETATM   22 CL   UNL     1      -9.894   4.117  69.337  1.00  0.00    -0.234 Cl 
HETATM   23  C   UNL     1      -8.292   7.401  67.710  1.00  0.00    -0.118 A  
ENDBRANCH  12  17
ENDBRANCH   8   9
ENDBRANCH   7   8
ENDBRANCH   6   7
BRANCH   6  24
HETATM   24  C   UNL     1      -9.942  16.719  68.328  1.00  0.00    -0.273 A  
HETATM   25  C   UNL     1      -8.593  17.020  68.609  1.00  0.00    -0.265 A  
HETATM   26  C   UNL     1     -10.763  17.797  67.955  1.00  0.00    -0.327 A  
HETATM   27  C   UNL     1      -8.118  18.337  68.577  1.00  0.00    -0.330 A  
HETATM   28  C   UNL     1      -8.972  19.385  68.251  1.00  0.00    -0.384 A  
HETATM   29  C   UNL     1     -10.295  19.112  67.933  1.00  0.00    -0.505 A  
ENDBRANCH   6  24
BRANCH   6  30
HETATM   30  C   UNL     1     -11.274  14.920  69.727  1.00  0.00    -0.308 A  
HETATM   31  C   UNL     1     -12.700  13.446  71.068  1.00  0.00    -0.387 A  
HETATM   32  C   UNL     1     -11.489  15.906  70.717  1.00  0.00    -0.437 A  
HETATM   33  C   UNL     1     -11.867  13.666  69.963  1.00  0.00    -0.378 A  
HETATM   34  C   UNL     1     -12.902  14.448  72.010  1.00  0.00    -0.419 A  
HETATM   35  C   UNL     1     -12.276  15.674  71.846  1.00  0.00    -0.506 A  
ENDBRANCH   6  30
ENDBRANCH   4   6
TORSDOF 7
ENDMDL
MODEL        8
REMARK 921   NORMALIZED FREE ENERGY PREDICTED BY IDOCK:   -6.50 KCAL/MOL
REMARK 922        TOTAL FREE ENERGY PREDICTED BY IDOCK:   -9.54 KCAL/MOL
REMARK 923 INTER-LIGAND FREE ENERGY PREDICTED BY IDOCK:   -9.12 KCAL/MOL
REMARK 924 INTRA-LIGAND FREE ENERGY PREDICTED BY IDOCK:   -0.42 KCAL/MOL
REMARK 927      BINDING AFFINITY PREDICTED BY RF-SCORE:    0.00 PKD
ROOT
HETATM    1  C   UNL     1     -10.597   7.536  69.064  1.00  0.00    -0.180 C  
HETATM    2  N   UNL     1      -9.944   8.815  68.797  1.00  0.00    -0.180 N  
HETATM    3  C   UNL     1      -9.410   9.507  69.957  1.00  0.00    -0.234 C  
HETATM    4  C   UNL     1     -10.165   9.377  67.536  1.00  0.00    -0.231 C  
HETATM    5  O   UNL     1     -10.857   8.739  66.725  1.00  0.00    -0.136 OA 
ENDROOT
BRANCH   4   6
HETATM    6  C   UNL     1      -9.541  10.793  67.111  1.00  0.00    -0.185 C  
BRANCH   6   7
HETATM    7  C   UNL     1      -9.707  11.700  68.419  1.00  0.00    -0.199 C  
BRANCH   7   8
HETATM    8  C   UNL     1     -10.460  13.035  68.276  1.00  0.00    -0.250 C  
BRANCH   8   9
HETATM    9  N   UNL     1      -9.642  14.256  68.434  1.00  0.00    -0.217 NA 
HETATM   10  C   UNL     1      -8.666  14.501  67.362  1.00  0.00    -0.199 C  
HETATM   11  C   UNL     1      -9.305  14.983  66.059  1.00  0.00    -0.304 C  
HETATM   12  C   UNL     1     -10.105  16.287  66.281  1.00  0.00    -0.324 C  
HETATM   13  H   UNL     1     -11.299  17.392  65.202  1.00  0.00     0.000 HD 
HETATM   14  O   UNL     1     -10.807  16.590  65.066  1.00  0.00    -0.622 OA 
HETATM   15  C   UNL     1     -11.153  15.968  67.370  1.00  0.00    -0.167 C  
HETATM   16  C   UNL     1     -10.490  15.444  68.647  1.00  0.00    -0.237 C  
BRANCH  12  17
HETATM   17  C   UNL     1      -9.250  17.537  66.547  1.00  0.00    -0.286 A  
HETATM   18  C   UNL     1      -7.877  17.571  66.232  1.00  0.00    -0.322 A  
HETATM   19  C   UNL     1      -7.102  18.717  66.441  1.00  0.00    -0.263 A  
HETATM   20  C   UNL     1      -7.688  19.867  66.951  1.00  0.00    -0.286 A  
HETATM   21  C   UNL     1      -9.044  19.877  67.253  1.00  0.00    -0.434 A  
HETATM   22 CL   UNL     1      -6.742  21.283  67.184  1.00  0.00    -0.409 Cl 
HETATM   23  C   UNL     1      -9.817  18.728  67.044  1.00  0.00    -0.359 A  
ENDBRANCH  12  17
ENDBRANCH   8   9
ENDBRANCH   7   8
ENDBRANCH   6   7
BRANCH   6  24
HETATM   24  C   UNL     1      -8.015  10.591  66.817  1.00  0.00    -0.121 A  
HETATM   25  C   UNL     1      -7.091  11.610  67.127  1.00  0.00    -0.143 A  
HETATM   26  C   UNL     1      -7.491   9.415  66.253  1.00  0.00    -0.096 A  
HETATM   27  C   UNL     1      -5.729  11.475  66.829  1.00  0.00    -0.139 A  
HETATM   28  C   UNL     1      -5.253  10.315  66.226  1.00  0.00    -0.052 A  
HETATM   29  C   UNL     1      -6.136   9.282  65.944  1.00  0.00    -0.055 A  
ENDBRANCH   6  24
BRANCH   6  30
HETATM   30  C   UNL     1     -10.351  11.459  65.944  1.00  0.00    -0.299 A  
HETATM   31  C   UNL     1     -10.526  12.313  63.655  1.00  0.00    -0.483 A  
HETATM   32  C   UNL     1     -11.639  11.997  66.165  1.00  0.00    -0.371 A  
HETATM   33  C   UNL     1      -9.837  11.597  64.642  1.00  0.00    -0.259 A  
HETATM   34  C   UNL     1     -11.783  12.844  63.916  1.00  0.00    -0.526 A  
HETATM   35  C   UNL     1     -12.352  12.665  65.168  1.00  0.00    -0.547 A  
ENDBRANCH   6  30
ENDBRANCH   4   6
TORSDOF 7
ENDMDL
MODEL        9
REMARK 921   NORMALIZED FREE ENERGY PREDICTED BY IDOCK:   -6.48 KCAL/MOL
REMARK 922        TOTAL FREE ENERGY PREDICTED BY IDOCK:   -9.51 KCAL/MOL
REMARK 923 INTER-LIGAND FREE ENERGY PREDICTED BY IDOCK:   -9.54 KCAL/MOL
REMARK 924 INTRA-LIGAND FREE ENERGY PREDICTED BY IDOCK:    0.04 KCAL/MOL
REMARK 927      BINDING AFFINITY PREDICTED BY RF-SCORE:    0.00 PKD
ROOT
HETATM    1  C   UNL     1      -7.904  17.304  66.114  1.00  0.00    -0.270 C  
HETATM    2  N   UNL     1      -8.381  16.047  66.686  1.00  0.00    -0.268 N  
HETATM    3  C   UNL     1      -7.469  15.381  67.599  1.00  0.00    -0.173 C  
HETATM    4  C   UNL     1      -9.501  15.472  66.079  1.00  0.00    -0.352 C  
HETATM    5  O   UNL     1     -10.032  16.081  65.135  1.00  0.00    -0.443 OA 
ENDROOT
BRANCH   4   6
HETATM    6  C   UNL     1     -10.118  14.076  66.575  1.00  0.00    -0.287 C  
BRANCH   6   7
HETATM    7  C   UNL     1      -8.835  13.177  66.901  1.00  0.00    -0.184 C  
BRANCH   7   8
HETATM    8  C   UNL     1      -8.924  11.667  66.608  1.00  0.00    -0.189 C  
BRANCH   8   9
HETATM    9  N   UNL     1      -9.239  10.804  67.766  1.00  0.00    -0.150 NA 
HETATM   10  C   UNL     1     -10.487  10.036  67.656  1.00  0.00    -0.246 C  
HETATM   11  C   UNL     1     -10.393   8.860  66.684  1.00  0.00    -0.294 C  
HETATM   12  C   UNL     1      -9.270   7.883  67.100  1.00  0.00    -0.146 C  
HETATM   13  H   UNL     1      -8.437   6.300  66.320  1.00  0.00     0.000 HD 
HETATM   14  O   UNL     1      -9.127   6.900  66.063  1.00  0.00    -0.146 OA 
HETATM   15  C   UNL     1      -7.970   8.717  67.147  1.00  0.00    -0.096 C  
HETATM   16  C   UNL     1      -8.108   9.914  68.092  1.00  0.00    -0.104 C  
BRANCH  12  17
HETATM   17  C   UNL     1      -9.560   7.060  68.366  1.00  0.00    -0.135 A  
HETATM   18  C   UNL     1     -10.879   6.782  68.777  1.00  0.00    -0.280 A  
HETATM   19  C   UNL     1     -11.149   6.006  69.909  1.00  0.00    -0.469 A  
HETATM   20  C   UNL     1     -10.103   5.469  70.647  1.00  0.00    -0.223 A  
HETATM   21  C   UNL     1      -8.790   5.703  70.259  1.00  0.00    -0.146 A  
HETATM   22 CL   UNL     1     -10.434   4.493  72.023  1.00  0.00    -0.216 Cl 
HETATM   23  C   UNL     1      -8.523   6.483  69.126  1.00  0.00    -0.126 A  
ENDBRANCH  12  17
ENDBRANCH   8   9
ENDBRANCH   7   8
ENDBRANCH   6   7
BRANCH   6  24
HETATM   24  C   UNL     1     -10.914  14.333  67.901  1.00  0.00    -0.278 A  
HETATM   25  C   UNL     1     -11.310  13.250  68.712  1.00  0.00    -0.331 A  
HETATM   26  C   UNL     1     -11.260  15.618  68.353  1.00  0.00    -0.352 A  
HETATM   27  C   UNL     1     -12.065  13.448  69.876  1.00  0.00    -0.389 A  
HETATM   28  C   UNL     1     -12.432  14.732  70.266  1.00  0.00    -0.393 A  
HETATM   29  C   UNL     1     -12.022  15.818  69.505  1.00  0.00    -0.326 A  
ENDBRANCH   6  24
BRANCH   6  30
HETATM   30  C   UNL     1     -10.942  13.369  65.444  1.00  0.00    -0.297 A  
HETATM   31  C   UNL     1     -13.035  12.474  64.538  1.00  0.00    -0.215 A  
HETATM   32  C   UNL     1     -10.298  12.796  64.323  1.00  0.00    -0.402 A  
HETATM   33  C   UNL     1     -12.340  13.225  65.495  1.00  0.00    -0.533 A  
HETATM   34  C   UNL     1     -12.364  11.910  63.460  1.00  0.00    -0.603 A  
HETATM   35  C   UNL     1     -10.995  12.092  63.339  1.00  0.00    -0.480 A  
ENDBRANCH   6  30
ENDBRANCH   4   6
TORSDOF 7
ENDMDL
MODEL       10
REMARK 921   NORMALIZED FREE ENERGY PREDICTED BY IDOCK:   -6.47 KCAL/MOL
REMARK 922        TOTAL FREE ENERGY PREDICTED BY IDOCK:   -9.49 KCAL/MOL
REMARK 923 INTER-LIGAND FREE ENERGY PREDICTED BY IDOCK:   -9.53 KCAL/MOL
REMARK 924 INTRA-LIGAND FREE ENERGY PREDICTED BY IDOCK:    0.05 KCAL/MOL
REMARK 927      BINDING AFFINITY PREDICTED BY RF-SCORE:    0.00 PKD
ROOT
HETATM    1  C   UNL     1      -8.113  18.368  68.667  1.00  0.00    -0.297 C  
HETATM    2  N   UNL     1      -8.489  16.969  68.851  1.00  0.00    -0.232 N  
HETATM    3  C   UNL     1      -7.464  16.107  69.413  1.00  0.00    -0.181 C  
HETATM    4  C   UNL     1      -9.652  16.545  68.200  1.00  0.00    -0.226 C  
HETATM    5  O   UNL     1     -10.299  17.385  67.554  1.00  0.00    -0.327 OA 
ENDROOT
BRANCH   4   6
HETATM    6  C   UNL     1     -10.171  15.029  68.282  1.00  0.00    -0.222 C  
BRANCH   6   7
HETATM    7  C   UNL     1      -8.841  14.174  68.527  1.00  0.00    -0.173 C  
BRANCH   7   8
HETATM    8  C   UNL     1      -8.434  13.155  67.447  1.00  0.00    -0.201 C  
BRANCH   8   9
HETATM    9  N   UNL     1      -8.531  11.731  67.835  1.00  0.00    -0.147 NA 
HETATM   10  C   UNL     1      -9.890  11.173  67.837  1.00  0.00    -0.174 C  
HETATM   11  C   UNL     1     -10.448  10.926  66.435  1.00  0.00    -0.307 C  
HETATM   12  C   UNL     1      -9.540   9.964  65.636  1.00  0.00    -0.256 C  
HETATM   13  H   UNL     1      -9.470   9.315  63.797  1.00  0.00     0.000 HD 
HETATM   14  O   UNL     1     -10.028   9.907  64.287  1.00  0.00    -0.133 OA 
HETATM   15  C   UNL     1      -8.141  10.616  65.610  1.00  0.00    -0.146 C  
HETATM   16  C   UNL     1      -7.626  10.893  67.025  1.00  0.00    -0.122 C  
BRANCH  12  17
HETATM   17  C   UNL     1      -9.567   8.501  66.111  1.00  0.00    -0.276 A  
HETATM   18  C   UNL     1     -10.566   8.030  66.986  1.00  0.00    -0.364 A  
HETATM   19  C   UNL     1     -10.615   6.692  67.394  1.00  0.00    -0.370 A  
HETATM   20  C   UNL     1      -9.676   5.787  66.918  1.00  0.00    -0.148 A  
HETATM   21  C   UNL     1      -8.690   6.211  66.036  1.00  0.00    -0.157 A  
HETATM   22 CL   UNL     1      -9.751   4.138  67.399  1.00  0.00    -0.223 Cl 
HETATM   23  C   UNL     1      -8.643   7.552  65.631  1.00  0.00    -0.131 A  
ENDBRANCH  12  17
ENDBRANCH   8   9
ENDBRANCH   7   8
ENDBRANCH   6   7
BRANCH   6  24
HETATM   24  C   UNL     1     -11.104  14.894  69.534  1.00  0.00    -0.301 A  
HETATM   25  C   UNL     1     -11.601  13.631  69.917  1.00  0.00    -0.281 A  
HETATM   26  C   UNL     1     -11.482  15.988  70.332  1.00  0.00    -0.392 A  
HETATM   27  C   UNL     1     -12.476  13.490  71.001  1.00  0.00    -0.451 A  
HETATM   28  C   UNL     1     -12.867  14.603  71.739  1.00  0.00    -0.402 A  
HETATM   29  C   UNL     1     -12.363  15.852  71.406  1.00  0.00    -0.485 A  
ENDBRANCH   6  24
BRANCH   6  30
HETATM   30  C   UNL     1     -10.816  14.561  66.931  1.00  0.00    -0.305 A  
HETATM   31  C   UNL     1     -10.768  14.299  64.495  1.00  0.00    -0.280 A  
HETATM   32  C   UNL     1     -12.156  14.114  66.879  1.00  0.00    -0.466 A  
HETATM   33  C   UNL     1     -10.127  14.597  65.705  1.00  0.00    -0.364 A  
HETATM   34  C   UNL     1     -12.094  13.882  64.483  1.00  0.00    -0.473 A  
HETATM   35  C   UNL     1     -12.783  13.765  65.681  1.00  0.00    -0.523 A  
ENDBRANCH   6  30
ENDBRANCH   4   6
TORSDOF 7
ENDMDL
MODEL       11
REMARK 921   NORMALIZED FREE ENERGY PREDICTED BY IDOCK:   -6.46 KCAL/MOL
REMARK 922        TOTAL FREE ENERGY PREDICTED BY IDOCK:   -9.47 KCAL/MOL
REMARK 923 INTER-LIGAND FREE ENERGY PREDICTED BY IDOCK:   -9.55 KCAL/MOL
REMARK 924 INTRA-LIGAND FREE ENERGY PREDICTED BY IDOCK:    0.08 KCAL/MOL
REMARK 927      BINDING AFFINITY PREDICTED BY RF-SCORE:    0.00 PKD
ROOT
HETATM    1  C   UNL     1     -12.067  12.442  63.555  1.00  0.00    -0.558 C  
HETATM    2  N   UNL     1     -11.052  12.160  64.566  1.00  0.00    -0.311 N  
HETATM    3  C   UNL     1      -9.838  11.524  64.086  1.00  0.00    -0.255 C  
HETATM    4  C   UNL     1     -11.462  12.244  65.901  1.00  0.00    -0.376 C  
HETATM    5  O   UNL     1     -12.633  12.588  66.131  1.00  0.00    -0.397 OA 
ENDROOT
BRANCH   4   6
HETATM    6  C   UNL     1     -10.468  11.930  67.120  1.00  0.00    -0.249 C  
BRANCH   6   7
HETATM    7  C   UNL     1      -9.247  12.941  66.898  1.00  0.00    -0.234 C  
BRANCH   7   8
HETATM    8  C   UNL     1      -9.580  14.422  66.637  1.00  0.00    -0.281 C  
BRANCH   8   9
HETATM    9  N   UNL     1      -9.176  15.370  67.698  1.00  0.00    -0.186 NA 
HETATM   10  C   UNL     1      -7.979  14.985  68.460  1.00  0.00    -0.144 C  
HETATM   11  C   UNL     1      -6.678  15.160  67.676  1.00  0.00    -0.201 C  
HETATM   12  C   UNL     1      -6.499  16.625  67.215  1.00  0.00    -0.180 C  
HETATM   13  H   UNL     1      -5.243  17.584  66.070  1.00  0.00     0.000 HD 
HETATM   14  O   UNL     1      -5.353  16.683  66.353  1.00  0.00    -0.331 OA 
HETATM   15  C   UNL     1      -7.747  16.966  66.373  1.00  0.00    -0.345 C  
HETATM   16  C   UNL     1      -9.037  16.739  67.167  1.00  0.00    -0.212 C  
BRANCH  12  17
HETATM   17  C   UNL     1      -6.179  17.625  68.339  1.00  0.00    -0.177 A  
HETATM   18  C   UNL     1      -6.712  18.929  68.336  1.00  0.00    -0.270 A  
HETATM   19  C   UNL     1      -6.451  19.833  69.373  1.00  0.00    -0.381 A  
HETATM   20  C   UNL     1      -5.667  19.444  70.450  1.00  0.00    -0.240 A  
HETATM   21  C   UNL     1      -5.142  18.159  70.497  1.00  0.00    -0.252 A  
HETATM   22 CL   UNL     1      -5.368  20.545  71.736  1.00  0.00    -0.335 Cl 
HETATM   23  C   UNL     1      -5.404  17.258  69.456  1.00  0.00    -0.173 A  
ENDBRANCH  12  17
ENDBRANCH   8   9
ENDBRANCH   7   8
ENDBRANCH   6   7
BRANCH   6  24
HETATM   24  C   UNL     1     -11.198  12.295  68.458  1.00  0.00    -0.316 A  
HETATM   25  C   UNL     1     -11.556  11.281  69.371  1.00  0.00    -0.390 A  
HETATM   26  C   UNL     1     -11.520  13.613  68.822  1.00  0.00    -0.346 A  
HETATM   27  C   UNL     1     -12.254  11.575  70.549  1.00  0.00    -0.469 A  
HETATM   28  C   UNL     1     -12.599  12.888  70.854  1.00  0.00    -0.355 A  
HETATM   29  C   UNL     1     -12.225  13.908  69.990  1.00  0.00    -0.408 A  
ENDBRANCH   6  24
BRANCH   6  30
HETATM   30  C   UNL     1      -9.911  10.465  67.055  1.00  0.00    -0.252 A  
HETATM   31  C   UNL     1      -8.061   8.865  66.917  1.00  0.00    -0.109 A  
HETATM   32  C   UNL     1     -10.781   9.362  66.893  1.00  0.00    -0.174 A  
HETATM   33  C   UNL     1      -8.538  10.168  67.109  1.00  0.00    -0.125 A  
HETATM   34  C   UNL     1      -8.947   7.809  66.741  1.00  0.00    -0.163 A  
HETATM   35  C   UNL     1     -10.312   8.054  66.754  1.00  0.00    -0.360 A  
ENDBRANCH   6  30
ENDBRANCH   4   6
TORSDOF 7
ENDMDL
MODEL       12
REMARK 921   NORMALIZED FREE ENERGY PREDICTED BY IDOCK:   -6.45 KCAL/MOL
REMARK 922        TOTAL FREE ENERGY PREDICTED BY IDOCK:   -9.47 KCAL/MOL
REMARK 923 INTER-LIGAND FREE ENERGY PREDICTED BY IDOCK:   -9.68 KCAL/MOL
REMARK 924 INTRA-LIGAND FREE ENERGY PREDICTED BY IDOCK:    0.21 KCAL/MOL
REMARK 927      BINDING AFFINITY PREDICTED BY RF-SCORE:    0.00 PKD
ROOT
HETATM    1  C   UNL     1      -8.352  18.754  68.465  1.00  0.00    -0.346 C  
HETATM    2  N   UNL     1      -8.626  17.336  68.682  1.00  0.00    -0.275 N  
HETATM    3  C   UNL     1      -7.515  16.546  69.184  1.00  0.00    -0.218 C  
HETATM    4  C   UNL     1      -9.798  16.832  68.109  1.00  0.00    -0.264 C  
HETATM    5  O   UNL     1     -10.537  17.623  67.500  1.00  0.00    -0.366 OA 
ENDROOT
BRANCH   4   6
HETATM    6  C   UNL     1     -10.213  15.288  68.235  1.00  0.00    -0.226 C  
BRANCH   6   7
HETATM    7  C   UNL     1      -8.818  14.520  68.389  1.00  0.00    -0.180 C  
BRANCH   7   8
HETATM    8  C   UNL     1      -8.607  13.240  67.559  1.00  0.00    -0.200 C  
BRANCH   8   9
HETATM    9  N   UNL     1      -8.877  11.966  68.260  1.00  0.00    -0.173 NA 
HETATM   10  C   UNL     1     -10.157  11.325  67.926  1.00  0.00    -0.178 C  
HETATM   11  C   UNL     1     -10.168  10.676  66.541  1.00  0.00    -0.288 C  
HETATM   12  C   UNL     1      -9.056   9.610  66.418  1.00  0.00    -0.156 C  
HETATM   13  H   UNL     1      -8.333   8.506  64.980  1.00  0.00     0.000 HD 
HETATM   14  O   UNL     1      -9.016   9.162  65.055  1.00  0.00    -0.201 OA 
HETATM   15  C   UNL     1      -7.727  10.338  66.719  1.00  0.00    -0.111 C  
HETATM   16  C   UNL     1      -7.760  11.017  68.091  1.00  0.00    -0.105 C  
BRANCH  12  17
HETATM   17  C   UNL     1      -9.292   8.326  67.232  1.00  0.00    -0.181 A  
HETATM   18  C   UNL     1      -8.284   7.774  68.046  1.00  0.00    -0.123 A  
HETATM   19  C   UNL     1      -8.504   6.625  68.814  1.00  0.00    -0.123 A  
HETATM   20  C   UNL     1      -9.749   6.012  68.803  1.00  0.00    -0.131 A  
HETATM   21  C   UNL     1     -10.774   6.541  68.028  1.00  0.00    -0.351 A  
HETATM   22 CL   UNL     1     -10.028   4.616  69.766  1.00  0.00    -0.300 Cl 
HETATM   23  C   UNL     1     -10.549   7.690  67.259  1.00  0.00    -0.388 A  
ENDBRANCH  12  17
ENDBRANCH   8   9
ENDBRANCH   7   8
ENDBRANCH   6   7
BRANCH   6  24
HETATM   24  C   UNL     1     -11.045  15.106  69.550  1.00  0.00    -0.287 A  
HETATM   25  C   UNL     1     -11.688  13.880  69.820  1.00  0.00    -0.372 A  
HETATM   26  C   UNL     1     -11.188  16.118  70.514  1.00  0.00    -0.381 A  
HETATM   27  C   UNL     1     -12.479  13.708  70.964  1.00  0.00    -0.456 A  
HETATM   28  C   UNL     1     -12.638  14.750  71.873  1.00  0.00    -0.404 A  
HETATM   29  C   UNL     1     -11.985  15.954  71.649  1.00  0.00    -0.553 A  
ENDBRANCH   6  24
BRANCH   6  30
HETATM   30  C   UNL     1     -10.921  14.768  66.935  1.00  0.00    -0.328 A  
HETATM   31  C   UNL     1     -12.743  13.593  65.794  1.00  0.00    -0.470 A  
HETATM   32  C   UNL     1     -10.280  14.843  65.676  1.00  0.00    -0.382 A  
HETATM   33  C   UNL     1     -12.192  14.167  66.948  1.00  0.00    -0.400 A  
HETATM   34  C   UNL     1     -12.074  13.671  64.579  1.00  0.00    -0.459 A  
HETATM   35  C   UNL     1     -10.850  14.319  64.515  1.00  0.00    -0.305 A  
ENDBRANCH   6  30
ENDBRANCH   4   6
TORSDOF 7
ENDMDL
MODEL       13
REMARK 921   NORMALIZED FREE ENERGY PREDICTED BY IDOCK:   -6.42 KCAL/MOL
REMARK 922        TOTAL FREE ENERGY PREDICTED BY IDOCK:   -9.42 KCAL/MOL
REMARK 923 INTER-LIGAND FREE ENERGY PREDICTED BY IDOCK:   -9.19 KCAL/MOL
REMARK 924 INTRA-LIGAND FREE ENERGY PREDICTED BY IDOCK:   -0.23 KCAL/MOL
REMARK 927      BINDING AFFINITY PREDICTED BY RF-SCORE:    0.00 PKD
ROOT
HETATM    1  C   UNL     1     -11.965  14.538  70.265  1.00  0.00    -0.314 C  
HETATM    2  N   UNL     1     -10.883  14.664  69.292  1.00  0.00    -0.254 N  
HETATM    3  C   UNL     1      -9.862  15.649  69.606  1.00  0.00    -0.280 C  
HETATM    4  C   UNL     1     -11.093  14.068  68.045  1.00  0.00    -0.263 C  
HETATM    5  O   UNL     1     -12.152  13.444  67.867  1.00  0.00    -0.338 OA 
ENDROOT
BRANCH   4   6
HETATM    6  C   UNL     1     -10.009  14.153  66.866  1.00  0.00    -0.261 C  
BRANCH   6   7
HETATM    7  C   UNL     1      -8.768  13.304  67.415  1.00  0.00    -0.206 C  
BRANCH   7   8
HETATM    8  C   UNL     1      -9.026  12.322  68.572  1.00  0.00    -0.070 C  
BRANCH   8   9
HETATM    9  N   UNL     1      -9.098  10.893  68.200  1.00  0.00    -0.149 NA 
HETATM   10  C   UNL     1      -7.943  10.080  68.608  1.00  0.00    -0.097 C  
HETATM   11  C   UNL     1      -7.907   9.785  70.108  1.00  0.00    -0.196 C  
HETATM   12  C   UNL     1      -9.189   9.051  70.561  1.00  0.00    -0.220 C  
HETATM   13  H   UNL     1      -9.952   8.502  72.272  1.00  0.00     0.000 HD 
HETATM   14  O   UNL     1      -9.164   8.954  71.993  1.00  0.00    -0.348 OA 
HETATM   15  C   UNL     1     -10.370   9.965  70.167  1.00  0.00    -0.336 C  
HETATM   16  C   UNL     1     -10.356  10.280  68.668  1.00  0.00    -0.184 C  
BRANCH  12  17
HETATM   17  C   UNL     1      -9.307   7.593  70.085  1.00  0.00    -0.157 A  
HETATM   18  C   UNL     1      -8.169   6.840  69.733  1.00  0.00    -0.127 A  
HETATM   19  C   UNL     1      -8.267   5.503  69.331  1.00  0.00    -0.098 A  
HETATM   20  C   UNL     1      -9.507   4.881  69.292  1.00  0.00    -0.142 A  
HETATM   21  C   UNL     1     -10.648   5.586  69.653  1.00  0.00    -0.375 A  
HETATM   22 CL   UNL     1      -9.625   3.231  68.823  1.00  0.00    -0.185 Cl 
HETATM   23  C   UNL     1     -10.546   6.924  70.053  1.00  0.00    -0.254 A  
ENDBRANCH  12  17
ENDBRANCH   8   9
ENDBRANCH   7   8
ENDBRANCH   6   7
BRANCH   6  24
HETATM   24  C   UNL     1     -10.598  13.438  65.602  1.00  0.00    -0.286 A  
HETATM   25  C   UNL     1     -11.538  14.099  64.785  1.00  0.00    -0.400 A  
HETATM   26  C   UNL     1     -10.229  12.139  65.212  1.00  0.00    -0.304 A  
HETATM   27  C   UNL     1     -12.118  13.464  63.679  1.00  0.00    -0.513 A  
HETATM   28  C   UNL     1     -11.764  12.159  63.352  1.00  0.00    -0.533 A  
HETATM   29  C   UNL     1     -10.813  11.499  64.118  1.00  0.00    -0.435 A  
ENDBRANCH   6  24
BRANCH   6  30
HETATM   30  C   UNL     1      -9.529  15.626  66.621  1.00  0.00    -0.282 A  
HETATM   31  C   UNL     1      -7.763  17.309  66.399  1.00  0.00    -0.347 A  
HETATM   32  C   UNL     1     -10.452  16.695  66.569  1.00  0.00    -0.262 A  
HETATM   33  C   UNL     1      -8.172  15.972  66.484  1.00  0.00    -0.334 A  
HETATM   34  C   UNL     1      -8.701  18.334  66.371  1.00  0.00    -0.260 A  
HETATM   35  C   UNL     1     -10.051  18.024  66.431  1.00  0.00    -0.384 A  
ENDBRANCH   6  30
ENDBRANCH   4   6
TORSDOF 7
ENDMDL
MODEL       14
REMARK 921   NORMALIZED FREE ENERGY PREDICTED BY IDOCK:   -6.40 KCAL/MOL
REMARK 922        TOTAL FREE ENERGY PREDICTED BY IDOCK:   -9.40 KCAL/MOL
REMARK 923 INTER-LIGAND FREE ENERGY PREDICTED BY IDOCK:   -8.88 KCAL/MOL
REMARK 924 INTRA-LIGAND FREE ENERGY PREDICTED BY IDOCK:   -0.51 KCAL/MOL
REMARK 927      BINDING AFFINITY PREDICTED BY RF-SCORE:    0.00 PKD
ROOT
HETATM    1  C   UNL     1     -13.120  15.282  70.584  1.00  0.00    -0.358 C  
HETATM    2  N   UNL     1     -12.124  14.640  69.729  1.00  0.00    -0.317 N  
HETATM    3  C   UNL     1     -11.837  13.248  70.026  1.00  0.00    -0.295 C  
HETATM    4  C   UNL     1     -11.345  15.488  68.935  1.00  0.00    -0.324 C  
HETATM    5  O   UNL     1     -11.578  16.707  68.980  1.00  0.00    -0.129 OA 
ENDROOT
BRANCH   4   6
HETATM    6  C   UNL     1     -10.190  14.931  67.971  1.00  0.00    -0.228 C  
BRANCH   6   7
HETATM    7  C   UNL     1      -9.547  13.718  68.794  1.00  0.00    -0.044 C  
BRANCH   7   8
HETATM    8  C   UNL     1      -8.451  12.885  68.104  1.00  0.00    -0.176 C  
BRANCH   8   9
HETATM    9  N   UNL     1      -8.516  11.425  68.328  1.00  0.00    -0.148 NA 
HETATM   10  C   UNL     1      -9.867  10.848  68.316  1.00  0.00    -0.170 C  
HETATM   11  C   UNL     1     -10.476  10.756  66.916  1.00  0.00    -0.304 C  
HETATM   12  C   UNL     1      -9.589   9.907  65.978  1.00  0.00    -0.225 C  
HETATM   13  H   UNL     1      -9.582   9.477  64.074  1.00  0.00     0.000 HD 
HETATM   14  O   UNL     1     -10.128   9.999  64.651  1.00  0.00    -0.271 OA 
HETATM   15  C   UNL     1      -8.199  10.581  65.975  1.00  0.00    -0.150 C  
HETATM   16  C   UNL     1      -7.633  10.701  67.393  1.00  0.00    -0.095 C  
BRANCH  12  17
HETATM   17  C   UNL     1      -9.580   8.399  66.280  1.00  0.00    -0.286 A  
HETATM   18  C   UNL     1     -10.648   7.778  66.957  1.00  0.00    -0.396 A  
HETATM   19  C   UNL     1     -10.660   6.400  67.205  1.00  0.00    -0.389 A  
HETATM   20  C   UNL     1      -9.612   5.607  66.760  1.00  0.00    -0.146 A  
HETATM   21  C   UNL     1      -8.552   6.181  66.070  1.00  0.00    -0.145 A  
HETATM   22 CL   UNL     1      -9.639   3.911  67.042  1.00  0.00    -0.233 Cl 
HETATM   23  C   UNL     1      -8.542   7.561  65.826  1.00  0.00    -0.158 A  
ENDBRANCH  12  17
ENDBRANCH   8   9
ENDBRANCH   7   8
ENDBRANCH   6   7
BRANCH   6  24
HETATM   24  C   UNL     1     -10.861  14.369  66.671  1.00  0.00    -0.304 A  
HETATM   25  C   UNL     1     -12.252  14.144  66.630  1.00  0.00    -0.450 A  
HETATM   26  C   UNL     1     -10.140  14.076  65.501  1.00  0.00    -0.343 A  
HETATM   27  C   UNL     1     -12.869  13.595  65.498  1.00  0.00    -0.443 A  
HETATM   28  C   UNL     1     -12.116  13.271  64.374  1.00  0.00    -0.471 A  
HETATM   29  C   UNL     1     -10.750  13.518  64.376  1.00  0.00    -0.402 A  
ENDBRANCH   6  24
BRANCH   6  30
HETATM   30  C   UNL     1      -9.073  16.004  67.721  1.00  0.00    -0.196 A  
HETATM   31  C   UNL     1      -7.792  17.478  66.243  1.00  0.00    -0.322 A  
HETATM   32  C   UNL     1      -8.170  16.369  68.746  1.00  0.00    -0.234 A  
HETATM   33  C   UNL     1      -8.878  16.624  66.474  1.00  0.00    -0.314 A  
HETATM   34  C   UNL     1      -6.914  17.798  67.271  1.00  0.00    -0.197 A  
HETATM   35  C   UNL     1      -7.118  17.261  68.533  1.00  0.00    -0.220 A  
ENDBRANCH   6  30
ENDBRANCH   4   6
TORSDOF 7
ENDMDL
MODEL       15
REMARK 921   NORMALIZED FREE ENERGY PREDICTED BY IDOCK:   -6.38 KCAL/MOL
REMARK 922        TOTAL FREE ENERGY PREDICTED BY IDOCK:   -9.37 KCAL/MOL
REMARK 923 INTER-LIGAND FREE ENERGY PREDICTED BY IDOCK:   -8.58 KCAL/MOL
REMARK 924 INTRA-LIGAND FREE ENERGY PREDICTED BY IDOCK:   -0.78 KCAL/MOL
REMARK 927      BINDING AFFINITY PREDICTED BY RF-SCORE:    0.00 PKD
ROOT
HETATM    1  C   UNL     1     -12.042  14.203  64.040  1.00  0.00    -0.348 C  
HETATM    2  N   UNL     1     -11.341  14.116  65.318  1.00  0.00    -0.317 N  
HETATM    3  C   UNL     1     -10.183  14.980  65.465  1.00  0.00    -0.378 C  
HETATM    4  C   UNL     1     -11.656  13.021  66.128  1.00  0.00    -0.366 C  
HETATM    5  O   UNL     1     -12.528  12.231  65.730  1.00  0.00    -0.564 OA 
ENDROOT
BRANCH   4   6
HETATM    6  C   UNL     1     -10.943  12.774  67.544  1.00  0.00    -0.280 C  
BRANCH   6   7
HETATM    7  C   UNL     1     -11.834  11.639  68.236  1.00  0.00    -0.335 C  
BRANCH   7   8
HETATM    8  C   UNL     1     -11.287  10.977  69.514  1.00  0.00    -0.287 C  
BRANCH   8   9
HETATM    9  N   UNL     1     -11.218   9.500  69.496  1.00  0.00    -0.139 NA 
HETATM   10  C   UNL     1      -9.917   8.938  69.105  1.00  0.00    -0.190 C  
HETATM   11  C   UNL     1      -8.848   9.069  70.191  1.00  0.00    -0.196 C  
HETATM   12  C   UNL     1      -9.294   8.374  71.497  1.00  0.00    -0.200 C  
HETATM   13  H   UNL     1      -8.601   8.246  73.317  1.00  0.00     0.000 HD 
HETATM   14  O   UNL     1      -8.327   8.674  72.514  1.00  0.00    -0.364 OA 
HETATM   15  C   UNL     1     -10.631   9.033  71.901  1.00  0.00    -0.388 C  
HETATM   16  C   UNL     1     -11.667   8.928  70.779  1.00  0.00    -0.230 C  
BRANCH  12  17
HETATM   17  C   UNL     1      -9.318   6.837  71.440  1.00  0.00    -0.157 A  
HETATM   18  C   UNL     1     -10.288   6.090  72.137  1.00  0.00    -0.232 A  
HETATM   19  C   UNL     1     -10.336   4.693  72.063  1.00  0.00    -0.234 A  
HETATM   20  C   UNL     1      -9.425   4.011  71.268  1.00  0.00    -0.163 A  
HETATM   21  C   UNL     1      -8.468   4.715  70.549  1.00  0.00    -0.104 A  
HETATM   22 CL   UNL     1      -9.500   2.297  71.155  1.00  0.00    -0.209 Cl 
HETATM   23  C   UNL     1      -8.423   6.113  70.628  1.00  0.00    -0.134 A  
ENDBRANCH  12  17
ENDBRANCH   8   9
ENDBRANCH   7   8
ENDBRANCH   6   7
BRANCH   6  24
HETATM   24  C   UNL     1      -9.506  12.206  67.280  1.00  0.00    -0.184 A  
HETATM   25  C   UNL     1      -9.288  11.277  66.242  1.00  0.00    -0.226 A  
HETATM   26  C   UNL     1      -8.381  12.585  68.033  1.00  0.00    -0.171 A  
HETATM   27  C   UNL     1      -8.024  10.717  66.018  1.00  0.00    -0.154 A  
HETATM   28  C   UNL     1      -6.943  11.080  66.815  1.00  0.00    -0.131 A  
HETATM   29  C   UNL     1      -7.123  12.020  67.820  1.00  0.00    -0.108 A  
ENDBRANCH   6  24
BRANCH   6  30
HETATM   30  C   UNL     1     -10.986  14.054  68.448  1.00  0.00    -0.269 A  
HETATM   31  C   UNL     1      -9.897  15.948  69.558  1.00  0.00    -0.268 A  
HETATM   32  C   UNL     1     -12.158  14.410  69.155  1.00  0.00    -0.316 A  
HETATM   33  C   UNL     1      -9.869  14.887  68.643  1.00  0.00    -0.225 A  
HETATM   34  C   UNL     1     -11.064  16.254  70.248  1.00  0.00    -0.340 A  
HETATM   35  C   UNL     1     -12.205  15.498  70.028  1.00  0.00    -0.380 A  
ENDBRANCH   6  30
ENDBRANCH   4   6
TORSDOF 7
ENDMDL
MODEL       16
REMARK 921   NORMALIZED FREE ENERGY PREDICTED BY IDOCK:   -6.37 KCAL/MOL
REMARK 922        TOTAL FREE ENERGY PREDICTED BY IDOCK:   -9.35 KCAL/MOL
REMARK 923 INTER-LIGAND FREE ENERGY PREDICTED BY IDOCK:   -9.29 KCAL/MOL
REMARK 924 INTRA-LIGAND FREE ENERGY PREDICTED BY IDOCK:   -0.06 KCAL/MOL
REMARK 927      BINDING AFFINITY PREDICTED BY RF-SCORE:    0.00 PKD
ROOT
HETATM    1  C   UNL     1      -8.922  18.863  68.262  1.00  0.00    -0.328 C  
HETATM    2  N   UNL     1      -9.734  17.663  68.079  1.00  0.00    -0.289 N  
HETATM    3  C   UNL     1     -11.149  17.887  67.838  1.00  0.00     0.107 C  
HETATM    4  C   UNL     1      -9.147  16.451  68.452  1.00  0.00    -0.214 C  
HETATM    5  O   UNL     1      -7.976  16.472  68.868  1.00  0.00    -0.222 OA 
ENDROOT
BRANCH   4   6
HETATM    6  C   UNL     1      -9.928  15.054  68.340  1.00  0.00    -0.225 C  
BRANCH   6   7
HETATM    7  C   UNL     1      -8.769  13.953  68.399  1.00  0.00    -0.173 C  
BRANCH   7   8
HETATM    8  C   UNL     1      -8.372  13.258  67.084  1.00  0.00    -0.135 C  
BRANCH   8   9
HETATM    9  N   UNL     1      -8.184  11.793  67.160  1.00  0.00    -0.162 NA 
HETATM   10  C   UNL     1      -8.365  11.206  68.495  1.00  0.00    -0.154 C  
HETATM   11  C   UNL     1      -9.828  11.137  68.935  1.00  0.00    -0.176 C  
HETATM   12  C   UNL     1     -10.671  10.314  67.936  1.00  0.00    -0.264 C  
HETATM   13  H   UNL     1     -12.569   9.921  67.702  1.00  0.00     0.000 HD 
HETATM   14  O   UNL     1     -12.051  10.428  68.317  1.00  0.00    -0.187 OA 
HETATM   15  C   UNL     1     -10.499  10.998  66.562  1.00  0.00    -0.309 C  
HETATM   16  C   UNL     1      -9.022  11.094  66.167  1.00  0.00    -0.195 C  
BRANCH  12  17
HETATM   17  C   UNL     1     -10.399   8.800  67.947  1.00  0.00    -0.281 A  
HETATM   18  C   UNL     1     -10.520   8.040  69.127  1.00  0.00    -0.217 A  
HETATM   19  C   UNL     1     -10.305   6.657  69.138  1.00  0.00    -0.220 A  
HETATM   20  C   UNL     1      -9.986   5.997  67.959  1.00  0.00    -0.142 A  
HETATM   21  C   UNL     1      -9.880   6.711  66.772  1.00  0.00    -0.227 A  
HETATM   22 CL   UNL     1      -9.748   4.294  67.966  1.00  0.00    -0.196 Cl 
HETATM   23  C   UNL     1     -10.093   8.095  66.767  1.00  0.00    -0.365 A  
ENDBRANCH  12  17
ENDBRANCH   8   9
ENDBRANCH   7   8
ENDBRANCH   6   7
BRANCH   6  24
HETATM   24  C   UNL     1     -10.845  14.899  69.602  1.00  0.00    -0.269 A  
HETATM   25  C   UNL     1     -10.848  15.891  70.604  1.00  0.00    -0.234 A  
HETATM   26  C   UNL     1     -11.702  13.802  69.799  1.00  0.00    -0.367 A  
HETATM   27  C   UNL     1     -11.620  15.752  71.765  1.00  0.00    -0.541 A  
HETATM   28  C   UNL     1     -12.420  14.629  71.948  1.00  0.00    -0.412 A  
HETATM   29  C   UNL     1     -12.464  13.657  70.959  1.00  0.00    -0.456 A  
ENDBRANCH   6  24
BRANCH   6  30
HETATM   30  C   UNL     1     -10.673  14.912  66.967  1.00  0.00    -0.307 A  
HETATM   31  C   UNL     1     -10.916  15.421  64.583  1.00  0.00    -0.333 A  
HETATM   32  C   UNL     1     -11.928  14.266  66.882  1.00  0.00    -0.467 A  
HETATM   33  C   UNL     1     -10.169  15.446  65.768  1.00  0.00    -0.378 A  
HETATM   34  C   UNL     1     -12.155  14.793  64.543  1.00  0.00    -0.460 A  
HETATM   35  C   UNL     1     -12.652  14.193  65.690  1.00  0.00    -0.495 A  
ENDBRANCH   6  30
ENDBRANCH   4   6
TORSDOF 7
ENDMDL
MODEL       17
REMARK 921   NORMALIZED FREE ENERGY PREDICTED BY IDOCK:   -6.35 KCAL/MOL
REMARK 922        TOTAL FREE ENERGY PREDICTED BY IDOCK:   -9.32 KCAL/MOL
REMARK 923 INTER-LIGAND FREE ENERGY PREDICTED BY IDOCK:   -9.20 KCAL/MOL
REMARK 924 INTRA-LIGAND FREE ENERGY PREDICTED BY IDOCK:   -0.12 KCAL/MOL
REMARK 927      BINDING AFFINITY PREDICTED BY RF-SCORE:    0.00 PKD
ROOT
HETATM    1  C   UNL     1      -9.753   3.675  70.136  1.00  0.00    -0.118 C  
HETATM    2  N   UNL     1      -9.711   4.944  70.857  1.00  0.00    -0.181 N  
HETATM    3  C   UNL     1      -9.863   4.859  72.298  1.00  0.00    -0.169 C  
HETATM    4  C   UNL     1      -9.837   6.104  70.085  1.00  0.00    -0.171 C  
HETATM    5  O   UNL     1      -9.932   5.978  68.853  1.00  0.00    -0.139 OA 
ENDROOT
BRANCH   4   6
HETATM    6  C   UNL     1      -9.843   7.568  70.741  1.00  0.00    -0.178 C  
BRANCH   6   7
HETATM    7  C   UNL     1      -9.375   8.530  69.550  1.00  0.00    -0.161 C  
BRANCH   7   8
HETATM    8  C   UNL     1     -10.419   9.490  68.950  1.00  0.00    -0.216 C  
BRANCH   8   9
HETATM    9  N   UNL     1     -10.004  10.905  68.839  1.00  0.00    -0.196 NA 
HETATM   10  C   UNL     1      -9.393  11.280  67.555  1.00  0.00    -0.162 C  
HETATM   11  C   UNL     1     -10.402  11.387  66.411  1.00  0.00    -0.284 C  
HETATM   12  C   UNL     1     -11.502  12.422  66.735  1.00  0.00    -0.362 C  
HETATM   13  H   UNL     1     -13.173  12.990  65.901  1.00  0.00     0.000 HD 
HETATM   14  O   UNL     1     -12.497  12.353  65.702  1.00  0.00    -0.640 OA 
HETATM   15  C   UNL     1     -12.154  11.958  68.056  1.00  0.00    -0.010 C  
HETATM   16  C   UNL     1     -11.115  11.816  69.172  1.00  0.00    -0.238 C  
BRANCH  12  17
HETATM   17  C   UNL     1     -11.040  13.889  66.717  1.00  0.00    -0.310 A  
HETATM   18  C   UNL     1     -11.422  14.793  67.728  1.00  0.00    -0.363 A  
HETATM   19  C   UNL     1     -10.978  16.120  67.736  1.00  0.00    -0.293 A  
HETATM   20  C   UNL     1     -10.121  16.569  66.741  1.00  0.00    -0.288 A  
HETATM   21  C   UNL     1      -9.705  15.700  65.740  1.00  0.00    -0.380 A  
HETATM   22 CL   UNL     1      -9.554  18.192  66.764  1.00  0.00    -0.289 Cl 
HETATM   23  C   UNL     1     -10.154  14.373  65.735  1.00  0.00    -0.361 A  
ENDBRANCH  12  17
ENDBRANCH   8   9
ENDBRANCH   7   8
ENDBRANCH   6   7
BRANCH   6  24
HETATM   24  C   UNL     1     -11.317   7.925  71.137  1.00  0.00    -0.289 A  
HETATM   25  C   UNL     1     -11.637   9.221  71.590  1.00  0.00    -0.463 A  
HETATM   26  C   UNL     1     -12.377   7.006  71.058  1.00  0.00    -0.402 A  
HETATM   27  C   UNL     1     -12.936   9.551  71.999  1.00  0.00    -0.514 A  
HETATM   28  C   UNL     1     -13.950   8.601  71.953  1.00  0.00    -0.501 A  
HETATM   29  C   UNL     1     -13.670   7.328  71.475  1.00  0.00    -0.451 A  
ENDBRANCH   6  24
BRANCH   6  30
HETATM   30  C   UNL     1      -8.803   7.688  71.909  1.00  0.00    -0.143 A  
HETATM   31  C   UNL     1      -8.231   8.127  74.250  1.00  0.00    -0.290 A  
HETATM   32  C   UNL     1      -7.413   7.636  71.655  1.00  0.00    -0.076 A  
HETATM   33  C   UNL     1      -9.182   7.893  73.248  1.00  0.00    -0.346 A  
HETATM   34  C   UNL     1      -6.873   8.088  73.958  1.00  0.00    -0.149 A  
HETATM   35  C   UNL     1      -6.462   7.817  72.661  1.00  0.00    -0.065 A  
ENDBRANCH   6  30
ENDBRANCH   4   6
TORSDOF 7
ENDMDL
MODEL       18
REMARK 921   NORMALIZED FREE ENERGY PREDICTED BY IDOCK:   -6.34 KCAL/MOL
REMARK 922        TOTAL FREE ENERGY PREDICTED BY IDOCK:   -9.31 KCAL/MOL
REMARK 923 INTER-LIGAND FREE ENERGY PREDICTED BY IDOCK:   -8.89 KCAL/MOL
REMARK 924 INTRA-LIGAND FREE ENERGY PREDICTED BY IDOCK:   -0.42 KCAL/MOL
REMARK 927      BINDING AFFINITY PREDICTED BY RF-SCORE:    0.00 PKD
ROOT
HETATM    1  C   UNL     1     -10.387  19.700  66.131  1.00  0.00    -0.530 C  
HETATM    2  N   UNL     1     -10.085  18.714  67.165  1.00  0.00    -0.340 N  
HETATM    3  C   UNL     1     -10.381  19.114  68.529  1.00  0.00    -0.283 C  
HETATM    4  C   UNL     1      -9.278  17.638  66.782  1.00  0.00    -0.271 C  
HETATM    5  O   UNL     1      -8.913  17.574  65.597  1.00  0.00    -0.417 OA 
ENDROOT
BRANCH   4   6
HETATM    6  C   UNL     1      -8.835  16.494  67.816  1.00  0.00    -0.197 C  
BRANCH   6   7
HETATM    7  C   UNL     1      -8.331  15.297  66.881  1.00  0.00    -0.278 C  
BRANCH   7   8
HETATM    8  C   UNL     1      -9.390  14.330  66.320  1.00  0.00    -0.208 C  
BRANCH   8   9
HETATM    9  N   UNL     1      -9.054  12.892  66.395  1.00  0.00    -0.138 NA 
HETATM   10  C   UNL     1      -8.740  12.391  67.740  1.00  0.00    -0.176 C  
HETATM   11  C   UNL     1      -9.971  12.246  68.637  1.00  0.00    -0.127 C  
HETATM   12  C   UNL     1     -11.011  11.294  68.005  1.00  0.00    -0.247 C  
HETATM   13  H   UNL     1     -12.838  10.748  68.421  1.00  0.00     0.000 HD 
HETATM   14  O   UNL     1     -12.198  11.334  68.810  1.00  0.00    -0.532 OA 
HETATM   15  C   UNL     1     -11.354  11.889  66.621  1.00  0.00    -0.400 C  
HETATM   16  C   UNL     1     -10.098  12.065  65.762  1.00  0.00    -0.238 C  
BRANCH  12  17
HETATM   17  C   UNL     1     -10.610   9.809  67.993  1.00  0.00    -0.291 A  
HETATM   18  C   UNL     1     -10.402   9.094  69.188  1.00  0.00    -0.223 A  
HETATM   19  C   UNL     1     -10.070   7.734  69.185  1.00  0.00    -0.196 A  
HETATM   20  C   UNL     1      -9.960   7.051  67.981  1.00  0.00    -0.154 A  
HETATM   21  C   UNL     1     -10.180   7.719  66.783  1.00  0.00    -0.346 A  
HETATM   22 CL   UNL     1      -9.578   5.375  67.977  1.00  0.00    -0.141 Cl 
HETATM   23  C   UNL     1     -10.510   9.080  66.791  1.00  0.00    -0.270 A  
ENDBRANCH  12  17
ENDBRANCH   8   9
ENDBRANCH   7   8
ENDBRANCH   6   7
BRANCH   6  24
HETATM   24  C   UNL     1      -7.626  17.030  68.657  1.00  0.00    -0.238 A  
HETATM   25  C   UNL     1      -7.326  18.408  68.672  1.00  0.00    -0.311 A  
HETATM   26  C   UNL     1      -6.799  16.197  69.431  1.00  0.00    -0.214 A  
HETATM   27  C   UNL     1      -6.221  18.906  69.375  1.00  0.00    -0.292 A  
HETATM   28  C   UNL     1      -5.396  18.045  70.091  1.00  0.00    -0.240 A  
HETATM   29  C   UNL     1      -5.691  16.689  70.123  1.00  0.00    -0.203 A  
ENDBRANCH   6  24
BRANCH   6  30
HETATM   30  C   UNL     1     -10.047  15.977  68.667  1.00  0.00    -0.220 A  
HETATM   31  C   UNL     1     -11.039  15.247  70.785  1.00  0.00    -0.340 A  
HETATM   32  C   UNL     1     -11.257  15.585  68.050  1.00  0.00    -0.332 A  
HETATM   33  C   UNL     1      -9.990  15.835  70.065  1.00  0.00    -0.115 A  
HETATM   34  C   UNL     1     -12.206  14.856  70.139  1.00  0.00    -0.387 A  
HETATM   35  C   UNL     1     -12.325  15.048  68.771  1.00  0.00     0.005 A  
ENDBRANCH   6  30
ENDBRANCH   4   6
TORSDOF 7
ENDMDL
MODEL       19
REMARK 921   NORMALIZED FREE ENERGY PREDICTED BY IDOCK:   -6.34 KCAL/MOL
REMARK 922        TOTAL FREE ENERGY PREDICTED BY IDOCK:   -9.31 KCAL/MOL
REMARK 923 INTER-LIGAND FREE ENERGY PREDICTED BY IDOCK:   -9.48 KCAL/MOL
REMARK 924 INTRA-LIGAND FREE ENERGY PREDICTED BY IDOCK:    0.17 KCAL/MOL
REMARK 927      BINDING AFFINITY PREDICTED BY RF-SCORE:    0.00 PKD
ROOT
HETATM    1  C   UNL     1     -14.389   8.432  72.030  1.00  0.00    -0.464 C  
HETATM    2  N   UNL     1     -13.010   8.774  71.689  1.00  0.00    -0.336 N  
HETATM    3  C   UNL     1     -12.691  10.191  71.688  1.00  0.00    -0.447 C  
HETATM    4  C   UNL     1     -12.241   7.759  71.114  1.00  0.00    -0.268 C  
HETATM    5  O   UNL     1     -12.761   6.640  70.972  1.00  0.00    -0.259 OA 
ENDROOT
BRANCH   4   6
HETATM    6  C   UNL     1     -10.721   7.995  70.657  1.00  0.00    -0.235 C  
BRANCH   6   7
HETATM    7  C   UNL     1     -10.701   9.509  70.139  1.00  0.00    -0.299 C  
BRANCH   7   8
HETATM    8  C   UNL     1      -9.746   9.859  68.983  1.00  0.00    -0.193 C  
BRANCH   8   9
HETATM    9  N   UNL     1      -9.507  11.301  68.758  1.00  0.00    -0.172 NA 
HETATM   10  C   UNL     1      -9.054  11.659  67.407  1.00  0.00    -0.169 C  
HETATM   11  C   UNL     1     -10.161  11.582  66.355  1.00  0.00    -0.261 C  
HETATM   12  C   UNL     1     -11.343  12.508  66.721  1.00  0.00    -0.334 C  
HETATM   13  H   UNL     1     -13.132  12.834  66.013  1.00  0.00     0.000 HD 
HETATM   14  O   UNL     1     -12.406  12.264  65.788  1.00  0.00    -0.622 OA 
HETATM   15  C   UNL     1     -11.823  12.059  68.119  1.00  0.00    -0.352 C  
HETATM   16  C   UNL     1     -10.684  12.104  69.142  1.00  0.00    -0.061 C  
BRANCH  12  17
HETATM   17  C   UNL     1     -11.056  14.013  66.583  1.00  0.00    -0.312 A  
HETATM   18  C   UNL     1     -11.164  14.886  67.684  1.00  0.00    -0.330 A  
HETATM   19  C   UNL     1     -10.873  16.250  67.573  1.00  0.00    -0.268 A  
HETATM   20  C   UNL     1     -10.444  16.770  66.359  1.00  0.00    -0.269 A  
HETATM   21  C   UNL     1     -10.304  15.935  65.258  1.00  0.00    -0.354 A  
HETATM   22 CL   UNL     1     -10.060  18.441  66.229  1.00  0.00    -0.400 Cl 
HETATM   23  C   UNL     1     -10.599  14.570  65.373  1.00  0.00    -0.385 A  
ENDBRANCH  12  17
ENDBRANCH   8   9
ENDBRANCH   7   8
ENDBRANCH   6   7
BRANCH   6  24
HETATM   24  C   UNL     1      -9.802   7.874  71.920  1.00  0.00    -0.233 A  
HETATM   25  C   UNL     1      -8.514   8.449  71.920  1.00  0.00    -0.237 A  
HETATM   26  C   UNL     1     -10.196   7.214  73.097  1.00  0.00    -0.317 A  
HETATM   27  C   UNL     1      -7.654   8.311  73.017  1.00  0.00    -0.163 A  
HETATM   28  C   UNL     1      -8.061   7.609  74.147  1.00  0.00    -0.242 A  
HETATM   29  C   UNL     1      -9.337   7.065  74.187  1.00  0.00    -0.276 A  
ENDBRANCH   6  24
BRANCH   6  30
HETATM   30  C   UNL     1     -10.320   7.060  69.463  1.00  0.00    -0.225 A  
HETATM   31  C   UNL     1     -10.698   6.139  67.224  1.00  0.00    -0.414 A  
HETATM   32  C   UNL     1      -9.276   6.116  69.594  1.00  0.00    -0.148 A  
HETATM   33  C   UNL     1     -10.990   7.074  68.226  1.00  0.00    -0.148 A  
HETATM   34  C   UNL     1      -9.677   5.213  67.399  1.00  0.00    -0.172 A  
HETATM   35  C   UNL     1      -8.947   5.218  68.578  1.00  0.00    -0.118 A  
ENDBRANCH   6  30
ENDBRANCH   4   6
TORSDOF 7
ENDMDL
MODEL       20
REMARK 921   NORMALIZED FREE ENERGY PREDICTED BY IDOCK:   -6.32 KCAL/MOL
REMARK 922        TOTAL FREE ENERGY PREDICTED BY IDOCK:   -9.29 KCAL/MOL
REMARK 923 INTER-LIGAND FREE ENERGY PREDICTED BY IDOCK:   -9.13 KCAL/MOL
REMARK 924 INTRA-LIGAND FREE ENERGY PREDICTED BY IDOCK:   -0.15 KCAL/MOL
REMARK 927      BINDING AFFINITY PREDICTED BY RF-SCORE:    0.00 PKD
ROOT
HETATM    1  C   UNL     1     -11.810  11.825  63.821  1.00  0.00    -0.380 C  
HETATM    2  N   UNL     1     -10.850  11.969  64.912  1.00  0.00    -0.291 N  
HETATM    3  C   UNL     1      -9.573  11.303  64.724  1.00  0.00    -0.235 C  
HETATM    4  C   UNL     1     -11.351  12.456  66.123  1.00  0.00    -0.352 C  
HETATM    5  O   UNL     1     -12.552  12.768  66.175  1.00  0.00    -0.428 OA 
ENDROOT
BRANCH   4   6
HETATM    6  C   UNL     1     -10.424  12.636  67.420  1.00  0.00    -0.233 C  
BRANCH   6   7
HETATM    7  C   UNL     1      -9.593  11.270  67.498  1.00  0.00    -0.181 C  
BRANCH   7   8
HETATM    8  C   UNL     1      -8.852  10.955  68.810  1.00  0.00    -0.161 C  
BRANCH   8   9
HETATM    9  N   UNL     1      -8.539   9.529  69.047  1.00  0.00    -0.128 NA 
HETATM   10  C   UNL     1      -8.480   9.127  70.460  1.00  0.00    -0.205 C  
HETATM   11  C   UNL     1      -9.854   9.035  71.124  1.00  0.00    -0.371 C  
HETATM   12  C   UNL     1     -10.764   8.031  70.382  1.00  0.00    -0.233 C  
HETATM   13  H   UNL     1     -12.638   7.497  70.495  1.00  0.00     0.000 HD 
HETATM   14  O   UNL     1     -12.079   8.115  70.951  1.00  0.00    -0.262 OA 
HETATM   15  C   UNL     1     -10.845   8.523  68.920  1.00  0.00    -0.009 C  
HETATM   16  C   UNL     1      -9.453   8.650  68.294  1.00  0.00    -0.141 C  
BRANCH  12  17
HETATM   17  C   UNL     1     -10.373   6.552  70.549  1.00  0.00    -0.240 A  
HETATM   18  C   UNL     1     -10.244   5.965  71.823  1.00  0.00    -0.248 A  
HETATM   19  C   UNL     1      -9.921   4.613  71.981  1.00  0.00    -0.251 A  
HETATM   20  C   UNL     1      -9.741   3.808  70.865  1.00  0.00    -0.178 A  
HETATM   21  C   UNL     1      -9.882   4.347  69.592  1.00  0.00    -0.272 A  
HETATM   22 CL   UNL     1      -9.371   2.141  71.058  1.00  0.00    -0.193 Cl 
HETATM   23  C   UNL     1     -10.203   5.702  69.438  1.00  0.00    -0.315 A  
ENDBRANCH  12  17
ENDBRANCH   8   9
ENDBRANCH   7   8
ENDBRANCH   6   7
BRANCH   6  24
HETATM   24  C   UNL     1      -9.434  13.822  67.158  1.00  0.00    -0.244 A  
HETATM   25  C   UNL     1      -8.136  13.800  67.708  1.00  0.00    -0.176 A  
HETATM   26  C   UNL     1      -9.767  14.941  66.374  1.00  0.00    -0.306 A  
HETATM   27  C   UNL     1      -7.250  14.871  67.531  1.00  0.00    -0.227 A  
HETATM   28  C   UNL     1      -7.632  15.984  66.789  1.00  0.00    -0.247 A  
HETATM   29  C   UNL     1      -8.890  16.014  66.205  1.00  0.00    -0.366 A  
ENDBRANCH   6  24
BRANCH   6  30
HETATM   30  C   UNL     1     -11.275  12.770  68.730  1.00  0.00    -0.327 A  
HETATM   31  C   UNL     1     -12.190  14.089  70.582  1.00  0.00    -0.442 A  
HETATM   32  C   UNL     1     -11.786  11.628  69.389  1.00  0.00    -0.405 A  
HETATM   33  C   UNL     1     -11.540  14.009  69.343  1.00  0.00    -0.349 A  
HETATM   34  C   UNL     1     -12.660  12.941  71.207  1.00  0.00    -0.352 A  
HETATM   35  C   UNL     1     -12.479  11.709  70.597  1.00  0.00    -0.386 A  
ENDBRANCH   6  30
ENDBRANCH   4   6
TORSDOF 7
ENDMDL
MODEL       21
REMARK 921   NORMALIZED FREE ENERGY PREDICTED BY IDOCK:   -6.27 KCAL/MOL
REMARK 922        TOTAL FREE ENERGY PREDICTED BY IDOCK:   -9.21 KCAL/MOL
REMARK 923 INTER-LIGAND FREE ENERGY PREDICTED BY IDOCK:   -9.10 KCAL/MOL
REMARK 924 INTRA-LIGAND FREE ENERGY PREDICTED BY IDOCK:   -0.12 KCAL/MOL
REMARK 927      BINDING AFFINITY PREDICTED BY RF-SCORE:    0.00 PKD
ROOT
HETATM    1  C   UNL     1      -8.116   5.915  73.668  1.00  0.00    -0.110 C  
HETATM    2  N   UNL     1      -8.752   6.972  72.886  1.00  0.00    -0.118 N  
HETATM    3  C   UNL     1      -9.021   8.210  73.595  1.00  0.00    -0.205 C  
HETATM    4  C   UNL     1      -9.305   6.592  71.659  1.00  0.00    -0.149 C  
HETATM    5  O   UNL     1      -9.181   5.408  71.303  1.00  0.00    -0.143 OA 
ENDROOT
BRANCH   4   6
HETATM    6  C   UNL     1     -10.065   7.636  70.706  1.00  0.00    -0.189 C  
BRANCH   6   7
HETATM    7  C   UNL     1      -9.206   8.980  70.837  1.00  0.00    -0.320 C  
BRANCH   7   8
HETATM    8  C   UNL     1      -8.508   9.512  69.572  1.00  0.00    -0.155 C  
BRANCH   8   9
HETATM    9  N   UNL     1      -9.012  10.801  69.052  1.00  0.00    -0.160 NA 
HETATM   10  C   UNL     1      -8.203  11.405  67.983  1.00  0.00    -0.140 C  
HETATM   11  C   UNL     1      -8.349  10.696  66.636  1.00  0.00    -0.136 C  
HETATM   12  C   UNL     1      -9.822  10.685  66.170  1.00  0.00    -0.217 C  
HETATM   13  H   UNL     1     -10.816   9.862  64.706  1.00  0.00     0.000 HD 
HETATM   14  O   UNL     1      -9.910   9.868  64.992  1.00  0.00    -0.317 OA 
HETATM   15  C   UNL     1     -10.624   9.992  67.293  1.00  0.00    -0.319 C  
HETATM   16  C   UNL     1     -10.424  10.695  68.638  1.00  0.00    -0.191 C  
BRANCH  12  17
HETATM   17  C   UNL     1     -10.373  12.051  65.725  1.00  0.00    -0.289 A  
HETATM   18  C   UNL     1      -9.692  13.249  66.016  1.00  0.00    -0.230 A  
HETATM   19  C   UNL     1     -10.171  14.492  65.586  1.00  0.00    -0.379 A  
HETATM   20  C   UNL     1     -11.335  14.562  64.833  1.00  0.00    -0.394 A  
HETATM   21  C   UNL     1     -12.021  13.399  64.507  1.00  0.00    -0.452 A  
HETATM   22 CL   UNL     1     -11.910  16.085  64.281  1.00  0.00    -0.218 Cl 
HETATM   23  C   UNL     1     -11.539  12.158  64.942  1.00  0.00    -0.371 A  
ENDBRANCH  12  17
ENDBRANCH   8   9
ENDBRANCH   7   8
ENDBRANCH   6   7
BRANCH   6  24
HETATM   24  C   UNL     1      -9.975   7.113  69.231  1.00  0.00    -0.168 A  
HETATM   25  C   UNL     1     -11.148   6.777  68.524  1.00  0.00    -0.217 A  
HETATM   26  C   UNL     1      -8.759   6.962  68.543  1.00  0.00    -0.125 A  
HETATM   27  C   UNL     1     -11.092   6.260  67.223  1.00  0.00    -0.387 A  
HETATM   28  C   UNL     1      -9.867   6.079  66.590  1.00  0.00    -0.202 A  
HETATM   29  C   UNL     1      -8.700   6.437  67.251  1.00  0.00    -0.106 A  
ENDBRANCH   6  24
BRANCH   6  30
HETATM   30  C   UNL     1     -11.521   7.930  71.210  1.00  0.00    -0.293 A  
HETATM   31  C   UNL     1     -13.846   7.260  71.594  1.00  0.00    -0.461 A  
HETATM   32  C   UNL     1     -11.910   9.234  71.594  1.00  0.00    -0.453 A  
HETATM   33  C   UNL     1     -12.521   6.943  71.267  1.00  0.00    -0.409 A  
HETATM   34  C   UNL     1     -14.193   8.558  71.948  1.00  0.00    -0.536 A  
HETATM   35  C   UNL     1     -13.217   9.543  71.972  1.00  0.00    -0.539 A  
ENDBRANCH   6  30
ENDBRANCH   4   6
TORSDOF 7
ENDMDL
MODEL       22
REMARK 921   NORMALIZED FREE ENERGY PREDICTED BY IDOCK:   -6.27 KCAL/MOL
REMARK 922        TOTAL FREE ENERGY PREDICTED BY IDOCK:   -9.21 KCAL/MOL
REMARK 923 INTER-LIGAND FREE ENERGY PREDICTED BY IDOCK:   -9.31 KCAL/MOL
REMARK 924 INTRA-LIGAND FREE ENERGY PREDICTED BY IDOCK:    0.09 KCAL/MOL
REMARK 927      BINDING AFFINITY PREDICTED BY RF-SCORE:    0.00 PKD
ROOT
HETATM    1  C   UNL     1     -10.773  19.866  67.779  1.00  0.00    -0.225 C  
HETATM    2  N   UNL     1      -9.546  19.418  67.124  1.00  0.00    -0.316 N  
HETATM    3  C   UNL     1      -9.426  19.744  65.714  1.00  0.00    -0.051 C  
HETATM    4  C   UNL     1      -8.776  18.480  67.818  1.00  0.00    -0.275 C  
HETATM    5  O   UNL     1      -9.160  18.128  68.946  1.00  0.00    -0.248 OA 
ENDROOT
BRANCH   4   6
HETATM    6  C   UNL     1      -7.422  17.871  67.211  1.00  0.00    -0.213 C  
BRANCH   6   7
HETATM    7  C   UNL     1      -7.925  16.782  66.151  1.00  0.00    -0.273 C  
BRANCH   7   8
HETATM    8  C   UNL     1      -9.343  16.210  66.328  1.00  0.00    -0.317 C  
BRANCH   8   9
HETATM    9  N   UNL     1      -9.517  15.254  67.443  1.00  0.00    -0.198 NA 
HETATM   10  C   UNL     1     -10.877  15.177  67.995  1.00  0.00    -0.284 C  
HETATM   11  C   UNL     1     -11.862  14.441  67.086  1.00  0.00    -0.437 C  
HETATM   12  C   UNL     1     -11.383  13.001  66.797  1.00  0.00    -0.324 C  
HETATM   13  H   UNL     1     -11.964  11.542  65.637  1.00  0.00     0.000 HD 
HETATM   14  O   UNL     1     -12.259  12.428  65.814  1.00  0.00    -0.620 OA 
HETATM   15  C   UNL     1      -9.980  13.132  66.165  1.00  0.00    -0.291 C  
HETATM   16  C   UNL     1      -9.027  13.912  67.077  1.00  0.00    -0.240 C  
BRANCH  12  17
HETATM   17  C   UNL     1     -11.471  12.035  67.991  1.00  0.00    -0.392 A  
HETATM   18  C   UNL     1     -10.926  10.737  67.928  1.00  0.00    -0.344 A  
HETATM   19  C   UNL     1     -10.974   9.865  69.022  1.00  0.00    -0.223 A  
HETATM   20  C   UNL     1     -11.549  10.281  70.215  1.00  0.00    -0.316 A  
HETATM   21  C   UNL     1     -12.077  11.562  70.320  1.00  0.00    -0.444 A  
HETATM   22 CL   UNL     1     -11.584   9.220  71.567  1.00  0.00    -0.426 Cl 
HETATM   23  C   UNL     1     -12.029  12.430  69.222  1.00  0.00    -0.308 A  
ENDBRANCH  12  17
ENDBRANCH   8   9
ENDBRANCH   7   8
ENDBRANCH   6   7
BRANCH   6  24
HETATM   24  C   UNL     1      -6.664  19.013  66.451  1.00  0.00    -0.223 A  
HETATM   25  C   UNL     1      -6.187  18.801  65.142  1.00  0.00    -0.302 A  
HETATM   26  C   UNL     1      -6.431  20.282  67.009  1.00  0.00    -0.248 A  
HETATM   27  C   UNL     1      -5.463  19.788  64.460  1.00  0.00    -0.229 A  
HETATM   28  C   UNL     1      -5.209  21.016  65.063  1.00  0.00    -0.233 A  
HETATM   29  C   UNL     1      -5.700  21.264  66.337  1.00  0.00    -0.326 A  
ENDBRANCH   6  24
BRANCH   6  30
HETATM   30  C   UNL     1      -6.572  17.136  68.305  1.00  0.00    -0.158 A  
HETATM   31  C   UNL     1      -5.539  15.121  69.241  1.00  0.00    -0.095 A  
HETATM   32  C   UNL     1      -6.190  17.795  69.496  1.00  0.00    -0.238 A  
HETATM   33  C   UNL     1      -6.183  15.789  68.191  1.00  0.00    -0.132 A  
HETATM   34  C   UNL     1      -5.197  15.799  70.404  1.00  0.00    -0.155 A  
HETATM   35  C   UNL     1      -5.501  17.147  70.523  1.00  0.00    -0.201 A  
ENDBRANCH   6  30
ENDBRANCH   4   6
TORSDOF 7
ENDMDL
MODEL       23
REMARK 921   NORMALIZED FREE ENERGY PREDICTED BY IDOCK:   -6.26 KCAL/MOL
REMARK 922        TOTAL FREE ENERGY PREDICTED BY IDOCK:   -9.19 KCAL/MOL
REMARK 923 INTER-LIGAND FREE ENERGY PREDICTED BY IDOCK:   -8.61 KCAL/MOL
REMARK 924 INTRA-LIGAND FREE ENERGY PREDICTED BY IDOCK:   -0.58 KCAL/MOL
REMARK 927      BINDING AFFINITY PREDICTED BY RF-SCORE:    0.00 PKD
ROOT
HETATM    1  C   UNL     1      -9.987  15.610  68.651  1.00  0.00    -0.208 C  
HETATM    2  N   UNL     1      -9.773  14.368  67.913  1.00  0.00    -0.219 N  
HETATM    3  C   UNL     1      -9.066  14.496  66.650  1.00  0.00    -0.251 C  
HETATM    4  C   UNL     1     -10.516  13.259  68.329  1.00  0.00    -0.250 C  
HETATM    5  O   UNL     1     -11.266  13.394  69.310  1.00  0.00    -0.258 OA 
ENDROOT
BRANCH   4   6
HETATM    6  C   UNL     1     -10.413  11.837  67.593  1.00  0.00    -0.223 C  
BRANCH   6   7
HETATM    7  C   UNL     1     -11.439  10.908  68.395  1.00  0.00    -0.374 C  
BRANCH   7   8
HETATM    8  C   UNL     1     -10.970  10.308  69.733  1.00  0.00    -0.289 C  
BRANCH   8   9
HETATM    9  N   UNL     1     -11.062   8.837  69.847  1.00  0.00    -0.180 NA 
HETATM   10  C   UNL     1      -9.774   8.129  69.871  1.00  0.00    -0.176 C  
HETATM   11  C   UNL     1      -9.022   8.280  71.194  1.00  0.00    -0.192 C  
HETATM   12  C   UNL     1      -9.870   7.764  72.378  1.00  0.00    -0.206 C  
HETATM   13  H   UNL     1      -9.700   7.767  74.322  1.00  0.00     0.000 HD 
HETATM   14  O   UNL     1      -9.178   8.084  73.595  1.00  0.00    -0.275 OA 
HETATM   15  C   UNL     1     -11.185   8.574  72.350  1.00  0.00    -0.399 C  
HETATM   16  C   UNL     1     -11.894   8.441  70.999  1.00  0.00    -0.252 C  
BRANCH  12  17
HETATM   17  C   UNL     1     -10.048   6.237  72.434  1.00  0.00    -0.195 A  
HETATM   18  C   UNL     1      -9.141   5.367  71.797  1.00  0.00    -0.152 A  
HETATM   19  C   UNL     1      -9.279   3.976  71.872  1.00  0.00    -0.179 A  
HETATM   20  C   UNL     1     -10.317   3.422  72.608  1.00  0.00    -0.140 A  
HETATM   21  C   UNL     1     -11.217   4.248  73.268  1.00  0.00    -0.338 A  
HETATM   22 CL   UNL     1     -10.471   1.713  72.723  1.00  0.00    -0.213 Cl 
HETATM   23  C   UNL     1     -11.077   5.640  73.188  1.00  0.00    -0.315 A  
ENDBRANCH  12  17
ENDBRANCH   8   9
ENDBRANCH   7   8
ENDBRANCH   6   7
BRANCH   6  24
HETATM   24  C   UNL     1     -10.918  12.006  66.119  1.00  0.00    -0.343 A  
HETATM   25  C   UNL     1     -12.124  12.688  65.856  1.00  0.00    -0.459 A  
HETATM   26  C   UNL     1     -10.217  11.513  65.005  1.00  0.00    -0.328 A  
HETATM   27  C   UNL     1     -12.624  12.809  64.553  1.00  0.00    -0.463 A  
HETATM   28  C   UNL     1     -11.926  12.265  63.478  1.00  0.00    -0.625 A  
HETATM   29  C   UNL     1     -10.718  11.622  63.707  1.00  0.00    -0.482 A  
ENDBRANCH   6  24
BRANCH   6  30
HETATM   30  C   UNL     1      -8.979  11.216  67.726  1.00  0.00    -0.139 A  
HETATM   31  C   UNL     1      -7.349   9.439  67.291  1.00  0.00    -0.087 A  
HETATM   32  C   UNL     1      -8.010  11.794  68.579  1.00  0.00    -0.145 A  
HETATM   33  C   UNL     1      -8.590  10.045  67.052  1.00  0.00    -0.126 A  
HETATM   34  C   UNL     1      -6.431  10.028  68.152  1.00  0.00    -0.055 A  
HETATM   35  C   UNL     1      -6.753  11.222  68.779  1.00  0.00    -0.070 A  
ENDBRANCH   6  30
ENDBRANCH   4   6
TORSDOF 7
ENDMDL
MODEL       24
REMARK 921   NORMALIZED FREE ENERGY PREDICTED BY IDOCK:   -6.22 KCAL/MOL
REMARK 922        TOTAL FREE ENERGY PREDICTED BY IDOCK:   -9.14 KCAL/MOL
REMARK 923 INTER-LIGAND FREE ENERGY PREDICTED BY IDOCK:   -9.26 KCAL/MOL
REMARK 924 INTRA-LIGAND FREE ENERGY PREDICTED BY IDOCK:    0.12 KCAL/MOL
REMARK 927      BINDING AFFINITY PREDICTED BY RF-SCORE:    0.00 PKD
ROOT
HETATM    1  C   UNL     1     -12.004  10.128  70.655  1.00  0.00    -0.332 C  
HETATM    2  N   UNL     1     -10.944  10.114  69.651  1.00  0.00    -0.248 N  
HETATM    3  C   UNL     1      -9.625   9.736  70.127  1.00  0.00    -0.237 C  
HETATM    4  C   UNL     1     -11.228  10.744  68.435  1.00  0.00    -0.284 C  
HETATM    5  O   UNL     1     -12.361  11.230  68.280  1.00  0.00    -0.542 OA 
ENDROOT
BRANCH   4   6
HETATM    6  C   UNL     1     -10.151  10.837  67.250  1.00  0.00    -0.233 C  
BRANCH   6   7
HETATM    7  C   UNL     1      -9.041  11.845  67.810  1.00  0.00    -0.180 C  
BRANCH   7   8
HETATM    8  C   UNL     1      -9.508  13.232  68.289  1.00  0.00    -0.209 C  
BRANCH   8   9
HETATM    9  N   UNL     1      -9.262  14.353  67.356  1.00  0.00    -0.191 NA 
HETATM   10  C   UNL     1      -9.821  15.648  67.770  1.00  0.00    -0.220 C  
HETATM   11  C   UNL     1      -9.048  16.305  68.914  1.00  0.00    -0.250 C  
HETATM   12  C   UNL     1      -7.568  16.527  68.530  1.00  0.00    -0.200 C  
HETATM   13  H   UNL     1      -5.959  17.127  69.459  1.00  0.00     0.000 HD 
HETATM   14  O   UNL     1      -6.869  16.991  69.696  1.00  0.00    -0.184 OA 
HETATM   15  C   UNL     1      -7.006  15.137  68.160  1.00  0.00    -0.132 C  
HETATM   16  C   UNL     1      -7.826  14.482  67.044  1.00  0.00     0.020 C  
BRANCH  12  17
HETATM   17  C   UNL     1      -7.325  17.626  67.482  1.00  0.00    -0.202 A  
HETATM   18  C   UNL     1      -7.670  18.970  67.731  1.00  0.00    -0.273 A  
HETATM   19  C   UNL     1      -7.422  19.980  66.794  1.00  0.00    -0.287 A  
HETATM   20  C   UNL     1      -6.801  19.671  65.592  1.00  0.00    -0.289 A  
HETATM   21  C   UNL     1      -6.427  18.361  65.320  1.00  0.00    -0.185 A  
HETATM   22 CL   UNL     1      -6.472  20.915  64.452  1.00  0.00    -0.329 Cl 
HETATM   23  C   UNL     1      -6.679  17.353  66.260  1.00  0.00    -0.295 A  
ENDBRANCH  12  17
ENDBRANCH   8   9
ENDBRANCH   7   8
ENDBRANCH   6   7
BRANCH   6  24
HETATM   24  C   UNL     1      -9.506   9.422  67.057  1.00  0.00    -0.200 A  
HETATM   25  C   UNL     1     -10.323   8.293  66.843  1.00  0.00    -0.391 A  
HETATM   26  C   UNL     1      -8.118   9.202  67.075  1.00  0.00    -0.109 A  
HETATM   27  C   UNL     1      -9.774   7.010  66.718  1.00  0.00    -0.241 A  
HETATM   28  C   UNL     1      -8.398   6.823  66.790  1.00  0.00    -0.115 A  
HETATM   29  C   UNL     1      -7.570   7.923  66.963  1.00  0.00    -0.100 A  
ENDBRANCH   6  24
BRANCH   6  30
HETATM   30  C   UNL     1     -10.769  11.458  65.949  1.00  0.00    -0.311 A  
HETATM   31  C   UNL     1     -12.455  12.812  64.797  1.00  0.00    -0.539 A  
HETATM   32  C   UNL     1     -10.301  11.085  64.669  1.00  0.00    -0.410 A  
HETATM   33  C   UNL     1     -11.836  12.375  65.975  1.00  0.00    -0.459 A  
HETATM   34  C   UNL     1     -11.978  12.406  63.556  1.00  0.00    -0.627 A  
HETATM   35  C   UNL     1     -10.882  11.560  63.492  1.00  0.00    -0.473 A  
ENDBRANCH   6  30
ENDBRANCH   4   6
TORSDOF 7
ENDMDL
MODEL       25
REMARK 921   NORMALIZED FREE ENERGY PREDICTED BY IDOCK:   -6.18 KCAL/MOL
REMARK 922        TOTAL FREE ENERGY PREDICTED BY IDOCK:   -9.08 KCAL/MOL
REMARK 923 INTER-LIGAND FREE ENERGY PREDICTED BY IDOCK:   -8.95 KCAL/MOL
REMARK 924 INTRA-LIGAND FREE ENERGY PREDICTED BY IDOCK:   -0.13 KCAL/MOL
REMARK 927      BINDING AFFINITY PREDICTED BY RF-SCORE:    0.00 PKD
ROOT
HETATM    1  C   UNL     1     -12.404  11.976  63.341  1.00  0.00    -0.523 C  
HETATM    2  N   UNL     1     -11.337  11.985  64.338  1.00  0.00    -0.336 N  
HETATM    3  C   UNL     1     -10.123  11.278  63.972  1.00  0.00    -0.329 C  
HETATM    4  C   UNL     1     -11.692  12.394  65.627  1.00  0.00    -0.414 C  
HETATM    5  O   UNL     1     -12.864  12.756  65.823  1.00  0.00    -0.381 OA 
ENDROOT
BRANCH   4   6
HETATM    6  C   UNL     1     -10.636  12.423  66.834  1.00  0.00    -0.251 C  
BRANCH   6   7
HETATM    7  C   UNL     1      -9.714  11.141  66.577  1.00  0.00    -0.228 C  
BRANCH   7   8
HETATM    8  C   UNL     1      -9.166  10.392  67.806  1.00  0.00    -0.142 C  
BRANCH   8   9
HETATM    9  N   UNL     1      -8.619   9.043  67.547  1.00  0.00    -0.120 NA 
HETATM   10  C   UNL     1      -8.294   8.258  68.747  1.00  0.00    -0.124 C  
HETATM   11  C   UNL     1      -9.528   7.722  69.474  1.00  0.00    -0.160 C  
HETATM   12  C   UNL     1     -10.382   6.834  68.541  1.00  0.00    -0.190 C  
HETATM   13  H   UNL     1     -12.122   5.956  68.656  1.00  0.00     0.000 HD 
HETATM   14  O   UNL     1     -11.597   6.503  69.230  1.00  0.00    -0.309 OA 
HETATM   15  C   UNL     1     -10.748   7.715  67.326  1.00  0.00    -0.344 C  
HETATM   16  C   UNL     1      -9.496   8.274  66.644  1.00  0.00    -0.209 C  
BRANCH  12  17
HETATM   17  C   UNL     1      -9.761   5.471  68.193  1.00  0.00    -0.164 A  
HETATM   18  C   UNL     1     -10.014   4.841  66.958  1.00  0.00    -0.235 A  
HETATM   19  C   UNL     1      -9.425   3.617  66.621  1.00  0.00    -0.197 A  
HETATM   20  C   UNL     1      -8.549   3.003  67.506  1.00  0.00    -0.103 A  
HETATM   21  C   UNL     1      -8.259   3.605  68.724  1.00  0.00    -0.084 A  
HETATM   22 CL   UNL     1      -7.806   1.512  67.083  1.00  0.00    -0.060 Cl 
HETATM   23  C   UNL     1      -8.852   4.830  69.058  1.00  0.00    -0.121 A  
ENDBRANCH  12  17
ENDBRANCH   8   9
ENDBRANCH   7   8
ENDBRANCH   6   7
BRANCH   6  24
HETATM   24  C   UNL     1      -9.763  13.718  66.694  1.00  0.00    -0.293 A  
HETATM   25  C   UNL     1      -8.516  13.808  67.346  1.00  0.00    -0.209 A  
HETATM   26  C   UNL     1     -10.155  14.828  65.926  1.00  0.00    -0.343 A  
HETATM   27  C   UNL     1      -7.741  14.973  67.278  1.00  0.00    -0.233 A  
HETATM   28  C   UNL     1      -8.183  16.071  66.548  1.00  0.00    -0.334 A  
HETATM   29  C   UNL     1      -9.389  15.994  65.866  1.00  0.00    -0.335 A  
ENDBRANCH   6  24
BRANCH   6  30
HETATM   30  C   UNL     1     -11.338  12.254  68.226  1.00  0.00    -0.339 A  
HETATM   31  C   UNL     1     -12.039  13.122  70.408  1.00  0.00    -0.392 A  
HETATM   32  C   UNL     1     -11.777  10.986  68.672  1.00  0.00    -0.367 A  
HETATM   33  C   UNL     1     -11.530  13.324  69.118  1.00  0.00    -0.357 A  
HETATM   34  C   UNL     1     -12.443  11.856  70.816  1.00  0.00    -0.384 A  
HETATM   35  C   UNL     1     -12.334  10.789  69.937  1.00  0.00    -0.340 A  
ENDBRANCH   6  30
ENDBRANCH   4   6
TORSDOF 7
ENDMDL
MODEL       26
REMARK 921   NORMALIZED FREE ENERGY PREDICTED BY IDOCK:   -6.17 KCAL/MOL
REMARK 922        TOTAL FREE ENERGY PREDICTED BY IDOCK:   -9.07 KCAL/MOL
REMARK 923 INTER-LIGAND FREE ENERGY PREDICTED BY IDOCK:   -9.02 KCAL/MOL
REMARK 924 INTRA-LIGAND FREE ENERGY PREDICTED BY IDOCK:   -0.05 KCAL/MOL
REMARK 927      BINDING AFFINITY PREDICTED BY RF-SCORE:    0.00 PKD
ROOT
HETATM    1  C   UNL     1     -12.071  12.125  63.859  1.00  0.00    -0.488 C  
HETATM    2  N   UNL     1     -11.081  12.277  64.921  1.00  0.00    -0.302 N  
HETATM    3  C   UNL     1      -9.795  11.645  64.683  1.00  0.00    -0.227 C  
HETATM    4  C   UNL     1     -11.555  12.734  66.155  1.00  0.00    -0.379 C  
HETATM    5  O   UNL     1     -12.761  13.015  66.249  1.00  0.00    -0.281 OA 
ENDROOT
BRANCH   4   6
HETATM    6  C   UNL     1     -10.592  12.918  67.424  1.00  0.00    -0.242 C  
BRANCH   6   7
HETATM    7  C   UNL     1      -9.733  11.568  67.461  1.00  0.00    -0.189 C  
BRANCH   7   8
HETATM    8  C   UNL     1      -9.094  11.160  68.801  1.00  0.00    -0.139 C  
BRANCH   8   9
HETATM    9  N   UNL     1      -8.741   9.731  68.938  1.00  0.00    -0.129 NA 
HETATM   10  C   UNL     1      -8.569   9.257  70.319  1.00  0.00    -0.210 C  
HETATM   11  C   UNL     1      -9.888   9.102  71.077  1.00  0.00    -0.366 C  
HETATM   12  C   UNL     1     -10.834   8.119  70.351  1.00  0.00    -0.236 C  
HETATM   13  H   UNL     1     -12.686   7.542  70.574  1.00  0.00     0.000 HD 
HETATM   14  O   UNL     1     -12.104   8.147  71.020  1.00  0.00    -0.286 OA 
HETATM   15  C   UNL     1     -11.033   8.685  68.928  1.00  0.00     0.083 C  
HETATM   16  C   UNL     1      -9.694   8.873  68.209  1.00  0.00    -0.157 C  
BRANCH  12  17
HETATM   17  C   UNL     1     -10.408   6.643  70.410  1.00  0.00    -0.231 A  
HETATM   18  C   UNL     1     -10.422   5.827  69.262  1.00  0.00    -0.358 A  
HETATM   19  C   UNL     1     -10.003   4.492  69.302  1.00  0.00    -0.192 A  
HETATM   20  C   UNL     1      -9.539   3.947  70.491  1.00  0.00    -0.193 A  
HETATM   21  C   UNL     1      -9.490   4.728  71.639  1.00  0.00    -0.206 A  
HETATM   22 CL   UNL     1      -9.000   2.315  70.536  1.00  0.00    -0.140 Cl 
HETATM   23  C   UNL     1      -9.912   6.063  71.595  1.00  0.00    -0.211 A  
ENDBRANCH  12  17
ENDBRANCH   8   9
ENDBRANCH   7   8
ENDBRANCH   6   7
BRANCH   6  24
HETATM   24  C   UNL     1      -9.634  14.126  67.145  1.00  0.00    -0.244 A  
HETATM   25  C   UNL     1     -10.119  15.284  66.503  1.00  0.00    -0.280 A  
HETATM   26  C   UNL     1      -8.278  14.133  67.516  1.00  0.00    -0.196 A  
HETATM   27  C   UNL     1      -9.272  16.357  66.196  1.00  0.00    -0.365 A  
HETATM   28  C   UNL     1      -7.924  16.309  66.536  1.00  0.00    -0.326 A  
HETATM   29  C   UNL     1      -7.429  15.196  67.203  1.00  0.00    -0.176 A  
ENDBRANCH   6  24
BRANCH   6  30
HETATM   30  C   UNL     1     -11.404  13.021  68.762  1.00  0.00    -0.332 A  
HETATM   31  C   UNL     1     -12.411  14.321  70.579  1.00  0.00    -0.430 A  
HETATM   32  C   UNL     1     -11.741  11.865  69.502  1.00  0.00    -0.410 A  
HETATM   33  C   UNL     1     -11.802  14.250  69.318  1.00  0.00    -0.372 A  
HETATM   34  C   UNL     1     -12.708  13.162  71.285  1.00  0.00    -0.396 A  
HETATM   35  C   UNL     1     -12.395  11.929  70.733  1.00  0.00    -0.416 A  
ENDBRANCH   6  30
ENDBRANCH   4   6
TORSDOF 7
ENDMDL
MODEL       27
REMARK 921   NORMALIZED FREE ENERGY PREDICTED BY IDOCK:   -6.14 KCAL/MOL
REMARK 922        TOTAL FREE ENERGY PREDICTED BY IDOCK:   -9.03 KCAL/MOL
REMARK 923 INTER-LIGAND FREE ENERGY PREDICTED BY IDOCK:   -8.79 KCAL/MOL
REMARK 924 INTRA-LIGAND FREE ENERGY PREDICTED BY IDOCK:   -0.25 KCAL/MOL
REMARK 927      BINDING AFFINITY PREDICTED BY RF-SCORE:    0.00 PKD
ROOT
HETATM    1  C   UNL     1     -12.402  15.090  64.180  1.00  0.00    -0.142 C  
HETATM    2  N   UNL     1     -11.750  14.411  65.297  1.00  0.00    -0.353 N  
HETATM    3  C   UNL     1     -12.292  13.112  65.652  1.00  0.00    -0.461 C  
HETATM    4  C   UNL     1     -10.899  15.190  66.088  1.00  0.00    -0.330 C  
HETATM    5  O   UNL     1     -10.726  16.377  65.766  1.00  0.00    -0.313 OA 
ENDROOT
BRANCH   4   6
HETATM    6  C   UNL     1     -10.140  14.592  67.368  1.00  0.00    -0.235 C  
BRANCH   6   7
HETATM    7  C   UNL     1      -9.706  13.121  66.912  1.00  0.00    -0.243 C  
BRANCH   7   8
HETATM    8  C   UNL     1      -8.612  12.409  67.730  1.00  0.00    -0.172 C  
BRANCH   8   9
HETATM    9  N   UNL     1      -8.462  10.959  67.480  1.00  0.00    -0.123 NA 
HETATM   10  C   UNL     1      -8.069  10.159  68.649  1.00  0.00    -0.109 C  
HETATM   11  C   UNL     1      -9.200   9.965  69.660  1.00  0.00    -0.246 C  
HETATM   12  C   UNL     1     -10.421   9.281  69.004  1.00  0.00    -0.216 C  
HETATM   13  H   UNL     1     -12.245   8.857  69.552  1.00  0.00     0.000 HD 
HETATM   14  O   UNL     1     -11.495   9.278  69.956  1.00  0.00    -0.181 OA 
HETATM   15  C   UNL     1     -10.834  10.182  67.820  1.00  0.00    -0.346 C  
HETATM   16  C   UNL     1      -9.671  10.398  66.848  1.00  0.00    -0.181 C  
BRANCH  12  17
HETATM   17  C   UNL     1     -10.223   7.796  68.652  1.00  0.00    -0.217 A  
HETATM   18  C   UNL     1     -10.680   7.262  67.431  1.00  0.00    -0.358 A  
HETATM   19  C   UNL     1     -10.474   5.920  67.091  1.00  0.00    -0.335 A  
HETATM   20  C   UNL     1      -9.784   5.084  67.958  1.00  0.00    -0.151 A  
HETATM   21  C   UNL     1      -9.300   5.581  69.162  1.00  0.00    -0.158 A  
HETATM   22 CL   UNL     1      -9.508   3.442  67.530  1.00  0.00    -0.253 Cl 
HETATM   23  C   UNL     1      -9.510   6.925  69.499  1.00  0.00    -0.146 A  
ENDBRANCH  12  17
ENDBRANCH   8   9
ENDBRANCH   7   8
ENDBRANCH   6   7
BRANCH   6  24
HETATM   24  C   UNL     1      -8.853  15.449  67.623  1.00  0.00    -0.179 A  
HETATM   25  C   UNL     1      -8.518  15.856  68.931  1.00  0.00    -0.220 A  
HETATM   26  C   UNL     1      -7.977  15.843  66.597  1.00  0.00    -0.270 A  
HETATM   27  C   UNL     1      -7.402  16.665  69.180  1.00  0.00    -0.217 A  
HETATM   28  C   UNL     1      -6.584  17.077  68.133  1.00  0.00    -0.149 A  
HETATM   29  C   UNL     1      -6.870  16.659  66.841  1.00  0.00    -0.253 A  
ENDBRANCH   6  24
BRANCH   6  30
HETATM   30  C   UNL     1     -11.096  14.462  68.604  1.00  0.00    -0.269 A  
HETATM   31  C   UNL     1     -12.471  15.443  70.380  1.00  0.00    -0.447 A  
HETATM   32  C   UNL     1     -11.336  13.209  69.213  1.00  0.00    -0.312 A  
HETATM   33  C   UNL     1     -11.728  15.570  69.199  1.00  0.00    -0.380 A  
HETATM   34  C   UNL     1     -12.667  14.195  70.959  1.00  0.00    -0.433 A  
HETATM   35  C   UNL     1     -12.119  13.071  70.360  1.00  0.00    -0.391 A  
ENDBRANCH   6  30
ENDBRANCH   4   6
TORSDOF 7
ENDMDL
MODEL       28
REMARK 921   NORMALIZED FREE ENERGY PREDICTED BY IDOCK:   -6.09 KCAL/MOL
REMARK 922        TOTAL FREE ENERGY PREDICTED BY IDOCK:   -8.96 KCAL/MOL
REMARK 923 INTER-LIGAND FREE ENERGY PREDICTED BY IDOCK:   -8.83 KCAL/MOL
REMARK 924 INTRA-LIGAND FREE ENERGY PREDICTED BY IDOCK:   -0.13 KCAL/MOL
REMARK 927      BINDING AFFINITY PREDICTED BY RF-SCORE:    0.00 PKD
ROOT
HETATM    1  C   UNL     1      -6.591  10.214  70.249  1.00  0.00    -0.137 C  
HETATM    2  N   UNL     1      -7.960   9.729  70.093  1.00  0.00    -0.180 N  
HETATM    3  C   UNL     1      -8.486   8.949  71.199  1.00  0.00    -0.198 C  
HETATM    4  C   UNL     1      -8.502   9.797  68.806  1.00  0.00    -0.122 C  
HETATM    5  O   UNL     1      -7.807  10.297  67.905  1.00  0.00    -0.099 OA 
ENDROOT
BRANCH   4   6
HETATM    6  C   UNL     1      -9.981   9.272  68.474  1.00  0.00    -0.193 C  
BRANCH   6   7
HETATM    7  C   UNL     1     -10.424  10.134  67.200  1.00  0.00    -0.305 C  
BRANCH   7   8
HETATM    8  C   UNL     1     -11.420  11.286  67.424  1.00  0.00    -0.221 C  
BRANCH   8   9
HETATM    9  N   UNL     1     -11.075  12.571  66.780  1.00  0.00    -0.266 NA 
HETATM   10  C   UNL     1     -11.998  13.681  67.059  1.00  0.00    -0.406 C  
HETATM   11  C   UNL     1     -11.860  14.245  68.473  1.00  0.00    -0.382 C  
HETATM   12  C   UNL     1     -10.422  14.745  68.735  1.00  0.00    -0.250 C  
HETATM   13  H   UNL     1      -9.437  15.413  70.282  1.00  0.00     0.000 HD 
HETATM   14  O   UNL     1     -10.321  15.105  70.121  1.00  0.00    -0.224 OA 
HETATM   15  C   UNL     1      -9.494  13.536  68.488  1.00  0.00    -0.131 C  
HETATM   16  C   UNL     1      -9.685  12.964  67.080  1.00  0.00    -0.221 C  
BRANCH  12  17
HETATM   17  C   UNL     1     -10.033  16.029  67.982  1.00  0.00    -0.229 A  
HETATM   18  C   UNL     1     -10.864  17.167  67.989  1.00  0.00    -0.317 A  
HETATM   19  C   UNL     1     -10.500  18.348  67.333  1.00  0.00    -0.443 A  
HETATM   20  C   UNL     1      -9.282  18.426  66.671  1.00  0.00    -0.304 A  
HETATM   21  C   UNL     1      -8.428  17.331  66.661  1.00  0.00    -0.292 A  
HETATM   22 CL   UNL     1      -8.823  19.885  65.887  1.00  0.00    -0.288 Cl 
HETATM   23  C   UNL     1      -8.797  16.149  67.317  1.00  0.00    -0.202 A  
ENDBRANCH  12  17
ENDBRANCH   8   9
ENDBRANCH   7   8
ENDBRANCH   6   7
BRANCH   6  24
HETATM   24  C   UNL     1      -9.888   7.763  68.064  1.00  0.00    -0.192 A  
HETATM   25  C   UNL     1     -10.808   7.218  67.144  1.00  0.00    -0.378 A  
HETATM   26  C   UNL     1      -8.906   6.890  68.564  1.00  0.00    -0.124 A  
HETATM   27  C   UNL     1     -10.778   5.861  66.800  1.00  0.00    -0.371 A  
HETATM   28  C   UNL     1      -9.821   5.016  67.353  1.00  0.00    -0.207 A  
HETATM   29  C   UNL     1      -8.881   5.535  68.232  1.00  0.00    -0.104 A  
ENDBRANCH   6  24
BRANCH   6  30
HETATM   30  C   UNL     1     -10.981   9.573  69.644  1.00  0.00    -0.233 A  
HETATM   31  C   UNL     1     -12.606   8.853  71.330  1.00  0.00    -0.351 A  
HETATM   32  C   UNL     1     -11.325  10.901  69.986  1.00  0.00    -0.386 A  
HETATM   33  C   UNL     1     -11.619   8.559  70.381  1.00  0.00    -0.075 A  
HETATM   34  C   UNL     1     -12.930  10.171  71.626  1.00  0.00    -0.561 A  
HETATM   35  C   UNL     1     -12.270  11.199  70.969  1.00  0.00    -0.438 A  
ENDBRANCH   6  30
ENDBRANCH   4   6
TORSDOF 7
ENDMDL
MODEL       29
REMARK 921   NORMALIZED FREE ENERGY PREDICTED BY IDOCK:   -6.07 KCAL/MOL
REMARK 922        TOTAL FREE ENERGY PREDICTED BY IDOCK:   -8.93 KCAL/MOL
REMARK 923 INTER-LIGAND FREE ENERGY PREDICTED BY IDOCK:   -8.45 KCAL/MOL
REMARK 924 INTRA-LIGAND FREE ENERGY PREDICTED BY IDOCK:   -0.48 KCAL/MOL
REMARK 927      BINDING AFFINITY PREDICTED BY RF-SCORE:    0.00 PKD
ROOT
HETATM    1  C   UNL     1      -9.301   5.751  67.696  1.00  0.00    -0.108 C  
HETATM    2  N   UNL     1      -9.092   7.121  68.155  1.00  0.00    -0.134 N  
HETATM    3  C   UNL     1      -8.176   7.283  69.270  1.00  0.00    -0.131 C  
HETATM    4  C   UNL     1     -10.003   8.078  67.696  1.00  0.00    -0.180 C  
HETATM    5  O   UNL     1     -10.889   7.710  66.907  1.00  0.00    -0.328 OA 
ENDROOT
BRANCH   4   6
HETATM    6  C   UNL     1      -9.920   9.617  68.142  1.00  0.00    -0.185 C  
BRANCH   6   7
HETATM    7  C   UNL     1     -10.549  10.415  66.905  1.00  0.00    -0.293 C  
BRANCH   7   8
HETATM    8  C   UNL     1     -11.408  11.656  67.214  1.00  0.00    -0.305 C  
BRANCH   8   9
HETATM    9  N   UNL     1     -10.943  12.926  66.618  1.00  0.00    -0.271 NA 
HETATM   10  C   UNL     1     -11.789  14.096  66.895  1.00  0.00    -0.431 C  
HETATM   11  C   UNL     1     -11.661  14.612  68.329  1.00  0.00    -0.359 C  
HETATM   12  C   UNL     1     -10.200  14.994  68.654  1.00  0.00    -0.231 C  
HETATM   13  H   UNL     1      -9.224  15.546  70.251  1.00  0.00     0.000 HD 
HETATM   14  O   UNL     1     -10.123  15.310  70.052  1.00  0.00    -0.256 OA 
HETATM   15  C   UNL     1      -9.358  13.724  68.405  1.00  0.00    -0.190 C  
HETATM   16  C   UNL     1      -9.539  13.203  66.977  1.00  0.00    -0.241 C  
BRANCH  12  17
HETATM   17  C   UNL     1      -9.687  16.262  67.950  1.00  0.00    -0.233 A  
HETATM   18  C   UNL     1     -10.528  17.371  67.727  1.00  0.00    -0.376 A  
HETATM   19  C   UNL     1     -10.059  18.540  67.117  1.00  0.00    -0.378 A  
HETATM   20  C   UNL     1      -8.728  18.635  66.735  1.00  0.00    -0.292 A  
HETATM   21  C   UNL     1      -7.865  17.570  66.958  1.00  0.00    -0.240 A  
HETATM   22 CL   UNL     1      -8.145  20.080  66.009  1.00  0.00    -0.325 Cl 
HETATM   23  C   UNL     1      -8.339  16.401  67.567  1.00  0.00    -0.176 A  
ENDBRANCH  12  17
ENDBRANCH   8   9
ENDBRANCH   7   8
ENDBRANCH   6   7
BRANCH   6  24
HETATM   24  C   UNL     1     -10.835   9.817  69.398  1.00  0.00    -0.256 A  
HETATM   25  C   UNL     1     -11.130   8.727  70.243  1.00  0.00    -0.240 A  
HETATM   26  C   UNL     1     -11.391  11.058  69.754  1.00  0.00    -0.366 A  
HETATM   27  C   UNL     1     -11.985   8.867  71.343  1.00  0.00    -0.374 A  
HETATM   28  C   UNL     1     -12.557  10.101  71.637  1.00  0.00    -0.533 A  
HETATM   29  C   UNL     1     -12.252  11.198  70.844  1.00  0.00    -0.468 A  
ENDBRANCH   6  24
BRANCH   6  30
HETATM   30  C   UNL     1      -8.436  10.090  68.330  1.00  0.00    -0.111 A  
HETATM   31  C   UNL     1      -6.630  11.034  69.689  1.00  0.00    -0.132 A  
HETATM   32  C   UNL     1      -7.553  10.176  67.229  1.00  0.00    -0.095 A  
HETATM   33  C   UNL     1      -7.917  10.492  69.573  1.00  0.00    -0.119 A  
HETATM   34  C   UNL     1      -5.798  11.120  68.580  1.00  0.00    -0.042 A  
HETATM   35  C   UNL     1      -6.252  10.667  67.350  1.00  0.00    -0.057 A  
ENDBRANCH   6  30
ENDBRANCH   4   6
TORSDOF 7
ENDMDL
MODEL       30
REMARK 921   NORMALIZED FREE ENERGY PREDICTED BY IDOCK:   -6.07 KCAL/MOL
REMARK 922        TOTAL FREE ENERGY PREDICTED BY IDOCK:   -8.93 KCAL/MOL
REMARK 923 INTER-LIGAND FREE ENERGY PREDICTED BY IDOCK:   -8.89 KCAL/MOL
REMARK 924 INTRA-LIGAND FREE ENERGY PREDICTED BY IDOCK:   -0.03 KCAL/MOL
REMARK 927      BINDING AFFINITY PREDICTED BY RF-SCORE:    0.00 PKD
ROOT
HETATM    1  C   UNL     1      -9.846   4.665  67.609  1.00  0.00    -0.141 C  
HETATM    2  N   UNL     1      -9.608   5.905  68.342  1.00  0.00    -0.119 N  
HETATM    3  C   UNL     1      -8.873   5.773  69.587  1.00  0.00    -0.122 C  
HETATM    4  C   UNL     1     -10.356   7.017  67.945  1.00  0.00    -0.199 C  
HETATM    5  O   UNL     1     -11.130   6.887  66.982  1.00  0.00    -0.389 OA 
ENDROOT
BRANCH   4   6
HETATM    6  C   UNL     1     -10.228   8.439  68.678  1.00  0.00    -0.220 C  
BRANCH   6   7
HETATM    7  C   UNL     1     -10.887   9.470  67.648  1.00  0.00    -0.253 C  
BRANCH   7   8
HETATM    8  C   UNL     1      -9.943  10.269  66.730  1.00  0.00    -0.209 C  
BRANCH   8   9
HETATM    9  N   UNL     1      -9.573  11.619  67.206  1.00  0.00    -0.173 NA 
HETATM   10  C   UNL     1      -9.313  12.607  66.149  1.00  0.00    -0.112 C  
HETATM   11  C   UNL     1     -10.582  13.098  65.451  1.00  0.00    -0.311 C  
HETATM   12  C   UNL     1     -11.564  13.731  66.463  1.00  0.00    -0.365 C  
HETATM   13  H   UNL     1     -13.394  14.407  66.397  1.00  0.00     0.000 HD 
HETATM   14  O   UNL     1     -12.790  14.017  65.775  1.00  0.00    -0.516 OA 
HETATM   15  C   UNL     1     -11.853  12.642  67.520  1.00  0.00    -0.396 C  
HETATM   16  C   UNL     1     -10.562  12.137  68.170  1.00  0.00    -0.216 C  
BRANCH  12  17
HETATM   17  C   UNL     1     -11.123  15.090  67.034  1.00  0.00    -0.334 A  
HETATM   18  C   UNL     1     -10.357  15.994  66.272  1.00  0.00    -0.330 A  
HETATM   19  C   UNL     1      -9.981  17.246  66.773  1.00  0.00    -0.301 A  
HETATM   20  C   UNL     1     -10.384  17.632  68.044  1.00  0.00    -0.375 A  
HETATM   21  C   UNL     1     -11.159  16.776  68.816  1.00  0.00    -0.220 A  
HETATM   22 CL   UNL     1      -9.946  19.180  68.651  1.00  0.00    -0.466 Cl 
HETATM   23  C   UNL     1     -11.531  15.523  68.311  1.00  0.00    -0.359 A  
ENDBRANCH  12  17
ENDBRANCH   8   9
ENDBRANCH   7   8
ENDBRANCH   6   7
BRANCH   6  24
HETATM   24  C   UNL     1     -11.091   8.399  69.986  1.00  0.00    -0.148 A  
HETATM   25  C   UNL     1     -11.513   9.598  70.595  1.00  0.00    -0.376 A  
HETATM   26  C   UNL     1     -11.493   7.202  70.604  1.00  0.00    -0.346 A  
HETATM   27  C   UNL     1     -12.242   9.591  71.792  1.00  0.00    -0.465 A  
HETATM   28  C   UNL     1     -12.581   8.387  72.402  1.00  0.00    -0.372 A  
HETATM   29  C   UNL     1     -12.210   7.192  71.802  1.00  0.00    -0.379 A  
ENDBRANCH   6  24
BRANCH   6  30
HETATM   30  C   UNL     1      -8.729   8.848  68.895  1.00  0.00    -0.136 A  
HETATM   31  C   UNL     1      -6.372   8.833  68.229  1.00  0.00    -0.055 A  
HETATM   32  C   UNL     1      -8.312   9.482  70.088  1.00  0.00    -0.212 A  
HETATM   33  C   UNL     1      -7.721   8.575  67.953  1.00  0.00    -0.103 A  
HETATM   34  C   UNL     1      -5.999   9.440  69.421  1.00  0.00    -0.034 A  
HETATM   35  C   UNL     1      -6.974   9.788  70.343  1.00  0.00    -0.139 A  
ENDBRANCH   6  30
ENDBRANCH   4   6
TORSDOF 7
ENDMDL
MODEL       31
REMARK 921   NORMALIZED FREE ENERGY PREDICTED BY IDOCK:   -6.06 KCAL/MOL
REMARK 922        TOTAL FREE ENERGY PREDICTED BY IDOCK:   -8.91 KCAL/MOL
REMARK 923 INTER-LIGAND FREE ENERGY PREDICTED BY IDOCK:   -8.94 KCAL/MOL
REMARK 924 INTRA-LIGAND FREE ENERGY PREDICTED BY IDOCK:    0.03 KCAL/MOL
REMARK 927      BINDING AFFINITY PREDICTED BY RF-SCORE:    0.00 PKD
ROOT
HETATM    1  C   UNL     1     -13.642   7.575  71.645  1.00  0.00    -0.368 C  
HETATM    2  N   UNL     1     -12.260   7.241  71.311  1.00  0.00    -0.337 N  
HETATM    3  C   UNL     1     -11.760   5.993  71.859  1.00  0.00    -0.226 C  
HETATM    4  C   UNL     1     -11.482   8.272  70.773  1.00  0.00    -0.252 C  
HETATM    5  O   UNL     1     -12.024   9.373  70.580  1.00  0.00    -0.256 OA 
ENDROOT
BRANCH   4   6
HETATM    6  C   UNL     1      -9.938   8.064  70.389  1.00  0.00    -0.188 C  
BRANCH   6   7
HETATM    7  C   UNL     1      -9.425   9.536  70.028  1.00  0.00    -0.265 C  
BRANCH   7   8
HETATM    8  C   UNL     1      -9.667  10.049  68.596  1.00  0.00    -0.159 C  
BRANCH   8   9
HETATM    9  N   UNL     1      -9.479  11.501  68.392  1.00  0.00    -0.192 NA 
HETATM   10  C   UNL     1      -9.077  11.896  67.034  1.00  0.00    -0.191 C  
HETATM   11  C   UNL     1     -10.212  11.803  66.014  1.00  0.00    -0.265 C  
HETATM   12  C   UNL     1     -11.410  12.686  66.432  1.00  0.00    -0.331 C  
HETATM   13  H   UNL     1     -13.229  12.969  65.783  1.00  0.00     0.000 HD 
HETATM   14  O   UNL     1     -12.493  12.426  65.526  1.00  0.00    -0.643 OA 
HETATM   15  C   UNL     1     -11.834  12.199  67.834  1.00  0.00    -0.338 C  
HETATM   16  C   UNL     1     -10.668  12.260  68.824  1.00  0.00    -0.214 C  
BRANCH  12  17
HETATM   17  C   UNL     1     -11.173  14.201  66.314  1.00  0.00    -0.329 A  
HETATM   18  C   UNL     1     -11.031  15.015  67.455  1.00  0.00    -0.307 A  
HETATM   19  C   UNL     1     -10.783  16.388  67.355  1.00  0.00    -0.278 A  
HETATM   20  C   UNL     1     -10.648  16.978  66.105  1.00  0.00    -0.194 A  
HETATM   21  C   UNL     1     -10.760  16.203  64.958  1.00  0.00    -0.359 A  
HETATM   22 CL   UNL     1     -10.317  18.660  65.981  1.00  0.00    -0.458 Cl 
HETATM   23  C   UNL     1     -11.011  14.829  65.063  1.00  0.00    -0.426 A  
ENDBRANCH  12  17
ENDBRANCH   8   9
ENDBRANCH   7   8
ENDBRANCH   6   7
BRANCH   6  24
HETATM   24  C   UNL     1      -9.178   7.554  71.661  1.00  0.00    -0.152 A  
HETATM   25  C   UNL     1      -8.501   6.317  71.637  1.00  0.00    -0.129 A  
HETATM   26  C   UNL     1      -9.117   8.282  72.863  1.00  0.00    -0.332 A  
HETATM   27  C   UNL     1      -7.857   5.816  72.775  1.00  0.00    -0.101 A  
HETATM   28  C   UNL     1      -7.859   6.542  73.962  1.00  0.00    -0.098 A  
HETATM   29  C   UNL     1      -8.486   7.780  74.002  1.00  0.00    -0.304 A  
ENDBRANCH   6  24
BRANCH   6  30
HETATM   30  C   UNL     1      -9.771   7.158  69.120  1.00  0.00    -0.158 A  
HETATM   31  C   UNL     1      -8.411   6.182  67.331  1.00  0.00    -0.108 A  
HETATM   32  C   UNL     1     -10.896   6.603  68.467  1.00  0.00    -0.319 A  
HETATM   33  C   UNL     1      -8.520   6.884  68.539  1.00  0.00    -0.123 A  
HETATM   34  C   UNL     1      -9.542   5.669  66.708  1.00  0.00    -0.159 A  
HETATM   35  C   UNL     1     -10.786   5.858  67.291  1.00  0.00    -0.380 A  
ENDBRANCH   6  30
ENDBRANCH   4   6
TORSDOF 7
ENDMDL
MODEL       32
REMARK 921   NORMALIZED FREE ENERGY PREDICTED BY IDOCK:   -6.05 KCAL/MOL
REMARK 922        TOTAL FREE ENERGY PREDICTED BY IDOCK:   -8.90 KCAL/MOL
REMARK 923 INTER-LIGAND FREE ENERGY PREDICTED BY IDOCK:   -9.59 KCAL/MOL
REMARK 924 INTRA-LIGAND FREE ENERGY PREDICTED BY IDOCK:    0.68 KCAL/MOL
REMARK 927      BINDING AFFINITY PREDICTED BY RF-SCORE:    0.00 PKD
ROOT
HETATM    1  C   UNL     1      -7.157  13.241  67.612  1.00  0.00    -0.159 C  
HETATM    2  N   UNL     1      -8.602  13.299  67.406  1.00  0.00    -0.194 N  
HETATM    3  C   UNL     1      -9.095  14.472  66.706  1.00  0.00    -0.261 C  
HETATM    4  C   UNL     1      -9.374  12.403  68.151  1.00  0.00    -0.209 C  
HETATM    5  O   UNL     1      -8.785  11.602  68.895  1.00  0.00    -0.059 OA 
ENDROOT
BRANCH   4   6
HETATM    6  C   UNL     1     -10.976  12.373  68.055  1.00  0.00    -0.262 C  
BRANCH   6   7
HETATM    7  C   UNL     1     -11.366  10.893  68.524  1.00  0.00    -0.367 C  
BRANCH   7   8
HETATM    8  C   UNL     1     -10.363   9.761  68.237  1.00  0.00    -0.198 C  
BRANCH   8   9
HETATM    9  N   UNL     1     -10.650   8.465  68.887  1.00  0.00    -0.185 NA 
HETATM   10  C   UNL     1      -9.485   7.591  69.086  1.00  0.00    -0.150 C  
HETATM   11  C   UNL     1      -8.561   8.059  70.211  1.00  0.00    -0.132 C  
HETATM   12  C   UNL     1      -9.321   8.151  71.554  1.00  0.00    -0.160 C  
HETATM   13  H   UNL     1      -8.913   8.804  73.347  1.00  0.00     0.000 HD 
HETATM   14  O   UNL     1      -8.445   8.748  72.522  1.00  0.00    -0.403 OA 
HETATM   15  C   UNL     1     -10.499   9.121  71.315  1.00  0.00    -0.398 C  
HETATM   16  C   UNL     1     -11.382   8.653  70.154  1.00  0.00    -0.078 C  
BRANCH  12  17
HETATM   17  C   UNL     1      -9.708   6.799  72.176  1.00  0.00    -0.156 A  
HETATM   18  C   UNL     1     -11.028   6.530  72.590  1.00  0.00    -0.287 A  
HETATM   19  C   UNL     1     -11.394   5.290  73.126  1.00  0.00    -0.358 A  
HETATM   20  C   UNL     1     -10.450   4.280  73.241  1.00  0.00    -0.186 A  
HETATM   21  C   UNL     1      -9.143   4.501  72.824  1.00  0.00    -0.134 A  
HETATM   22 CL   UNL     1     -10.904   2.748  73.876  1.00  0.00    -0.271 Cl 
HETATM   23  C   UNL     1      -8.781   5.744  72.289  1.00  0.00    -0.132 A  
ENDBRANCH  12  17
ENDBRANCH   8   9
ENDBRANCH   7   8
ENDBRANCH   6   7
BRANCH   6  24
HETATM   24  C   UNL     1     -11.551  13.404  69.085  1.00  0.00    -0.365 A  
HETATM   25  C   UNL     1     -12.238  12.956  70.232  1.00  0.00    -0.362 A  
HETATM   26  C   UNL     1     -11.412  14.796  68.938  1.00  0.00    -0.321 A  
HETATM   27  C   UNL     1     -12.805  13.858  71.142  1.00  0.00    -0.423 A  
HETATM   28  C   UNL     1     -12.690  15.229  70.938  1.00  0.00    -0.496 A  
HETATM   29  C   UNL     1     -11.986  15.697  69.836  1.00  0.00    -0.376 A  
ENDBRANCH   6  24
BRANCH   6  30
HETATM   30  C   UNL     1     -11.475  12.571  66.582  1.00  0.00    -0.417 A  
HETATM   31  C   UNL     1     -11.430  12.013  64.197  1.00  0.00    -0.460 A  
HETATM   32  C   UNL     1     -12.329  13.644  66.239  1.00  0.00    -0.464 A  
HETATM   33  C   UNL     1     -11.076  11.735  65.523  1.00  0.00    -0.336 A  
HETATM   34  C   UNL     1     -12.256  13.089  63.897  1.00  0.00    -0.511 A  
HETATM   35  C   UNL     1     -12.727  13.893  64.924  1.00  0.00    -0.315 A  
ENDBRANCH   6  30
ENDBRANCH   4   6
TORSDOF 7
ENDMDL
MODEL       33
REMARK 921   NORMALIZED FREE ENERGY PREDICTED BY IDOCK:   -5.99 KCAL/MOL
REMARK 922        TOTAL FREE ENERGY PREDICTED BY IDOCK:   -8.82 KCAL/MOL
REMARK 923 INTER-LIGAND FREE ENERGY PREDICTED BY IDOCK:   -8.58 KCAL/MOL
REMARK 924 INTRA-LIGAND FREE ENERGY PREDICTED BY IDOCK:   -0.25 KCAL/MOL
REMARK 927      BINDING AFFINITY PREDICTED BY RF-SCORE:    0.00 PKD
ROOT
HETATM    1  C   UNL     1      -7.290   8.210  74.101  1.00  0.00    -0.176 C  
HETATM    2  N   UNL     1      -7.946   7.891  72.835  1.00  0.00    -0.124 N  
HETATM    3  C   UNL     1      -7.151   8.105  71.639  1.00  0.00    -0.075 C  
HETATM    4  C   UNL     1      -9.332   7.712  72.880  1.00  0.00    -0.198 C  
HETATM    5  O   UNL     1      -9.896   7.795  73.983  1.00  0.00    -0.082 OA 
ENDROOT
BRANCH   4   6
HETATM    6  C   UNL     1     -10.193   7.391  71.565  1.00  0.00    -0.205 C  
BRANCH   6   7
HETATM    7  C   UNL     1      -9.531   8.307  70.432  1.00  0.00    -0.172 C  
BRANCH   7   8
HETATM    8  C   UNL     1     -10.348   8.568  69.153  1.00  0.00    -0.217 C  
BRANCH   8   9
HETATM    9  N   UNL     1     -10.626   9.987  68.844  1.00  0.00    -0.209 NA 
HETATM   10  C   UNL     1      -9.488  10.901  69.016  1.00  0.00    -0.146 C  
HETATM   11  C   UNL     1      -8.433  10.771  67.917  1.00  0.00    -0.122 C  
HETATM   12  C   UNL     1      -9.046  11.033  66.523  1.00  0.00    -0.173 C  
HETATM   13  H   UNL     1      -8.427  10.896  64.677  1.00  0.00     0.000 HD 
HETATM   14  O   UNL     1      -8.049  10.734  65.534  1.00  0.00    -0.153 OA 
HETATM   15  C   UNL     1     -10.197  10.015  66.362  1.00  0.00    -0.290 C  
HETATM   16  C   UNL     1     -11.215  10.137  67.500  1.00  0.00    -0.047 C  
BRANCH  12  17
HETATM   17  C   UNL     1      -9.429  12.496  66.246  1.00  0.00    -0.210 A  
HETATM   18  C   UNL     1      -8.732  13.565  66.844  1.00  0.00    -0.158 A  
HETATM   19  C   UNL     1      -9.054  14.899  66.569  1.00  0.00    -0.309 A  
HETATM   20  C   UNL     1     -10.069  15.196  65.670  1.00  0.00    -0.363 A  
HETATM   21  C   UNL     1     -10.764  14.168  65.045  1.00  0.00    -0.429 A  
HETATM   22 CL   UNL     1     -10.448  16.834  65.313  1.00  0.00    -0.234 Cl 
HETATM   23  C   UNL     1     -10.440  12.834  65.324  1.00  0.00    -0.312 A  
ENDBRANCH  12  17
ENDBRANCH   8   9
ENDBRANCH   7   8
ENDBRANCH   6   7
BRANCH   6  24
HETATM   24  C   UNL     1      -9.981   5.883  71.193  1.00  0.00    -0.236 A  
HETATM   25  C   UNL     1      -9.878   4.909  72.206  1.00  0.00    -0.219 A  
HETATM   26  C   UNL     1      -9.893   5.425  69.867  1.00  0.00    -0.268 A  
HETATM   27  C   UNL     1      -9.638   3.563  71.902  1.00  0.00    -0.218 A  
HETATM   28  C   UNL     1      -9.508   3.153  70.579  1.00  0.00    -0.236 A  
HETATM   29  C   UNL     1      -9.643   4.086  69.561  1.00  0.00    -0.265 A  
ENDBRANCH   6  24
BRANCH   6  30
HETATM   30  C   UNL     1     -11.692   7.820  71.732  1.00  0.00    -0.323 A  
HETATM   31  C   UNL     1     -14.095   7.377  71.549  1.00  0.00    -0.541 A  
HETATM   32  C   UNL     1     -12.038   9.150  72.064  1.00  0.00    -0.431 A  
HETATM   33  C   UNL     1     -12.766   6.935  71.522  1.00  0.00    -0.396 A  
HETATM   34  C   UNL     1     -14.394   8.698  71.861  1.00  0.00    -0.492 A  
HETATM   35  C   UNL     1     -13.363   9.581  72.144  1.00  0.00    -0.545 A  
ENDBRANCH   6  30
ENDBRANCH   4   6
TORSDOF 7
ENDMDL
MODEL       34
REMARK 921   NORMALIZED FREE ENERGY PREDICTED BY IDOCK:   -5.98 KCAL/MOL
REMARK 922        TOTAL FREE ENERGY PREDICTED BY IDOCK:   -8.80 KCAL/MOL
REMARK 923 INTER-LIGAND FREE ENERGY PREDICTED BY IDOCK:   -8.76 KCAL/MOL
REMARK 924 INTRA-LIGAND FREE ENERGY PREDICTED BY IDOCK:   -0.04 KCAL/MOL
REMARK 927      BINDING AFFINITY PREDICTED BY RF-SCORE:    0.00 PKD
ROOT
HETATM    1  C   UNL     1      -6.982  16.924  66.358  1.00  0.00    -0.184 C  
HETATM    2  N   UNL     1      -7.577  15.728  66.949  1.00  0.00    -0.223 N  
HETATM    3  C   UNL     1      -6.684  14.905  67.746  1.00  0.00    -0.172 C  
HETATM    4  C   UNL     1      -8.824  15.341  66.450  1.00  0.00    -0.276 C  
HETATM    5  O   UNL     1      -9.353  16.054  65.581  1.00  0.00    -0.385 OA 
ENDROOT
BRANCH   4   6
HETATM    6  C   UNL     1      -9.585  14.031  66.978  1.00  0.00    -0.253 C  
BRANCH   6   7
HETATM    7  C   UNL     1      -8.404  13.015  67.344  1.00  0.00    -0.194 C  
BRANCH   7   8
HETATM    8  C   UNL     1      -8.595  12.103  68.570  1.00  0.00    -0.079 C  
BRANCH   8   9
HETATM    9  N   UNL     1      -8.656  10.653  68.291  1.00  0.00    -0.123 NA 
HETATM   10  C   UNL     1      -7.584   9.852  68.899  1.00  0.00    -0.083 C  
HETATM   11  C   UNL     1      -7.747   9.664  70.408  1.00  0.00    -0.178 C  
HETATM   12  C   UNL     1      -9.095   8.987  70.742  1.00  0.00    -0.245 C  
HETATM   13  H   UNL     1     -10.084   8.575  72.374  1.00  0.00     0.000 HD 
HETATM   14  O   UNL     1      -9.255   8.992  72.169  1.00  0.00    -0.365 OA 
HETATM   15  C   UNL     1     -10.192   9.890  70.137  1.00  0.00    -0.326 C  
HETATM   16  C   UNL     1      -9.979  10.098  68.634  1.00  0.00    -0.170 C  
BRANCH  12  17
HETATM   17  C   UNL     1      -9.190   7.501  70.356  1.00  0.00    -0.157 A  
HETATM   18  C   UNL     1      -8.108   6.620  70.550  1.00  0.00    -0.117 A  
HETATM   19  C   UNL     1      -8.199   5.260  70.232  1.00  0.00    -0.095 A  
HETATM   20  C   UNL     1      -9.386   4.745  69.730  1.00  0.00    -0.141 A  
HETATM   21  C   UNL     1     -10.481   5.579  69.546  1.00  0.00    -0.368 A  
HETATM   22 CL   UNL     1      -9.507   3.070  69.363  1.00  0.00    -0.218 Cl 
HETATM   23  C   UNL     1     -10.385   6.940  69.864  1.00  0.00    -0.223 A  
ENDBRANCH  12  17
ENDBRANCH   8   9
ENDBRANCH   7   8
ENDBRANCH   6   7
BRANCH   6  24
HETATM   24  C   UNL     1     -10.362  14.405  68.287  1.00  0.00    -0.239 A  
HETATM   25  C   UNL     1     -11.431  13.602  68.733  1.00  0.00    -0.346 A  
HETATM   26  C   UNL     1     -10.042  15.524  69.076  1.00  0.00    -0.234 A  
HETATM   27  C   UNL     1     -12.174  13.943  69.871  1.00  0.00    -0.393 A  
HETATM   28  C   UNL     1     -11.859  15.085  70.601  1.00  0.00    -0.364 A  
HETATM   29  C   UNL     1     -10.787  15.871  70.204  1.00  0.00    -0.359 A  
ENDBRANCH   6  24
BRANCH   6  30
HETATM   30  C   UNL     1     -10.467  13.378  65.857  1.00  0.00    -0.287 A  
HETATM   31  C   UNL     1     -12.549  13.208  64.577  1.00  0.00    -0.344 A  
HETATM   32  C   UNL     1     -10.046  12.206  65.189  1.00  0.00    -0.288 A  
HETATM   33  C   UNL     1     -11.725  13.885  65.486  1.00  0.00    -0.356 A  
HETATM   34  C   UNL     1     -12.107  12.047  63.954  1.00  0.00    -0.557 A  
HETATM   35  C   UNL     1     -10.842  11.557  64.243  1.00  0.00    -0.421 A  
ENDBRANCH   6  30
ENDBRANCH   4   6
TORSDOF 7
ENDMDL
MODEL       35
REMARK 921   NORMALIZED FREE ENERGY PREDICTED BY IDOCK:   -5.97 KCAL/MOL
REMARK 922        TOTAL FREE ENERGY PREDICTED BY IDOCK:   -8.79 KCAL/MOL
REMARK 923 INTER-LIGAND FREE ENERGY PREDICTED BY IDOCK:   -8.78 KCAL/MOL
REMARK 924 INTRA-LIGAND FREE ENERGY PREDICTED BY IDOCK:   -0.00 KCAL/MOL
REMARK 927      BINDING AFFINITY PREDICTED BY RF-SCORE:    0.00 PKD
ROOT
HETATM    1  C   UNL     1      -7.403   7.317  72.417  1.00  0.00    -0.075 C  
HETATM    2  N   UNL     1      -8.475   7.584  71.462  1.00  0.00    -0.114 N  
HETATM    3  C   UNL     1      -9.303   6.446  71.103  1.00  0.00    -0.160 C  
HETATM    4  C   UNL     1      -8.407   8.799  70.772  1.00  0.00    -0.160 C  
HETATM    5  O   UNL     1      -7.475   9.574  71.045  1.00  0.00    -0.300 OA 
ENDROOT
BRANCH   4   6
HETATM    6  C   UNL     1      -9.494   9.216  69.668  1.00  0.00    -0.178 C  
BRANCH   6   7
HETATM    7  C   UNL     1      -8.875  10.525  68.987  1.00  0.00    -0.174 C  
BRANCH   7   8
HETATM    8  C   UNL     1      -9.373  10.905  67.580  1.00  0.00    -0.156 C  
BRANCH   8   9
HETATM    9  N   UNL     1      -9.090  12.291  67.150  1.00  0.00    -0.186 NA 
HETATM   10  C   UNL     1     -10.028  12.845  66.163  1.00  0.00    -0.272 C  
HETATM   11  C   UNL     1     -11.391  13.205  66.755  1.00  0.00    -0.353 C  
HETATM   12  C   UNL     1     -11.246  14.232  67.900  1.00  0.00    -0.285 C  
HETATM   13  H   UNL     1     -12.442  15.031  69.219  1.00  0.00     0.000 HD 
HETATM   14  O   UNL     1     -12.532  14.399  68.515  1.00  0.00    -0.101 OA 
HETATM   15  C   UNL     1     -10.302  13.587  68.939  1.00  0.00    -0.109 C  
HETATM   16  C   UNL     1      -8.962  13.195  68.309  1.00  0.00    -0.175 C  
BRANCH  12  17
HETATM   17  C   UNL     1     -10.851  15.651  67.456  1.00  0.00    -0.316 A  
HETATM   18  C   UNL     1     -10.536  15.940  66.113  1.00  0.00    -0.310 A  
HETATM   19  C   UNL     1     -10.209  17.236  65.696  1.00  0.00    -0.141 A  
HETATM   20  C   UNL     1     -10.211  18.279  66.612  1.00  0.00    -0.384 A  
HETATM   21  C   UNL     1     -10.538  18.035  67.940  1.00  0.00    -0.387 A  
HETATM   22 CL   UNL     1      -9.835  19.875  66.096  1.00  0.00    -0.542 Cl 
HETATM   23  C   UNL     1     -10.863  16.737  68.353  1.00  0.00    -0.355 A  
ENDBRANCH  12  17
ENDBRANCH   8   9
ENDBRANCH   7   8
ENDBRANCH   6   7
BRANCH   6  24
HETATM   24  C   UNL     1      -9.575   8.072  68.599  1.00  0.00    -0.150 A  
HETATM   25  C   UNL     1      -8.396   7.489  68.092  1.00  0.00    -0.125 A  
HETATM   26  C   UNL     1     -10.791   7.568  68.105  1.00  0.00    -0.070 A  
HETATM   27  C   UNL     1      -8.440   6.501  67.099  1.00  0.00    -0.112 A  
HETATM   28  C   UNL     1      -9.661   6.061  66.598  1.00  0.00    -0.179 A  
HETATM   29  C   UNL     1     -10.837   6.592  67.108  1.00  0.00    -0.471 A  
ENDBRANCH   6  24
BRANCH   6  30
HETATM   30  C   UNL     1     -10.867   9.601  70.320  1.00  0.00    -0.339 A  
HETATM   31  C   UNL     1     -12.764  11.125  70.612  1.00  0.00    -0.350 A  
HETATM   32  C   UNL     1     -11.408   8.842  71.383  1.00  0.00    -0.380 A  
HETATM   33  C   UNL     1     -11.608  10.729  69.925  1.00  0.00    -0.410 A  
HETATM   34  C   UNL     1     -13.254  10.362  71.665  1.00  0.00    -0.502 A  
HETATM   35  C   UNL     1     -12.588   9.204  72.036  1.00  0.00    -0.463 A  
ENDBRANCH   6  30
ENDBRANCH   4   6
TORSDOF 7
ENDMDL
MODEL       36
REMARK 921   NORMALIZED FREE ENERGY PREDICTED BY IDOCK:   -5.95 KCAL/MOL
REMARK 922        TOTAL FREE ENERGY PREDICTED BY IDOCK:   -8.75 KCAL/MOL
REMARK 923 INTER-LIGAND FREE ENERGY PREDICTED BY IDOCK:   -8.11 KCAL/MOL
REMARK 924 INTRA-LIGAND FREE ENERGY PREDICTED BY IDOCK:   -0.65 KCAL/MOL
REMARK 927      BINDING AFFINITY PREDICTED BY RF-SCORE:    0.00 PKD
ROOT
HETATM    1  C   UNL     1     -10.766   6.473  71.985  1.00  0.00    -0.223 C  
HETATM    2  N   UNL     1     -10.004   6.675  70.755  1.00  0.00    -0.184 N  
HETATM    3  C   UNL     1      -8.727   5.987  70.681  1.00  0.00    -0.138 C  
HETATM    4  C   UNL     1     -10.420   7.724  69.929  1.00  0.00    -0.232 C  
HETATM    5  O   UNL     1     -11.421   8.375  70.272  1.00  0.00    -0.198 OA 
ENDROOT
BRANCH   4   6
HETATM    6  C   UNL     1      -9.661   8.087  68.564  1.00  0.00    -0.159 C  
BRANCH   6   7
HETATM    7  C   UNL     1     -10.606   9.177  67.870  1.00  0.00    -0.272 C  
BRANCH   7   8
HETATM    8  C   UNL     1     -10.026   9.986  66.696  1.00  0.00    -0.216 C  
BRANCH   8   9
HETATM    9  N   UNL     1      -9.622  11.374  67.007  1.00  0.00    -0.175 NA 
HETATM   10  C   UNL     1      -9.424  12.246  65.840  1.00  0.00    -0.154 C  
HETATM   11  C   UNL     1     -10.732  12.676  65.175  1.00  0.00    -0.321 C  
HETATM   12  C   UNL     1     -11.647  13.418  66.174  1.00  0.00    -0.346 C  
HETATM   13  H   UNL     1     -13.475  14.102  66.151  1.00  0.00     0.000 HD 
HETATM   14  O   UNL     1     -12.913  13.645  65.536  1.00  0.00    -0.625 OA 
HETATM   15  C   UNL     1     -11.875  12.446  67.352  1.00  0.00    -0.360 C  
HETATM   16  C   UNL     1     -10.548  11.997  67.971  1.00  0.00    -0.208 C  
BRANCH  12  17
HETATM   17  C   UNL     1     -11.168  14.824  66.574  1.00  0.00    -0.342 A  
HETATM   18  C   UNL     1     -10.536  15.677  65.648  1.00  0.00    -0.402 A  
HETATM   19  C   UNL     1     -10.127  16.970  65.996  1.00  0.00    -0.318 A  
HETATM   20  C   UNL     1     -10.362  17.448  67.278  1.00  0.00    -0.336 A  
HETATM   21  C   UNL     1     -11.003  16.643  68.212  1.00  0.00    -0.341 A  
HETATM   22 CL   UNL     1      -9.885  19.044  67.700  1.00  0.00    -0.371 Cl 
HETATM   23  C   UNL     1     -11.408  15.349  67.859  1.00  0.00    -0.328 A  
ENDBRANCH  12  17
ENDBRANCH   8   9
ENDBRANCH   7   8
ENDBRANCH   6   7
BRANCH   6  24
HETATM   24  C   UNL     1      -8.289   8.754  68.925  1.00  0.00    -0.127 A  
HETATM   25  C   UNL     1      -8.211   9.697  69.970  1.00  0.00    -0.197 A  
HETATM   26  C   UNL     1      -7.090   8.455  68.255  1.00  0.00    -0.085 A  
HETATM   27  C   UNL     1      -7.008  10.345  70.279  1.00  0.00    -0.104 A  
HETATM   28  C   UNL     1      -5.850  10.059  69.563  1.00  0.00    -0.037 A  
HETATM   29  C   UNL     1      -5.892   9.107  68.554  1.00  0.00    -0.041 A  
ENDBRANCH   6  24
BRANCH   6  30
HETATM   30  C   UNL     1      -9.555   6.848  67.609  1.00  0.00    -0.143 A  
HETATM   31  C   UNL     1      -8.313   5.435  66.038  1.00  0.00    -0.120 A  
HETATM   32  C   UNL     1     -10.694   6.073  67.290  1.00  0.00    -0.400 A  
HETATM   33  C   UNL     1      -8.352   6.464  66.988  1.00  0.00    -0.112 A  
HETATM   34  C   UNL     1      -9.459   4.709  65.737  1.00  0.00    -0.176 A  
HETATM   35  C   UNL     1     -10.648   5.013  66.383  1.00  0.00    -0.317 A  
ENDBRANCH   6  30
ENDBRANCH   4   6
TORSDOF 7
ENDMDL
MODEL       37
REMARK 921   NORMALIZED FREE ENERGY PREDICTED BY IDOCK:   -5.93 KCAL/MOL
REMARK 922        TOTAL FREE ENERGY PREDICTED BY IDOCK:   -8.73 KCAL/MOL
REMARK 923 INTER-LIGAND FREE ENERGY PREDICTED BY IDOCK:   -8.69 KCAL/MOL
REMARK 924 INTRA-LIGAND FREE ENERGY PREDICTED BY IDOCK:   -0.04 KCAL/MOL
REMARK 927      BINDING AFFINITY PREDICTED BY RF-SCORE:    0.00 PKD
ROOT
HETATM    1  C   UNL     1      -6.114   8.588  69.834  1.00  0.00    -0.031 C  
HETATM    2  N   UNL     1      -7.484   8.088  69.748  1.00  0.00    -0.087 N  
HETATM    3  C   UNL     1      -7.797   6.948  70.591  1.00  0.00    -0.101 C  
HETATM    4  C   UNL     1      -8.247   8.545  68.669  1.00  0.00    -0.122 C  
HETATM    5  O   UNL     1      -7.729   9.365  67.893  1.00  0.00    -0.087 OA 
ENDROOT
BRANCH   4   6
HETATM    6  C   UNL     1      -9.756   8.059  68.425  1.00  0.00    -0.168 C  
BRANCH   6   7
HETATM    7  C   UNL     1     -10.389   9.202  67.501  1.00  0.00    -0.324 C  
BRANCH   7   8
HETATM    8  C   UNL     1     -11.125  10.362  68.197  1.00  0.00    -0.285 C  
BRANCH   8   9
HETATM    9  N   UNL     1     -10.370  11.627  68.313  1.00  0.00    -0.193 NA 
HETATM   10  C   UNL     1      -9.766  12.114  67.064  1.00  0.00    -0.202 C  
HETATM   11  C   UNL     1     -10.784  12.701  66.086  1.00  0.00    -0.293 C  
HETATM   12  C   UNL     1     -11.559  13.874  66.728  1.00  0.00    -0.378 C  
HETATM   13  H   UNL     1     -13.079  14.988  66.217  1.00  0.00     0.000 HD 
HETATM   14  O   UNL     1     -12.602  14.267  65.823  1.00  0.00    -0.454 OA 
HETATM   15  C   UNL     1     -12.223  13.304  68.001  1.00  0.00    -0.118 C  
HETATM   16  C   UNL     1     -11.187  12.682  68.941  1.00  0.00    -0.280 C  
BRANCH  12  17
HETATM   17  C   UNL     1     -10.739  15.157  66.940  1.00  0.00    -0.308 A  
HETATM   18  C   UNL     1      -9.714  15.531  66.049  1.00  0.00    -0.378 A  
HETATM   19  C   UNL     1      -8.986  16.715  66.218  1.00  0.00    -0.340 A  
HETATM   20  C   UNL     1      -9.283  17.565  67.275  1.00  0.00    -0.240 A  
HETATM   21  C   UNL     1     -10.302  17.239  68.162  1.00  0.00    -0.357 A  
HETATM   22 CL   UNL     1      -8.407  19.031  67.469  1.00  0.00    -0.296 Cl 
HETATM   23  C   UNL     1     -11.026  16.053  67.989  1.00  0.00    -0.341 A  
ENDBRANCH  12  17
ENDBRANCH   8   9
ENDBRANCH   7   8
ENDBRANCH   6   7
BRANCH   6  24
HETATM   24  C   UNL     1      -9.717   6.714  67.621  1.00  0.00    -0.142 A  
HETATM   25  C   UNL     1      -8.552   5.920  67.621  1.00  0.00    -0.102 A  
HETATM   26  C   UNL     1     -10.810   6.229  66.882  1.00  0.00    -0.428 A  
HETATM   27  C   UNL     1      -8.474   4.740  66.870  1.00  0.00    -0.105 A  
HETATM   28  C   UNL     1      -9.560   4.315  66.112  1.00  0.00    -0.199 A  
HETATM   29  C   UNL     1     -10.731   5.059  66.124  1.00  0.00    -0.264 A  
ENDBRANCH   6  24
BRANCH   6  30
HETATM   30  C   UNL     1     -10.572   7.999  69.763  1.00  0.00    -0.238 A  
HETATM   31  C   UNL     1     -11.118   8.846  71.996  1.00  0.00    -0.421 A  
HETATM   32  C   UNL     1     -11.418   6.903  70.052  1.00  0.00    -0.328 A  
HETATM   33  C   UNL     1     -10.481   8.990  70.756  1.00  0.00    -0.304 A  
HETATM   34  C   UNL     1     -11.926   7.745  72.250  1.00  0.00    -0.356 A  
HETATM   35  C   UNL     1     -12.096   6.782  71.266  1.00  0.00    -0.421 A  
ENDBRANCH   6  30
ENDBRANCH   4   6
TORSDOF 7
ENDMDL
MODEL       38
REMARK 921   NORMALIZED FREE ENERGY PREDICTED BY IDOCK:   -5.88 KCAL/MOL
REMARK 922        TOTAL FREE ENERGY PREDICTED BY IDOCK:   -8.66 KCAL/MOL
REMARK 923 INTER-LIGAND FREE ENERGY PREDICTED BY IDOCK:   -8.47 KCAL/MOL
REMARK 924 INTRA-LIGAND FREE ENERGY PREDICTED BY IDOCK:   -0.19 KCAL/MOL
REMARK 927      BINDING AFFINITY PREDICTED BY RF-SCORE:    0.00 PKD
ROOT
HETATM    1  C   UNL     1      -7.849  17.010  66.196  1.00  0.00    -0.260 C  
HETATM    2  N   UNL     1      -8.365  15.765  66.758  1.00  0.00    -0.250 N  
HETATM    3  C   UNL     1      -7.519  15.116  67.743  1.00  0.00    -0.162 C  
HETATM    4  C   UNL     1      -9.442  15.177  66.086  1.00  0.00    -0.319 C  
HETATM    5  O   UNL     1      -9.906  15.768  65.097  1.00  0.00    -0.365 OA 
ENDROOT
BRANCH   4   6
HETATM    6  C   UNL     1     -10.094  13.792  66.566  1.00  0.00    -0.286 C  
BRANCH   6   7
HETATM    7  C   UNL     1      -8.835  12.881  66.948  1.00  0.00    -0.188 C  
BRANCH   7   8
HETATM    8  C   UNL     1      -9.101  11.576  67.721  1.00  0.00    -0.165 C  
BRANCH   8   9
HETATM    9  N   UNL     1      -8.228  10.434  67.376  1.00  0.00    -0.117 NA 
HETATM   10  C   UNL     1      -8.240   9.323  68.339  1.00  0.00    -0.115 C  
HETATM   11  C   UNL     1      -9.518   8.485  68.284  1.00  0.00    -0.143 C  
HETATM   12  C   UNL     1      -9.735   7.894  66.873  1.00  0.00    -0.219 C  
HETATM   13  H   UNL     1     -11.157   6.899  65.981  1.00  0.00     0.000 HD 
HETATM   14  O   UNL     1     -11.024   7.262  66.848  1.00  0.00    -0.343 OA 
HETATM   15  C   UNL     1      -9.775   9.096  65.905  1.00  0.00    -0.336 C  
HETATM   16  C   UNL     1      -8.503   9.943  66.013  1.00  0.00    -0.129 C  
BRANCH  12  17
HETATM   17  C   UNL     1      -8.757   6.773  66.480  1.00  0.00    -0.139 A  
HETATM   18  C   UNL     1      -8.216   6.691  65.182  1.00  0.00    -0.118 A  
HETATM   19  C   UNL     1      -7.301   5.694  64.827  1.00  0.00    -0.068 A  
HETATM   20  C   UNL     1      -6.887   4.766  65.773  1.00  0.00    -0.061 A  
HETATM   21  C   UNL     1      -7.383   4.829  67.069  1.00  0.00    -0.081 A  
HETATM   22 CL   UNL     1      -5.743   3.556  65.346  1.00  0.00    -0.017 Cl 
HETATM   23  C   UNL     1      -8.300   5.828  67.419  1.00  0.00    -0.104 A  
ENDBRANCH  12  17
ENDBRANCH   8   9
ENDBRANCH   7   8
ENDBRANCH   6   7
BRANCH   6  24
HETATM   24  C   UNL     1     -10.939  14.065  67.857  1.00  0.00    -0.261 A  
HETATM   25  C   UNL     1     -11.323  15.380  68.190  1.00  0.00    -0.353 A  
HETATM   26  C   UNL     1     -11.359  13.046  68.730  1.00  0.00    -0.332 A  
HETATM   27  C   UNL     1     -12.035  15.657  69.364  1.00  0.00    -0.349 A  
HETATM   28  C   UNL     1     -12.393  14.627  70.229  1.00  0.00    -0.406 A  
HETATM   29  C   UNL     1     -12.058  13.320  69.906  1.00  0.00    -0.377 A  
ENDBRANCH   6  24
BRANCH   6  30
HETATM   30  C   UNL     1     -10.879  13.086  65.406  1.00  0.00    -0.304 A  
HETATM   31  C   UNL     1     -10.962  11.954  63.235  1.00  0.00    -0.399 A  
HETATM   32  C   UNL     1     -12.293  13.084  65.378  1.00  0.00    -0.538 A  
HETATM   33  C   UNL     1     -10.238  12.461  64.322  1.00  0.00    -0.358 A  
HETATM   34  C   UNL     1     -12.351  11.989  63.235  1.00  0.00    -0.553 A  
HETATM   35  C   UNL     1     -13.019  12.533  64.321  1.00  0.00    -0.253 A  
ENDBRANCH   6  30
ENDBRANCH   4   6
TORSDOF 7
ENDMDL
MODEL       39
REMARK 921   NORMALIZED FREE ENERGY PREDICTED BY IDOCK:   -5.88 KCAL/MOL
REMARK 922        TOTAL FREE ENERGY PREDICTED BY IDOCK:   -8.66 KCAL/MOL
REMARK 923 INTER-LIGAND FREE ENERGY PREDICTED BY IDOCK:   -8.28 KCAL/MOL
REMARK 924 INTRA-LIGAND FREE ENERGY PREDICTED BY IDOCK:   -0.37 KCAL/MOL
REMARK 927      BINDING AFFINITY PREDICTED BY RF-SCORE:    0.00 PKD
ROOT
HETATM    1  C   UNL     1      -6.827   5.162  72.010  1.00  0.00    -0.061 C  
HETATM    2  N   UNL     1      -8.065   5.593  71.366  1.00  0.00    -0.116 N  
HETATM    3  C   UNL     1      -9.263   4.864  71.744  1.00  0.00    -0.141 C  
HETATM    4  C   UNL     1      -7.930   6.430  70.253  1.00  0.00    -0.112 C  
HETATM    5  O   UNL     1      -6.785   6.778  69.920  1.00  0.00    -0.047 OA 
ENDROOT
BRANCH   4   6
HETATM    6  C   UNL     1      -9.198   6.957  69.423  1.00  0.00    -0.147 C  
BRANCH   6   7
HETATM    7  C   UNL     1      -8.694   8.330  68.773  1.00  0.00    -0.137 C  
BRANCH   7   8
HETATM    8  C   UNL     1      -9.758   9.286  68.203  1.00  0.00    -0.150 C  
BRANCH   8   9
HETATM    9  N   UNL     1      -9.544  10.723  68.474  1.00  0.00    -0.176 NA 
HETATM   10  C   UNL     1      -9.123  11.525  67.316  1.00  0.00    -0.164 C  
HETATM   11  C   UNL     1     -10.251  11.785  66.316  1.00  0.00    -0.255 C  
HETATM   12  C   UNL     1     -11.437  12.510  66.991  1.00  0.00    -0.356 C  
HETATM   13  H   UNL     1     -13.245  13.020  66.461  1.00  0.00     0.000 HD 
HETATM   14  O   UNL     1     -12.516  12.574  66.046  1.00  0.00    -0.565 OA 
HETATM   15  C   UNL     1     -11.882  11.608  68.162  1.00  0.00    -0.315 C  
HETATM   16  C   UNL     1     -10.723  11.327  69.123  1.00  0.00    -0.207 C  
BRANCH  12  17
HETATM   17  C   UNL     1     -11.173  13.978  67.364  1.00  0.00    -0.328 A  
HETATM   18  C   UNL     1     -10.280  14.777  66.623  1.00  0.00    -0.271 A  
HETATM   19  C   UNL     1     -10.061  16.123  66.938  1.00  0.00    -0.273 A  
HETATM   20  C   UNL     1     -10.749  16.709  67.992  1.00  0.00    -0.350 A  
HETATM   21  C   UNL     1     -11.654  15.958  68.731  1.00  0.00    -0.389 A  
HETATM   22 CL   UNL     1     -10.501  18.369  68.363  1.00  0.00    -0.338 Cl 
HETATM   23  C   UNL     1     -11.869  14.610  68.414  1.00  0.00    -0.330 A  
ENDBRANCH  12  17
ENDBRANCH   8   9
ENDBRANCH   7   8
ENDBRANCH   6   7
BRANCH   6  24
HETATM   24  C   UNL     1      -9.501   5.929  68.280  1.00  0.00    -0.123 A  
HETATM   25  C   UNL     1     -10.326   6.294  67.196  1.00  0.00    -0.286 A  
HETATM   26  C   UNL     1      -8.976   4.625  68.260  1.00  0.00    -0.137 A  
HETATM   27  C   UNL     1     -10.652   5.379  66.188  1.00  0.00    -0.197 A  
HETATM   28  C   UNL     1     -10.153   4.081  66.227  1.00  0.00    -0.040 A  
HETATM   29  C   UNL     1      -9.309   3.707  67.263  1.00  0.00    -0.235 A  
ENDBRANCH   6  24
BRANCH   6  30
HETATM   30  C   UNL     1     -10.416   7.273  70.359  1.00  0.00    -0.232 A  
HETATM   31  C   UNL     1     -12.738   6.935  71.065  1.00  0.00    -0.269 A  
HETATM   32  C   UNL     1     -10.371   8.346  71.278  1.00  0.00    -0.272 A  
HETATM   33  C   UNL     1     -11.621   6.549  70.312  1.00  0.00    -0.473 A  
HETATM   34  C   UNL     1     -12.660   8.009  71.944  1.00  0.00    -0.359 A  
HETATM   35  C   UNL     1     -11.465   8.701  72.069  1.00  0.00    -0.437 A  
ENDBRANCH   6  30
ENDBRANCH   4   6
TORSDOF 7
ENDMDL
MODEL       40
REMARK 921   NORMALIZED FREE ENERGY PREDICTED BY IDOCK:   -5.87 KCAL/MOL
REMARK 922        TOTAL FREE ENERGY PREDICTED BY IDOCK:   -8.65 KCAL/MOL
REMARK 923 INTER-LIGAND FREE ENERGY PREDICTED BY IDOCK:   -8.66 KCAL/MOL
REMARK 924 INTRA-LIGAND FREE ENERGY PREDICTED BY IDOCK:    0.01 KCAL/MOL
REMARK 927      BINDING AFFINITY PREDICTED BY RF-SCORE:    0.00 PKD
ROOT
HETATM    1  C   UNL     1     -12.613  15.431  70.308  1.00  0.00    -0.336 C  
HETATM    2  N   UNL     1     -11.575  15.273  69.292  1.00  0.00    -0.311 N  
HETATM    3  C   UNL     1     -11.278  16.454  68.501  1.00  0.00    -0.334 C  
HETATM    4  C   UNL     1     -11.203  13.961  68.980  1.00  0.00    -0.274 C  
HETATM    5  O   UNL     1     -11.742  13.036  69.610  1.00  0.00    -0.296 OA 
ENDROOT
BRANCH   4   6
HETATM    6  C   UNL     1     -10.102  13.630  67.862  1.00  0.00    -0.244 C  
BRANCH   6   7
HETATM    7  C   UNL     1      -9.525  12.201  68.294  1.00  0.00    -0.204 C  
BRANCH   7   8
HETATM    8  C   UNL     1     -10.090  10.955  67.589  1.00  0.00    -0.179 C  
BRANCH   8   9
HETATM    9  N   UNL     1     -10.682   9.928  68.472  1.00  0.00    -0.223 NA 
HETATM   10  C   UNL     1     -10.504   8.539  68.025  1.00  0.00    -0.191 C  
HETATM   11  C   UNL     1      -9.080   8.017  68.215  1.00  0.00    -0.135 C  
HETATM   12  C   UNL     1      -8.650   8.098  69.697  1.00  0.00    -0.131 C  
HETATM   13  H   UNL     1      -6.996   7.801  70.690  1.00  0.00     0.000 HD 
HETATM   14  O   UNL     1      -7.259   7.752  69.778  1.00  0.00    -0.064 OA 
HETATM   15  C   UNL     1      -8.797   9.580  70.107  1.00  0.00    -0.266 C  
HETATM   16  C   UNL     1     -10.221  10.089  69.864  1.00  0.00    -0.260 C  
BRANCH  12  17
HETATM   17  C   UNL     1      -9.346   7.093  70.632  1.00  0.00    -0.158 A  
HETATM   18  C   UNL     1      -9.639   5.781  70.213  1.00  0.00    -0.206 A  
HETATM   19  C   UNL     1     -10.241   4.852  71.069  1.00  0.00    -0.262 A  
HETATM   20  C   UNL     1     -10.545   5.210  72.375  1.00  0.00    -0.221 A  
HETATM   21  C   UNL     1     -10.251   6.489  72.830  1.00  0.00    -0.206 A  
HETATM   22 CL   UNL     1     -11.261   4.061  73.436  1.00  0.00    -0.339 Cl 
HETATM   23  C   UNL     1      -9.649   7.416  71.969  1.00  0.00    -0.177 A  
ENDBRANCH  12  17
ENDBRANCH   8   9
ENDBRANCH   7   8
ENDBRANCH   6   7
BRANCH   6  24
HETATM   24  C   UNL     1     -10.829  13.491  66.480  1.00  0.00    -0.283 A  
HETATM   25  C   UNL     1     -12.204  13.779  66.369  1.00  0.00    -0.480 A  
HETATM   26  C   UNL     1     -10.171  13.093  65.303  1.00  0.00    -0.299 A  
HETATM   27  C   UNL     1     -12.888  13.615  65.157  1.00  0.00    -0.382 A  
HETATM   28  C   UNL     1     -12.214  13.172  64.023  1.00  0.00    -0.482 A  
HETATM   29  C   UNL     1     -10.852  12.918  64.097  1.00  0.00    -0.445 A  
ENDBRANCH   6  24
BRANCH   6  30
HETATM   30  C   UNL     1      -8.923  14.664  67.881  1.00  0.00    -0.174 A  
HETATM   31  C   UNL     1      -7.175  15.920  69.051  1.00  0.00    -0.177 A  
HETATM   32  C   UNL     1      -8.625  15.451  66.745  1.00  0.00    -0.308 A  
HETATM   33  C   UNL     1      -8.133  14.898  69.021  1.00  0.00    -0.165 A  
HETATM   34  C   UNL     1      -6.924  16.686  67.920  1.00  0.00    -0.157 A  
HETATM   35  C   UNL     1      -7.634  16.435  66.755  1.00  0.00    -0.290 A  
ENDBRANCH   6  30
ENDBRANCH   4   6
TORSDOF 7
ENDMDL
MODEL       41
REMARK 921   NORMALIZED FREE ENERGY PREDICTED BY IDOCK:   -5.85 KCAL/MOL
REMARK 922        TOTAL FREE ENERGY PREDICTED BY IDOCK:   -8.62 KCAL/MOL
REMARK 923 INTER-LIGAND FREE ENERGY PREDICTED BY IDOCK:   -8.52 KCAL/MOL
REMARK 924 INTRA-LIGAND FREE ENERGY PREDICTED BY IDOCK:   -0.10 KCAL/MOL
REMARK 927      BINDING AFFINITY PREDICTED BY RF-SCORE:    0.00 PKD
ROOT
HETATM    1  C   UNL     1     -10.758  19.757  66.559  1.00  0.00    -0.396 C  
HETATM    2  N   UNL     1     -10.417  18.567  67.335  1.00  0.00    -0.403 N  
HETATM    3  C   UNL     1      -9.974  18.804  68.697  1.00  0.00    -0.394 C  
HETATM    4  C   UNL     1     -10.257  17.379  66.615  1.00  0.00    -0.324 C  
HETATM    5  O   UNL     1     -10.454  17.408  65.388  1.00  0.00    -0.648 OA 
ENDROOT
BRANCH   4   6
HETATM    6  C   UNL     1      -9.849  15.999  67.325  1.00  0.00    -0.236 C  
BRANCH   6   7
HETATM    7  C   UNL     1     -10.333  14.873  66.295  1.00  0.00    -0.302 C  
BRANCH   7   8
HETATM    8  C   UNL     1     -11.764  14.326  66.450  1.00  0.00    -0.391 C  
BRANCH   8   9
HETATM    9  N   UNL     1     -11.904  12.857  66.367  1.00  0.00    -0.400 NA 
HETATM   10  C   UNL     1     -10.903  12.177  65.533  1.00  0.00    -0.283 C  
HETATM   11  C   UNL     1      -9.520  12.103  66.182  1.00  0.00    -0.231 C  
HETATM   12  C   UNL     1      -9.583  11.371  67.541  1.00  0.00    -0.167 C  
HETATM   13  H   UNL     1      -8.334  11.031  69.003  1.00  0.00     0.000 HD 
HETATM   14  O   UNL     1      -8.295  11.482  68.167  1.00  0.00    -0.137 OA 
HETATM   15  C   UNL     1     -10.600  12.150  68.403  1.00  0.00    -0.243 C  
HETATM   16  C   UNL     1     -11.962  12.248  67.709  1.00  0.00    -0.159 C  
BRANCH  12  17
HETATM   17  C   UNL     1      -9.831   9.856  67.453  1.00  0.00    -0.223 A  
HETATM   18  C   UNL     1      -9.475   9.118  66.307  1.00  0.00    -0.299 A  
HETATM   19  C   UNL     1      -9.668   7.733  66.233  1.00  0.00    -0.149 A  
HETATM   20  C   UNL     1     -10.204   7.050  67.316  1.00  0.00    -0.234 A  
HETATM   21  C   UNL     1     -10.546   7.742  68.471  1.00  0.00    -0.153 A  
HETATM   22 CL   UNL     1     -10.417   5.346  67.236  1.00  0.00    -0.274 Cl 
HETATM   23  C   UNL     1     -10.353   9.127  68.540  1.00  0.00    -0.236 A  
ENDBRANCH  12  17
ENDBRANCH   8   9
ENDBRANCH   7   8
ENDBRANCH   6   7
BRANCH   6  24
HETATM   24  C   UNL     1      -8.288  15.947  67.443  1.00  0.00    -0.192 A  
HETATM   25  C   UNL     1      -7.624  14.709  67.555  1.00  0.00    -0.215 A  
HETATM   26  C   UNL     1      -7.478  17.097  67.435  1.00  0.00    -0.182 A  
HETATM   27  C   UNL     1      -6.234  14.637  67.713  1.00  0.00    -0.154 A  
HETATM   28  C   UNL     1      -5.469  15.799  67.750  1.00  0.00    -0.150 A  
HETATM   29  C   UNL     1      -6.095  17.030  67.604  1.00  0.00    -0.158 A  
ENDBRANCH   6  24
BRANCH   6  30
HETATM   30  C   UNL     1     -10.616  15.792  68.677  1.00  0.00    -0.250 A  
HETATM   31  C   UNL     1     -10.673  15.215  71.058  1.00  0.00    -0.000 A  
HETATM   32  C   UNL     1     -12.029  15.821  68.726  1.00  0.00    -0.226 A  
HETATM   33  C   UNL     1      -9.960  15.526  69.892  1.00  0.00    -0.243 A  
HETATM   34  C   UNL     1     -12.062  15.235  71.061  1.00  0.00    -0.397 A  
HETATM   35  C   UNL     1     -12.742  15.563  69.898  1.00  0.00    -0.069 A  
ENDBRANCH   6  30
ENDBRANCH   4   6
TORSDOF 7
ENDMDL
MODEL       42
REMARK 921   NORMALIZED FREE ENERGY PREDICTED BY IDOCK:   -5.84 KCAL/MOL
REMARK 922        TOTAL FREE ENERGY PREDICTED BY IDOCK:   -8.61 KCAL/MOL
REMARK 923 INTER-LIGAND FREE ENERGY PREDICTED BY IDOCK:   -8.93 KCAL/MOL
REMARK 924 INTRA-LIGAND FREE ENERGY PREDICTED BY IDOCK:    0.32 KCAL/MOL
REMARK 927      BINDING AFFINITY PREDICTED BY RF-SCORE:    0.00 PKD
ROOT
HETATM    1  C   UNL     1     -12.411  13.902  70.077  1.00  0.00    -0.316 C  
HETATM    2  N   UNL     1     -11.485  14.010  68.953  1.00  0.00    -0.273 N  
HETATM    3  C   UNL     1     -11.411  15.314  68.317  1.00  0.00    -0.336 C  
HETATM    4  C   UNL     1     -11.009  12.808  68.420  1.00  0.00    -0.254 C  
HETATM    5  O   UNL     1     -11.368  11.748  68.958  1.00  0.00    -0.234 OA 
ENDROOT
BRANCH   4   6
HETATM    6  C   UNL     1     -10.013  12.768  67.163  1.00  0.00    -0.218 C  
BRANCH   6   7
HETATM    7  C   UNL     1      -9.083  11.496  67.444  1.00  0.00    -0.166 C  
BRANCH   7   8
HETATM    8  C   UNL     1      -8.855  11.083  68.910  1.00  0.00    -0.113 C  
BRANCH   8   9
HETATM    9  N   UNL     1      -8.505   9.664  69.132  1.00  0.00    -0.134 NA 
HETATM   10  C   UNL     1      -8.484   9.236  70.538  1.00  0.00    -0.216 C  
HETATM   11  C   UNL     1      -9.878   9.085  71.148  1.00  0.00    -0.371 C  
HETATM   12  C   UNL     1     -10.726   8.067  70.353  1.00  0.00    -0.233 C  
HETATM   13  H   UNL     1     -12.584   7.470  70.385  1.00  0.00     0.000 HD 
HETATM   14  O   UNL     1     -12.063   8.097  70.874  1.00  0.00    -0.262 OA 
HETATM   15  C   UNL     1     -10.769   8.585  68.899  1.00  0.00    -0.100 C  
HETATM   16  C   UNL     1      -9.360   8.769  68.329  1.00  0.00    -0.137 C  
BRANCH  12  17
HETATM   17  C   UNL     1     -10.292   6.599  70.508  1.00  0.00    -0.231 A  
HETATM   18  C   UNL     1      -9.923   6.069  71.760  1.00  0.00    -0.199 A  
HETATM   19  C   UNL     1      -9.560   4.726  71.913  1.00  0.00    -0.206 A  
HETATM   20  C   UNL     1      -9.578   3.874  70.817  1.00  0.00    -0.188 A  
HETATM   21  C   UNL     1      -9.958   4.357  69.570  1.00  0.00    -0.187 A  
HETATM   22 CL   UNL     1      -9.157   2.219  71.009  1.00  0.00    -0.157 Cl 
HETATM   23  C   UNL     1     -10.319   5.702  69.422  1.00  0.00    -0.343 A  
ENDBRANCH  12  17
ENDBRANCH   8   9
ENDBRANCH   7   8
ENDBRANCH   6   7
BRANCH   6  24
HETATM   24  C   UNL     1     -10.859  12.508  65.870  1.00  0.00    -0.302 A  
HETATM   25  C   UNL     1     -10.303  11.798  64.787  1.00  0.00    -0.333 A  
HETATM   26  C   UNL     1     -12.187  12.944  65.722  1.00  0.00    -0.498 A  
HETATM   27  C   UNL     1     -11.021  11.595  63.601  1.00  0.00    -0.507 A  
HETATM   28  C   UNL     1     -12.317  12.084  63.471  1.00  0.00    -0.661 A  
HETATM   29  C   UNL     1     -12.901  12.754  64.537  1.00  0.00    -0.323 A  
ENDBRANCH   6  24
BRANCH   6  30
HETATM   30  C   UNL     1      -9.100  14.042  67.103  1.00  0.00    -0.239 A  
HETATM   31  C   UNL     1      -7.334  15.474  68.015  1.00  0.00    -0.139 A  
HETATM   32  C   UNL     1      -9.326  15.057  66.145  1.00  0.00    -0.327 A  
HETATM   33  C   UNL     1      -8.047  14.268  68.008  1.00  0.00    -0.145 A  
HETATM   34  C   UNL     1      -7.599  16.457  67.068  1.00  0.00    -0.240 A  
HETATM   35  C   UNL     1      -8.582  16.237  66.115  1.00  0.00    -0.342 A  
ENDBRANCH   6  30
ENDBRANCH   4   6
TORSDOF 7
ENDMDL
MODEL       43
REMARK 921   NORMALIZED FREE ENERGY PREDICTED BY IDOCK:   -5.84 KCAL/MOL
REMARK 922        TOTAL FREE ENERGY PREDICTED BY IDOCK:   -8.61 KCAL/MOL
REMARK 923 INTER-LIGAND FREE ENERGY PREDICTED BY IDOCK:   -8.41 KCAL/MOL
REMARK 924 INTRA-LIGAND FREE ENERGY PREDICTED BY IDOCK:   -0.20 KCAL/MOL
REMARK 927      BINDING AFFINITY PREDICTED BY RF-SCORE:    0.00 PKD
ROOT
HETATM    1  C   UNL     1     -10.752  16.483  67.747  1.00  0.00    -0.329 C  
HETATM    2  N   UNL     1     -10.208  15.237  67.213  1.00  0.00    -0.245 N  
HETATM    3  C   UNL     1      -9.618  15.320  65.888  1.00  0.00    -0.342 C  
HETATM    4  C   UNL     1     -10.576  14.062  67.875  1.00  0.00    -0.244 C  
HETATM    5  O   UNL     1     -11.295  14.160  68.883  1.00  0.00    -0.246 OA 
ENDROOT
BRANCH   4   6
HETATM    6  C   UNL     1     -10.084  12.616  67.384  1.00  0.00    -0.218 C  
BRANCH   6   7
HETATM    7  C   UNL     1     -10.654  11.613  68.492  1.00  0.00    -0.241 C  
BRANCH   7   8
HETATM    8  C   UNL     1     -10.635  10.106  68.175  1.00  0.00    -0.223 C  
BRANCH   8   9
HETATM    9  N   UNL     1      -9.926   9.251  69.150  1.00  0.00    -0.173 NA 
HETATM   10  C   UNL     1     -10.254   9.503  70.560  1.00  0.00    -0.287 C  
HETATM   11  C   UNL     1     -11.634   8.982  70.965  1.00  0.00    -0.360 C  
HETATM   12  C   UNL     1     -11.751   7.462  70.713  1.00  0.00    -0.276 C  
HETATM   13  H   UNL     1     -13.183   6.138  70.802  1.00  0.00     0.000 HD 
HETATM   14  O   UNL     1     -13.111   7.073  70.956  1.00  0.00    -0.302 OA 
HETATM   15  C   UNL     1     -11.456   7.251  69.212  1.00  0.00     0.222 C  
HETATM   16  C   UNL     1     -10.088   7.821  68.825  1.00  0.00    -0.196 C  
BRANCH  12  17
HETATM   17  C   UNL     1     -10.929   6.580  71.668  1.00  0.00    -0.291 A  
HETATM   18  C   UNL     1     -10.748   6.929  73.021  1.00  0.00    -0.328 A  
HETATM   19  C   UNL     1     -10.029   6.114  73.902  1.00  0.00    -0.235 A  
HETATM   20  C   UNL     1      -9.491   4.916  73.455  1.00  0.00    -0.132 A  
HETATM   21  C   UNL     1      -9.667   4.528  72.132  1.00  0.00    -0.220 A  
HETATM   22 CL   UNL     1      -8.630   3.901  74.543  1.00  0.00    -0.091 Cl 
HETATM   23  C   UNL     1     -10.386   5.348  71.253  1.00  0.00    -0.296 A  
ENDBRANCH  12  17
ENDBRANCH   8   9
ENDBRANCH   7   8
ENDBRANCH   6   7
BRANCH   6  24
HETATM   24  C   UNL     1     -10.768  12.303  66.009  1.00  0.00    -0.296 A  
HETATM   25  C   UNL     1     -10.076  11.573  65.021  1.00  0.00    -0.315 A  
HETATM   26  C   UNL     1     -12.076  12.710  65.692  1.00  0.00    -0.502 A  
HETATM   27  C   UNL     1     -10.646  11.324  63.766  1.00  0.00    -0.455 A  
HETATM   28  C   UNL     1     -11.925  11.784  63.470  1.00  0.00    -0.484 A  
HETATM   29  C   UNL     1     -12.642  12.472  64.438  1.00  0.00    -0.497 A  
ENDBRANCH   6  24
BRANCH   6  30
HETATM   30  C   UNL     1      -8.519  12.505  67.377  1.00  0.00    -0.181 A  
HETATM   31  C   UNL     1      -6.441  11.365  66.757  1.00  0.00    -0.140 A  
HETATM   32  C   UNL     1      -7.723  13.373  68.160  1.00  0.00    -0.143 A  
HETATM   33  C   UNL     1      -7.828  11.526  66.641  1.00  0.00    -0.112 A  
HETATM   34  C   UNL     1      -5.695  12.227  67.552  1.00  0.00    -0.128 A  
HETATM   35  C   UNL     1      -6.335  13.249  68.236  1.00  0.00    -0.099 A  
ENDBRANCH   6  30
ENDBRANCH   4   6
TORSDOF 7
ENDMDL
MODEL       44
REMARK 921   NORMALIZED FREE ENERGY PREDICTED BY IDOCK:   -5.83 KCAL/MOL
REMARK 922        TOTAL FREE ENERGY PREDICTED BY IDOCK:   -8.59 KCAL/MOL
REMARK 923 INTER-LIGAND FREE ENERGY PREDICTED BY IDOCK:   -8.19 KCAL/MOL
REMARK 924 INTRA-LIGAND FREE ENERGY PREDICTED BY IDOCK:   -0.39 KCAL/MOL
REMARK 927      BINDING AFFINITY PREDICTED BY RF-SCORE:    0.00 PKD
ROOT
HETATM    1  C   UNL     1     -12.334  12.411  63.384  1.00  0.00    -0.499 C  
HETATM    2  N   UNL     1     -11.959  12.674  64.770  1.00  0.00    -0.379 N  
HETATM    3  C   UNL     1     -12.900  13.468  65.541  1.00  0.00    -0.350 C  
HETATM    4  C   UNL     1     -10.630  12.410  65.118  1.00  0.00    -0.292 C  
HETATM    5  O   UNL     1      -9.882  11.937  64.247  1.00  0.00    -0.250 OA 
ENDROOT
BRANCH   4   6
HETATM    6  C   UNL     1     -10.065  12.681  66.595  1.00  0.00    -0.248 C  
BRANCH   6   7
HETATM    7  C   UNL     1     -11.064  11.874  67.549  1.00  0.00    -0.332 C  
BRANCH   7   8
HETATM    8  C   UNL     1     -10.480  11.227  68.818  1.00  0.00    -0.208 C  
BRANCH   8   9
HETATM    9  N   UNL     1     -10.565   9.752  68.887  1.00  0.00    -0.213 NA 
HETATM   10  C   UNL     1      -9.275   9.049  68.898  1.00  0.00    -0.140 C  
HETATM   11  C   UNL     1      -8.532   9.163  70.229  1.00  0.00    -0.208 C  
HETATM   12  C   UNL     1      -9.386   8.608  71.392  1.00  0.00    -0.236 C  
HETATM   13  H   UNL     1      -9.229   8.552  73.336  1.00  0.00     0.000 HD 
HETATM   14  O   UNL     1      -8.704   8.894  72.622  1.00  0.00    -0.373 OA 
HETATM   15  C   UNL     1     -10.704   9.412  71.379  1.00  0.00    -0.407 C  
HETATM   16  C   UNL     1     -11.404   9.318  70.020  1.00  0.00    -0.113 C  
BRANCH  12  17
HETATM   17  C   UNL     1      -9.557   7.079  71.400  1.00  0.00    -0.162 A  
HETATM   18  C   UNL     1      -8.688   6.238  70.678  1.00  0.00    -0.140 A  
HETATM   19  C   UNL     1      -8.818   4.844  70.709  1.00  0.00    -0.154 A  
HETATM   20  C   UNL     1      -9.810   4.258  71.483  1.00  0.00    -0.189 A  
HETATM   21  C   UNL     1     -10.672   5.056  72.225  1.00  0.00    -0.246 A  
HETATM   22 CL   UNL     1      -9.954   2.546  71.542  1.00  0.00    -0.190 Cl 
HETATM   23  C   UNL     1     -10.539   6.450  72.190  1.00  0.00    -0.249 A  
ENDBRANCH  12  17
ENDBRANCH   8   9
ENDBRANCH   7   8
ENDBRANCH   6   7
BRANCH   6  24
HETATM   24  C   UNL     1      -8.635  12.047  66.699  1.00  0.00    -0.143 A  
HETATM   25  C   UNL     1      -7.600  12.735  67.365  1.00  0.00    -0.152 A  
HETATM   26  C   UNL     1      -8.311  10.790  66.160  1.00  0.00    -0.166 A  
HETATM   27  C   UNL     1      -6.301  12.214  67.428  1.00  0.00    -0.144 A  
HETATM   28  C   UNL     1      -6.005  10.988  66.841  1.00  0.00    -0.088 A  
HETATM   29  C   UNL     1      -7.015  10.274  66.212  1.00  0.00    -0.115 A  
ENDBRANCH   6  24
BRANCH   6  30
HETATM   30  C   UNL     1     -10.137  14.200  66.976  1.00  0.00    -0.261 A  
HETATM   31  C   UNL     1     -10.789  16.015  68.487  1.00  0.00    -0.304 A  
HETATM   32  C   UNL     1      -9.764  15.203  66.052  1.00  0.00    -0.361 A  
HETATM   33  C   UNL     1     -10.610  14.651  68.221  1.00  0.00    -0.235 A  
HETATM   34  C   UNL     1     -10.428  16.971  67.545  1.00  0.00    -0.334 A  
HETATM   35  C   UNL     1      -9.891  16.564  66.333  1.00  0.00    -0.311 A  
ENDBRANCH   6  30
ENDBRANCH   4   6
TORSDOF 7
ENDMDL
MODEL       45
REMARK 921   NORMALIZED FREE ENERGY PREDICTED BY IDOCK:   -5.82 KCAL/MOL
REMARK 922        TOTAL FREE ENERGY PREDICTED BY IDOCK:   -8.58 KCAL/MOL
REMARK 923 INTER-LIGAND FREE ENERGY PREDICTED BY IDOCK:   -8.57 KCAL/MOL
REMARK 924 INTRA-LIGAND FREE ENERGY PREDICTED BY IDOCK:   -0.00 KCAL/MOL
REMARK 927      BINDING AFFINITY PREDICTED BY RF-SCORE:    0.00 PKD
ROOT
HETATM    1  C   UNL     1     -12.491  12.389  64.278  1.00  0.00    -0.437 C  
HETATM    2  N   UNL     1     -11.473  12.228  65.313  1.00  0.00    -0.342 N  
HETATM    3  C   UNL     1     -10.395  11.306  65.002  1.00  0.00    -0.301 C  
HETATM    4  C   UNL     1     -11.790  12.722  66.582  1.00  0.00    -0.393 C  
HETATM    5  O   UNL     1     -12.883  13.293  66.730  1.00  0.00     0.039 OA 
ENDROOT
BRANCH   4   6
HETATM    6  C   UNL     1     -10.786  12.587  67.825  1.00  0.00    -0.242 C  
BRANCH   6   7
HETATM    7  C   UNL     1     -10.304  11.062  67.774  1.00  0.00    -0.218 C  
BRANCH   7   8
HETATM    8  C   UNL     1      -9.635  10.478  69.032  1.00  0.00    -0.202 C  
BRANCH   8   9
HETATM    9  N   UNL     1      -9.860   9.036  69.271  1.00  0.00    -0.175 NA 
HETATM   10  C   UNL     1      -8.666   8.270  69.653  1.00  0.00    -0.138 C  
HETATM   11  C   UNL     1      -8.208   8.533  71.088  1.00  0.00    -0.172 C  
HETATM   12  C   UNL     1      -9.330   8.202  72.098  1.00  0.00    -0.206 C  
HETATM   13  H   UNL     1      -9.585   8.420  74.021  1.00  0.00     0.000 HD 
HETATM   14  O   UNL     1      -8.896   8.624  73.400  1.00  0.00    -0.297 OA 
HETATM   15  C   UNL     1     -10.542   9.069  71.696  1.00  0.00    -0.434 C  
HETATM   16  C   UNL     1     -10.950   8.819  70.241  1.00  0.00    -0.235 C  
BRANCH  12  17
HETATM   17  C   UNL     1      -9.630   6.703  72.267  1.00  0.00    -0.150 A  
HETATM   18  C   UNL     1      -8.705   5.717  71.870  1.00  0.00    -0.135 A  
HETATM   19  C   UNL     1      -8.958   4.353  72.051  1.00  0.00    -0.147 A  
HETATM   20  C   UNL     1     -10.138   3.942  72.657  1.00  0.00    -0.165 A  
HETATM   21  C   UNL     1     -11.064   4.887  73.082  1.00  0.00    -0.396 A  
HETATM   22 CL   UNL     1     -10.439   2.268  72.904  1.00  0.00    -0.235 Cl 
HETATM   23  C   UNL     1     -10.807   6.251  72.897  1.00  0.00    -0.284 A  
ENDBRANCH  12  17
ENDBRANCH   8   9
ENDBRANCH   7   8
ENDBRANCH   6   7
BRANCH   6  24
HETATM   24  C   UNL     1      -9.555  13.522  67.568  1.00  0.00    -0.221 A  
HETATM   25  C   UNL     1      -8.260  13.113  67.948  1.00  0.00    -0.162 A  
HETATM   26  C   UNL     1      -9.662  14.782  66.953  1.00  0.00    -0.247 A  
HETATM   27  C   UNL     1      -7.150  13.950  67.775  1.00  0.00    -0.181 A  
HETATM   28  C   UNL     1      -7.302  15.211  67.207  1.00  0.00    -0.216 A  
HETATM   29  C   UNL     1      -8.560  15.623  66.791  1.00  0.00    -0.309 A  
ENDBRANCH   6  24
BRANCH   6  30
HETATM   30  C   UNL     1     -11.516  12.827  69.192  1.00  0.00    -0.361 A  
HETATM   31  C   UNL     1     -12.998  12.099  71.002  1.00  0.00    -0.160 A  
HETATM   32  C   UNL     1     -11.508  14.099  69.810  1.00  0.00    -0.309 A  
HETATM   33  C   UNL     1     -12.247  11.823  69.852  1.00  0.00    -0.293 A  
HETATM   34  C   UNL     1     -12.980  13.367  71.569  1.00  0.00    -0.429 A  
HETATM   35  C   UNL     1     -12.213  14.364  70.985  1.00  0.00    -0.422 A  
ENDBRANCH   6  30
ENDBRANCH   4   6
TORSDOF 7
ENDMDL
MODEL       46
REMARK 921   NORMALIZED FREE ENERGY PREDICTED BY IDOCK:   -5.82 KCAL/MOL
REMARK 922        TOTAL FREE ENERGY PREDICTED BY IDOCK:   -8.57 KCAL/MOL
REMARK 923 INTER-LIGAND FREE ENERGY PREDICTED BY IDOCK:   -8.51 KCAL/MOL
REMARK 924 INTRA-LIGAND FREE ENERGY PREDICTED BY IDOCK:   -0.06 KCAL/MOL
REMARK 927      BINDING AFFINITY PREDICTED BY RF-SCORE:    0.00 PKD
ROOT
HETATM    1  C   UNL     1     -13.014   7.742  71.915  1.00  0.00    -0.282 C  
HETATM    2  N   UNL     1     -11.960   8.318  71.084  1.00  0.00    -0.283 N  
HETATM    3  C   UNL     1     -11.968   9.765  70.964  1.00  0.00    -0.352 C  
HETATM    4  C   UNL     1     -11.258   7.430  70.263  1.00  0.00    -0.247 C  
HETATM    5  O   UNL     1     -11.547   6.224  70.326  1.00  0.00    -0.395 OA 
ENDROOT
BRANCH   4   6
HETATM    6  C   UNL     1     -10.097   7.921  69.271  1.00  0.00    -0.197 C  
BRANCH   6   7
HETATM    7  C   UNL     1     -10.678   9.266  68.627  1.00  0.00    -0.180 C  
BRANCH   7   8
HETATM    8  C   UNL     1     -10.064   9.749  67.299  1.00  0.00    -0.207 C  
BRANCH   8   9
HETATM    9  N   UNL     1      -9.679  11.175  67.249  1.00  0.00    -0.165 NA 
HETATM   10  C   UNL     1      -9.497  11.729  65.899  1.00  0.00    -0.223 C  
HETATM   11  C   UNL     1     -10.813  11.959  65.155  1.00  0.00    -0.350 C  
HETATM   12  C   UNL     1     -11.736  12.917  65.942  1.00  0.00    -0.399 C  
HETATM   13  H   UNL     1     -13.574  13.549  65.759  1.00  0.00     0.000 HD 
HETATM   14  O   UNL     1     -13.007  12.959  65.275  1.00  0.00    -0.703 OA 
HETATM   15  C   UNL     1     -11.946  12.270  67.328  1.00  0.00    -0.201 C  
HETATM   16  C   UNL     1     -10.611  12.009  68.031  1.00  0.00    -0.208 C  
BRANCH  12  17
HETATM   17  C   UNL     1     -11.276  14.385  65.972  1.00  0.00    -0.333 A  
HETATM   18  C   UNL     1     -11.213  15.160  64.797  1.00  0.00    -0.396 A  
HETATM   19  C   UNL     1     -10.827  16.506  64.823  1.00  0.00    -0.145 A  
HETATM   20  C   UNL     1     -10.515  17.114  66.031  1.00  0.00    -0.266 A  
HETATM   21  C   UNL     1     -10.587  16.386  67.212  1.00  0.00    -0.293 A  
HETATM   22 CL   UNL     1     -10.066  18.773  66.067  1.00  0.00    -0.398 Cl 
HETATM   23  C   UNL     1     -10.972  15.039  67.182  1.00  0.00    -0.329 A  
ENDBRANCH  12  17
ENDBRANCH   8   9
ENDBRANCH   7   8
ENDBRANCH   6   7
BRANCH   6  24
HETATM   24  C   UNL     1      -8.831   8.269  70.128  1.00  0.00    -0.141 A  
HETATM   25  C   UNL     1      -7.991   9.337  69.752  1.00  0.00    -0.103 A  
HETATM   26  C   UNL     1      -8.475   7.566  71.292  1.00  0.00    -0.116 A  
HETATM   27  C   UNL     1      -6.826   9.637  70.472  1.00  0.00    -0.126 A  
HETATM   28  C   UNL     1      -6.479   8.888  71.592  1.00  0.00    -0.076 A  
HETATM   29  C   UNL     1      -7.310   7.855  72.004  1.00  0.00    -0.088 A  
ENDBRANCH   6  24
BRANCH   6  30
HETATM   30  C   UNL     1      -9.843   6.891  68.117  1.00  0.00    -0.145 A  
HETATM   31  C   UNL     1     -10.639   5.413  66.331  1.00  0.00    -0.322 A  
HETATM   32  C   UNL     1      -8.560   6.337  67.902  1.00  0.00    -0.115 A  
HETATM   33  C   UNL     1     -10.866   6.431  67.267  1.00  0.00    -0.463 A  
HETATM   34  C   UNL     1      -9.367   4.880  66.164  1.00  0.00    -0.153 A  
HETATM   35  C   UNL     1      -8.319   5.360  66.935  1.00  0.00    -0.108 A  
ENDBRANCH   6  30
ENDBRANCH   4   6
TORSDOF 7
ENDMDL
MODEL       47
REMARK 921   NORMALIZED FREE ENERGY PREDICTED BY IDOCK:   -5.80 KCAL/MOL
REMARK 922        TOTAL FREE ENERGY PREDICTED BY IDOCK:   -8.55 KCAL/MOL
REMARK 923 INTER-LIGAND FREE ENERGY PREDICTED BY IDOCK:   -9.27 KCAL/MOL
REMARK 924 INTRA-LIGAND FREE ENERGY PREDICTED BY IDOCK:    0.72 KCAL/MOL
REMARK 927      BINDING AFFINITY PREDICTED BY RF-SCORE:    0.00 PKD
ROOT
HETATM    1  C   UNL     1      -7.431   8.094  73.161  1.00  0.00    -0.130 C  
HETATM    2  N   UNL     1      -8.742   7.498  72.918  1.00  0.00    -0.127 N  
HETATM    3  C   UNL     1      -9.462   7.051  74.097  1.00  0.00    -0.250 C  
HETATM    4  C   UNL     1      -9.030   7.143  71.597  1.00  0.00    -0.133 C  
HETATM    5  O   UNL     1      -8.181   7.394  70.726  1.00  0.00    -0.109 OA 
ENDROOT
BRANCH   4   6
HETATM    6  C   UNL     1     -10.416   6.448  71.183  1.00  0.00    -0.265 C  
BRANCH   6   7
HETATM    7  C   UNL     1     -10.270   6.194  69.609  1.00  0.00    -0.255 C  
BRANCH   7   8
HETATM    8  C   UNL     1      -9.503   7.242  68.782  1.00  0.00    -0.142 C  
BRANCH   8   9
HETATM    9  N   UNL     1     -10.305   8.375  68.273  1.00  0.00    -0.208 NA 
HETATM   10  C   UNL     1      -9.791   9.709  68.612  1.00  0.00    -0.161 C  
HETATM   11  C   UNL     1      -8.551  10.105  67.810  1.00  0.00    -0.118 C  
HETATM   12  C   UNL     1      -8.838  10.077  66.292  1.00  0.00    -0.143 C  
HETATM   13  H   UNL     1      -7.776  10.278  64.666  1.00  0.00     0.000 HD 
HETATM   14  O   UNL     1      -7.599  10.294  65.600  1.00  0.00    -0.137 OA 
HETATM   15  C   UNL     1      -9.318   8.644  65.971  1.00  0.00    -0.284 C  
HETATM   16  C   UNL     1     -10.532   8.259  66.820  1.00  0.00    -0.243 C  
BRANCH  12  17
HETATM   17  C   UNL     1      -9.758  11.200  65.783  1.00  0.00    -0.266 A  
HETATM   18  C   UNL     1      -9.866  12.428  66.466  1.00  0.00    -0.244 A  
HETATM   19  C   UNL     1     -10.676  13.466  65.990  1.00  0.00    -0.283 A  
HETATM   20  C   UNL     1     -11.380  13.307  64.805  1.00  0.00    -0.327 A  
HETATM   21  C   UNL     1     -11.281  12.118  64.094  1.00  0.00    -0.433 A  
HETATM   22 CL   UNL     1     -12.355  14.591  64.206  1.00  0.00    -0.474 Cl 
HETATM   23  C   UNL     1     -10.471  11.081  64.574  1.00  0.00    -0.411 A  
ENDBRANCH  12  17
ENDBRANCH   8   9
ENDBRANCH   7   8
ENDBRANCH   6   7
BRANCH   6  24
HETATM   24  C   UNL     1     -10.513   5.066  71.917  1.00  0.00    -0.255 A  
HETATM   25  C   UNL     1      -9.804   3.950  71.428  1.00  0.00    -0.243 A  
HETATM   26  C   UNL     1     -11.282   4.866  73.077  1.00  0.00    -0.367 A  
HETATM   27  C   UNL     1      -9.914   2.693  72.036  1.00  0.00    -0.224 A  
HETATM   28  C   UNL     1     -10.722   2.520  73.154  1.00  0.00    -0.263 A  
HETATM   29  C   UNL     1     -11.402   3.612  73.678  1.00  0.00    -0.218 A  
ENDBRANCH   6  24
BRANCH   6  30
HETATM   30  C   UNL     1     -11.638   7.402  71.417  1.00  0.00    -0.303 A  
HETATM   31  C   UNL     1     -12.593   9.570  72.041  1.00  0.00    -0.456 A  
HETATM   32  C   UNL     1     -12.963   6.909  71.391  1.00  0.00    -0.339 A  
HETATM   33  C   UNL     1     -11.492   8.770  71.706  1.00  0.00    -0.413 A  
HETATM   34  C   UNL     1     -13.879   9.044  72.022  1.00  0.00    -0.501 A  
HETATM   35  C   UNL     1     -14.067   7.716  71.672  1.00  0.00    -0.547 A  
ENDBRANCH   6  30
ENDBRANCH   4   6
TORSDOF 7
ENDMDL
MODEL       48
REMARK 921   NORMALIZED FREE ENERGY PREDICTED BY IDOCK:   -5.75 KCAL/MOL
REMARK 922        TOTAL FREE ENERGY PREDICTED BY IDOCK:   -8.48 KCAL/MOL
REMARK 923 INTER-LIGAND FREE ENERGY PREDICTED BY IDOCK:   -8.55 KCAL/MOL
REMARK 924 INTRA-LIGAND FREE ENERGY PREDICTED BY IDOCK:    0.08 KCAL/MOL
REMARK 927      BINDING AFFINITY PREDICTED BY RF-SCORE:    0.00 PKD
ROOT
HETATM    1  C   UNL     1      -8.831  14.596  68.738  1.00  0.00    -0.166 C  
HETATM    2  N   UNL     1      -9.722  13.612  68.128  1.00  0.00    -0.224 N  
HETATM    3  C   UNL     1     -11.143  13.888  68.240  1.00  0.00    -0.258 C  
HETATM    4  C   UNL     1      -9.149  12.384  67.781  1.00  0.00    -0.193 C  
HETATM    5  O   UNL     1      -7.932  12.232  67.974  1.00  0.00    -0.130 OA 
ENDROOT
BRANCH   4   6
HETATM    6  C   UNL     1     -10.009  11.194  67.134  1.00  0.00    -0.215 C  
BRANCH   6   7
HETATM    7  C   UNL     1     -11.114  10.863  68.243  1.00  0.00    -0.324 C  
BRANCH   7   8
HETATM    8  C   UNL     1     -10.624  10.416  69.633  1.00  0.00    -0.253 C  
BRANCH   8   9
HETATM    9  N   UNL     1     -11.149   9.120  70.115  1.00  0.00    -0.240 NA 
HETATM   10  C   UNL     1     -10.574   7.932  69.469  1.00  0.00    -0.219 C  
HETATM   11  C   UNL     1      -9.145   7.627  69.918  1.00  0.00    -0.147 C  
HETATM   12  C   UNL     1      -9.075   7.418  71.448  1.00  0.00    -0.141 C  
HETATM   13  H   UNL     1      -7.651   7.173  72.760  1.00  0.00     0.000 HD 
HETATM   14  O   UNL     1      -7.693   7.302  71.820  1.00  0.00    -0.085 OA 
HETATM   15  C   UNL     1      -9.633   8.710  72.085  1.00  0.00    -0.378 C  
HETATM   16  C   UNL     1     -11.048   9.015  71.583  1.00  0.00    -0.363 C  
BRANCH  12  17
HETATM   17  C   UNL     1      -9.715   6.114  71.955  1.00  0.00    -0.167 A  
HETATM   18  C   UNL     1      -9.426   4.872  71.357  1.00  0.00    -0.212 A  
HETATM   19  C   UNL     1      -9.979   3.678  71.835  1.00  0.00    -0.223 A  
HETATM   20  C   UNL     1     -10.818   3.697  72.940  1.00  0.00    -0.053 A  
HETATM   21  C   UNL     1     -11.108   4.901  73.570  1.00  0.00    -0.405 A  
HETATM   22 CL   UNL     1     -11.477   2.229  73.544  1.00  0.00    -0.317 Cl 
HETATM   23  C   UNL     1     -10.554   6.094  73.087  1.00  0.00    -0.269 A  
ENDBRANCH  12  17
ENDBRANCH   8   9
ENDBRANCH   7   8
ENDBRANCH   6   7
BRANCH   6  24
HETATM   24  C   UNL     1     -10.721  11.742  65.850  1.00  0.00    -0.328 A  
HETATM   25  C   UNL     1     -10.054  11.731  64.608  1.00  0.00    -0.310 A  
HETATM   26  C   UNL     1     -12.031  12.253  65.857  1.00  0.00    -0.358 A  
HETATM   27  C   UNL     1     -10.649  12.261  63.456  1.00  0.00    -0.488 A  
HETATM   28  C   UNL     1     -11.929  12.803  63.510  1.00  0.00    -0.633 A  
HETATM   29  C   UNL     1     -12.622  12.792  64.713  1.00  0.00    -0.518 A  
ENDBRANCH   6  24
BRANCH   6  30
HETATM   30  C   UNL     1      -9.142   9.908  66.904  1.00  0.00    -0.162 A  
HETATM   31  C   UNL     1      -6.999   8.720  66.922  1.00  0.00    -0.074 A  
HETATM   32  C   UNL     1      -9.687   8.763  66.279  1.00  0.00    -0.342 A  
HETATM   33  C   UNL     1      -7.783   9.831  67.258  1.00  0.00    -0.095 A  
HETATM   34  C   UNL     1      -7.568   7.621  66.290  1.00  0.00    -0.088 A  
HETATM   35  C   UNL     1      -8.921   7.632  65.989  1.00  0.00    -0.178 A  
ENDBRANCH   6  30
ENDBRANCH   4   6
TORSDOF 7
ENDMDL
MODEL       49
REMARK 921   NORMALIZED FREE ENERGY PREDICTED BY IDOCK:   -5.73 KCAL/MOL
REMARK 922        TOTAL FREE ENERGY PREDICTED BY IDOCK:   -8.45 KCAL/MOL
REMARK 923 INTER-LIGAND FREE ENERGY PREDICTED BY IDOCK:   -7.61 KCAL/MOL
REMARK 924 INTRA-LIGAND FREE ENERGY PREDICTED BY IDOCK:   -0.85 KCAL/MOL
REMARK 927      BINDING AFFINITY PREDICTED BY RF-SCORE:    0.00 PKD
ROOT
HETATM    1  C   UNL     1      -7.046   7.261  63.935  1.00  0.00    -0.068 C  
HETATM    2  N   UNL     1      -7.453   7.844  65.211  1.00  0.00    -0.077 N  
HETATM    3  C   UNL     1      -6.978   7.159  66.400  1.00  0.00    -0.069 C  
HETATM    4  C   UNL     1      -8.481   8.791  65.164  1.00  0.00    -0.174 C  
HETATM    5  O   UNL     1      -8.942   9.098  64.052  1.00  0.00    -0.148 OA 
ENDROOT
BRANCH   4   6
HETATM    6  C   UNL     1      -9.055   9.493  66.487  1.00  0.00    -0.185 C  
BRANCH   6   7
HETATM    7  C   UNL     1     -10.159  10.514  65.939  1.00  0.00    -0.323 C  
BRANCH   7   8
HETATM    8  C   UNL     1     -10.958  11.330  66.972  1.00  0.00    -0.294 C  
BRANCH   8   9
HETATM    9  N   UNL     1     -11.159  12.759  66.648  1.00  0.00    -0.267 NA 
HETATM   10  C   UNL     1     -11.598  13.600  67.771  1.00  0.00    -0.338 C  
HETATM   11  C   UNL     1     -10.489  13.888  68.784  1.00  0.00    -0.229 C  
HETATM   12  C   UNL     1      -9.286  14.585  68.109  1.00  0.00    -0.195 C  
HETATM   13  H   UNL     1      -7.486  15.104  68.656  1.00  0.00     0.000 HD 
HETATM   14  O   UNL     1      -8.225  14.675  69.072  1.00  0.00    -0.153 OA 
HETATM   15  C   UNL     1      -8.822  13.642  66.977  1.00  0.00    -0.233 C  
HETATM   16  C   UNL     1      -9.964  13.334  66.003  1.00  0.00    -0.292 C  
BRANCH  12  17
HETATM   17  C   UNL     1      -9.534  16.041  67.681  1.00  0.00    -0.216 A  
HETATM   18  C   UNL     1     -10.321  16.913  68.459  1.00  0.00    -0.336 A  
HETATM   19  C   UNL     1     -10.524  18.248  68.093  1.00  0.00    -0.359 A  
HETATM   20  C   UNL     1      -9.923  18.750  66.947  1.00  0.00    -0.346 A  
HETATM   21  C   UNL     1      -9.122  17.926  66.166  1.00  0.00    -0.121 A  
HETATM   22 CL   UNL     1     -10.149  20.397  66.509  1.00  0.00    -0.506 Cl 
HETATM   23  C   UNL     1      -8.924  16.590  66.536  1.00  0.00    -0.312 A  
ENDBRANCH  12  17
ENDBRANCH   8   9
ENDBRANCH   7   8
ENDBRANCH   6   7
BRANCH   6  24
HETATM   24  C   UNL     1      -9.760   8.398  67.360  1.00  0.00    -0.222 A  
HETATM   25  C   UNL     1     -10.478   7.352  66.744  1.00  0.00    -0.316 A  
HETATM   26  C   UNL     1      -9.712   8.388  68.765  1.00  0.00    -0.168 A  
HETATM   27  C   UNL     1     -11.158   6.390  67.501  1.00  0.00    -0.401 A  
HETATM   28  C   UNL     1     -11.129   6.440  68.891  1.00  0.00    -0.420 A  
HETATM   29  C   UNL     1     -10.399   7.438  69.522  1.00  0.00    -0.218 A  
ENDBRANCH   6  24
BRANCH   6  30
HETATM   30  C   UNL     1      -7.950  10.316  67.236  1.00  0.00    -0.107 A  
HETATM   31  C   UNL     1      -5.789  11.468  67.297  1.00  0.00    -0.095 A  
HETATM   32  C   UNL     1      -8.017  10.524  68.633  1.00  0.00    -0.124 A  
HETATM   33  C   UNL     1      -6.825  10.851  66.583  1.00  0.00    -0.127 A  
HETATM   34  C   UNL     1      -5.882  11.636  68.673  1.00  0.00    -0.046 A  
HETATM   35  C   UNL     1      -7.010  11.184  69.340  1.00  0.00    -0.124 A  
ENDBRANCH   6  30
ENDBRANCH   4   6
TORSDOF 7
ENDMDL
MODEL       50
REMARK 921   NORMALIZED FREE ENERGY PREDICTED BY IDOCK:   -5.72 KCAL/MOL
REMARK 922        TOTAL FREE ENERGY PREDICTED BY IDOCK:   -8.44 KCAL/MOL
REMARK 923 INTER-LIGAND FREE ENERGY PREDICTED BY IDOCK:   -8.63 KCAL/MOL
REMARK 924 INTRA-LIGAND FREE ENERGY PREDICTED BY IDOCK:    0.19 KCAL/MOL
REMARK 927      BINDING AFFINITY PREDICTED BY RF-SCORE:    0.00 PKD
ROOT
HETATM    1  C   UNL     1     -12.055  13.619  64.567  1.00  0.00    -0.419 C  
HETATM    2  N   UNL     1     -11.244  13.947  65.737  1.00  0.00    -0.300 N  
HETATM    3  C   UNL     1     -10.012  14.668  65.471  1.00  0.00    -0.352 C  
HETATM    4  C   UNL     1     -11.567  13.285  66.925  1.00  0.00    -0.364 C  
HETATM    5  O   UNL     1     -12.535  12.505  66.914  1.00  0.00    -0.280 OA 
ENDROOT
BRANCH   4   6
HETATM    6  C   UNL     1     -10.745  13.517  68.283  1.00  0.00    -0.271 C  
BRANCH   6   7
HETATM    7  C   UNL     1      -9.448  12.594  68.115  1.00  0.00    -0.218 C  
BRANCH   7   8
HETATM    8  C   UNL     1      -9.471  11.517  67.016  1.00  0.00    -0.183 C  
BRANCH   8   9
HETATM    9  N   UNL     1      -9.827  10.152  67.459  1.00  0.00    -0.172 NA 
HETATM   10  C   UNL     1     -10.286   9.247  66.395  1.00  0.00    -0.228 C  
HETATM   11  C   UNL     1      -9.159   8.760  65.484  1.00  0.00    -0.221 C  
HETATM   12  C   UNL     1      -8.066   8.026  66.294  1.00  0.00    -0.112 C  
HETATM   13  H   UNL     1      -6.299   7.292  65.908  1.00  0.00     0.000 HD 
HETATM   14  O   UNL     1      -6.970   7.744  65.410  1.00  0.00    -0.054 OA 
HETATM   15  C   UNL     1      -7.573   9.030  67.358  1.00  0.00    -0.088 C  
HETATM   16  C   UNL     1      -8.728   9.536  68.227  1.00  0.00    -0.120 C  
BRANCH  12  17
HETATM   17  C   UNL     1      -8.476   6.648  66.840  1.00  0.00    -0.115 A  
HETATM   18  C   UNL     1      -9.527   5.910  66.259  1.00  0.00    -0.161 A  
HETATM   19  C   UNL     1      -9.883   4.641  66.731  1.00  0.00    -0.237 A  
HETATM   20  C   UNL     1      -9.180   4.070  67.783  1.00  0.00    -0.159 A  
HETATM   21  C   UNL     1      -8.124   4.760  68.366  1.00  0.00    -0.084 A  
HETATM   22 CL   UNL     1      -9.600   2.501  68.346  1.00  0.00    -0.202 Cl 
HETATM   23  C   UNL     1      -7.772   6.030  67.892  1.00  0.00    -0.098 A  
ENDBRANCH  12  17
ENDBRANCH   8   9
ENDBRANCH   7   8
ENDBRANCH   6   7
BRANCH   6  24
HETATM   24  C   UNL     1     -10.301  15.019  68.339  1.00  0.00    -0.231 A  
HETATM   25  C   UNL     1      -8.957  15.353  68.606  1.00  0.00    -0.191 A  
HETATM   26  C   UNL     1     -11.185  16.090  68.124  1.00  0.00    -0.325 A  
HETATM   27  C   UNL     1      -8.544  16.687  68.712  1.00  0.00    -0.261 A  
HETATM   28  C   UNL     1      -9.459  17.722  68.541  1.00  0.00    -0.304 A  
HETATM   29  C   UNL     1     -10.779  17.421  68.240  1.00  0.00    -0.327 A  
ENDBRANCH   6  24
BRANCH   6  30
HETATM   30  C   UNL     1     -11.543  13.022  69.539  1.00  0.00    -0.342 A  
HETATM   31  C   UNL     1     -12.574  11.248  70.877  1.00  0.00    -0.467 A  
HETATM   32  C   UNL     1     -12.140  13.942  70.432  1.00  0.00    -0.421 A  
HETATM   33  C   UNL     1     -11.747  11.660  69.824  1.00  0.00    -0.425 A  
HETATM   34  C   UNL     1     -13.159  12.183  71.722  1.00  0.00    -0.457 A  
HETATM   35  C   UNL     1     -12.922  13.533  71.514  1.00  0.00    -0.440 A  
ENDBRANCH   6  30
ENDBRANCH   4   6
TORSDOF 7
ENDMDL
MODEL       51
REMARK 921   NORMALIZED FREE ENERGY PREDICTED BY IDOCK:   -5.72 KCAL/MOL
REMARK 922        TOTAL FREE ENERGY PREDICTED BY IDOCK:   -8.43 KCAL/MOL
REMARK 923 INTER-LIGAND FREE ENERGY PREDICTED BY IDOCK:   -8.24 KCAL/MOL
REMARK 924 INTRA-LIGAND FREE ENERGY PREDICTED BY IDOCK:   -0.19 KCAL/MOL
REMARK 927      BINDING AFFINITY PREDICTED BY RF-SCORE:    0.00 PKD
ROOT
HETATM    1  C   UNL     1     -12.701   8.193  72.050  1.00  0.00    -0.323 C  
HETATM    2  N   UNL     1     -11.336   7.861  71.650  1.00  0.00    -0.251 N  
HETATM    3  C   UNL     1     -10.291   8.703  72.203  1.00  0.00    -0.333 C  
HETATM    4  C   UNL     1     -11.200   6.990  70.564  1.00  0.00    -0.295 C  
HETATM    5  O   UNL     1     -12.233   6.533  70.049  1.00  0.00    -0.174 OA 
ENDROOT
BRANCH   4   6
HETATM    6  C   UNL     1      -9.764   6.562  69.989  1.00  0.00    -0.178 C  
BRANCH   6   7
HETATM    7  C   UNL     1      -9.062   7.951  69.617  1.00  0.00    -0.153 C  
BRANCH   7   8
HETATM    8  C   UNL     1      -9.820   8.909  68.680  1.00  0.00    -0.167 C  
BRANCH   8   9
HETATM    9  N   UNL     1      -9.599  10.352  68.919  1.00  0.00    -0.183 NA 
HETATM   10  C   UNL     1      -8.988  11.086  67.801  1.00  0.00    -0.140 C  
HETATM   11  C   UNL     1      -9.948  11.329  66.636  1.00  0.00    -0.242 C  
HETATM   12  C   UNL     1     -11.195  12.116  67.098  1.00  0.00    -0.314 C  
HETATM   13  H   UNL     1     -12.889  12.649  66.287  1.00  0.00     0.000 HD 
HETATM   14  O   UNL     1     -12.122  12.165  66.003  1.00  0.00    -0.612 OA 
HETATM   15  C   UNL     1     -11.836  11.282  68.229  1.00  0.00    -0.299 C  
HETATM   16  C   UNL     1     -10.840  11.016  69.361  1.00  0.00    -0.231 C  
BRANCH  12  17
HETATM   17  C   UNL     1     -10.940  13.593  67.443  1.00  0.00    -0.289 A  
HETATM   18  C   UNL     1      -9.897  14.321  66.837  1.00  0.00    -0.264 A  
HETATM   19  C   UNL     1      -9.681  15.674  67.123  1.00  0.00    -0.226 A  
HETATM   20  C   UNL     1     -10.519  16.338  68.008  1.00  0.00    -0.293 A  
HETATM   21  C   UNL     1     -11.571  15.658  68.608  1.00  0.00    -0.391 A  
HETATM   22 CL   UNL     1     -10.270  18.006  68.339  1.00  0.00    -0.385 Cl 
HETATM   23  C   UNL     1     -11.783  14.303  68.321  1.00  0.00    -0.377 A  
ENDBRANCH  12  17
ENDBRANCH   8   9
ENDBRANCH   7   8
ENDBRANCH   6   7
BRANCH   6  24
HETATM   24  C   UNL     1      -8.957   5.872  71.142  1.00  0.00    -0.145 A  
HETATM   25  C   UNL     1      -9.547   4.844  71.906  1.00  0.00    -0.205 A  
HETATM   26  C   UNL     1      -7.635   6.220  71.468  1.00  0.00    -0.099 A  
HETATM   27  C   UNL     1      -8.865   4.247  72.975  1.00  0.00    -0.109 A  
HETATM   28  C   UNL     1      -7.574   4.651  73.299  1.00  0.00    -0.087 A  
HETATM   29  C   UNL     1      -6.957   5.635  72.539  1.00  0.00    -0.083 A  
ENDBRANCH   6  24
BRANCH   6  30
HETATM   30  C   UNL     1      -9.893   5.709  68.679  1.00  0.00    -0.190 A  
HETATM   31  C   UNL     1      -9.202   3.851  67.239  1.00  0.00    -0.200 A  
HETATM   32  C   UNL     1     -10.726   6.127  67.616  1.00  0.00    -0.388 A  
HETATM   33  C   UNL     1      -9.169   4.521  68.469  1.00  0.00    -0.181 A  
HETATM   34  C   UNL     1     -10.019   4.304  66.210  1.00  0.00    -0.229 A  
HETATM   35  C   UNL     1     -10.802   5.432  66.407  1.00  0.00    -0.202 A  
ENDBRANCH   6  30
ENDBRANCH   4   6
TORSDOF 7
ENDMDL
MODEL       52
REMARK 921   NORMALIZED FREE ENERGY PREDICTED BY IDOCK:   -5.69 KCAL/MOL
REMARK 922        TOTAL FREE ENERGY PREDICTED BY IDOCK:   -8.39 KCAL/MOL
REMARK 923 INTER-LIGAND FREE ENERGY PREDICTED BY IDOCK:   -7.91 KCAL/MOL
REMARK 924 INTRA-LIGAND FREE ENERGY PREDICTED BY IDOCK:   -0.48 KCAL/MOL
REMARK 927      BINDING AFFINITY PREDICTED BY RF-SCORE:    0.00 PKD
ROOT
HETATM    1  C   UNL     1     -12.088  12.955  63.338  1.00  0.00    -0.530 C  
HETATM    2  N   UNL     1     -11.853  13.094  64.772  1.00  0.00    -0.351 N  
HETATM    3  C   UNL     1     -12.910  13.744  65.527  1.00  0.00    -0.419 C  
HETATM    4  C   UNL     1     -10.545  12.876  65.213  1.00  0.00    -0.297 C  
HETATM    5  O   UNL     1      -9.693  12.543  64.373  1.00  0.00    -0.097 OA 
ENDROOT
BRANCH   4   6
HETATM    6  C   UNL     1     -10.128  13.026  66.756  1.00  0.00    -0.247 C  
BRANCH   6   7
HETATM    7  C   UNL     1     -11.062  11.972  67.516  1.00  0.00    -0.331 C  
BRANCH   7   8
HETATM    8  C   UNL     1     -10.886  10.481  67.177  1.00  0.00    -0.259 C  
BRANCH   8   9
HETATM    9  N   UNL     1     -11.276   9.528  68.238  1.00  0.00     0.015 NA 
HETATM   10  C   UNL     1     -10.752   8.164  68.080  1.00  0.00    -0.044 C  
HETATM   11  C   UNL     1      -9.260   8.046  68.392  1.00  0.00    -0.135 C  
HETATM   12  C   UNL     1      -8.955   8.509  69.835  1.00  0.00    -0.145 C  
HETATM   13  H   UNL     1      -7.343   8.813  70.892  1.00  0.00     0.000 HD 
HETATM   14  O   UNL     1      -7.530   8.529  70.005  1.00  0.00    -0.057 OA 
HETATM   15  C   UNL     1      -9.468   9.962  69.938  1.00  0.00    -0.256 C  
HETATM   16  C   UNL     1     -10.954  10.057  69.576  1.00  0.00    -0.253 C  
BRANCH  12  17
HETATM   17  C   UNL     1      -9.455   7.563  70.940  1.00  0.00    -0.165 A  
HETATM   18  C   UNL     1      -9.582   6.177  70.720  1.00  0.00    -0.191 A  
HETATM   19  C   UNL     1     -10.005   5.306  71.731  1.00  0.00    -0.245 A  
HETATM   20  C   UNL     1     -10.289   5.801  72.996  1.00  0.00    -0.204 A  
HETATM   21  C   UNL     1     -10.153   7.159  73.256  1.00  0.00    -0.318 A  
HETATM   22 CL   UNL     1     -10.782   4.729  74.247  1.00  0.00    -0.330 Cl 
HETATM   23  C   UNL     1      -9.732   8.027  72.241  1.00  0.00    -0.294 A  
ENDBRANCH  12  17
ENDBRANCH   8   9
ENDBRANCH   7   8
ENDBRANCH   6   7
BRANCH   6  24
HETATM   24  C   UNL     1      -8.632  12.586  66.907  1.00  0.00    -0.158 A  
HETATM   25  C   UNL     1      -7.693  13.453  67.502  1.00  0.00    -0.182 A  
HETATM   26  C   UNL     1      -8.152  11.335  66.482  1.00  0.00    -0.160 A  
HETATM   27  C   UNL     1      -6.340  13.105  67.603  1.00  0.00    -0.163 A  
HETATM   28  C   UNL     1      -5.892  11.876  67.127  1.00  0.00    -0.144 A  
HETATM   29  C   UNL     1      -6.803  10.989  66.572  1.00  0.00    -0.132 A  
ENDBRANCH   6  24
BRANCH   6  30
HETATM   30  C   UNL     1     -10.449  14.458  67.309  1.00  0.00    -0.269 A  
HETATM   31  C   UNL     1     -10.281  16.900  67.199  1.00  0.00    -0.297 A  
HETATM   32  C   UNL     1     -11.074  14.631  68.565  1.00  0.00    -0.273 A  
HETATM   33  C   UNL     1     -10.102  15.635  66.622  1.00  0.00    -0.280 A  
HETATM   34  C   UNL     1     -10.882  17.028  68.445  1.00  0.00    -0.333 A  
HETATM   35  C   UNL     1     -11.302  15.892  69.120  1.00  0.00    -0.366 A  
ENDBRANCH   6  30
ENDBRANCH   4   6
TORSDOF 7
ENDMDL
MODEL       53
REMARK 921   NORMALIZED FREE ENERGY PREDICTED BY IDOCK:   -5.68 KCAL/MOL
REMARK 922        TOTAL FREE ENERGY PREDICTED BY IDOCK:   -8.38 KCAL/MOL
REMARK 923 INTER-LIGAND FREE ENERGY PREDICTED BY IDOCK:   -7.82 KCAL/MOL
REMARK 924 INTRA-LIGAND FREE ENERGY PREDICTED BY IDOCK:   -0.56 KCAL/MOL
REMARK 927      BINDING AFFINITY PREDICTED BY RF-SCORE:    0.00 PKD
ROOT
HETATM    1  C   UNL     1     -11.337   6.278  69.527  1.00  0.00    -0.404 C  
HETATM    2  N   UNL     1     -10.624   7.552  69.557  1.00  0.00    -0.237 N  
HETATM    3  C   UNL     1     -10.719   8.301  70.798  1.00  0.00    -0.218 C  
HETATM    4  C   UNL     1     -10.193   8.055  68.326  1.00  0.00    -0.205 C  
HETATM    5  O   UNL     1     -10.406   7.373  67.310  1.00  0.00    -0.226 OA 
ENDROOT
BRANCH   4   6
HETATM    6  C   UNL     1      -9.427   9.459  68.199  1.00  0.00    -0.146 C  
BRANCH   6   7
HETATM    7  C   UNL     1     -10.381  10.494  68.960  1.00  0.00    -0.232 C  
BRANCH   7   8
HETATM    8  C   UNL     1     -10.931  11.686  68.156  1.00  0.00    -0.226 C  
BRANCH   8   9
HETATM    9  N   UNL     1     -10.301  12.995  68.431  1.00  0.00    -0.250 NA 
HETATM   10  C   UNL     1      -9.180  13.349  67.548  1.00  0.00    -0.219 C  
HETATM   11  C   UNL     1      -9.620  13.750  66.139  1.00  0.00    -0.234 C  
HETATM   12  C   UNL     1     -10.590  14.952  66.181  1.00  0.00    -0.318 C  
HETATM   13  H   UNL     1     -11.685  15.908  64.877  1.00  0.00     0.000 HD 
HETATM   14  O   UNL     1     -11.088  15.168  64.852  1.00  0.00    -0.389 OA 
HETATM   15  C   UNL     1     -11.776  14.516  67.069  1.00  0.00    -0.412 C  
HETATM   16  C   UNL     1     -11.303  14.077  68.457  1.00  0.00    -0.277 C  
BRANCH  12  17
HETATM   17  C   UNL     1      -9.947  16.294  66.568  1.00  0.00    -0.290 A  
HETATM   18  C   UNL     1     -10.630  17.235  67.363  1.00  0.00    -0.303 A  
HETATM   19  C   UNL     1     -10.038  18.444  67.746  1.00  0.00    -0.377 A  
HETATM   20  C   UNL     1      -8.736  18.731  67.359  1.00  0.00    -0.273 A  
HETATM   21  C   UNL     1      -8.024  17.817  66.593  1.00  0.00    -0.283 A  
HETATM   22 CL   UNL     1      -7.998  20.203  67.851  1.00  0.00    -0.305 Cl 
HETATM   23  C   UNL     1      -8.621  16.609  66.210  1.00  0.00    -0.359 A  
ENDBRANCH  12  17
ENDBRANCH   8   9
ENDBRANCH   7   8
ENDBRANCH   6   7
BRANCH   6  24
HETATM   24  C   UNL     1      -8.068   9.351  68.972  1.00  0.00    -0.106 A  
HETATM   25  C   UNL     1      -7.579  10.451  69.706  1.00  0.00    -0.141 A  
HETATM   26  C   UNL     1      -7.285   8.183  68.989  1.00  0.00    -0.074 A  
HETATM   27  C   UNL     1      -6.343  10.397  70.364  1.00  0.00    -0.127 A  
HETATM   28  C   UNL     1      -5.572   9.240  70.319  1.00  0.00    -0.031 A  
HETATM   29  C   UNL     1      -6.048   8.130  69.635  1.00  0.00    -0.029 A  
ENDBRANCH   6  24
BRANCH   6  30
HETATM   30  C   UNL     1      -9.295   9.917  66.704  1.00  0.00    -0.196 A  
HETATM   31  C   UNL     1     -10.262  10.421  64.511  1.00  0.00    -0.281 A  
HETATM   32  C   UNL     1      -8.027  10.084  66.102  1.00  0.00    -0.113 A  
HETATM   33  C   UNL     1     -10.409  10.142  65.876  1.00  0.00    -0.221 A  
HETATM   34  C   UNL     1      -8.998  10.559  63.951  1.00  0.00    -0.232 A  
HETATM   35  C   UNL     1      -7.877  10.414  64.754  1.00  0.00    -0.086 A  
ENDBRANCH   6  30
ENDBRANCH   4   6
TORSDOF 7
ENDMDL
MODEL       54
REMARK 921   NORMALIZED FREE ENERGY PREDICTED BY IDOCK:   -5.67 KCAL/MOL
REMARK 922        TOTAL FREE ENERGY PREDICTED BY IDOCK:   -8.36 KCAL/MOL
REMARK 923 INTER-LIGAND FREE ENERGY PREDICTED BY IDOCK:   -7.99 KCAL/MOL
REMARK 924 INTRA-LIGAND FREE ENERGY PREDICTED BY IDOCK:   -0.37 KCAL/MOL
REMARK 927      BINDING AFFINITY PREDICTED BY RF-SCORE:    0.00 PKD
ROOT
HETATM    1  C   UNL     1     -12.557   7.956  71.928  1.00  0.00    -0.319 C  
HETATM    2  N   UNL     1     -11.160   7.734  71.564  1.00  0.00    -0.234 N  
HETATM    3  C   UNL     1     -10.194   8.614  72.197  1.00  0.00    -0.323 C  
HETATM    4  C   UNL     1     -10.929   6.931  70.443  1.00  0.00    -0.274 C  
HETATM    5  O   UNL     1     -11.911   6.433  69.868  1.00  0.00    -0.384 OA 
ENDROOT
BRANCH   4   6
HETATM    6  C   UNL     1      -9.449   6.625  69.903  1.00  0.00    -0.159 C  
BRANCH   6   7
HETATM    7  C   UNL     1      -8.909   8.052  69.419  1.00  0.00    -0.144 C  
BRANCH   7   8
HETATM    8  C   UNL     1      -9.905   8.998  68.724  1.00  0.00    -0.172 C  
BRANCH   8   9
HETATM    9  N   UNL     1      -9.704  10.442  68.974  1.00  0.00    -0.197 NA 
HETATM   10  C   UNL     1      -9.102  11.193  67.864  1.00  0.00    -0.150 C  
HETATM   11  C   UNL     1     -10.063  11.432  66.700  1.00  0.00    -0.247 C  
HETATM   12  C   UNL     1     -11.321  12.199  67.166  1.00  0.00    -0.331 C  
HETATM   13  H   UNL     1     -13.021  12.716  66.357  1.00  0.00     0.000 HD 
HETATM   14  O   UNL     1     -12.248  12.244  66.070  1.00  0.00    -0.646 OA 
HETATM   15  C   UNL     1     -11.953  11.348  68.289  1.00  0.00    -0.234 C  
HETATM   16  C   UNL     1     -10.954  11.086  69.420  1.00  0.00    -0.248 C  
BRANCH  12  17
HETATM   17  C   UNL     1     -11.086  13.677  67.523  1.00  0.00    -0.296 A  
HETATM   18  C   UNL     1     -11.863  14.330  68.500  1.00  0.00    -0.382 A  
HETATM   19  C   UNL     1     -11.633  15.664  68.854  1.00  0.00    -0.392 A  
HETATM   20  C   UNL     1     -10.601  16.372  68.252  1.00  0.00    -0.318 A  
HETATM   21  C   UNL     1      -9.800  15.754  67.300  1.00  0.00    -0.230 A  
HETATM   22 CL   UNL     1     -10.301  18.003  68.704  1.00  0.00    -0.363 Cl 
HETATM   23  C   UNL     1     -10.036  14.419  66.948  1.00  0.00    -0.261 A  
ENDBRANCH  12  17
ENDBRANCH   8   9
ENDBRANCH   7   8
ENDBRANCH   6   7
BRANCH   6  24
HETATM   24  C   UNL     1      -8.577   6.129  71.107  1.00  0.00    -0.125 A  
HETATM   25  C   UNL     1      -7.267   6.619  71.285  1.00  0.00    -0.078 A  
HETATM   26  C   UNL     1      -9.038   5.202  72.058  1.00  0.00    -0.152 A  
HETATM   27  C   UNL     1      -6.450   6.154  72.324  1.00  0.00    -0.058 A  
HETATM   28  C   UNL     1      -6.923   5.200  73.218  1.00  0.00    -0.076 A  
HETATM   29  C   UNL     1      -8.222   4.729  73.087  1.00  0.00    -0.101 A  
ENDBRANCH   6  24
BRANCH   6  30
HETATM   30  C   UNL     1      -9.468   5.661  68.667  1.00  0.00    -0.152 A  
HETATM   31  C   UNL     1      -9.763   5.228  66.273  1.00  0.00    -0.185 A  
HETATM   32  C   UNL     1      -9.378   4.260  68.833  1.00  0.00    -0.222 A  
HETATM   33  C   UNL     1      -9.617   6.119  67.345  1.00  0.00    -0.122 A  
HETATM   34  C   UNL     1      -9.688   3.856  66.480  1.00  0.00    -0.186 A  
HETATM   35  C   UNL     1      -9.471   3.371  67.761  1.00  0.00    -0.229 A  
ENDBRANCH   6  30
ENDBRANCH   4   6
TORSDOF 7
ENDMDL
MODEL       55
REMARK 921   NORMALIZED FREE ENERGY PREDICTED BY IDOCK:   -5.65 KCAL/MOL
REMARK 922        TOTAL FREE ENERGY PREDICTED BY IDOCK:   -8.34 KCAL/MOL
REMARK 923 INTER-LIGAND FREE ENERGY PREDICTED BY IDOCK:   -8.51 KCAL/MOL
REMARK 924 INTRA-LIGAND FREE ENERGY PREDICTED BY IDOCK:    0.16 KCAL/MOL
REMARK 927      BINDING AFFINITY PREDICTED BY RF-SCORE:    0.00 PKD
ROOT
HETATM    1  C   UNL     1      -8.418  16.274  66.098  1.00  0.00    -0.278 C  
HETATM    2  N   UNL     1      -9.358  15.159  66.179  1.00  0.00    -0.309 N  
HETATM    3  C   UNL     1     -10.714  15.442  65.741  1.00  0.00    -0.351 C  
HETATM    4  C   UNL     1      -8.954  14.056  66.936  1.00  0.00    -0.227 C  
HETATM    5  O   UNL     1      -7.822  14.081  67.447  1.00  0.00    -0.177 OA 
ENDROOT
BRANCH   4   6
HETATM    6  C   UNL     1      -9.894  12.772  67.144  1.00  0.00    -0.216 C  
BRANCH   6   7
HETATM    7  C   UNL     1      -8.864  11.567  67.363  1.00  0.00    -0.157 C  
BRANCH   7   8
HETATM    8  C   UNL     1      -8.725  10.991  68.784  1.00  0.00    -0.145 C  
BRANCH   8   9
HETATM    9  N   UNL     1      -8.139   9.637  68.876  1.00  0.00    -0.095 NA 
HETATM   10  C   UNL     1      -8.904   8.676  69.684  1.00  0.00    -0.137 C  
HETATM   11  C   UNL     1     -10.177   8.182  68.996  1.00  0.00    -0.228 C  
HETATM   12  C   UNL     1      -9.853   7.512  67.642  1.00  0.00    -0.161 C  
HETATM   13  H   UNL     1     -10.893   6.811  66.147  1.00  0.00     0.000 HD 
HETATM   14  O   UNL     1     -11.093   7.223  66.980  1.00  0.00    -0.308 OA 
HETATM   15  C   UNL     1      -9.103   8.573  66.806  1.00  0.00    -0.186 C  
HETATM   16  C   UNL     1      -7.858   9.084  67.538  1.00  0.00    -0.100 C  
BRANCH  12  17
HETATM   17  C   UNL     1      -9.150   6.148  67.742  1.00  0.00    -0.117 A  
HETATM   18  C   UNL     1      -9.433   5.250  68.790  1.00  0.00    -0.171 A  
HETATM   19  C   UNL     1      -8.822   3.993  68.869  1.00  0.00    -0.149 A  
HETATM   20  C   UNL     1      -7.925   3.597  67.886  1.00  0.00    -0.080 A  
HETATM   21  C   UNL     1      -7.638   4.447  66.826  1.00  0.00    -0.086 A  
HETATM   22 CL   UNL     1      -7.193   2.043  67.968  1.00  0.00    -0.046 Cl 
HETATM   23  C   UNL     1      -8.251   5.705  66.752  1.00  0.00    -0.105 A  
ENDBRANCH  12  17
ENDBRANCH   8   9
ENDBRANCH   7   8
ENDBRANCH   6   7
BRANCH   6  24
HETATM   24  C   UNL     1     -10.728  12.978  68.454  1.00  0.00    -0.273 A  
HETATM   25  C   UNL     1     -11.325  11.874  69.097  1.00  0.00    -0.338 A  
HETATM   26  C   UNL     1     -10.916  14.235  69.055  1.00  0.00    -0.282 A  
HETATM   27  C   UNL     1     -12.117  12.037  70.241  1.00  0.00    -0.395 A  
HETATM   28  C   UNL     1     -12.322  13.303  70.780  1.00  0.00    -0.425 A  
HETATM   29  C   UNL     1     -11.714  14.402  70.188  1.00  0.00    -0.361 A  
ENDBRANCH   6  24
BRANCH   6  30
HETATM   30  C   UNL     1     -10.748  12.464  65.865  1.00  0.00    -0.299 A  
HETATM   31  C   UNL     1     -10.950  11.808  63.513  1.00  0.00    -0.499 A  
HETATM   32  C   UNL     1     -12.135  12.736  65.832  1.00  0.00    -0.485 A  
HETATM   33  C   UNL     1     -10.189  11.950  64.681  1.00  0.00    -0.316 A  
HETATM   34  C   UNL     1     -12.308  12.104  63.515  1.00  0.00    -0.682 A  
HETATM   35  C   UNL     1     -12.907  12.546  64.684  1.00  0.00    -0.325 A  
ENDBRANCH   6  30
ENDBRANCH   4   6
TORSDOF 7
ENDMDL
MODEL       56
REMARK 921   NORMALIZED FREE ENERGY PREDICTED BY IDOCK:   -5.63 KCAL/MOL
REMARK 922        TOTAL FREE ENERGY PREDICTED BY IDOCK:   -8.31 KCAL/MOL
REMARK 923 INTER-LIGAND FREE ENERGY PREDICTED BY IDOCK:   -7.75 KCAL/MOL
REMARK 924 INTRA-LIGAND FREE ENERGY PREDICTED BY IDOCK:   -0.56 KCAL/MOL
REMARK 927      BINDING AFFINITY PREDICTED BY RF-SCORE:    0.00 PKD
ROOT
HETATM    1  C   UNL     1     -11.550  13.620  68.610  1.00  0.00    -0.329 C  
HETATM    2  N   UNL     1     -10.559  12.712  68.039  1.00  0.00    -0.215 N  
HETATM    3  C   UNL     1      -9.367  13.338  67.493  1.00  0.00    -0.218 C  
HETATM    4  C   UNL     1     -10.979  11.400  67.801  1.00  0.00    -0.247 C  
HETATM    5  O   UNL     1     -12.138  11.090  68.125  1.00  0.00    -0.610 OA 
ENDROOT
BRANCH   4   6
HETATM    6  C   UNL     1     -10.012  10.300  67.146  1.00  0.00    -0.243 C  
BRANCH   6   7
HETATM    7  C   UNL     1     -10.778   8.915  67.389  1.00  0.00    -0.225 C  
BRANCH   7   8
HETATM    8  C   UNL     1      -9.939   7.623  67.394  1.00  0.00    -0.192 C  
BRANCH   8   9
HETATM    9  N   UNL     1     -10.475   6.511  68.208  1.00  0.00    -0.196 NA 
HETATM   10  C   UNL     1      -9.546   5.395  68.434  1.00  0.00    -0.129 C  
HETATM   11  C   UNL     1      -8.438   5.720  69.436  1.00  0.00    -0.112 C  
HETATM   12  C   UNL     1      -9.028   6.132  70.804  1.00  0.00    -0.143 C  
HETATM   13  H   UNL     1      -8.312   6.831  72.479  1.00  0.00     0.000 HD 
HETATM   14  O   UNL     1      -7.948   6.579  71.638  1.00  0.00    -0.103 OA 
HETATM   15  C   UNL     1      -9.949   7.340  70.528  1.00  0.00    -0.191 C  
HETATM   16  C   UNL     1     -11.021   7.000  69.489  1.00  0.00    -0.220 C  
BRANCH  12  17
HETATM   17  C   UNL     1      -9.676   4.988  71.603  1.00  0.00    -0.226 A  
HETATM   18  C   UNL     1      -9.412   3.638  71.300  1.00  0.00    -0.231 A  
HETATM   19  C   UNL     1      -9.973   2.593  72.045  1.00  0.00    -0.224 A  
HETATM   20  C   UNL     1     -10.795   2.877  73.126  1.00  0.00    -0.134 A  
HETATM   21  C   UNL     1     -11.060   4.198  73.468  1.00  0.00    -0.359 A  
HETATM   22 CL   UNL     1     -11.463   1.596  74.057  1.00  0.00    -0.225 Cl 
HETATM   23  C   UNL     1     -10.498   5.240  72.719  1.00  0.00    -0.262 A  
ENDBRANCH  12  17
ENDBRANCH   8   9
ENDBRANCH   7   8
ENDBRANCH   6   7
BRANCH   6  24
HETATM   24  C   UNL     1      -9.925  10.573  65.606  1.00  0.00    -0.332 A  
HETATM   25  C   UNL     1      -9.275   9.654  64.757  1.00  0.00    -0.298 A  
HETATM   26  C   UNL     1     -10.481  11.711  64.995  1.00  0.00    -0.336 A  
HETATM   27  C   UNL     1      -9.139   9.900  63.384  1.00  0.00    -0.291 A  
HETATM   28  C   UNL     1      -9.660  11.061  62.822  1.00  0.00    -0.337 A  
HETATM   29  C   UNL     1     -10.338  11.963  63.630  1.00  0.00    -0.477 A  
ENDBRANCH   6  24
BRANCH   6  30
HETATM   30  C   UNL     1      -8.627  10.232  67.879  1.00  0.00    -0.118 A  
HETATM   31  C   UNL     1      -6.199   9.909  67.875  1.00  0.00    -0.051 A  
HETATM   32  C   UNL     1      -8.547  10.258  69.291  1.00  0.00    -0.175 A  
HETATM   33  C   UNL     1      -7.407  10.100  67.192  1.00  0.00    -0.091 A  
HETATM   34  C   UNL     1      -6.163   9.922  69.264  1.00  0.00    -0.040 A  
HETATM   35  C   UNL     1      -7.338  10.121  69.974  1.00  0.00    -0.172 A  
ENDBRANCH   6  30
ENDBRANCH   4   6
TORSDOF 7
ENDMDL
MODEL       57
REMARK 921   NORMALIZED FREE ENERGY PREDICTED BY IDOCK:   -5.62 KCAL/MOL
REMARK 922        TOTAL FREE ENERGY PREDICTED BY IDOCK:   -8.29 KCAL/MOL
REMARK 923 INTER-LIGAND FREE ENERGY PREDICTED BY IDOCK:   -9.02 KCAL/MOL
REMARK 924 INTRA-LIGAND FREE ENERGY PREDICTED BY IDOCK:    0.73 KCAL/MOL
REMARK 927      BINDING AFFINITY PREDICTED BY RF-SCORE:    0.00 PKD
ROOT
HETATM    1  C   UNL     1      -8.175  18.667  67.796  1.00  0.00    -0.255 C  
HETATM    2  N   UNL     1      -8.502  17.245  67.746  1.00  0.00    -0.214 N  
HETATM    3  C   UNL     1      -7.575  16.407  67.005  1.00  0.00    -0.205 C  
HETATM    4  C   UNL     1      -9.796  16.889  68.138  1.00  0.00    -0.264 C  
HETATM    5  O   UNL     1     -10.554  17.789  68.536  1.00  0.00    -0.343 OA 
ENDROOT
BRANCH   4   6
HETATM    6  C   UNL     1     -10.311  15.370  68.105  1.00  0.00    -0.239 C  
BRANCH   6   7
HETATM    7  C   UNL     1      -8.966  14.503  68.115  1.00  0.00    -0.182 C  
BRANCH   7   8
HETATM    8  C   UNL     1      -9.095  12.980  68.306  1.00  0.00    -0.179 C  
BRANCH   8   9
HETATM    9  N   UNL     1      -8.378  12.144  67.320  1.00  0.00    -0.172 NA 
HETATM   10  C   UNL     1      -7.887  10.856  67.829  1.00  0.00    -0.109 C  
HETATM   11  C   UNL     1      -8.996   9.824  68.040  1.00  0.00    -0.118 C  
HETATM   12  C   UNL     1      -9.762   9.554  66.725  1.00  0.00    -0.197 C  
HETATM   13  H   UNL     1     -11.354   8.544  66.219  1.00  0.00     0.000 HD 
HETATM   14  O   UNL     1     -10.883   8.710  67.028  1.00  0.00    -0.197 OA 
HETATM   15  C   UNL     1     -10.308  10.922  66.258  1.00  0.00    -0.306 C  
HETATM   16  C   UNL     1      -9.182  11.948  66.099  1.00  0.00    -0.199 C  
BRANCH  12  17
HETATM   17  C   UNL     1      -8.974   8.771  65.662  1.00  0.00    -0.248 A  
HETATM   18  C   UNL     1      -8.394   7.520  65.949  1.00  0.00    -0.140 A  
HETATM   19  C   UNL     1      -7.704   6.787  64.977  1.00  0.00    -0.108 A  
HETATM   20  C   UNL     1      -7.597   7.281  63.684  1.00  0.00    -0.114 A  
HETATM   21  C   UNL     1      -8.175   8.501  63.358  1.00  0.00    -0.136 A  
HETATM   22 CL   UNL     1      -6.772   6.369  62.482  1.00  0.00    -0.037 Cl 
HETATM   23  C   UNL     1      -8.863   9.232  64.335  1.00  0.00    -0.197 A  
ENDBRANCH  12  17
ENDBRANCH   8   9
ENDBRANCH   7   8
ENDBRANCH   6   7
BRANCH   6  24
HETATM   24  C   UNL     1     -11.110  15.091  69.423  1.00  0.00    -0.290 A  
HETATM   25  C   UNL     1     -11.182  16.073  70.433  1.00  0.00    -0.401 A  
HETATM   26  C   UNL     1     -11.791  13.885  69.668  1.00  0.00    -0.385 A  
HETATM   27  C   UNL     1     -11.846  15.829  71.641  1.00  0.00    -0.539 A  
HETATM   28  C   UNL     1     -12.468  14.606  71.868  1.00  0.00    -0.412 A  
HETATM   29  C   UNL     1     -12.444  13.636  70.876  1.00  0.00    -0.448 A  
ENDBRANCH   6  24
BRANCH   6  30
HETATM   30  C   UNL     1     -11.094  15.050  66.784  1.00  0.00    -0.326 A  
HETATM   31  C   UNL     1     -12.720  13.737  65.506  1.00  0.00    -0.530 A  
HETATM   32  C   UNL     1     -10.759  15.684  65.566  1.00  0.00    -0.403 A  
HETATM   33  C   UNL     1     -12.128  14.098  66.723  1.00  0.00    -0.474 A  
HETATM   34  C   UNL     1     -12.350  14.370  64.326  1.00  0.00    -0.402 A  
HETATM   35  C   UNL     1     -11.384  15.364  64.359  1.00  0.00    -0.246 A  
ENDBRANCH   6  30
ENDBRANCH   4   6
TORSDOF 7
ENDMDL
MODEL       58
REMARK 921   NORMALIZED FREE ENERGY PREDICTED BY IDOCK:   -5.62 KCAL/MOL
REMARK 922        TOTAL FREE ENERGY PREDICTED BY IDOCK:   -8.29 KCAL/MOL
REMARK 923 INTER-LIGAND FREE ENERGY PREDICTED BY IDOCK:   -7.43 KCAL/MOL
REMARK 924 INTRA-LIGAND FREE ENERGY PREDICTED BY IDOCK:   -0.86 KCAL/MOL
REMARK 927      BINDING AFFINITY PREDICTED BY RF-SCORE:    0.00 PKD
ROOT
HETATM    1  C   UNL     1     -11.381  15.989  68.592  1.00  0.00    -0.383 C  
HETATM    2  N   UNL     1     -10.752  14.925  67.814  1.00  0.00    -0.266 N  
HETATM    3  C   UNL     1     -10.115  15.338  66.576  1.00  0.00    -0.270 C  
HETATM    4  C   UNL     1     -11.083  13.614  68.168  1.00  0.00    -0.256 C  
HETATM    5  O   UNL     1     -11.846  13.445  69.134  1.00  0.00    -0.301 OA 
ENDROOT
BRANCH   4   6
HETATM    6  C   UNL     1     -10.497  12.343  67.383  1.00  0.00    -0.229 C  
BRANCH   6   7
HETATM    7  C   UNL     1     -11.133  11.087  68.144  1.00  0.00    -0.329 C  
BRANCH   7   8
HETATM    8  C   UNL     1     -10.182  10.172  68.937  1.00  0.00    -0.199 C  
BRANCH   8   9
HETATM    9  N   UNL     1     -10.344   8.720  68.705  1.00  0.00    -0.207 NA 
HETATM   10  C   UNL     1     -10.638   8.336  67.317  1.00  0.00    -0.265 C  
HETATM   11  C   UNL     1      -9.430   8.446  66.387  1.00  0.00    -0.293 C  
HETATM   12  C   UNL     1      -8.261   7.567  66.886  1.00  0.00    -0.124 C  
HETATM   13  H   UNL     1      -6.396   7.302  66.375  1.00  0.00     0.000 HD 
HETATM   14  O   UNL     1      -7.114   7.843  66.068  1.00  0.00    -0.060 OA 
HETATM   15  C   UNL     1      -7.948   8.043  68.322  1.00  0.00    -0.128 C  
HETATM   16  C   UNL     1      -9.186   7.965  69.219  1.00  0.00    -0.148 C  
BRANCH  12  17
HETATM   17  C   UNL     1      -8.477   6.052  66.736  1.00  0.00    -0.110 A  
HETATM   18  C   UNL     1      -9.514   5.532  65.936  1.00  0.00    -0.115 A  
HETATM   19  C   UNL     1      -9.696   4.154  65.769  1.00  0.00    -0.205 A  
HETATM   20  C   UNL     1      -8.827   3.262  66.383  1.00  0.00    -0.141 A  
HETATM   21  C   UNL     1      -7.780   3.738  67.162  1.00  0.00    -0.080 A  
HETATM   22 CL   UNL     1      -9.034   1.570  66.158  1.00  0.00    -0.114 Cl 
HETATM   23  C   UNL     1      -7.604   5.118  67.328  1.00  0.00    -0.091 A  
ENDBRANCH  12  17
ENDBRANCH   8   9
ENDBRANCH   7   8
ENDBRANCH   6   7
BRANCH   6  24
HETATM   24  C   UNL     1     -11.039  12.379  65.913  1.00  0.00    -0.349 A  
HETATM   25  C   UNL     1     -12.390  12.695  65.661  1.00  0.00    -0.390 A  
HETATM   26  C   UNL     1     -10.233  12.117  64.791  1.00  0.00    -0.310 A  
HETATM   27  C   UNL     1     -12.911  12.685  64.361  1.00  0.00    -0.344 A  
HETATM   28  C   UNL     1     -12.094  12.373  63.278  1.00  0.00    -0.519 A  
HETATM   29  C   UNL     1     -10.752  12.095  63.496  1.00  0.00    -0.509 A  
ENDBRANCH   6  24
BRANCH   6  30
HETATM   30  C   UNL     1      -8.936  12.254  67.504  1.00  0.00    -0.180 A  
HETATM   31  C   UNL     1      -6.774  11.298  66.859  1.00  0.00    -0.135 A  
HETATM   32  C   UNL     1      -8.243  12.942  68.526  1.00  0.00    -0.065 A  
HETATM   33  C   UNL     1      -8.149  11.464  66.647  1.00  0.00    -0.155 A  
HETATM   34  C   UNL     1      -6.132  11.977  67.887  1.00  0.00    -0.062 A  
HETATM   35  C   UNL     1      -6.864  12.821  68.708  1.00  0.00    -0.096 A  
ENDBRANCH   6  30
ENDBRANCH   4   6
TORSDOF 7
ENDMDL
MODEL       59
REMARK 921   NORMALIZED FREE ENERGY PREDICTED BY IDOCK:   -5.57 KCAL/MOL
REMARK 922        TOTAL FREE ENERGY PREDICTED BY IDOCK:   -8.22 KCAL/MOL
REMARK 923 INTER-LIGAND FREE ENERGY PREDICTED BY IDOCK:   -7.71 KCAL/MOL
REMARK 924 INTRA-LIGAND FREE ENERGY PREDICTED BY IDOCK:   -0.52 KCAL/MOL
REMARK 927      BINDING AFFINITY PREDICTED BY RF-SCORE:    0.00 PKD
ROOT
HETATM    1  C   UNL     1     -10.656   3.384  73.043  1.00  0.00    -0.152 C  
HETATM    2  N   UNL     1     -10.074   4.457  72.242  1.00  0.00    -0.183 N  
HETATM    3  C   UNL     1      -8.723   4.228  71.762  1.00  0.00    -0.110 C  
HETATM    4  C   UNL     1     -10.735   5.689  72.275  1.00  0.00    -0.230 C  
HETATM    5  O   UNL     1     -11.781   5.773  72.941  1.00  0.00    -0.220 OA 
ENDROOT
BRANCH   4   6
HETATM    6  C   UNL     1     -10.196   6.969  71.473  1.00  0.00    -0.211 C  
BRANCH   6   7
HETATM    7  C   UNL     1     -11.340   8.069  71.679  1.00  0.00    -0.306 C  
BRANCH   7   8
HETATM    8  C   UNL     1     -11.060   9.498  71.179  1.00  0.00    -0.379 C  
BRANCH   8   9
HETATM    9  N   UNL     1     -11.568   9.820  69.829  1.00  0.00    -0.101 NA 
HETATM   10  C   UNL     1     -12.353  11.060  69.733  1.00  0.00    -0.262 C  
HETATM   11  C   UNL     1     -11.501  12.326  69.818  1.00  0.00    -0.237 C  
HETATM   12  C   UNL     1     -10.432  12.353  68.702  1.00  0.00    -0.204 C  
HETATM   13  H   UNL     1      -8.912  13.492  68.251  1.00  0.00     0.000 HD 
HETATM   14  O   UNL     1      -9.569  13.476  68.938  1.00  0.00    -0.043 OA 
HETATM   15  C   UNL     1      -9.597  11.065  68.876  1.00  0.00    -0.174 C  
HETATM   16  C   UNL     1     -10.481   9.816  68.832  1.00  0.00    -0.214 C  
BRANCH  12  17
HETATM   17  C   UNL     1     -10.979  12.587  67.283  1.00  0.00    -0.300 A  
HETATM   18  C   UNL     1     -11.939  13.584  67.020  1.00  0.00    -0.440 A  
HETATM   19  C   UNL     1     -12.416  13.824  65.726  1.00  0.00    -0.527 A  
HETATM   20  C   UNL     1     -11.925  13.084  64.659  1.00  0.00    -0.392 A  
HETATM   21  C   UNL     1     -10.962  12.107  64.878  1.00  0.00    -0.355 A  
HETATM   22 CL   UNL     1     -12.491  13.396  63.066  1.00  0.00    -0.100 Cl 
HETATM   23  C   UNL     1     -10.489  11.869  66.174  1.00  0.00    -0.272 A  
ENDBRANCH  12  17
ENDBRANCH   8   9
ENDBRANCH   7   8
ENDBRANCH   6   7
BRANCH   6  24
HETATM   24  C   UNL     1      -8.879   7.465  72.163  1.00  0.00    -0.144 A  
HETATM   25  C   UNL     1      -8.812   7.579  73.567  1.00  0.00    -0.258 A  
HETATM   26  C   UNL     1      -7.718   7.805  71.448  1.00  0.00    -0.082 A  
HETATM   27  C   UNL     1      -7.665   8.068  74.205  1.00  0.00    -0.262 A  
HETATM   28  C   UNL     1      -6.551   8.441  73.461  1.00  0.00    -0.127 A  
HETATM   29  C   UNL     1      -6.577   8.303  72.080  1.00  0.00    -0.069 A  
ENDBRANCH   6  24
BRANCH   6  30
HETATM   30  C   UNL     1     -10.061   6.680  69.937  1.00  0.00    -0.198 A  
HETATM   31  C   UNL     1     -11.010   6.026  67.775  1.00  0.00    -0.333 A  
HETATM   32  C   UNL     1      -8.794   6.632  69.312  1.00  0.00    -0.133 A  
HETATM   33  C   UNL     1     -11.169   6.411  69.113  1.00  0.00    -0.421 A  
HETATM   34  C   UNL     1      -9.745   5.972  67.201  1.00  0.00    -0.148 A  
HETATM   35  C   UNL     1      -8.636   6.300  67.966  1.00  0.00    -0.116 A  
ENDBRANCH   6  30
ENDBRANCH   4   6
TORSDOF 7
ENDMDL
MODEL       60
REMARK 921   NORMALIZED FREE ENERGY PREDICTED BY IDOCK:   -5.56 KCAL/MOL
REMARK 922        TOTAL FREE ENERGY PREDICTED BY IDOCK:   -8.21 KCAL/MOL
REMARK 923 INTER-LIGAND FREE ENERGY PREDICTED BY IDOCK:   -8.20 KCAL/MOL
REMARK 924 INTRA-LIGAND FREE ENERGY PREDICTED BY IDOCK:   -0.01 KCAL/MOL
REMARK 927      BINDING AFFINITY PREDICTED BY RF-SCORE:    0.00 PKD
ROOT
HETATM    1  C   UNL     1     -12.573  15.476  70.360  1.00  0.00    -0.378 C  
HETATM    2  N   UNL     1     -11.531  15.287  69.355  1.00  0.00    -0.293 N  
HETATM    3  C   UNL     1     -11.213  16.450  68.546  1.00  0.00    -0.334 C  
HETATM    4  C   UNL     1     -11.173  13.966  69.068  1.00  0.00    -0.274 C  
HETATM    5  O   UNL     1     -11.728  13.058  69.710  1.00  0.00    -0.300 OA 
ENDROOT
BRANCH   4   6
HETATM    6  C   UNL     1     -10.068  13.601  67.963  1.00  0.00    -0.250 C  
BRANCH   6   7
HETATM    7  C   UNL     1      -9.581  12.132  68.369  1.00  0.00    -0.186 C  
BRANCH   7   8
HETATM    8  C   UNL     1      -8.204  11.667  67.861  1.00  0.00    -0.141 C  
BRANCH   8   9
HETATM    9  N   UNL     1      -8.186  10.379  67.136  1.00  0.00    -0.121 NA 
HETATM   10  C   UNL     1      -7.413   9.307  67.780  1.00  0.00    -0.088 C  
HETATM   11  C   UNL     1      -8.103   8.714  69.009  1.00  0.00    -0.121 C  
HETATM   12  C   UNL     1      -9.493   8.145  68.646  1.00  0.00    -0.147 C  
HETATM   13  H   UNL     1     -11.003   7.408  69.640  1.00  0.00     0.000 HD 
HETATM   14  O   UNL     1     -10.148   7.758  69.863  1.00  0.00    -0.196 OA 
HETATM   15  C   UNL     1     -10.289   9.316  68.028  1.00  0.00    -0.270 C  
HETATM   16  C   UNL     1      -9.554   9.920  66.828  1.00  0.00    -0.183 C  
BRANCH  12  17
HETATM   17  C   UNL     1      -9.469   6.859  67.803  1.00  0.00    -0.128 A  
HETATM   18  C   UNL     1      -8.363   5.987  67.823  1.00  0.00    -0.112 A  
HETATM   19  C   UNL     1      -8.349   4.798  67.084  1.00  0.00    -0.106 A  
HETATM   20  C   UNL     1      -9.455   4.443  66.323  1.00  0.00    -0.174 A  
HETATM   21  C   UNL     1     -10.572   5.267  66.297  1.00  0.00    -0.308 A  
HETATM   22 CL   UNL     1      -9.449   2.970  65.436  1.00  0.00    -0.112 Cl 
HETATM   23  C   UNL     1     -10.581   6.457  67.037  1.00  0.00    -0.396 A  
ENDBRANCH  12  17
ENDBRANCH   8   9
ENDBRANCH   7   8
ENDBRANCH   6   7
BRANCH   6  24
HETATM   24  C   UNL     1     -10.772  13.539  66.565  1.00  0.00    -0.287 A  
HETATM   25  C   UNL     1     -12.130  13.895  66.436  1.00  0.00    -0.489 A  
HETATM   26  C   UNL     1     -10.110  13.145  65.389  1.00  0.00    -0.260 A  
HETATM   27  C   UNL     1     -12.796  13.799  65.207  1.00  0.00    -0.430 A  
HETATM   28  C   UNL     1     -12.121  13.359  64.073  1.00  0.00    -0.506 A  
HETATM   29  C   UNL     1     -10.774  13.038  64.165  1.00  0.00    -0.429 A  
ENDBRANCH   6  24
BRANCH   6  30
HETATM   30  C   UNL     1      -8.834  14.567  68.033  1.00  0.00    -0.175 A  
HETATM   31  C   UNL     1      -7.143  15.817  69.289  1.00  0.00    -0.199 A  
HETATM   32  C   UNL     1      -8.368  15.239  66.880  1.00  0.00    -0.278 A  
HETATM   33  C   UNL     1      -8.157  14.852  69.232  1.00  0.00    -0.135 A  
HETATM   34  C   UNL     1      -6.725  16.471  68.136  1.00  0.00    -0.145 A  
HETATM   35  C   UNL     1      -7.323  16.163  66.924  1.00  0.00    -0.255 A  
ENDBRANCH   6  30
ENDBRANCH   4   6
TORSDOF 7
ENDMDL
MODEL       61
REMARK 921   NORMALIZED FREE ENERGY PREDICTED BY IDOCK:   -5.56 KCAL/MOL
REMARK 922        TOTAL FREE ENERGY PREDICTED BY IDOCK:   -8.21 KCAL/MOL
REMARK 923 INTER-LIGAND FREE ENERGY PREDICTED BY IDOCK:   -7.32 KCAL/MOL
REMARK 924 INTRA-LIGAND FREE ENERGY PREDICTED BY IDOCK:   -0.89 KCAL/MOL
REMARK 927      BINDING AFFINITY PREDICTED BY RF-SCORE:    0.00 PKD
ROOT
HETATM    1  C   UNL     1     -10.575  16.617  67.578  1.00  0.00    -0.311 C  
HETATM    2  N   UNL     1     -10.124  15.312  67.103  1.00  0.00    -0.238 N  
HETATM    3  C   UNL     1      -9.419  15.309  65.833  1.00  0.00    -0.316 C  
HETATM    4  C   UNL     1     -10.669  14.193  67.742  1.00  0.00    -0.247 C  
HETATM    5  O   UNL     1     -11.455  14.385  68.684  1.00  0.00    -0.257 OA 
ENDROOT
BRANCH   4   6
HETATM    6  C   UNL     1     -10.294  12.695  67.307  1.00  0.00    -0.230 C  
BRANCH   6   7
HETATM    7  C   UNL     1     -11.045  11.778  68.381  1.00  0.00    -0.286 C  
BRANCH   7   8
HETATM    8  C   UNL     1     -10.831  10.255  68.300  1.00  0.00    -0.255 C  
BRANCH   8   9
HETATM    9  N   UNL     1     -10.346   9.606  69.537  1.00  0.00    -0.207 NA 
HETATM   10  C   UNL     1     -11.032   8.357  69.899  1.00  0.00    -0.166 C  
HETATM   11  C   UNL     1     -10.646   7.173  69.013  1.00  0.00    -0.225 C  
HETATM   12  C   UNL     1      -9.124   6.912  69.065  1.00  0.00    -0.138 C  
HETATM   13  H   UNL     1      -7.875   5.743  68.125  1.00  0.00     0.000 HD 
HETATM   14  O   UNL     1      -8.811   5.903  68.093  1.00  0.00    -0.112 OA 
HETATM   15  C   UNL     1      -8.446   8.227  68.622  1.00  0.00    -0.125 C  
HETATM   16  C   UNL     1      -8.885   9.404  69.498  1.00  0.00    -0.162 C  
BRANCH  12  17
HETATM   17  C   UNL     1      -8.608   6.330  70.393  1.00  0.00    -0.142 A  
HETATM   18  C   UNL     1      -7.475   6.863  71.038  1.00  0.00    -0.083 A  
HETATM   19  C   UNL     1      -7.021   6.360  72.263  1.00  0.00    -0.074 A  
HETATM   20  C   UNL     1      -7.706   5.324  72.883  1.00  0.00    -0.098 A  
HETATM   21  C   UNL     1      -8.840   4.788  72.286  1.00  0.00    -0.133 A  
HETATM   22 CL   UNL     1      -7.164   4.723  74.400  1.00  0.00    -0.076 Cl 
HETATM   23  C   UNL     1      -9.290   5.293  71.059  1.00  0.00    -0.193 A  
ENDBRANCH  12  17
ENDBRANCH   8   9
ENDBRANCH   7   8
ENDBRANCH   6   7
BRANCH   6  24
HETATM   24  C   UNL     1     -10.904  12.426  65.888  1.00  0.00    -0.305 A  
HETATM   25  C   UNL     1     -12.209  12.861  65.582  1.00  0.00    -0.519 A  
HETATM   26  C   UNL     1     -10.204  11.764  64.865  1.00  0.00    -0.315 A  
HETATM   27  C   UNL     1     -12.796  12.589  64.340  1.00  0.00    -0.366 A  
HETATM   28  C   UNL     1     -12.091  11.889  63.367  1.00  0.00    -0.539 A  
HETATM   29  C   UNL     1     -10.790  11.482  63.630  1.00  0.00    -0.488 A  
ENDBRANCH   6  24
BRANCH   6  30
HETATM   30  C   UNL     1      -8.753  12.425  67.419  1.00  0.00    -0.183 A  
HETATM   31  C   UNL     1      -6.717  11.240  66.746  1.00  0.00    -0.140 A  
HETATM   32  C   UNL     1      -7.984  13.008  68.452  1.00  0.00    -0.135 A  
HETATM   33  C   UNL     1      -8.064  11.567  66.543  1.00  0.00    -0.112 A  
HETATM   34  C   UNL     1      -5.999  11.820  67.785  1.00  0.00    -0.057 A  
HETATM   35  C   UNL     1      -6.628  12.726  68.626  1.00  0.00    -0.084 A  
ENDBRANCH   6  30
ENDBRANCH   4   6
TORSDOF 7
ENDMDL
MODEL       62
REMARK 921   NORMALIZED FREE ENERGY PREDICTED BY IDOCK:   -5.52 KCAL/MOL
REMARK 922        TOTAL FREE ENERGY PREDICTED BY IDOCK:   -8.15 KCAL/MOL
REMARK 923 INTER-LIGAND FREE ENERGY PREDICTED BY IDOCK:   -8.40 KCAL/MOL
REMARK 924 INTRA-LIGAND FREE ENERGY PREDICTED BY IDOCK:    0.25 KCAL/MOL
REMARK 927      BINDING AFFINITY PREDICTED BY RF-SCORE:    0.00 PKD
ROOT
HETATM    1  C   UNL     1     -12.678  15.154  69.983  1.00  0.00    -0.164 C  
HETATM    2  N   UNL     1     -11.976  13.993  69.441  1.00  0.00    -0.325 N  
HETATM    3  C   UNL     1     -11.884  12.842  70.322  1.00  0.00    -0.213 C  
HETATM    4  C   UNL     1     -11.217  14.207  68.287  1.00  0.00    -0.272 C  
HETATM    5  O   UNL     1     -11.225  15.343  67.784  1.00  0.00    -0.316 OA 
ENDROOT
BRANCH   4   6
HETATM    6  C   UNL     1     -10.365  13.035  67.597  1.00  0.00    -0.222 C  
BRANCH   6   7
HETATM    7  C   UNL     1     -10.715  11.737  68.465  1.00  0.00    -0.251 C  
BRANCH   7   8
HETATM    8  C   UNL     1     -10.494  10.358  67.814  1.00  0.00    -0.226 C  
BRANCH   8   9
HETATM    9  N   UNL     1     -11.003   9.198  68.576  1.00  0.00    -0.029 NA 
HETATM   10  C   UNL     1     -10.379   7.909  68.246  1.00  0.00    -0.197 C  
HETATM   11  C   UNL     1      -8.958   7.764  68.791  1.00  0.00    -0.141 C  
HETATM   12  C   UNL     1      -8.933   7.924  70.328  1.00  0.00    -0.151 C  
HETATM   13  H   UNL     1      -7.546   8.041  71.697  1.00  0.00     0.000 HD 
HETATM   14  O   UNL     1      -7.561   7.943  70.752  1.00  0.00    -0.074 OA 
HETATM   15  C   UNL     1      -9.542   9.312  70.625  1.00  0.00    -0.334 C  
HETATM   16  C   UNL     1     -10.946   9.445  70.029  1.00  0.00    -0.239 C  
BRANCH  12  17
HETATM   17  C   UNL     1      -9.556   6.758  71.114  1.00  0.00    -0.177 A  
HETATM   18  C   UNL     1      -9.458   5.429  70.659  1.00  0.00    -0.215 A  
HETATM   19  C   UNL     1      -9.994   4.360  71.386  1.00  0.00    -0.248 A  
HETATM   20  C   UNL     1     -10.625   4.595  72.600  1.00  0.00    -0.195 A  
HETATM   21  C   UNL     1     -10.722   5.892  73.090  1.00  0.00    -0.288 A  
HETATM   22 CL   UNL     1     -11.261   3.281  73.506  1.00  0.00    -0.315 Cl 
HETATM   23  C   UNL     1     -10.185   6.959  72.358  1.00  0.00    -0.208 A  
ENDBRANCH  12  17
ENDBRANCH   8   9
ENDBRANCH   7   8
ENDBRANCH   6   7
BRANCH   6  24
HETATM   24  C   UNL     1     -10.895  12.834  66.137  1.00  0.00    -0.303 A  
HETATM   25  C   UNL     1     -12.280  12.865  65.873  1.00  0.00    -0.469 A  
HETATM   26  C   UNL     1     -10.048  12.626  65.034  1.00  0.00    -0.252 A  
HETATM   27  C   UNL     1     -12.782  12.638  64.585  1.00  0.00    -0.458 A  
HETATM   28  C   UNL     1     -11.916  12.387  63.526  1.00  0.00    -0.627 A  
HETATM   29  C   UNL     1     -10.547  12.387  63.752  1.00  0.00    -0.486 A  
ENDBRANCH   6  24
BRANCH   6  30
HETATM   30  C   UNL     1      -8.822  13.298  67.704  1.00  0.00    -0.200 A  
HETATM   31  C   UNL     1      -6.556  12.611  68.335  1.00  0.00    -0.081 A  
HETATM   32  C   UNL     1      -8.278  14.571  67.420  1.00  0.00    -0.220 A  
HETATM   33  C   UNL     1      -7.909  12.313  68.122  1.00  0.00    -0.148 A  
HETATM   34  C   UNL     1      -6.062  13.881  68.063  1.00  0.00    -0.142 A  
HETATM   35  C   UNL     1      -6.921  14.857  67.580  1.00  0.00    -0.207 A  
ENDBRANCH   6  30
ENDBRANCH   4   6
TORSDOF 7
ENDMDL
MODEL       63
REMARK 921   NORMALIZED FREE ENERGY PREDICTED BY IDOCK:   -5.51 KCAL/MOL
REMARK 922        TOTAL FREE ENERGY PREDICTED BY IDOCK:   -8.14 KCAL/MOL
REMARK 923 INTER-LIGAND FREE ENERGY PREDICTED BY IDOCK:   -8.29 KCAL/MOL
REMARK 924 INTRA-LIGAND FREE ENERGY PREDICTED BY IDOCK:    0.16 KCAL/MOL
REMARK 927      BINDING AFFINITY PREDICTED BY RF-SCORE:    0.00 PKD
ROOT
HETATM    1  C   UNL     1      -6.898  13.510  67.523  1.00  0.00    -0.143 C  
HETATM    2  N   UNL     1      -8.338  13.622  67.306  1.00  0.00    -0.184 N  
HETATM    3  C   UNL     1      -8.782  14.818  66.614  1.00  0.00    -0.194 C  
HETATM    4  C   UNL     1      -9.148  12.747  68.037  1.00  0.00    -0.207 C  
HETATM    5  O   UNL     1      -8.593  11.919  68.778  1.00  0.00    -0.082 OA 
ENDROOT
BRANCH   4   6
HETATM    6  C   UNL     1     -10.748  12.776  67.928  1.00  0.00    -0.235 C  
BRANCH   6   7
HETATM    7  C   UNL     1     -11.195  11.304  68.371  1.00  0.00    -0.324 C  
BRANCH   7   8
HETATM    8  C   UNL     1     -10.772  10.126  67.474  1.00  0.00    -0.290 C  
BRANCH   8   9
HETATM    9  N   UNL     1     -11.013   8.776  68.027  1.00  0.00     0.028 NA 
HETATM   10  C   UNL     1     -10.650   7.661  67.141  1.00  0.00    -0.340 C  
HETATM   11  C   UNL     1      -9.141   7.446  67.021  1.00  0.00    -0.155 C  
HETATM   12  C   UNL     1      -8.505   7.180  68.404  1.00  0.00    -0.124 C  
HETATM   13  H   UNL     1      -6.689   6.989  69.092  1.00  0.00     0.000 HD 
HETATM   14  O   UNL     1      -7.079   7.153  68.241  1.00  0.00    -0.076 OA 
HETATM   15  C   UNL     1      -8.861   8.400  69.282  1.00  0.00    -0.142 C  
HETATM   16  C   UNL     1     -10.375   8.619  69.348  1.00  0.00    -0.218 C  
BRANCH  12  17
HETATM   17  C   UNL     1      -8.842   5.813  69.022  1.00  0.00    -0.111 A  
HETATM   18  C   UNL     1      -9.005   4.664  68.223  1.00  0.00    -0.137 A  
HETATM   19  C   UNL     1      -9.279   3.411  68.783  1.00  0.00    -0.229 A  
HETATM   20  C   UNL     1      -9.374   3.273  70.161  1.00  0.00    -0.172 A  
HETATM   21  C   UNL     1      -9.198   4.380  70.982  1.00  0.00    -0.201 A  
HETATM   22 CL   UNL     1      -9.685   1.729  70.850  1.00  0.00    -0.180 Cl 
HETATM   23  C   UNL     1      -8.926   5.633  70.417  1.00  0.00    -0.153 A  
ENDBRANCH  12  17
ENDBRANCH   8   9
ENDBRANCH   7   8
ENDBRANCH   6   7
BRANCH   6  24
HETATM   24  C   UNL     1     -11.295  13.811  68.970  1.00  0.00    -0.333 A  
HETATM   25  C   UNL     1     -10.698  15.083  69.087  1.00  0.00    -0.249 A  
HETATM   26  C   UNL     1     -12.386  13.546  69.816  1.00  0.00    -0.249 A  
HETATM   27  C   UNL     1     -11.135  16.008  70.045  1.00  0.00    -0.362 A  
HETATM   28  C   UNL     1     -12.187  15.693  70.899  1.00  0.00    -0.466 A  
HETATM   29  C   UNL     1     -12.816  14.461  70.778  1.00  0.00    -0.417 A  
ENDBRANCH   6  24
BRANCH   6  30
HETATM   30  C   UNL     1     -11.228  13.014  66.454  1.00  0.00    -0.332 A  
HETATM   31  C   UNL     1     -12.714  14.063  64.813  1.00  0.00    -0.236 A  
HETATM   32  C   UNL     1     -10.716  12.241  65.387  1.00  0.00    -0.320 A  
HETATM   33  C   UNL     1     -12.209  13.963  66.116  1.00  0.00    -0.498 A  
HETATM   34  C   UNL     1     -12.198  13.271  63.794  1.00  0.00    -0.508 A  
HETATM   35  C   UNL     1     -11.179  12.375  64.077  1.00  0.00    -0.458 A  
ENDBRANCH   6  30
ENDBRANCH   4   6
TORSDOF 7
ENDMDL
MODEL       64
REMARK 921   NORMALIZED FREE ENERGY PREDICTED BY IDOCK:   -5.51 KCAL/MOL
REMARK 922        TOTAL FREE ENERGY PREDICTED BY IDOCK:   -8.13 KCAL/MOL
REMARK 923 INTER-LIGAND FREE ENERGY PREDICTED BY IDOCK:   -7.68 KCAL/MOL
REMARK 924 INTRA-LIGAND FREE ENERGY PREDICTED BY IDOCK:   -0.45 KCAL/MOL
REMARK 927      BINDING AFFINITY PREDICTED BY RF-SCORE:    0.00 PKD
ROOT
HETATM    1  C   UNL     1      -6.927   7.978  73.696  1.00  0.00    -0.123 C  
HETATM    2  N   UNL     1      -7.633   7.514  72.505  1.00  0.00    -0.080 N  
HETATM    3  C   UNL     1      -6.816   7.315  71.321  1.00  0.00    -0.055 C  
HETATM    4  C   UNL     1      -9.029   7.603  72.533  1.00  0.00    -0.142 C  
HETATM    5  O   UNL     1      -9.566   8.025  73.571  1.00  0.00    -0.270 OA 
ENDROOT
BRANCH   4   6
HETATM    6  C   UNL     1      -9.937   7.163  71.287  1.00  0.00    -0.192 C  
BRANCH   6   7
HETATM    7  C   UNL     1      -9.253   7.883  70.032  1.00  0.00    -0.153 C  
BRANCH   7   8
HETATM    8  C   UNL     1     -10.052   7.946  68.717  1.00  0.00    -0.193 C  
BRANCH   8   9
HETATM    9  N   UNL     1      -9.844   9.156  67.894  1.00  0.00    -0.162 NA 
HETATM   10  C   UNL     1     -11.069   9.785  67.382  1.00  0.00     0.022 C  
HETATM   11  C   UNL     1     -11.860  10.536  68.455  1.00  0.00     0.056 C  
HETATM   12  C   UNL     1     -10.998  11.637  69.112  1.00  0.00    -0.219 C  
HETATM   13  H   UNL     1     -11.209  12.864  70.615  1.00  0.00     0.000 HD 
HETATM   14  O   UNL     1     -11.740  12.186  70.212  1.00  0.00    -0.279 OA 
HETATM   15  C   UNL     1      -9.753  10.925  69.685  1.00  0.00     0.206 C  
HETATM   16  C   UNL     1      -9.007  10.145  68.599  1.00  0.00    -0.136 C  
BRANCH  12  17
HETATM   17  C   UNL     1     -10.698  12.850  68.215  1.00  0.00    -0.261 A  
HETATM   18  C   UNL     1     -11.685  13.408  67.378  1.00  0.00    -0.415 A  
HETATM   19  C   UNL     1     -11.428  14.532  66.584  1.00  0.00    -0.373 A  
HETATM   20  C   UNL     1     -10.180  15.138  66.626  1.00  0.00    -0.266 A  
HETATM   21  C   UNL     1      -9.189  14.629  67.456  1.00  0.00    -0.192 A  
HETATM   22 CL   UNL     1      -9.871  16.534  65.671  1.00  0.00    -0.258 Cl 
HETATM   23  C   UNL     1      -9.450  13.503  68.247  1.00  0.00    -0.212 A  
ENDBRANCH  12  17
ENDBRANCH   8   9
ENDBRANCH   7   8
ENDBRANCH   6   7
BRANCH   6  24
HETATM   24  C   UNL     1      -9.818   5.610  71.113  1.00  0.00    -0.229 A  
HETATM   25  C   UNL     1      -9.864   4.763  72.240  1.00  0.00    -0.221 A  
HETATM   26  C   UNL     1      -9.672   4.986  69.862  1.00  0.00    -0.266 A  
HETATM   27  C   UNL     1      -9.708   3.376  72.117  1.00  0.00    -0.228 A  
HETATM   28  C   UNL     1      -9.518   2.798  70.866  1.00  0.00    -0.224 A  
HETATM   29  C   UNL     1      -9.506   3.606  69.737  1.00  0.00    -0.254 A  
ENDBRANCH   6  24
BRANCH   6  30
HETATM   30  C   UNL     1     -11.406   7.696  71.420  1.00  0.00    -0.285 A  
HETATM   31  C   UNL     1     -13.024   9.427  72.045  1.00  0.00    -0.508 A  
HETATM   32  C   UNL     1     -12.514   6.846  71.196  1.00  0.00    -0.398 A  
HETATM   33  C   UNL     1     -11.706   9.015  71.806  1.00  0.00    -0.440 A  
HETATM   34  C   UNL     1     -14.085   8.555  71.832  1.00  0.00    -0.519 A  
HETATM   35  C   UNL     1     -13.831   7.268  71.383  1.00  0.00    -0.416 A  
ENDBRANCH   6  30
ENDBRANCH   4   6
TORSDOF 7
ENDMDL
MODEL       65
REMARK 921   NORMALIZED FREE ENERGY PREDICTED BY IDOCK:   -5.49 KCAL/MOL
REMARK 922        TOTAL FREE ENERGY PREDICTED BY IDOCK:   -8.12 KCAL/MOL
REMARK 923 INTER-LIGAND FREE ENERGY PREDICTED BY IDOCK:   -8.44 KCAL/MOL
REMARK 924 INTRA-LIGAND FREE ENERGY PREDICTED BY IDOCK:    0.33 KCAL/MOL
REMARK 927      BINDING AFFINITY PREDICTED BY RF-SCORE:    0.00 PKD
ROOT
HETATM    1  C   UNL     1     -10.739  18.920  65.685  1.00  0.00    -0.151 C  
HETATM    2  N   UNL     1     -10.478  17.537  66.071  1.00  0.00    -0.335 N  
HETATM    3  C   UNL     1     -10.690  16.539  65.037  1.00  0.00    -0.209 C  
HETATM    4  C   UNL     1     -10.354  17.285  67.441  1.00  0.00    -0.338 C  
HETATM    5  O   UNL     1     -10.431  18.248  68.222  1.00  0.00    -0.358 OA 
ENDROOT
BRANCH   4   6
HETATM    6  C   UNL     1     -10.099  15.810  68.018  1.00  0.00    -0.228 C  
BRANCH   6   7
HETATM    7  C   UNL     1     -10.542  14.842  66.823  1.00  0.00    -0.305 C  
BRANCH   7   8
HETATM    8  C   UNL     1      -9.691  13.585  66.564  1.00  0.00    -0.283 C  
BRANCH   8   9
HETATM    9  N   UNL     1     -10.048  12.390  67.358  1.00  0.00    -0.201 NA 
HETATM   10  C   UNL     1     -10.877  11.398  66.658  1.00  0.00    -0.289 C  
HETATM   11  C   UNL     1     -10.106  10.590  65.614  1.00  0.00    -0.333 C  
HETATM   12  C   UNL     1      -8.913   9.847  66.255  1.00  0.00    -0.145 C  
HETATM   13  H   UNL     1      -7.409   8.790  65.597  1.00  0.00     0.000 HD 
HETATM   14  O   UNL     1      -8.142   9.248  65.202  1.00  0.00    -0.114 OA 
HETATM   15  C   UNL     1      -8.041  10.930  66.926  1.00  0.00    -0.137 C  
HETATM   16  C   UNL     1      -8.849  11.753  67.934  1.00  0.00    -0.165 C  
BRANCH  12  17
HETATM   17  C   UNL     1      -9.295   8.665  67.163  1.00  0.00    -0.190 A  
HETATM   18  C   UNL     1     -10.466   7.914  66.939  1.00  0.00    -0.388 A  
HETATM   19  C   UNL     1     -10.802   6.818  67.741  1.00  0.00    -0.339 A  
HETATM   20  C   UNL     1      -9.961   6.432  68.775  1.00  0.00    -0.147 A  
HETATM   21  C   UNL     1      -8.787   7.136  69.012  1.00  0.00    -0.131 A  
HETATM   22 CL   UNL     1     -10.360   5.070  69.745  1.00  0.00    -0.338 Cl 
HETATM   23  C   UNL     1      -8.455   8.234  68.208  1.00  0.00    -0.136 A  
ENDBRANCH  12  17
ENDBRANCH   8   9
ENDBRANCH   7   8
ENDBRANCH   6   7
BRANCH   6  24
HETATM   24  C   UNL     1      -8.563  15.638  68.274  1.00  0.00    -0.158 A  
HETATM   25  C   UNL     1      -8.102  15.080  69.484  1.00  0.00    -0.122 A  
HETATM   26  C   UNL     1      -7.583  16.009  67.337  1.00  0.00    -0.200 A  
HETATM   27  C   UNL     1      -6.733  14.962  69.757  1.00  0.00    -0.179 A  
HETATM   28  C   UNL     1      -5.790  15.385  68.826  1.00  0.00    -0.092 A  
HETATM   29  C   UNL     1      -6.218  15.903  67.611  1.00  0.00    -0.182 A  
ENDBRANCH   6  24
BRANCH   6  30
HETATM   30  C   UNL     1     -11.008  15.506  69.260  1.00  0.00    -0.268 A  
HETATM   31  C   UNL     1     -11.794  15.996  71.528  1.00  0.00    -0.554 A  
HETATM   32  C   UNL     1     -11.777  14.322  69.329  1.00  0.00    -0.363 A  
HETATM   33  C   UNL     1     -11.078  16.356  70.379  1.00  0.00    -0.246 A  
HETATM   34  C   UNL     1     -12.522  14.813  71.565  1.00  0.00    -0.403 A  
HETATM   35  C   UNL     1     -12.534  13.985  70.453  1.00  0.00    -0.418 A  
ENDBRANCH   6  30
ENDBRANCH   4   6
TORSDOF 7
ENDMDL
MODEL       66
REMARK 921   NORMALIZED FREE ENERGY PREDICTED BY IDOCK:   -5.49 KCAL/MOL
REMARK 922        TOTAL FREE ENERGY PREDICTED BY IDOCK:   -8.11 KCAL/MOL
REMARK 923 INTER-LIGAND FREE ENERGY PREDICTED BY IDOCK:   -7.26 KCAL/MOL
REMARK 924 INTRA-LIGAND FREE ENERGY PREDICTED BY IDOCK:   -0.85 KCAL/MOL
REMARK 927      BINDING AFFINITY PREDICTED BY RF-SCORE:    0.00 PKD
ROOT
HETATM    1  C   UNL     1      -9.271   4.550  67.220  1.00  0.00    -0.136 C  
HETATM    2  N   UNL     1      -9.111   5.829  67.906  1.00  0.00    -0.110 N  
HETATM    3  C   UNL     1      -8.103   5.866  68.951  1.00  0.00    -0.103 C  
HETATM    4  C   UNL     1     -10.124   6.773  67.709  1.00  0.00    -0.154 C  
HETATM    5  O   UNL     1     -11.056   6.478  66.942  1.00  0.00    -0.399 OA 
ENDROOT
BRANCH   4   6
HETATM    6  C   UNL     1     -10.102   8.210  68.423  1.00  0.00    -0.226 C  
BRANCH   6   7
HETATM    7  C   UNL     1     -11.066   9.110  67.517  1.00  0.00     0.191 C  
BRANCH   7   8
HETATM    8  C   UNL     1     -10.438   9.868  66.333  1.00  0.00    -0.127 C  
BRANCH   8   9
HETATM    9  N   UNL     1     -10.815  11.291  66.206  1.00  0.00    -0.264 NA 
HETATM   10  C   UNL     1     -11.304  11.923  67.440  1.00  0.00    -0.324 C  
HETATM   11  C   UNL     1     -10.197  12.209  68.456  1.00  0.00    -0.214 C  
HETATM   12  C   UNL     1      -9.110  13.126  67.851  1.00  0.00    -0.207 C  
HETATM   13  H   UNL     1      -7.362  13.782  68.420  1.00  0.00     0.000 HD 
HETATM   14  O   UNL     1      -8.030  13.218  68.792  1.00  0.00    -0.084 OA 
HETATM   15  C   UNL     1      -8.585  12.398  66.593  1.00  0.00    -0.076 C  
HETATM   16  C   UNL     1      -9.721  12.084  65.615  1.00  0.00    -0.223 C  
BRANCH  12  17
HETATM   17  C   UNL     1      -9.542  14.585  67.625  1.00  0.00    -0.214 A  
HETATM   18  C   UNL     1     -10.450  15.225  68.491  1.00  0.00    -0.235 A  
HETATM   19  C   UNL     1     -10.821  16.563  68.311  1.00  0.00    -0.352 A  
HETATM   20  C   UNL     1     -10.273  17.299  67.269  1.00  0.00    -0.320 A  
HETATM   21  C   UNL     1      -9.358  16.707  66.409  1.00  0.00    -0.309 A  
HETATM   22 CL   UNL     1     -10.708  18.949  67.062  1.00  0.00    -0.503 Cl 
HETATM   23  C   UNL     1      -8.991  15.367  66.592  1.00  0.00    -0.319 A  
ENDBRANCH  12  17
ENDBRANCH   8   9
ENDBRANCH   7   8
ENDBRANCH   6   7
BRANCH   6  24
HETATM   24  C   UNL     1     -10.733   8.061  69.850  1.00  0.00    -0.242 A  
HETATM   25  C   UNL     1     -10.978   6.781  70.389  1.00  0.00    -0.330 A  
HETATM   26  C   UNL     1     -11.072   9.160  70.658  1.00  0.00    -0.320 A  
HETATM   27  C   UNL     1     -11.587   6.621  71.640  1.00  0.00    -0.350 A  
HETATM   28  C   UNL     1     -11.953   7.732  72.392  1.00  0.00    -0.338 A  
HETATM   29  C   UNL     1     -11.689   9.003  71.900  1.00  0.00    -0.445 A  
ENDBRANCH   6  24
BRANCH   6  30
HETATM   30  C   UNL     1      -8.670   8.848  68.403  1.00  0.00    -0.134 A  
HETATM   31  C   UNL     1      -6.508   9.262  67.326  1.00  0.00    -0.060 A  
HETATM   32  C   UNL     1      -8.133   9.472  69.553  1.00  0.00    -0.117 A  
HETATM   33  C   UNL     1      -7.831   8.801  67.275  1.00  0.00    -0.097 A  
HETATM   34  C   UNL     1      -6.011   9.852  68.482  1.00  0.00    -0.042 A  
HETATM   35  C   UNL     1      -6.834   9.980  69.591  1.00  0.00    -0.078 A  
ENDBRANCH   6  30
ENDBRANCH   4   6
TORSDOF 7
ENDMDL
MODEL       67
REMARK 921   NORMALIZED FREE ENERGY PREDICTED BY IDOCK:   -5.48 KCAL/MOL
REMARK 922        TOTAL FREE ENERGY PREDICTED BY IDOCK:   -8.09 KCAL/MOL
REMARK 923 INTER-LIGAND FREE ENERGY PREDICTED BY IDOCK:   -8.44 KCAL/MOL
REMARK 924 INTRA-LIGAND FREE ENERGY PREDICTED BY IDOCK:    0.35 KCAL/MOL
REMARK 927      BINDING AFFINITY PREDICTED BY RF-SCORE:    0.00 PKD
ROOT
HETATM    1  C   UNL     1     -13.399  15.169  70.839  1.00  0.00    -0.408 C  
HETATM    2  N   UNL     1     -12.533  14.283  70.065  1.00  0.00    -0.336 N  
HETATM    3  C   UNL     1     -12.341  12.951  70.611  1.00  0.00    -0.302 C  
HETATM    4  C   UNL     1     -11.751  14.885  69.074  1.00  0.00    -0.319 C  
HETATM    5  O   UNL     1     -11.876  16.107  68.894  1.00  0.00    -0.338 OA 
ENDROOT
BRANCH   4   6
HETATM    6  C   UNL     1     -10.728  14.045  68.167  1.00  0.00    -0.254 C  
BRANCH   6   7
HETATM    7  C   UNL     1     -10.753  12.579  68.808  1.00  0.00    -0.235 C  
BRANCH   7   8
HETATM    8  C   UNL     1      -9.422  11.809  68.891  1.00  0.00     0.070 C  
BRANCH   8   9
HETATM    9  N   UNL     1      -9.502  10.354  68.641  1.00  0.00    -0.159 NA 
HETATM   10  C   UNL     1      -8.280   9.597  68.947  1.00  0.00    -0.110 C  
HETATM   11  C   UNL     1      -8.032   9.422  70.446  1.00  0.00    -0.190 C  
HETATM   12  C   UNL     1      -9.219   8.704  71.125  1.00  0.00    -0.213 C  
HETATM   13  H   UNL     1      -9.727   8.278  72.961  1.00  0.00     0.000 HD 
HETATM   14  O   UNL     1      -8.997   8.720  72.544  1.00  0.00    -0.386 OA 
HETATM   15  C   UNL     1     -10.469   9.562  70.829  1.00  0.00    -0.384 C  
HETATM   16  C   UNL     1     -10.667   9.758  69.323  1.00  0.00    -0.224 C  
BRANCH  12  17
HETATM   17  C   UNL     1      -9.359   7.211  70.782  1.00  0.00    -0.160 A  
HETATM   18  C   UNL     1     -10.602   6.651  70.428  1.00  0.00    -0.266 A  
HETATM   19  C   UNL     1     -10.730   5.300  70.081  1.00  0.00    -0.217 A  
HETATM   20  C   UNL     1      -9.608   4.482  70.060  1.00  0.00    -0.197 A  
HETATM   21  C   UNL     1      -8.362   5.005  70.382  1.00  0.00    -0.100 A  
HETATM   22 CL   UNL     1      -9.760   2.830  69.609  1.00  0.00    -0.049 Cl 
HETATM   23  C   UNL     1      -8.240   6.357  70.729  1.00  0.00    -0.125 A  
ENDBRANCH  12  17
ENDBRANCH   8   9
ENDBRANCH   7   8
ENDBRANCH   6   7
BRANCH   6  24
HETATM   24  C   UNL     1     -11.301  13.977  66.711  1.00  0.00    -0.346 A  
HETATM   25  C   UNL     1     -11.898  12.791  66.236  1.00  0.00    -0.485 A  
HETATM   26  C   UNL     1     -11.265  15.064  65.820  1.00  0.00    -0.318 A  
HETATM   27  C   UNL     1     -12.372  12.689  64.922  1.00  0.00    -0.563 A  
HETATM   28  C   UNL     1     -12.276  13.771  64.053  1.00  0.00    -0.429 A  
HETATM   29  C   UNL     1     -11.727  14.962  64.507  1.00  0.00    -0.388 A  
ENDBRANCH   6  24
BRANCH   6  30
HETATM   30  C   UNL     1      -9.266  14.603  68.271  1.00  0.00    -0.198 A  
HETATM   31  C   UNL     1      -7.506  15.834  69.450  1.00  0.00    -0.216 A  
HETATM   32  C   UNL     1      -8.381  14.539  67.170  1.00  0.00    -0.226 A  
HETATM   33  C   UNL     1      -8.769  15.228  69.429  1.00  0.00    -0.216 A  
HETATM   34  C   UNL     1      -6.673  15.767  68.340  1.00  0.00    -0.116 A  
HETATM   35  C   UNL     1      -7.102  15.096  67.205  1.00  0.00    -0.043 A  
ENDBRANCH   6  30
ENDBRANCH   4   6
TORSDOF 7
ENDMDL
MODEL       68
REMARK 921   NORMALIZED FREE ENERGY PREDICTED BY IDOCK:   -5.45 KCAL/MOL
REMARK 922        TOTAL FREE ENERGY PREDICTED BY IDOCK:   -8.06 KCAL/MOL
REMARK 923 INTER-LIGAND FREE ENERGY PREDICTED BY IDOCK:   -7.51 KCAL/MOL
REMARK 924 INTRA-LIGAND FREE ENERGY PREDICTED BY IDOCK:   -0.55 KCAL/MOL
REMARK 927      BINDING AFFINITY PREDICTED BY RF-SCORE:    0.00 PKD
ROOT
HETATM    1  C   UNL     1     -11.932  14.173  64.417  1.00  0.00    -0.457 C  
HETATM    2  N   UNL     1     -11.239  14.119  65.701  1.00  0.00    -0.303 N  
HETATM    3  C   UNL     1     -10.174  15.088  65.888  1.00  0.00    -0.315 C  
HETATM    4  C   UNL     1     -11.453  12.975  66.477  1.00  0.00    -0.340 C  
HETATM    5  O   UNL     1     -12.240  12.116  66.046  1.00  0.00    -0.609 OA 
ENDROOT
BRANCH   4   6
HETATM    6  C   UNL     1     -10.735  12.760  67.895  1.00  0.00    -0.235 C  
BRANCH   6   7
HETATM    7  C   UNL     1     -11.226  11.311  68.365  1.00  0.00    -0.324 C  
BRANCH   7   8
HETATM    8  C   UNL     1     -10.313  10.517  69.317  1.00  0.00    -0.227 C  
BRANCH   8   9
HETATM    9  N   UNL     1     -10.398   9.044  69.213  1.00  0.00    -0.215 NA 
HETATM   10  C   UNL     1     -10.900   8.534  67.929  1.00  0.00     0.024 C  
HETATM   11  C   UNL     1      -9.886   8.651  66.791  1.00  0.00    -0.322 C  
HETATM   12  C   UNL     1      -8.583   7.891  67.128  1.00  0.00    -0.128 C  
HETATM   13  H   UNL     1      -6.821   7.709  66.307  1.00  0.00     0.000 HD 
HETATM   14  O   UNL     1      -7.622   8.177  66.100  1.00  0.00    -0.085 OA 
HETATM   15  C   UNL     1      -8.061   8.497  68.449  1.00  0.00    -0.122 C  
HETATM   16  C   UNL     1      -9.113   8.409  69.559  1.00  0.00    -0.153 C  
BRANCH  12  17
HETATM   17  C   UNL     1      -8.703   6.358  67.119  1.00  0.00    -0.110 A  
HETATM   18  C   UNL     1      -8.056   5.563  68.086  1.00  0.00    -0.096 A  
HETATM   19  C   UNL     1      -8.188   4.170  68.103  1.00  0.00    -0.094 A  
HETATM   20  C   UNL     1      -8.991   3.539  67.162  1.00  0.00    -0.149 A  
HETATM   21  C   UNL     1      -9.661   4.292  66.207  1.00  0.00    -0.225 A  
HETATM   22 CL   UNL     1      -9.175   1.830  67.198  1.00  0.00    -0.115 Cl 
HETATM   23  C   UNL     1      -9.525   5.686  66.192  1.00  0.00    -0.157 A  
ENDBRANCH  12  17
ENDBRANCH   8   9
ENDBRANCH   7   8
ENDBRANCH   6   7
BRANCH   6  24
HETATM   24  C   UNL     1      -9.186  12.725  67.663  1.00  0.00    -0.192 A  
HETATM   25  C   UNL     1      -8.634  11.887  66.671  1.00  0.00    -0.163 A  
HETATM   26  C   UNL     1      -8.281  13.509  68.399  1.00  0.00    -0.141 A  
HETATM   27  C   UNL     1      -7.250  11.800  66.478  1.00  0.00     0.109 A  
HETATM   28  C   UNL     1      -6.381  12.555  67.259  1.00  0.00    -0.126 A  
HETATM   29  C   UNL     1      -6.900  13.415  68.217  1.00  0.00    -0.106 A  
ENDBRANCH   6  24
BRANCH   6  30
HETATM   30  C   UNL     1     -11.215  13.810  68.957  1.00  0.00    -0.313 A  
HETATM   31  C   UNL     1     -12.705  14.520  70.767  1.00  0.00    -0.425 A  
HETATM   32  C   UNL     1     -10.697  15.126  68.966  1.00  0.00    -0.239 A  
HETATM   33  C   UNL     1     -12.202  13.526  69.918  1.00  0.00    -0.356 A  
HETATM   34  C   UNL     1     -12.184  15.808  70.733  1.00  0.00    -0.441 A  
HETATM   35  C   UNL     1     -11.160  16.105  69.846  1.00  0.00    -0.357 A  
ENDBRANCH   6  30
ENDBRANCH   4   6
TORSDOF 7
ENDMDL
MODEL       69
REMARK 921   NORMALIZED FREE ENERGY PREDICTED BY IDOCK:   -5.36 KCAL/MOL
REMARK 922        TOTAL FREE ENERGY PREDICTED BY IDOCK:   -7.92 KCAL/MOL
REMARK 923 INTER-LIGAND FREE ENERGY PREDICTED BY IDOCK:   -7.72 KCAL/MOL
REMARK 924 INTRA-LIGAND FREE ENERGY PREDICTED BY IDOCK:   -0.20 KCAL/MOL
REMARK 927      BINDING AFFINITY PREDICTED BY RF-SCORE:    0.00 PKD
ROOT
HETATM    1  C   UNL     1     -12.393  14.339  69.981  1.00  0.00    -0.346 C  
HETATM    2  N   UNL     1     -11.604  14.855  68.866  1.00  0.00    -0.299 N  
HETATM    3  C   UNL     1     -12.094  14.529  67.539  1.00  0.00    -0.249 C  
HETATM    4  C   UNL     1     -10.326  15.331  69.175  1.00  0.00    -0.248 C  
HETATM    5  O   UNL     1      -9.971  15.322  70.365  1.00  0.00    -0.094 OA 
ENDROOT
BRANCH   4   6
HETATM    6  C   UNL     1      -9.331  15.897  68.050  1.00  0.00    -0.201 C  
BRANCH   6   7
HETATM    7  C   UNL     1      -9.453  14.840  66.855  1.00  0.00    -0.253 C  
BRANCH   7   8
HETATM    8  C   UNL     1      -8.485  13.642  66.856  1.00  0.00    -0.054 C  
BRANCH   8   9
HETATM    9  N   UNL     1      -8.932  12.454  67.614  1.00  0.00    -0.174 NA 
HETATM   10  C   UNL     1     -10.045  11.706  67.010  1.00  0.00    -0.209 C  
HETATM   11  C   UNL     1      -9.633  10.888  65.786  1.00  0.00    -0.259 C  
HETATM   12  C   UNL     1      -8.519   9.878  66.141  1.00  0.00    -0.125 C  
HETATM   13  H   UNL     1      -7.383   8.643  65.143  1.00  0.00     0.000 HD 
HETATM   14  O   UNL     1      -8.068   9.265  64.924  1.00  0.00    -0.117 OA 
HETATM   15  C   UNL     1      -7.352  10.710  66.716  1.00  0.00    -0.120 C  
HETATM   16  C   UNL     1      -7.802  11.553  67.912  1.00  0.00    -0.123 C  
BRANCH  12  17
HETATM   17  C   UNL     1      -8.968   8.696  67.017  1.00  0.00    -0.152 A  
HETATM   18  C   UNL     1     -10.187   8.029  66.783  1.00  0.00    -0.367 A  
HETATM   19  C   UNL     1     -10.586   6.931  67.555  1.00  0.00    -0.351 A  
HETATM   20  C   UNL     1      -9.761   6.461  68.568  1.00  0.00    -0.132 A  
HETATM   21  C   UNL     1      -8.542   7.080  68.813  1.00  0.00    -0.125 A  
HETATM   22 CL   UNL     1     -10.238   5.097  69.500  1.00  0.00    -0.321 Cl 
HETATM   23  C   UNL     1      -8.148   8.179  68.039  1.00  0.00    -0.128 A  
ENDBRANCH  12  17
ENDBRANCH   8   9
ENDBRANCH   7   8
ENDBRANCH   6   7
BRANCH   6  24
HETATM   24  C   UNL     1      -9.875  17.284  67.564  1.00  0.00    -0.275 A  
HETATM   25  C   UNL     1     -10.176  17.492  66.202  1.00  0.00    -0.339 A  
HETATM   26  C   UNL     1     -10.097  18.369  68.431  1.00  0.00    -0.418 A  
HETATM   27  C   UNL     1     -10.615  18.737  65.734  1.00  0.00    -0.321 A  
HETATM   28  C   UNL     1     -10.778  19.802  66.614  1.00  0.00    -0.518 A  
HETATM   29  C   UNL     1     -10.524  19.613  67.965  1.00  0.00    -0.537 A  
ENDBRANCH   6  24
BRANCH   6  30
HETATM   30  C   UNL     1      -7.843  15.914  68.544  1.00  0.00    -0.142 A  
HETATM   31  C   UNL     1      -6.102  15.324  70.164  1.00  0.00    -0.141 A  
HETATM   32  C   UNL     1      -6.868  16.707  67.897  1.00  0.00    -0.158 A  
HETATM   33  C   UNL     1      -7.405  15.188  69.667  1.00  0.00    -0.191 A  
HETATM   34  C   UNL     1      -5.177  16.129  69.510  1.00  0.00    -0.115 A  
HETATM   35  C   UNL     1      -5.554  16.804  68.359  1.00  0.00    -0.122 A  
ENDBRANCH   6  30
ENDBRANCH   4   6
TORSDOF 7
ENDMDL
MODEL       70
REMARK 921   NORMALIZED FREE ENERGY PREDICTED BY IDOCK:   -5.32 KCAL/MOL
REMARK 922        TOTAL FREE ENERGY PREDICTED BY IDOCK:   -7.88 KCAL/MOL
REMARK 923 INTER-LIGAND FREE ENERGY PREDICTED BY IDOCK:   -7.79 KCAL/MOL
REMARK 924 INTRA-LIGAND FREE ENERGY PREDICTED BY IDOCK:   -0.09 KCAL/MOL
REMARK 927      BINDING AFFINITY PREDICTED BY RF-SCORE:    0.00 PKD
ROOT
HETATM    1  C   UNL     1      -5.338  20.114  70.583  1.00  0.00    -0.264 C  
HETATM    2  N   UNL     1      -6.104  19.985  69.347  1.00  0.00    -0.295 N  
HETATM    3  C   UNL     1      -7.149  20.973  69.143  1.00  0.00     1.405 C  
HETATM    4  C   UNL     1      -5.968  18.779  68.653  1.00  0.00    -0.210 C  
HETATM    5  O   UNL     1      -5.184  17.929  69.106  1.00  0.00    -0.171 OA 
ENDROOT
BRANCH   4   6
HETATM    6  C   UNL     1      -6.773  18.479  67.297  1.00  0.00    -0.208 C  
BRANCH   6   7
HETATM    7  C   UNL     1      -6.617  16.899  67.093  1.00  0.00    -0.224 C  
BRANCH   7   8
HETATM    8  C   UNL     1      -7.876  16.097  66.714  1.00  0.00    -0.261 C  
BRANCH   8   9
HETATM    9  N   UNL     1      -8.282  15.045  67.671  1.00  0.00    -0.156 NA 
HETATM   10  C   UNL     1      -9.364  15.419  68.592  1.00  0.00    -0.202 C  
HETATM   11  C   UNL     1     -10.739  15.474  67.923  1.00  0.00    -0.294 C  
HETATM   12  C   UNL     1     -11.103  14.113  67.288  1.00  0.00    -0.305 C  
HETATM   13  H   UNL     1     -12.542  13.444  66.153  1.00  0.00     0.000 HD 
HETATM   14  O   UNL     1     -12.319  14.281  66.543  1.00  0.00    -0.445 OA 
HETATM   15  C   UNL     1      -9.972  13.789  66.288  1.00  0.00    -0.312 C  
HETATM   16  C   UNL     1      -8.603  13.785  66.975  1.00  0.00    -0.166 C  
BRANCH  12  17
HETATM   17  C   UNL     1     -11.425  12.993  68.292  1.00  0.00    -0.347 A  
HETATM   18  C   UNL     1     -12.062  13.265  69.519  1.00  0.00    -0.315 A  
HETATM   19  C   UNL     1     -12.388  12.246  70.421  1.00  0.00    -0.309 A  
HETATM   20  C   UNL     1     -12.103  10.925  70.106  1.00  0.00    -0.349 A  
HETATM   21  C   UNL     1     -11.496  10.616  68.895  1.00  0.00    -0.334 A  
HETATM   22 CL   UNL     1     -12.526   9.670  71.202  1.00  0.00    -0.404 Cl 
HETATM   23  C   UNL     1     -11.170  11.640  67.996  1.00  0.00    -0.327 A  
ENDBRANCH  12  17
ENDBRANCH   8   9
ENDBRANCH   7   8
ENDBRANCH   6   7
BRANCH   6  24
HETATM   24  C   UNL     1      -8.284  18.818  67.536  1.00  0.00    -0.278 A  
HETATM   25  C   UNL     1      -9.060  19.373  66.498  1.00  0.00    -0.397 A  
HETATM   26  C   UNL     1      -8.940  18.586  68.758  1.00  0.00    -0.268 A  
HETATM   27  C   UNL     1     -10.399  19.732  66.700  1.00  0.00    -0.614 A  
HETATM   28  C   UNL     1     -11.002  19.533  67.938  1.00  0.00    -0.143 A  
HETATM   29  C   UNL     1     -10.270  18.953  68.965  1.00  0.00    -0.198 A  
ENDBRANCH   6  24
BRANCH   6  30
HETATM   30  C   UNL     1      -6.126  19.201  66.064  1.00  0.00    -0.203 A  
HETATM   31  C   UNL     1      -5.309  21.212  64.928  1.00  0.00    -0.229 A  
HETATM   32  C   UNL     1      -5.917  18.517  64.845  1.00  0.00    -0.194 A  
HETATM   33  C   UNL     1      -5.762  20.560  66.082  1.00  0.00    -0.219 A  
HETATM   34  C   UNL     1      -5.135  20.509  63.742  1.00  0.00    -0.211 A  
HETATM   35  C   UNL     1      -5.416  19.151  63.707  1.00  0.00    -0.339 A  
ENDBRANCH   6  30
ENDBRANCH   4   6
TORSDOF 7
ENDMDL
MODEL       71
REMARK 921   NORMALIZED FREE ENERGY PREDICTED BY IDOCK:   -5.32 KCAL/MOL
REMARK 922        TOTAL FREE ENERGY PREDICTED BY IDOCK:   -7.87 KCAL/MOL
REMARK 923 INTER-LIGAND FREE ENERGY PREDICTED BY IDOCK:   -8.09 KCAL/MOL
REMARK 924 INTRA-LIGAND FREE ENERGY PREDICTED BY IDOCK:    0.22 KCAL/MOL
REMARK 927      BINDING AFFINITY PREDICTED BY RF-SCORE:    0.00 PKD
ROOT
HETATM    1  C   UNL     1      -6.675  13.634  68.236  1.00  0.00    -0.108 C  
HETATM    2  N   UNL     1      -7.816  12.734  68.384  1.00  0.00    -0.137 N  
HETATM    3  C   UNL     1      -7.577  11.532  69.162  1.00  0.00    -0.003 C  
HETATM    4  C   UNL     1      -8.901  12.958  67.532  1.00  0.00    -0.192 C  
HETATM    5  O   UNL     1      -8.839  13.919  66.747  1.00  0.00    -0.224 OA 
ENDROOT
BRANCH   4   6
HETATM    6  C   UNL     1     -10.211  12.031  67.556  1.00  0.00    -0.211 C  
BRANCH   6   7
HETATM    7  C   UNL     1      -9.643  10.562  67.837  1.00  0.00    -0.164 C  
BRANCH   7   8
HETATM    8  C   UNL     1     -10.622   9.379  67.718  1.00  0.00    -0.258 C  
BRANCH   8   9
HETATM    9  N   UNL     1     -10.227   8.308  66.779  1.00  0.00    -0.303 NA 
HETATM   10  C   UNL     1      -8.792   7.988  66.759  1.00  0.00    -0.140 C  
HETATM   11  C   UNL     1      -8.327   7.210  67.990  1.00  0.00    -0.119 C  
HETATM   12  C   UNL     1      -9.107   5.885  68.139  1.00  0.00    -0.117 C  
HETATM   13  H   UNL     1      -9.221   4.474  69.483  1.00  0.00     0.000 HD 
HETATM   14  O   UNL     1      -8.741   5.289  69.393  1.00  0.00    -0.099 OA 
HETATM   15  C   UNL     1     -10.601   6.272  68.214  1.00  0.00    -0.318 C  
HETATM   16  C   UNL     1     -11.028   7.088  66.991  1.00  0.00    -0.287 C  
BRANCH  12  17
HETATM   17  C   UNL     1      -8.766   4.809  67.094  1.00  0.00    -0.103 A  
HETATM   18  C   UNL     1      -7.545   4.106  67.134  1.00  0.00    -0.077 A  
HETATM   19  C   UNL     1      -7.243   3.102  66.207  1.00  0.00    -0.070 A  
HETATM   20  C   UNL     1      -8.167   2.762  65.228  1.00  0.00    -0.091 A  
HETATM   21  C   UNL     1      -9.389   3.419  65.171  1.00  0.00    -0.155 A  
HETATM   22 CL   UNL     1      -7.807   1.512  64.104  1.00  0.00    -0.060 Cl 
HETATM   23  C   UNL     1      -9.687   4.424  66.100  1.00  0.00    -0.220 A  
ENDBRANCH  12  17
ENDBRANCH   8   9
ENDBRANCH   7   8
ENDBRANCH   6   7
BRANCH   6  24
HETATM   24  C   UNL     1     -11.107  12.474  68.763  1.00  0.00    -0.314 A  
HETATM   25  C   UNL     1     -11.208  13.837  69.110  1.00  0.00    -0.307 A  
HETATM   26  C   UNL     1     -11.848  11.569  69.542  1.00  0.00    -0.419 A  
HETATM   27  C   UNL     1     -11.962  14.254  70.215  1.00  0.00    -0.398 A  
HETATM   28  C   UNL     1     -12.643  13.323  70.993  1.00  0.00    -0.408 A  
HETATM   29  C   UNL     1     -12.590  11.980  70.650  1.00  0.00    -0.255 A  
ENDBRANCH   6  24
BRANCH   6  30
HETATM   30  C   UNL     1     -10.941  12.019  66.168  1.00  0.00    -0.343 A  
HETATM   31  C   UNL     1     -11.013  11.505  63.773  1.00  0.00    -0.485 A  
HETATM   32  C   UNL     1     -12.171  12.693  65.985  1.00  0.00    -0.329 A  
HETATM   33  C   UNL     1     -10.406  11.388  65.031  1.00  0.00    -0.342 A  
HETATM   34  C   UNL     1     -12.213  12.191  63.630  1.00  0.00    -0.663 A  
HETATM   35  C   UNL     1     -12.806  12.766  64.744  1.00  0.00    -0.374 A  
ENDBRANCH   6  30
ENDBRANCH   4   6
TORSDOF 7
ENDMDL
MODEL       72
REMARK 921   NORMALIZED FREE ENERGY PREDICTED BY IDOCK:   -5.32 KCAL/MOL
REMARK 922        TOTAL FREE ENERGY PREDICTED BY IDOCK:   -7.87 KCAL/MOL
REMARK 923 INTER-LIGAND FREE ENERGY PREDICTED BY IDOCK:   -8.26 KCAL/MOL
REMARK 924 INTRA-LIGAND FREE ENERGY PREDICTED BY IDOCK:    0.39 KCAL/MOL
REMARK 927      BINDING AFFINITY PREDICTED BY RF-SCORE:    0.00 PKD
ROOT
HETATM    1  C   UNL     1     -12.118  12.208  63.488  1.00  0.00    -0.550 C  
HETATM    2  N   UNL     1     -11.114  12.239  64.549  1.00  0.00    -0.306 N  
HETATM    3  C   UNL     1      -9.872  11.543  64.265  1.00  0.00    -0.244 C  
HETATM    4  C   UNL     1     -11.553  12.654  65.810  1.00  0.00    -0.387 C  
HETATM    5  O   UNL     1     -12.739  13.004  65.930  1.00  0.00    -0.439 OA 
ENDROOT
BRANCH   4   6
HETATM    6  C   UNL     1     -10.573  12.706  67.079  1.00  0.00    -0.255 C  
BRANCH   6   7
HETATM    7  C   UNL     1      -9.709  11.365  66.961  1.00  0.00    -0.210 C  
BRANCH   7   8
HETATM    8  C   UNL     1      -9.022  10.838  68.234  1.00  0.00    -0.143 C  
BRANCH   8   9
HETATM    9  N   UNL     1      -9.105   9.379  68.455  1.00  0.00    -0.128 NA 
HETATM   10  C   UNL     1     -10.152   8.687  67.689  1.00  0.00    -0.213 C  
HETATM   11  C   UNL     1      -9.821   8.540  66.204  1.00  0.00    -0.227 C  
HETATM   12  C   UNL     1      -8.497   7.768  66.003  1.00  0.00    -0.139 C  
HETATM   13  H   UNL     1      -7.350   7.335  64.484  1.00  0.00     0.000 HD 
HETATM   14  O   UNL     1      -8.164   7.810  64.607  1.00  0.00    -0.140 OA 
HETATM   15  C   UNL     1      -7.417   8.560  66.774  1.00  0.00    -0.083 C  
HETATM   16  C   UNL     1      -7.796   8.731  68.248  1.00  0.00    -0.101 C  
BRANCH  12  17
HETATM   17  C   UNL     1      -8.562   6.267  66.332  1.00  0.00    -0.133 A  
HETATM   18  C   UNL     1      -9.731   5.515  66.104  1.00  0.00    -0.147 A  
HETATM   19  C   UNL     1      -9.787   4.142  66.371  1.00  0.00    -0.214 A  
HETATM   20  C   UNL     1      -8.663   3.484  66.852  1.00  0.00    -0.120 A  
HETATM   21  C   UNL     1      -7.486   4.189  67.068  1.00  0.00    -0.077 A  
HETATM   22 CL   UNL     1      -8.722   1.793  67.155  1.00  0.00    -0.115 Cl 
HETATM   23  C   UNL     1      -7.436   5.564  66.802  1.00  0.00    -0.087 A  
ENDBRANCH  12  17
ENDBRANCH   8   9
ENDBRANCH   7   8
ENDBRANCH   6   7
BRANCH   6  24
HETATM   24  C   UNL     1      -9.623  13.943  66.919  1.00  0.00    -0.271 A  
HETATM   25  C   UNL     1     -10.057  15.086  66.217  1.00  0.00    -0.298 A  
HETATM   26  C   UNL     1      -8.325  13.989  67.457  1.00  0.00    -0.200 A  
HETATM   27  C   UNL     1      -9.211  16.183  66.016  1.00  0.00    -0.363 A  
HETATM   28  C   UNL     1      -7.915  16.174  66.522  1.00  0.00    -0.294 A  
HETATM   29  C   UNL     1      -7.476  15.076  67.249  1.00  0.00    -0.215 A  
ENDBRANCH   6  24
BRANCH   6  30
HETATM   30  C   UNL     1     -11.368  12.663  68.431  1.00  0.00    -0.329 A  
HETATM   31  C   UNL     1     -12.167  13.707  70.498  1.00  0.00    -0.438 A  
HETATM   32  C   UNL     1     -11.891  11.447  68.930  1.00  0.00    -0.413 A  
HETATM   33  C   UNL     1     -11.569  13.799  69.234  1.00  0.00    -0.362 A  
HETATM   34  C   UNL     1     -12.651  12.491  70.962  1.00  0.00    -0.350 A  
HETATM   35  C   UNL     1     -12.535  11.362  70.166  1.00  0.00    -0.271 A  
ENDBRANCH   6  30
ENDBRANCH   4   6
TORSDOF 7
ENDMDL
MODEL       73
REMARK 921   NORMALIZED FREE ENERGY PREDICTED BY IDOCK:   -5.31 KCAL/MOL
REMARK 922        TOTAL FREE ENERGY PREDICTED BY IDOCK:   -7.86 KCAL/MOL
REMARK 923 INTER-LIGAND FREE ENERGY PREDICTED BY IDOCK:   -7.12 KCAL/MOL
REMARK 924 INTRA-LIGAND FREE ENERGY PREDICTED BY IDOCK:   -0.73 KCAL/MOL
REMARK 927      BINDING AFFINITY PREDICTED BY RF-SCORE:    0.00 PKD
ROOT
HETATM    1  C   UNL     1      -9.262   5.426  66.629  1.00  0.00    -0.132 C  
HETATM    2  N   UNL     1      -8.839   6.818  66.505  1.00  0.00    -0.138 N  
HETATM    3  C   UNL     1      -7.406   7.050  66.536  1.00  0.00    -0.083 C  
HETATM    4  C   UNL     1      -9.832   7.788  66.677  1.00  0.00    -0.225 C  
HETATM    5  O   UNL     1     -10.996   7.404  66.879  1.00  0.00    -0.324 OA 
ENDROOT
BRANCH   4   6
HETATM    6  C   UNL     1      -9.512   9.359  66.603  1.00  0.00    -0.230 C  
BRANCH   6   7
HETATM    7  C   UNL     1     -10.935  10.057  66.822  1.00  0.00    -0.017 C  
BRANCH   7   8
HETATM    8  C   UNL     1     -11.175  10.796  68.152  1.00  0.00    -0.302 C  
BRANCH   8   9
HETATM    9  N   UNL     1     -11.555  12.220  68.038  1.00  0.00    -0.329 NA 
HETATM   10  C   UNL     1     -10.996  13.103  69.072  1.00  0.00    -0.197 C  
HETATM   11  C   UNL     1      -9.505  13.387  68.886  1.00  0.00     0.186 C  
HETATM   12  C   UNL     1      -9.229  14.033  67.509  1.00  0.00    -0.197 C  
HETATM   13  H   UNL     1      -7.638  14.518  66.488  1.00  0.00     0.000 HD 
HETATM   14  O   UNL     1      -7.807  14.120  67.335  1.00  0.00    -0.178 OA 
HETATM   15  C   UNL     1      -9.779  13.048  66.454  1.00  0.00    -0.268 C  
HETATM   16  C   UNL     1     -11.262  12.746  66.691  1.00  0.00    -0.301 C  
BRANCH  12  17
HETATM   17  C   UNL     1      -9.718  15.484  67.362  1.00  0.00    -0.218 A  
HETATM   18  C   UNL     1     -10.076  16.257  68.484  1.00  0.00    -0.239 A  
HETATM   19  C   UNL     1     -10.490  17.588  68.359  1.00  0.00    -0.372 A  
HETATM   20  C   UNL     1     -10.535  18.185  67.107  1.00  0.00    -0.378 A  
HETATM   21  C   UNL     1     -10.169  17.460  65.980  1.00  0.00    -0.308 A  
HETATM   22 CL   UNL     1     -11.018  19.828  66.955  1.00  0.00    -0.460 Cl 
HETATM   23  C   UNL     1      -9.757  16.127  66.109  1.00  0.00    -0.352 A  
ENDBRANCH  12  17
ENDBRANCH   8   9
ENDBRANCH   7   8
ENDBRANCH   6   7
BRANCH   6  24
HETATM   24  C   UNL     1      -8.571   9.728  67.801  1.00  0.00    -0.125 A  
HETATM   25  C   UNL     1      -8.802   9.181  69.080  1.00  0.00    -0.146 A  
HETATM   26  C   UNL     1      -7.469  10.591  67.674  1.00  0.00    -0.092 A  
HETATM   27  C   UNL     1      -8.007   9.534  70.178  1.00  0.00    -0.171 A  
HETATM   28  C   UNL     1      -6.953  10.429  70.025  1.00  0.00    -0.159 A  
HETATM   29  C   UNL     1      -6.682  10.953  68.769  1.00  0.00    -0.062 A  
ENDBRANCH   6  24
BRANCH   6  30
HETATM   30  C   UNL     1      -8.970   9.776  65.192  1.00  0.00    -0.237 A  
HETATM   31  C   UNL     1      -9.316  10.487  62.873  1.00  0.00    -0.347 A  
HETATM   32  C   UNL     1      -7.598   9.655  64.872  1.00  0.00    -0.117 A  
HETATM   33  C   UNL     1      -9.806  10.247  64.163  1.00  0.00    -0.319 A  
HETATM   34  C   UNL     1      -7.963  10.338  62.593  1.00  0.00    -0.162 A  
HETATM   35  C   UNL     1      -7.097   9.944  63.602  1.00  0.00    -0.121 A  
ENDBRANCH   6  30
ENDBRANCH   4   6
TORSDOF 7
ENDMDL
MODEL       74
REMARK 921   NORMALIZED FREE ENERGY PREDICTED BY IDOCK:   -5.28 KCAL/MOL
REMARK 922        TOTAL FREE ENERGY PREDICTED BY IDOCK:   -7.81 KCAL/MOL
REMARK 923 INTER-LIGAND FREE ENERGY PREDICTED BY IDOCK:   -7.75 KCAL/MOL
REMARK 924 INTRA-LIGAND FREE ENERGY PREDICTED BY IDOCK:   -0.06 KCAL/MOL
REMARK 927      BINDING AFFINITY PREDICTED BY RF-SCORE:    0.00 PKD
ROOT
HETATM    1  C   UNL     1      -6.624  14.179  67.918  1.00  0.00    -0.165 C  
HETATM    2  N   UNL     1      -7.671  13.183  68.125  1.00  0.00    -0.131 N  
HETATM    3  C   UNL     1      -7.289  12.013  68.897  1.00  0.00    -0.067 C  
HETATM    4  C   UNL     1      -8.811  13.300  67.323  1.00  0.00    -0.216 C  
HETATM    5  O   UNL     1      -8.872  14.255  66.531  1.00  0.00    -0.187 OA 
ENDROOT
BRANCH   4   6
HETATM    6  C   UNL     1     -10.029  12.261  67.415  1.00  0.00    -0.205 C  
BRANCH   6   7
HETATM    7  C   UNL     1      -9.325  10.863  67.747  1.00  0.00    -0.162 C  
BRANCH   7   8
HETATM    8  C   UNL     1     -10.121   9.574  67.470  1.00  0.00    -0.204 C  
BRANCH   8   9
HETATM    9  N   UNL     1      -9.872   8.451  68.399  1.00  0.00    -0.171 NA 
HETATM   10  C   UNL     1     -10.752   7.287  68.225  1.00  0.00    -0.123 C  
HETATM   11  C   UNL     1     -10.424   6.457  66.983  1.00  0.00    -0.349 C  
HETATM   12  C   UNL     1      -8.965   5.949  67.023  1.00  0.00    -0.116 C  
HETATM   13  H   UNL     1      -7.780   5.011  65.788  1.00  0.00     0.000 HD 
HETATM   14  O   UNL     1      -8.677   5.324  65.763  1.00  0.00    -0.132 OA 
HETATM   15  C   UNL     1      -8.076   7.205  67.147  1.00  0.00    -0.114 C  
HETATM   16  C   UNL     1      -8.455   8.040  68.373  1.00  0.00    -0.127 C  
BRANCH  12  17
HETATM   17  C   UNL     1      -8.688   4.850  68.063  1.00  0.00    -0.107 A  
HETATM   18  C   UNL     1      -9.718   4.023  68.553  1.00  0.00    -0.134 A  
HETATM   19  C   UNL     1      -9.466   3.000  69.474  1.00  0.00    -0.173 A  
HETATM   20  C   UNL     1      -8.170   2.766  69.911  1.00  0.00    -0.040 A  
HETATM   21  C   UNL     1      -7.125   3.547  69.433  1.00  0.00    -0.042 A  
HETATM   22 CL   UNL     1      -7.856   1.493  71.023  1.00  0.00    -0.035 Cl 
HETATM   23  C   UNL     1      -7.382   4.571  68.513  1.00  0.00    -0.061 A  
ENDBRANCH  12  17
ENDBRANCH   8   9
ENDBRANCH   7   8
ENDBRANCH   6   7
BRANCH   6  24
HETATM   24  C   UNL     1     -10.941  12.674  68.620  1.00  0.00    -0.292 A  
HETATM   25  C   UNL     1     -11.025  14.024  69.018  1.00  0.00    -0.287 A  
HETATM   26  C   UNL     1     -11.714  11.753  69.350  1.00  0.00    -0.405 A  
HETATM   27  C   UNL     1     -11.793  14.412  70.123  1.00  0.00    -0.380 A  
HETATM   28  C   UNL     1     -12.507  13.466  70.851  1.00  0.00    -0.439 A  
HETATM   29  C   UNL     1     -12.471  12.136  70.458  1.00  0.00    -0.282 A  
ENDBRANCH   6  24
BRANCH   6  30
HETATM   30  C   UNL     1     -10.779  12.121  66.044  1.00  0.00    -0.308 A  
HETATM   31  C   UNL     1     -10.814  11.616  63.647  1.00  0.00    -0.503 A  
HETATM   32  C   UNL     1     -12.117  12.554  65.897  1.00  0.00    -0.420 A  
HETATM   33  C   UNL     1     -10.164  11.607  64.888  1.00  0.00    -0.315 A  
HETATM   34  C   UNL     1     -12.124  12.068  63.539  1.00  0.00    -0.628 A  
HETATM   35  C   UNL     1     -12.786  12.515  64.672  1.00  0.00    -0.434 A  
ENDBRANCH   6  30
ENDBRANCH   4   6
TORSDOF 7
ENDMDL
MODEL       75
REMARK 921   NORMALIZED FREE ENERGY PREDICTED BY IDOCK:   -5.28 KCAL/MOL
REMARK 922        TOTAL FREE ENERGY PREDICTED BY IDOCK:   -7.81 KCAL/MOL
REMARK 923 INTER-LIGAND FREE ENERGY PREDICTED BY IDOCK:   -7.87 KCAL/MOL
REMARK 924 INTRA-LIGAND FREE ENERGY PREDICTED BY IDOCK:    0.06 KCAL/MOL
REMARK 927      BINDING AFFINITY PREDICTED BY RF-SCORE:    0.00 PKD
ROOT
HETATM    1  C   UNL     1      -9.157  18.750  66.790  1.00  0.00    -0.312 C  
HETATM    2  N   UNL     1      -9.047  17.300  66.927  1.00  0.00    -0.229 N  
HETATM    3  C   UNL     1      -7.929  16.682  66.237  1.00  0.00    -0.305 C  
HETATM    4  C   UNL     1     -10.169  16.635  67.432  1.00  0.00    -0.286 C  
HETATM    5  O   UNL     1     -11.152  17.317  67.765  1.00  0.00    -0.257 OA 
ENDROOT
BRANCH   4   6
HETATM    6  C   UNL     1     -10.208  15.041  67.607  1.00  0.00    -0.236 C  
BRANCH   6   7
HETATM    7  C   UNL     1      -8.667  14.618  67.676  1.00  0.00    -0.181 C  
BRANCH   7   8
HETATM    8  C   UNL     1      -8.307  13.340  68.457  1.00  0.00    -0.075 C  
BRANCH   8   9
HETATM    9  N   UNL     1      -8.596  12.063  67.770  1.00  0.00    -0.149 NA 
HETATM   10  C   UNL     1      -7.520  11.560  66.904  1.00  0.00    -0.145 C  
HETATM   11  C   UNL     1      -6.335  10.984  67.680  1.00  0.00    -0.060 C  
HETATM   12  C   UNL     1      -6.782   9.828  68.603  1.00  0.00    -0.051 C  
HETATM   13  H   UNL     1      -5.937   8.737  69.983  1.00  0.00     0.000 HD 
HETATM   14  O   UNL     1      -5.662   9.448  69.416  1.00  0.00    -0.035 OA 
HETATM   15  C   UNL     1      -7.868  10.415  69.531  1.00  0.00    -0.161 C  
HETATM   16  C   UNL     1      -9.020  11.025  68.728  1.00  0.00    -0.149 C  
BRANCH  12  17
HETATM   17  C   UNL     1      -7.180   8.532  67.876  1.00  0.00    -0.088 A  
HETATM   18  C   UNL     1      -6.591   8.166  66.649  1.00  0.00    -0.056 A  
HETATM   19  C   UNL     1      -6.924   6.972  66.000  1.00  0.00    -0.065 A  
HETATM   20  C   UNL     1      -7.841   6.104  66.575  1.00  0.00    -0.104 A  
HETATM   21  C   UNL     1      -8.426   6.421  67.794  1.00  0.00    -0.117 A  
HETATM   22 CL   UNL     1      -8.232   4.624  65.791  1.00  0.00    -0.110 Cl 
HETATM   23  C   UNL     1      -8.091   7.618  68.440  1.00  0.00    -0.124 A  
ENDBRANCH  12  17
ENDBRANCH   8   9
ENDBRANCH   7   8
ENDBRANCH   6   7
BRANCH   6  24
HETATM   24  C   UNL     1     -10.892  14.712  68.978  1.00  0.00    -0.252 A  
HETATM   25  C   UNL     1     -11.659  13.538  69.126  1.00  0.00    -0.359 A  
HETATM   26  C   UNL     1     -10.777  15.536  70.111  1.00  0.00    -0.345 A  
HETATM   27  C   UNL     1     -12.321  13.246  70.325  1.00  0.00    -0.334 A  
HETATM   28  C   UNL     1     -12.224  14.110  71.411  1.00  0.00    -0.383 A  
HETATM   29  C   UNL     1     -11.444  15.253  71.303  1.00  0.00    -0.431 A  
ENDBRANCH   6  24
BRANCH   6  30
HETATM   30  C   UNL     1     -10.857  14.335  66.365  1.00  0.00    -0.307 A  
HETATM   31  C   UNL     1     -12.782  13.371  65.195  1.00  0.00    -0.459 A  
HETATM   32  C   UNL     1     -10.059  13.838  65.309  1.00  0.00    -0.312 A  
HETATM   33  C   UNL     1     -12.242  14.119  66.249  1.00  0.00    -0.474 A  
HETATM   34  C   UNL     1     -11.962  12.882  64.185  1.00  0.00    -0.491 A  
HETATM   35  C   UNL     1     -10.600  13.137  64.230  1.00  0.00    -0.432 A  
ENDBRANCH   6  30
ENDBRANCH   4   6
TORSDOF 7
ENDMDL
MODEL       76
REMARK 921   NORMALIZED FREE ENERGY PREDICTED BY IDOCK:   -5.26 KCAL/MOL
REMARK 922        TOTAL FREE ENERGY PREDICTED BY IDOCK:   -7.79 KCAL/MOL
REMARK 923 INTER-LIGAND FREE ENERGY PREDICTED BY IDOCK:   -7.69 KCAL/MOL
REMARK 924 INTRA-LIGAND FREE ENERGY PREDICTED BY IDOCK:   -0.09 KCAL/MOL
REMARK 927      BINDING AFFINITY PREDICTED BY RF-SCORE:    0.00 PKD
ROOT
HETATM    1  C   UNL     1      -5.434   7.427  63.508  1.00  0.00    -0.034 C  
HETATM    2  N   UNL     1      -6.193   7.863  64.677  1.00  0.00    -0.048 N  
HETATM    3  C   UNL     1      -5.679   7.428  65.964  1.00  0.00    -0.036 C  
HETATM    4  C   UNL     1      -7.471   8.376  64.435  1.00  0.00    -0.104 C  
HETATM    5  O   UNL     1      -7.851   8.464  63.255  1.00  0.00    -0.136 OA 
ENDROOT
BRANCH   4   6
HETATM    6  C   UNL     1      -8.434   8.863  65.622  1.00  0.00    -0.171 C  
BRANCH   6   7
HETATM    7  C   UNL     1      -9.460   9.862  64.906  1.00  0.00    -0.355 C  
BRANCH   7   8
HETATM    8  C   UNL     1     -10.233  10.854  65.794  1.00  0.00    -0.259 C  
BRANCH   8   9
HETATM    9  N   UNL     1      -9.961  12.286  65.548  1.00  0.00    -0.253 NA 
HETATM   10  C   UNL     1     -11.139  13.101  65.219  1.00  0.00    -0.283 C  
HETATM   11  C   UNL     1     -12.039  13.381  66.423  1.00  0.00    -0.464 C  
HETATM   12  C   UNL     1     -11.259  14.104  67.544  1.00  0.00    -0.306 C  
HETATM   13  H   UNL     1     -11.631  14.633  69.386  1.00  0.00     0.000 HD 
HETATM   14  O   UNL     1     -12.111  14.188  68.697  1.00  0.00    -0.343 OA 
HETATM   15  C   UNL     1     -10.067  13.188  67.897  1.00  0.00    -0.232 C  
HETATM   16  C   UNL     1      -9.209  12.887  66.665  1.00  0.00    -0.221 C  
BRANCH  12  17
HETATM   17  C   UNL     1     -10.889  15.566  67.240  1.00  0.00    -0.313 A  
HETATM   18  C   UNL     1     -10.664  16.009  65.921  1.00  0.00    -0.287 A  
HETATM   19  C   UNL     1     -10.360  17.345  65.635  1.00  0.00    -0.161 A  
HETATM   20  C   UNL     1     -10.294  18.275  66.663  1.00  0.00    -0.381 A  
HETATM   21  C   UNL     1     -10.531  17.879  67.973  1.00  0.00    -0.390 A  
HETATM   22 CL   UNL     1      -9.945  19.921  66.310  1.00  0.00    -0.556 Cl 
HETATM   23  C   UNL     1     -10.833  16.541  68.255  1.00  0.00    -0.352 A  
ENDBRANCH  12  17
ENDBRANCH   8   9
ENDBRANCH   7   8
ENDBRANCH   6   7
BRANCH   6  24
HETATM   24  C   UNL     1      -9.221   7.620  66.160  1.00  0.00    -0.168 A  
HETATM   25  C   UNL     1     -10.382   7.797  66.940  1.00  0.00    -0.396 A  
HETATM   26  C   UNL     1      -8.836   6.294  65.896  1.00  0.00    -0.148 A  
HETATM   27  C   UNL     1     -11.075   6.703  67.475  1.00  0.00    -0.374 A  
HETATM   28  C   UNL     1     -10.636   5.405  67.234  1.00  0.00    -0.250 A  
HETATM   29  C   UNL     1      -9.517   5.202  66.437  1.00  0.00    -0.158 A  
ENDBRANCH   6  24
BRANCH   6  30
HETATM   30  C   UNL     1      -7.649   9.665  66.717  1.00  0.00    -0.098 A  
HETATM   31  C   UNL     1      -7.258  10.320  69.045  1.00  0.00    -0.080 A  
HETATM   32  C   UNL     1      -6.689  10.640  66.359  1.00  0.00    -0.124 A  
HETATM   33  C   UNL     1      -7.878   9.498  68.094  1.00  0.00    -0.083 A  
HETATM   34  C   UNL     1      -6.335  11.281  68.652  1.00  0.00    -0.045 A  
HETATM   35  C   UNL     1      -6.031  11.425  67.307  1.00  0.00    -0.081 A  
ENDBRANCH   6  30
ENDBRANCH   4   6
TORSDOF 7
ENDMDL
MODEL       77
REMARK 921   NORMALIZED FREE ENERGY PREDICTED BY IDOCK:   -5.25 KCAL/MOL
REMARK 922        TOTAL FREE ENERGY PREDICTED BY IDOCK:   -7.77 KCAL/MOL
REMARK 923 INTER-LIGAND FREE ENERGY PREDICTED BY IDOCK:   -7.82 KCAL/MOL
REMARK 924 INTRA-LIGAND FREE ENERGY PREDICTED BY IDOCK:    0.05 KCAL/MOL
REMARK 927      BINDING AFFINITY PREDICTED BY RF-SCORE:    0.00 PKD
ROOT
HETATM    1  C   UNL     1     -11.123  11.343  64.388  1.00  0.00    -0.259 C  
HETATM    2  N   UNL     1     -10.332  11.799  65.527  1.00  0.00    -0.252 N  
HETATM    3  C   UNL     1      -8.929  11.424  65.515  1.00  0.00    -0.088 C  
HETATM    4  C   UNL     1     -11.046  12.270  66.634  1.00  0.00    -0.297 C  
HETATM    5  O   UNL     1     -12.285  12.307  66.557  1.00  0.00    -0.588 OA 
ENDROOT
BRANCH   4   6
HETATM    6  C   UNL     1     -10.314  12.774  67.970  1.00  0.00    -0.232 C  
BRANCH   6   7
HETATM    7  C   UNL     1      -9.507  11.489  68.480  1.00  0.00    -0.175 C  
BRANCH   7   8
HETATM    8  C   UNL     1     -10.293  10.181  68.681  1.00  0.00    -0.188 C  
BRANCH   8   9
HETATM    9  N   UNL     1      -9.971   9.418  69.906  1.00  0.00    -0.197 NA 
HETATM   10  C   UNL     1     -11.003   8.464  70.339  1.00  0.00    -0.239 C  
HETATM   11  C   UNL     1     -11.078   7.212  69.465  1.00  0.00    -0.170 C  
HETATM   12  C   UNL     1      -9.723   6.469  69.440  1.00  0.00    -0.146 C  
HETATM   13  H   UNL     1      -8.982   4.949  68.464  1.00  0.00     0.000 HD 
HETATM   14  O   UNL     1      -9.815   5.406  68.479  1.00  0.00    -0.130 OA 
HETATM   15  C   UNL     1      -8.683   7.488  68.925  1.00  0.00    -0.132 C  
HETATM   16  C   UNL     1      -8.661   8.750  69.791  1.00  0.00    -0.131 C  
BRANCH  12  17
HETATM   17  C   UNL     1      -9.345   5.761  70.752  1.00  0.00    -0.189 A  
HETATM   18  C   UNL     1     -10.139   4.726  71.285  1.00  0.00    -0.258 A  
HETATM   19  C   UNL     1      -9.783   4.056  72.461  1.00  0.00    -0.206 A  
HETATM   20  C   UNL     1      -8.609   4.391  73.121  1.00  0.00    -0.101 A  
HETATM   21  C   UNL     1      -7.790   5.392  72.613  1.00  0.00    -0.102 A  
HETATM   22 CL   UNL     1      -8.158   3.551  74.551  1.00  0.00    -0.079 Cl 
HETATM   23  C   UNL     1      -8.151   6.062  71.437  1.00  0.00    -0.115 A  
ENDBRANCH  12  17
ENDBRANCH   8   9
ENDBRANCH   7   8
ENDBRANCH   6   7
BRANCH   6  24
HETATM   24  C   UNL     1      -9.295  13.898  67.581  1.00  0.00    -0.205 A  
HETATM   25  C   UNL     1      -9.647  14.879  66.631  1.00  0.00    -0.284 A  
HETATM   26  C   UNL     1      -8.011  14.000  68.145  1.00  0.00    -0.149 A  
HETATM   27  C   UNL     1      -8.736  15.864  66.228  1.00  0.00    -0.372 A  
HETATM   28  C   UNL     1      -7.457  15.905  66.773  1.00  0.00    -0.184 A  
HETATM   29  C   UNL     1      -7.098  14.974  67.737  1.00  0.00    -0.189 A  
ENDBRANCH   6  24
BRANCH   6  30
HETATM   30  C   UNL     1     -11.345  13.180  69.080  1.00  0.00    -0.335 A  
HETATM   31  C   UNL     1     -12.612  14.859  70.336  1.00  0.00    -0.394 A  
HETATM   32  C   UNL     1     -11.843  12.226  69.997  1.00  0.00    -0.372 A  
HETATM   33  C   UNL     1     -11.795  14.501  69.256  1.00  0.00    -0.361 A  
HETATM   34  C   UNL     1     -13.066  13.895  71.228  1.00  0.00    -0.385 A  
HETATM   35  C   UNL     1     -12.700  12.570  71.043  1.00  0.00    -0.316 A  
ENDBRANCH   6  30
ENDBRANCH   4   6
TORSDOF 7
ENDMDL
MODEL       78
REMARK 921   NORMALIZED FREE ENERGY PREDICTED BY IDOCK:   -5.23 KCAL/MOL
REMARK 922        TOTAL FREE ENERGY PREDICTED BY IDOCK:   -7.74 KCAL/MOL
REMARK 923 INTER-LIGAND FREE ENERGY PREDICTED BY IDOCK:   -8.67 KCAL/MOL
REMARK 924 INTRA-LIGAND FREE ENERGY PREDICTED BY IDOCK:    0.93 KCAL/MOL
REMARK 927      BINDING AFFINITY PREDICTED BY RF-SCORE:    0.00 PKD
ROOT
HETATM    1  C   UNL     1      -9.498  20.678  67.221  1.00  0.00    -0.379 C  
HETATM    2  N   UNL     1      -9.744  19.252  67.021  1.00  0.00    -0.315 N  
HETATM    3  C   UNL     1     -10.776  18.917  66.056  1.00  0.00    -0.301 C  
HETATM    4  C   UNL     1      -9.199  18.386  67.974  1.00  0.00    -0.293 C  
HETATM    5  O   UNL     1      -8.517  18.878  68.889  1.00  0.00    -0.318 OA 
ENDROOT
BRANCH   4   6
HETATM    6  C   UNL     1      -9.414  16.797  67.905  1.00  0.00    -0.230 C  
BRANCH   6   7
HETATM    7  C   UNL     1      -9.804  16.523  66.377  1.00  0.00    -0.311 C  
BRANCH   7   8
HETATM    8  C   UNL     1     -10.640  15.269  66.065  1.00  0.00    -0.319 C  
BRANCH   8   9
HETATM    9  N   UNL     1      -9.881  14.087  65.604  1.00  0.00    -0.268 NA 
HETATM   10  C   UNL     1      -9.171  13.347  66.658  1.00  0.00    -0.214 C  
HETATM   11  C   UNL     1     -10.099  12.522  67.551  1.00  0.00    -0.207 C  
HETATM   12  C   UNL     1     -10.910  11.503  66.719  1.00  0.00    -0.282 C  
HETATM   13  H   UNL     1     -12.368  10.256  67.075  1.00  0.00     0.000 HD 
HETATM   14  O   UNL     1     -11.870  10.883  67.587  1.00  0.00    -0.572 OA 
HETATM   15  C   UNL     1     -11.682  12.326  65.664  1.00  0.00    -0.440 C  
HETATM   16  C   UNL     1     -10.733  13.177  64.815  1.00  0.00    -0.364 C  
BRANCH  12  17
HETATM   17  C   UNL     1     -10.094  10.327  66.155  1.00  0.00    -0.307 A  
HETATM   18  C   UNL     1      -9.887   9.150  66.902  1.00  0.00    -0.280 A  
HETATM   19  C   UNL     1      -9.174   8.064  66.382  1.00  0.00    -0.245 A  
HETATM   20  C   UNL     1      -8.668   8.122  65.091  1.00  0.00    -0.012 A  
HETATM   21  C   UNL     1      -8.870   9.258  64.317  1.00  0.00    -0.185 A  
HETATM   22 CL   UNL     1      -7.814   6.779  64.442  1.00  0.00    -0.113 Cl 
HETATM   23  C   UNL     1      -9.583  10.344  64.842  1.00  0.00    -0.348 A  
ENDBRANCH  12  17
ENDBRANCH   8   9
ENDBRANCH   7   8
ENDBRANCH   6   7
BRANCH   6  24
HETATM   24  C   UNL     1      -8.045  16.101  68.217  1.00  0.00    -0.153 A  
HETATM   25  C   UNL     1      -6.968  16.213  67.314  1.00  0.00    -0.234 A  
HETATM   26  C   UNL     1      -7.812  15.353  69.384  1.00  0.00    -0.232 A  
HETATM   27  C   UNL     1      -5.751  15.559  67.544  1.00  0.00    -0.055 A  
HETATM   28  C   UNL     1      -5.573  14.787  68.688  1.00  0.00    -0.093 A  
HETATM   29  C   UNL     1      -6.605  14.691  69.611  1.00  0.00    -0.155 A  
ENDBRANCH   6  24
BRANCH   6  30
HETATM   30  C   UNL     1     -10.607  16.332  68.810  1.00  0.00    -0.298 A  
HETATM   31  C   UNL     1     -11.738  16.179  70.978  1.00  0.00    -0.407 A  
HETATM   32  C   UNL     1     -11.600  15.456  68.313  1.00  0.00    -0.361 A  
HETATM   33  C   UNL     1     -10.736  16.714  70.157  1.00  0.00    -0.090 A  
HETATM   34  C   UNL     1     -12.685  15.305  70.457  1.00  0.00    -0.440 A  
HETATM   35  C   UNL     1     -12.630  14.962  69.115  1.00  0.00     0.151 A  
ENDBRANCH   6  30
ENDBRANCH   4   6
TORSDOF 7
ENDMDL
MODEL       79
REMARK 921   NORMALIZED FREE ENERGY PREDICTED BY IDOCK:   -5.19 KCAL/MOL
REMARK 922        TOTAL FREE ENERGY PREDICTED BY IDOCK:   -7.69 KCAL/MOL
REMARK 923 INTER-LIGAND FREE ENERGY PREDICTED BY IDOCK:   -7.72 KCAL/MOL
REMARK 924 INTRA-LIGAND FREE ENERGY PREDICTED BY IDOCK:    0.03 KCAL/MOL
REMARK 927      BINDING AFFINITY PREDICTED BY RF-SCORE:    0.00 PKD
ROOT
HETATM    1  C   UNL     1      -6.476  11.916  68.531  1.00  0.00    -0.057 C  
HETATM    2  N   UNL     1      -7.200  10.901  67.771  1.00  0.00    -0.089 N  
HETATM    3  C   UNL     1      -6.515   9.632  67.597  1.00  0.00    -0.061 C  
HETATM    4  C   UNL     1      -8.310  11.340  67.044  1.00  0.00    -0.153 C  
HETATM    5  O   UNL     1      -8.626  12.539  67.127  1.00  0.00    -0.188 OA 
ENDROOT
BRANCH   4   6
HETATM    6  C   UNL     1      -9.183  10.346  66.136  1.00  0.00    -0.199 C  
BRANCH   6   7
HETATM    7  C   UNL     1      -9.802   9.305  67.182  1.00  0.00    -0.251 C  
BRANCH   7   8
HETATM    8  C   UNL     1      -9.797   9.695  68.672  1.00  0.00    -0.161 C  
BRANCH   8   9
HETATM    9  N   UNL     1      -9.295   8.664  69.606  1.00  0.00    -0.160 NA 
HETATM   10  C   UNL     1      -9.675   8.855  71.013  1.00  0.00    -0.252 C  
HETATM   11  C   UNL     1     -11.142   8.531  71.295  1.00  0.00    -0.320 C  
HETATM   12  C   UNL     1     -11.475   7.073  70.906  1.00  0.00    -0.308 C  
HETATM   13  H   UNL     1     -13.096   5.991  70.801  1.00  0.00     0.000 HD 
HETATM   14  O   UNL     1     -12.892   6.888  71.040  1.00  0.00    -0.333 OA 
HETATM   15  C   UNL     1     -11.116   6.935  69.410  1.00  0.00    -0.249 C  
HETATM   16  C   UNL     1      -9.654   7.308  69.149  1.00  0.00    -0.155 C  
BRANCH  12  17
HETATM   17  C   UNL     1     -10.864   6.000  71.823  1.00  0.00    -0.312 A  
HETATM   18  C   UNL     1     -10.880   6.135  73.225  1.00  0.00    -0.268 A  
HETATM   19  C   UNL     1     -10.356   5.147  74.067  1.00  0.00    -0.299 A  
HETATM   20  C   UNL     1      -9.822   3.986  73.523  1.00  0.00    -0.118 A  
HETATM   21  C   UNL     1      -9.810   3.808  72.145  1.00  0.00    -0.238 A  
HETATM   22 CL   UNL     1      -9.202   2.760  74.556  1.00  0.00    -0.095 Cl 
HETATM   23  C   UNL     1     -10.333   4.801  71.307  1.00  0.00    -0.184 A  
ENDBRANCH  12  17
ENDBRANCH   8   9
ENDBRANCH   7   8
ENDBRANCH   6   7
BRANCH   6  24
HETATM   24  C   UNL     1     -10.347  11.168  65.484  1.00  0.00    -0.326 A  
HETATM   25  C   UNL     1     -10.469  11.237  64.081  1.00  0.00    -0.431 A  
HETATM   26  C   UNL     1     -11.316  11.857  66.235  1.00  0.00    -0.394 A  
HETATM   27  C   UNL     1     -11.469  12.006  63.472  1.00  0.00    -0.536 A  
HETATM   28  C   UNL     1     -12.382  12.714  64.248  1.00  0.00    -0.517 A  
HETATM   29  C   UNL     1     -12.307  12.633  65.631  1.00  0.00    -0.390 A  
ENDBRANCH   6  24
BRANCH   6  30
HETATM   30  C   UNL     1      -8.291   9.553  65.119  1.00  0.00    -0.148 A  
HETATM   31  C   UNL     1      -6.658   9.464  63.295  1.00  0.00    -0.093 A  
HETATM   32  C   UNL     1      -8.433   8.155  64.961  1.00  0.00    -0.117 A  
HETATM   33  C   UNL     1      -7.346  10.177  64.286  1.00  0.00    -0.110 A  
HETATM   34  C   UNL     1      -6.838   8.093  63.159  1.00  0.00    -0.085 A  
HETATM   35  C   UNL     1      -7.710   7.432  64.010  1.00  0.00    -0.121 A  
ENDBRANCH   6  30
ENDBRANCH   4   6
TORSDOF 7
ENDMDL
MODEL       80
REMARK 921   NORMALIZED FREE ENERGY PREDICTED BY IDOCK:   -5.18 KCAL/MOL
REMARK 922        TOTAL FREE ENERGY PREDICTED BY IDOCK:   -7.67 KCAL/MOL
REMARK 923 INTER-LIGAND FREE ENERGY PREDICTED BY IDOCK:   -8.10 KCAL/MOL
REMARK 924 INTRA-LIGAND FREE ENERGY PREDICTED BY IDOCK:    0.42 KCAL/MOL
REMARK 927      BINDING AFFINITY PREDICTED BY RF-SCORE:    0.00 PKD
ROOT
HETATM    1  C   UNL     1      -6.742   8.038  65.407  1.00  0.00    -0.055 C  
HETATM    2  N   UNL     1      -7.282   9.181  66.139  1.00  0.00    -0.089 N  
HETATM    3  C   UNL     1      -6.472   9.668  67.242  1.00  0.00    -0.069 C  
HETATM    4  C   UNL     1      -8.627   9.488  65.910  1.00  0.00    -0.132 C  
HETATM    5  O   UNL     1      -9.250   8.803  65.082  1.00  0.00    -0.122 OA 
ENDROOT
BRANCH   4   6
HETATM    6  C   UNL     1      -9.368  10.694  66.667  1.00  0.00    -0.189 C  
BRANCH   6   7
HETATM    7  C   UNL     1      -8.188  11.717  67.017  1.00  0.00    -0.170 C  
BRANCH   7   8
HETATM    8  C   UNL     1      -8.274  12.481  68.351  1.00  0.00    -0.136 C  
BRANCH   8   9
HETATM    9  N   UNL     1      -8.111  13.948  68.265  1.00  0.00    -0.142 NA 
HETATM   10  C   UNL     1      -8.424  14.537  66.955  1.00  0.00    -0.196 C  
HETATM   11  C   UNL     1      -9.922  14.591  66.655  1.00  0.00    -0.276 C  
HETATM   12  C   UNL     1     -10.677  15.400  67.734  1.00  0.00    -0.289 C  
HETATM   13  H   UNL     1     -12.549  15.770  68.147  1.00  0.00     0.000 HD 
HETATM   14  O   UNL     1     -12.085  15.272  67.484  1.00  0.00    -0.033 OA 
HETATM   15  C   UNL     1     -10.368  14.713  69.082  1.00  0.00    -0.222 C  
HETATM   16  C   UNL     1      -8.860  14.633  69.336  1.00  0.00     0.128 C  
BRANCH  12  17
HETATM   17  C   UNL     1     -10.424  16.917  67.704  1.00  0.00    -0.332 A  
HETATM   18  C   UNL     1     -10.054  17.624  68.865  1.00  0.00    -0.351 A  
HETATM   19  C   UNL     1      -9.790  18.999  68.837  1.00  0.00    -0.464 A  
HETATM   20  C   UNL     1      -9.869  19.695  67.639  1.00  0.00    -0.376 A  
HETATM   21  C   UNL     1     -10.210  19.027  66.470  1.00  0.00    -0.487 A  
HETATM   22 CL   UNL     1      -9.520  21.378  67.600  1.00  0.00    -0.016 Cl 
HETATM   23  C   UNL     1     -10.476  17.652  66.503  1.00  0.00    -0.283 A  
ENDBRANCH  12  17
ENDBRANCH   8   9
ENDBRANCH   7   8
ENDBRANCH   6   7
BRANCH   6  24
HETATM   24  C   UNL     1     -10.354  11.376  65.658  1.00  0.00    -0.307 A  
HETATM   25  C   UNL     1     -11.604  11.856  66.101  1.00  0.00    -0.299 A  
HETATM   26  C   UNL     1     -10.058  11.554  64.296  1.00  0.00    -0.338 A  
HETATM   27  C   UNL     1     -12.524  12.424  65.211  1.00  0.00    -0.256 A  
HETATM   28  C   UNL     1     -12.216  12.540  63.860  1.00  0.00    -0.590 A  
HETATM   29  C   UNL     1     -10.978  12.110  63.404  1.00  0.00    -0.480 A  
ENDBRANCH   6  24
BRANCH   6  30
HETATM   30  C   UNL     1     -10.026  10.222  68.010  1.00  0.00    -0.177 A  
HETATM   31  C   UNL     1     -10.596   8.481  69.637  1.00  0.00    -0.221 A  
HETATM   32  C   UNL     1     -10.835  11.096  68.772  1.00  0.00    -0.256 A  
HETATM   33  C   UNL     1      -9.891   8.912  68.506  1.00  0.00    -0.182 A  
HETATM   34  C   UNL     1     -11.397   9.365  70.349  1.00  0.00    -0.295 A  
HETATM   35  C   UNL     1     -11.497  10.683  69.929  1.00  0.00    -0.393 A  
ENDBRANCH   6  30
ENDBRANCH   4   6
TORSDOF 7
ENDMDL
MODEL       81
REMARK 921   NORMALIZED FREE ENERGY PREDICTED BY IDOCK:   -5.17 KCAL/MOL
REMARK 922        TOTAL FREE ENERGY PREDICTED BY IDOCK:   -7.67 KCAL/MOL
REMARK 923 INTER-LIGAND FREE ENERGY PREDICTED BY IDOCK:   -7.73 KCAL/MOL
REMARK 924 INTRA-LIGAND FREE ENERGY PREDICTED BY IDOCK:    0.07 KCAL/MOL
REMARK 927      BINDING AFFINITY PREDICTED BY RF-SCORE:    0.00 PKD
ROOT
HETATM    1  C   UNL     1     -12.266  12.593  65.554  1.00  0.00    -0.440 C  
HETATM    2  N   UNL     1     -11.422  11.802  66.445  1.00  0.00    -0.304 N  
HETATM    3  C   UNL     1     -11.990  11.490  67.744  1.00  0.00    -0.025 C  
HETATM    4  C   UNL     1     -10.073  11.691  66.090  1.00  0.00    -0.224 C  
HETATM    5  O   UNL     1      -9.700  12.230  65.035  1.00  0.00    -0.185 OA 
ENDROOT
BRANCH   4   6
HETATM    6  C   UNL     1      -9.019  10.882  66.989  1.00  0.00    -0.148 C  
BRANCH   6   7
HETATM    7  C   UNL     1      -8.830  11.798  68.288  1.00  0.00    -0.172 C  
BRANCH   7   8
HETATM    8  C   UNL     1      -9.442  13.211  68.264  1.00  0.00    -0.210 C  
BRANCH   8   9
HETATM    9  N   UNL     1      -8.481  14.330  68.367  1.00  0.00    -0.162 NA 
HETATM   10  C   UNL     1      -7.944  14.816  67.088  1.00  0.00    -0.174 C  
HETATM   11  C   UNL     1      -8.952  15.631  66.277  1.00  0.00    -0.377 C  
HETATM   12  C   UNL     1      -9.452  16.854  67.078  1.00  0.00    -0.244 C  
HETATM   13  H   UNL     1     -10.815  18.228  66.822  1.00  0.00     0.000 HD 
HETATM   14  O   UNL     1     -10.508  17.476  66.330  1.00  0.00    -0.341 OA 
HETATM   15  C   UNL     1     -10.058  16.294  68.383  1.00  0.00    -0.237 C  
HETATM   16  C   UNL     1      -9.042  15.446  69.153  1.00  0.00    -0.243 C  
BRANCH  12  17
HETATM   17  C   UNL     1      -8.415  17.973  67.270  1.00  0.00    -0.237 A  
HETATM   18  C   UNL     1      -8.293  18.662  68.493  1.00  0.00    -0.369 A  
HETATM   19  C   UNL     1      -7.329  19.658  68.685  1.00  0.00    -0.375 A  
HETATM   20  C   UNL     1      -6.447  19.975  67.661  1.00  0.00    -0.224 A  
HETATM   21  C   UNL     1      -6.523  19.301  66.448  1.00  0.00    -0.201 A  
HETATM   22 CL   UNL     1      -5.246  21.180  67.904  1.00  0.00    -0.310 Cl 
HETATM   23  C   UNL     1      -7.491  18.306  66.260  1.00  0.00    -0.295 A  
ENDBRANCH  12  17
ENDBRANCH   8   9
ENDBRANCH   7   8
ENDBRANCH   6   7
BRANCH   6  24
HETATM   24  C   UNL     1      -9.672   9.522  67.412  1.00  0.00    -0.201 A  
HETATM   25  C   UNL     1      -9.867   9.221  68.776  1.00  0.00    -0.174 A  
HETATM   26  C   UNL     1     -10.100   8.554  66.486  1.00  0.00    -0.328 A  
HETATM   27  C   UNL     1     -10.402   7.992  69.182  1.00  0.00    -0.226 A  
HETATM   28  C   UNL     1     -10.769   7.038  68.238  1.00  0.00    -0.231 A  
HETATM   29  C   UNL     1     -10.623   7.324  66.888  1.00  0.00    -0.375 A  
ENDBRANCH   6  24
BRANCH   6  30
HETATM   30  C   UNL     1      -7.629  10.747  66.275  1.00  0.00    -0.142 A  
HETATM   31  C   UNL     1      -5.279  11.382  65.993  1.00  0.00    -0.008 A  
HETATM   32  C   UNL     1      -7.483   9.969  65.104  1.00  0.00    -0.139 A  
HETATM   33  C   UNL     1      -6.474  11.414  66.723  1.00  0.00    -0.140 A  
HETATM   34  C   UNL     1      -5.181  10.620  64.835  1.00  0.00    -0.151 A  
HETATM   35  C   UNL     1      -6.278   9.892  64.402  1.00  0.00    -0.122 A  
ENDBRANCH   6  30
ENDBRANCH   4   6
TORSDOF 7
ENDMDL
MODEL       82
REMARK 921   NORMALIZED FREE ENERGY PREDICTED BY IDOCK:   -5.17 KCAL/MOL
REMARK 922        TOTAL FREE ENERGY PREDICTED BY IDOCK:   -7.66 KCAL/MOL
REMARK 923 INTER-LIGAND FREE ENERGY PREDICTED BY IDOCK:   -7.49 KCAL/MOL
REMARK 924 INTRA-LIGAND FREE ENERGY PREDICTED BY IDOCK:   -0.18 KCAL/MOL
REMARK 927      BINDING AFFINITY PREDICTED BY RF-SCORE:    0.00 PKD
ROOT
HETATM    1  C   UNL     1      -7.874  15.860  69.199  1.00  0.00    -0.227 C  
HETATM    2  N   UNL     1      -8.932  14.987  68.697  1.00  0.00    -0.179 N  
HETATM    3  C   UNL     1     -10.217  15.102  69.364  1.00  0.00    -0.240 C  
HETATM    4  C   UNL     1      -8.532  13.941  67.860  1.00  0.00    -0.177 C  
HETATM    5  O   UNL     1      -7.327  13.852  67.571  1.00  0.00    -0.167 OA 
ENDROOT
BRANCH   4   6
HETATM    6  C   UNL     1      -9.577  12.882  67.260  1.00  0.00    -0.220 C  
BRANCH   6   7
HETATM    7  C   UNL     1     -10.361  12.337  68.544  1.00  0.00    -0.234 C  
BRANCH   7   8
HETATM    8  C   UNL     1     -10.618  10.822  68.638  1.00  0.00    -0.199 C  
BRANCH   8   9
HETATM    9  N   UNL     1      -9.915  10.115  69.730  1.00  0.00    -0.235 NA 
HETATM   10  C   UNL     1     -10.767   9.676  70.844  1.00  0.00    -0.332 C  
HETATM   11  C   UNL     1     -11.642   8.470  70.500  1.00  0.00    -0.145 C  
HETATM   12  C   UNL     1     -10.781   7.266  70.057  1.00  0.00    -0.245 C  
HETATM   13  H   UNL     1     -11.134   5.492  69.323  1.00  0.00     0.000 HD 
HETATM   14  O   UNL     1     -11.664   6.233  69.595  1.00  0.00    -0.382 OA 
HETATM   15  C   UNL     1      -9.947   7.755  68.852  1.00  0.00    -0.185 C  
HETATM   16  C   UNL     1      -9.116   8.989  69.211  1.00  0.00    -0.145 C  
BRANCH  12  17
HETATM   17  C   UNL     1      -9.970   6.598  71.180  1.00  0.00    -0.198 A  
HETATM   18  C   UNL     1      -8.622   6.232  70.997  1.00  0.00    -0.132 A  
HETATM   19  C   UNL     1      -7.870   5.653  72.026  1.00  0.00    -0.106 A  
HETATM   20  C   UNL     1      -8.444   5.447  73.272  1.00  0.00    -0.117 A  
HETATM   21  C   UNL     1      -9.765   5.816  73.496  1.00  0.00    -0.159 A  
HETATM   22 CL   UNL     1      -7.513   4.761  74.544  1.00  0.00    -0.084 Cl 
HETATM   23  C   UNL     1     -10.515   6.393  72.463  1.00  0.00    -0.225 A  
ENDBRANCH  12  17
ENDBRANCH   8   9
ENDBRANCH   7   8
ENDBRANCH   6   7
BRANCH   6  24
HETATM   24  C   UNL     1     -10.582  13.651  66.335  1.00  0.00    -0.284 A  
HETATM   25  C   UNL     1     -11.952  13.320  66.345  1.00  0.00    -0.465 A  
HETATM   26  C   UNL     1     -10.191  14.691  65.474  1.00  0.00    -0.395 A  
HETATM   27  C   UNL     1     -12.863  13.957  65.492  1.00  0.00    -0.471 A  
HETATM   28  C   UNL     1     -12.431  14.949  64.617  1.00  0.00    -0.188 A  
HETATM   29  C   UNL     1     -11.093  15.320  64.614  1.00  0.00    -0.346 A  
ENDBRANCH   6  24
BRANCH   6  30
HETATM   30  C   UNL     1      -8.851  11.672  66.575  1.00  0.00    -0.188 A  
HETATM   31  C   UNL     1      -8.810   9.787  65.011  1.00  0.00    -0.224 A  
HETATM   32  C   UNL     1      -7.589  11.226  67.031  1.00  0.00    -0.143 A  
HETATM   33  C   UNL     1      -9.420  10.943  65.516  1.00  0.00    -0.249 A  
HETATM   34  C   UNL     1      -7.577   9.369  65.499  1.00  0.00    -0.099 A  
HETATM   35  C   UNL     1      -6.954  10.105  66.495  1.00  0.00    -0.102 A  
ENDBRANCH   6  30
ENDBRANCH   4   6
TORSDOF 7
ENDMDL
MODEL       83
REMARK 921   NORMALIZED FREE ENERGY PREDICTED BY IDOCK:   -5.16 KCAL/MOL
REMARK 922        TOTAL FREE ENERGY PREDICTED BY IDOCK:   -7.65 KCAL/MOL
REMARK 923 INTER-LIGAND FREE ENERGY PREDICTED BY IDOCK:   -7.36 KCAL/MOL
REMARK 924 INTRA-LIGAND FREE ENERGY PREDICTED BY IDOCK:   -0.29 KCAL/MOL
REMARK 927      BINDING AFFINITY PREDICTED BY RF-SCORE:    0.00 PKD
ROOT
HETATM    1  C   UNL     1     -10.363   7.664  69.344  1.00  0.00    -0.214 C  
HETATM    2  N   UNL     1     -10.127   8.431  68.124  1.00  0.00    -0.193 N  
HETATM    3  C   UNL     1     -10.605   7.827  66.893  1.00  0.00    -0.277 C  
HETATM    4  C   UNL     1      -9.219   9.490  68.219  1.00  0.00    -0.130 C  
HETATM    5  O   UNL     1      -8.714   9.728  69.329  1.00  0.00    -0.140 OA 
ENDROOT
BRANCH   4   6
HETATM    6  C   UNL     1      -8.833  10.400  66.956  1.00  0.00    -0.143 C  
BRANCH   6   7
HETATM    7  C   UNL     1      -7.740  11.420  67.528  1.00  0.00    -0.125 C  
BRANCH   7   8
HETATM    8  C   UNL     1      -8.238  12.600  68.383  1.00  0.00    -0.129 C  
BRANCH   8   9
HETATM    9  N   UNL     1      -7.651  13.919  68.064  1.00  0.00    -0.127 NA 
HETATM   10  C   UNL     1      -8.155  14.551  66.837  1.00  0.00     0.020 C  
HETATM   11  C   UNL     1      -9.571  15.110  66.980  1.00  0.00    -0.235 C  
HETATM   12  C   UNL     1      -9.644  16.154  68.116  1.00  0.00    -0.217 C  
HETATM   13  H   UNL     1     -11.066  17.156  69.003  1.00  0.00     0.000 HD 
HETATM   14  O   UNL     1     -11.022  16.513  68.304  1.00  0.00    -0.337 OA 
HETATM   15  C   UNL     1      -9.162  15.433  69.394  1.00  0.00    -0.268 C  
HETATM   16  C   UNL     1      -7.761  14.844  69.208  1.00  0.00    -0.166 C  
BRANCH  12  17
HETATM   17  C   UNL     1      -8.942  17.490  67.819  1.00  0.00    -0.245 A  
HETATM   18  C   UNL     1      -7.814  17.907  68.553  1.00  0.00    -0.301 A  
HETATM   19  C   UNL     1      -7.150  19.106  68.265  1.00  0.00    -0.305 A  
HETATM   20  C   UNL     1      -7.589  19.906  67.219  1.00  0.00    -0.271 A  
HETATM   21  C   UNL     1      -8.685  19.516  66.460  1.00  0.00    -0.388 A  
HETATM   22 CL   UNL     1      -6.759  21.365  66.848  1.00  0.00    -0.300 Cl 
HETATM   23  C   UNL     1      -9.347  18.317  66.753  1.00  0.00    -0.295 A  
ENDBRANCH  12  17
ENDBRANCH   8   9
ENDBRANCH   7   8
ENDBRANCH   6   7
BRANCH   6  24
HETATM   24  C   UNL     1      -8.163   9.485  65.875  1.00  0.00    -0.115 A  
HETATM   25  C   UNL     1      -7.017   8.729  66.196  1.00  0.00    -0.081 A  
HETATM   26  C   UNL     1      -8.654   9.360  64.563  1.00  0.00    -0.219 A  
HETATM   27  C   UNL     1      -6.369   7.942  65.234  1.00  0.00    -0.041 A  
HETATM   28  C   UNL     1      -6.856   7.880  63.932  1.00  0.00    -0.062 A  
HETATM   29  C   UNL     1      -8.004   8.586  63.600  1.00  0.00    -0.161 A  
ENDBRANCH   6  24
BRANCH   6  30
HETATM   30  C   UNL     1     -10.060  11.231  66.441  1.00  0.00    -0.260 A  
HETATM   31  C   UNL     1     -11.230  12.495  64.699  1.00  0.00    -0.353 A  
HETATM   32  C   UNL     1     -11.082  11.646  67.325  1.00  0.00    -0.346 A  
HETATM   33  C   UNL     1     -10.194  11.643  65.103  1.00  0.00    -0.319 A  
HETATM   34  C   UNL     1     -12.206  12.897  65.602  1.00  0.00    -0.519 A  
HETATM   35  C   UNL     1     -12.145  12.452  66.914  1.00  0.00    -0.097 A  
ENDBRANCH   6  30
ENDBRANCH   4   6
TORSDOF 7
ENDMDL
MODEL       84
REMARK 921   NORMALIZED FREE ENERGY PREDICTED BY IDOCK:   -5.15 KCAL/MOL
REMARK 922        TOTAL FREE ENERGY PREDICTED BY IDOCK:   -7.63 KCAL/MOL
REMARK 923 INTER-LIGAND FREE ENERGY PREDICTED BY IDOCK:   -7.46 KCAL/MOL
REMARK 924 INTRA-LIGAND FREE ENERGY PREDICTED BY IDOCK:   -0.16 KCAL/MOL
REMARK 927      BINDING AFFINITY PREDICTED BY RF-SCORE:    0.00 PKD
ROOT
HETATM    1  C   UNL     1     -10.506  20.189  68.624  1.00  0.00    -0.055 C  
HETATM    2  N   UNL     1      -9.583  19.633  67.639  1.00  0.00    -0.330 N  
HETATM    3  C   UNL     1      -9.933  19.855  66.247  1.00  0.00    -0.486 C  
HETATM    4  C   UNL     1      -8.651  18.704  68.112  1.00  0.00    -0.307 C  
HETATM    5  O   UNL     1      -8.644  18.451  69.328  1.00  0.00     0.033 OA 
ENDROOT
BRANCH   4   6
HETATM    6  C   UNL     1      -7.596  17.984  67.142  1.00  0.00    -0.226 C  
BRANCH   6   7
HETATM    7  C   UNL     1      -8.508  17.230  66.065  1.00  0.00    -0.136 C  
BRANCH   7   8
HETATM    8  C   UNL     1      -9.489  16.160  66.579  1.00  0.00    -0.264 C  
BRANCH   8   9
HETATM    9  N   UNL     1      -9.070  14.755  66.383  1.00  0.00    -0.262 NA 
HETATM   10  C   UNL     1      -8.679  14.042  67.607  1.00  0.00    -0.189 C  
HETATM   11  C   UNL     1      -9.865  13.664  68.496  1.00  0.00    -0.196 C  
HETATM   12  C   UNL     1     -10.874  12.778  67.731  1.00  0.00    -0.225 C  
HETATM   13  H   UNL     1     -12.650  12.055  68.091  1.00  0.00     0.000 HD 
HETATM   14  O   UNL     1     -12.030  12.600  68.562  1.00  0.00    -0.305 OA 
HETATM   15  C   UNL     1     -11.301  13.589  66.487  1.00  0.00    -0.340 C  
HETATM   16  C   UNL     1     -10.090  13.992  65.640  1.00  0.00    -0.322 C  
BRANCH  12  17
HETATM   17  C   UNL     1     -10.392  11.347  67.440  1.00  0.00    -0.232 A  
HETATM   18  C   UNL     1      -9.916  10.508  68.467  1.00  0.00    -0.181 A  
HETATM   19  C   UNL     1      -9.507   9.193  68.214  1.00  0.00    -0.152 A  
HETATM   20  C   UNL     1      -9.586   8.679  66.928  1.00  0.00    -0.194 A  
HETATM   21  C   UNL     1     -10.071   9.470  65.894  1.00  0.00    -0.284 A  
HETATM   22 CL   UNL     1      -9.109   7.056  66.621  1.00  0.00    -0.163 Cl 
HETATM   23  C   UNL     1     -10.477  10.786  66.151  1.00  0.00    -0.278 A  
ENDBRANCH  12  17
ENDBRANCH   8   9
ENDBRANCH   7   8
ENDBRANCH   6   7
BRANCH   6  24
HETATM   24  C   UNL     1      -6.756  19.091  66.417  1.00  0.00    -0.223 A  
HETATM   25  C   UNL     1      -6.306  20.222  67.129  1.00  0.00    -0.239 A  
HETATM   26  C   UNL     1      -6.404  19.021  65.058  1.00  0.00    -0.283 A  
HETATM   27  C   UNL     1      -5.598  21.250  66.493  1.00  0.00    -0.319 A  
HETATM   28  C   UNL     1      -5.310  21.169  65.134  1.00  0.00    -0.227 A  
HETATM   29  C   UNL     1      -5.709  20.049  64.419  1.00  0.00    -0.274 A  
ENDBRANCH   6  24
BRANCH   6  30
HETATM   30  C   UNL     1      -6.743  16.910  67.904  1.00  0.00    -0.155 A  
HETATM   31  C   UNL     1      -5.132  15.065  67.940  1.00  0.00    -0.090 A  
HETATM   32  C   UNL     1      -6.937  16.670  69.283  1.00  0.00    -0.225 A  
HETATM   33  C   UNL     1      -5.783  16.105  67.264  1.00  0.00    -0.108 A  
HETATM   34  C   UNL     1      -5.364  14.848  69.292  1.00  0.00    -0.090 A  
HETATM   35  C   UNL     1      -6.251  15.668  69.972  1.00  0.00    -0.135 A  
ENDBRANCH   6  30
ENDBRANCH   4   6
TORSDOF 7
ENDMDL
MODEL       85
REMARK 921   NORMALIZED FREE ENERGY PREDICTED BY IDOCK:   -5.11 KCAL/MOL
REMARK 922        TOTAL FREE ENERGY PREDICTED BY IDOCK:   -7.57 KCAL/MOL
REMARK 923 INTER-LIGAND FREE ENERGY PREDICTED BY IDOCK:   -7.40 KCAL/MOL
REMARK 924 INTRA-LIGAND FREE ENERGY PREDICTED BY IDOCK:   -0.17 KCAL/MOL
REMARK 927      BINDING AFFINITY PREDICTED BY RF-SCORE:    0.00 PKD
ROOT
HETATM    1  C   UNL     1      -9.931   4.987  68.845  1.00  0.00    -0.166 C  
HETATM    2  N   UNL     1      -9.930   6.219  68.061  1.00  0.00    -0.130 N  
HETATM    3  C   UNL     1     -11.035   6.380  67.133  1.00  0.00    -0.399 C  
HETATM    4  C   UNL     1      -8.740   6.953  68.055  1.00  0.00    -0.125 C  
HETATM    5  O   UNL     1      -7.792   6.534  68.741  1.00  0.00    -0.106 OA 
ENDROOT
BRANCH   4   6
HETATM    6  C   UNL     1      -8.577   8.308  67.212  1.00  0.00    -0.124 C  
BRANCH   6   7
HETATM    7  C   UNL     1     -10.003   9.023  67.346  1.00  0.00    -0.266 C  
BRANCH   7   8
HETATM    8  C   UNL     1     -10.301  10.210  66.411  1.00  0.00    -0.188 C  
BRANCH   8   9
HETATM    9  N   UNL     1      -9.859  11.536  66.893  1.00  0.00    -0.195 NA 
HETATM   10  C   UNL     1      -9.548  12.514  65.841  1.00  0.00    -0.168 C  
HETATM   11  C   UNL     1     -10.790  13.076  65.148  1.00  0.00    -0.320 C  
HETATM   12  C   UNL     1     -11.736  13.754  66.164  1.00  0.00    -0.370 C  
HETATM   13  H   UNL     1     -13.527  14.527  66.104  1.00  0.00     0.000 HD 
HETATM   14  O   UNL     1     -12.946  14.109  65.479  1.00  0.00    -0.657 OA 
HETATM   15  C   UNL     1     -12.081  12.677  67.216  1.00  0.00    -0.184 C  
HETATM   16  C   UNL     1     -10.818  12.101  67.861  1.00  0.00    -0.217 C  
BRANCH  12  17
HETATM   17  C   UNL     1     -11.223  15.085  66.741  1.00  0.00    -0.322 A  
HETATM   18  C   UNL     1     -10.605  16.052  65.923  1.00  0.00    -0.338 A  
HETATM   19  C   UNL     1     -10.167  17.278  66.436  1.00  0.00    -0.333 A  
HETATM   20  C   UNL     1     -10.358  17.576  67.778  1.00  0.00    -0.367 A  
HETATM   21  C   UNL     1     -10.983  16.656  68.610  1.00  0.00    -0.328 A  
HETATM   22 CL   UNL     1      -9.843  19.093  68.403  1.00  0.00    -0.440 Cl 
HETATM   23  C   UNL     1     -11.419  15.429  68.093  1.00  0.00    -0.352 A  
ENDBRANCH  12  17
ENDBRANCH   8   9
ENDBRANCH   7   8
ENDBRANCH   6   7
BRANCH   6  24
HETATM   24  C   UNL     1      -7.492   9.196  67.911  1.00  0.00    -0.084 A  
HETATM   25  C   UNL     1      -7.788   9.863  69.118  1.00  0.00    -0.105 A  
HETATM   26  C   UNL     1      -6.194   9.369  67.399  1.00  0.00    -0.061 A  
HETATM   27  C   UNL     1      -6.853  10.702  69.736  1.00  0.00    -0.143 A  
HETATM   28  C   UNL     1      -5.594  10.888  69.174  1.00  0.00    -0.040 A  
HETATM   29  C   UNL     1      -5.264  10.214  68.006  1.00  0.00    -0.035 A  
ENDBRANCH   6  24
BRANCH   6  30
HETATM   30  C   UNL     1      -8.310   8.021  65.694  1.00  0.00    -0.146 A  
HETATM   31  C   UNL     1      -7.535   6.572  63.877  1.00  0.00    -0.085 A  
HETATM   32  C   UNL     1      -8.438   9.043  64.725  1.00  0.00    -0.197 A  
HETATM   33  C   UNL     1      -7.893   6.765  65.217  1.00  0.00    -0.121 A  
HETATM   34  C   UNL     1      -7.656   7.607  62.958  1.00  0.00    -0.119 A  
HETATM   35  C   UNL     1      -8.132   8.840  63.378  1.00  0.00    -0.170 A  
ENDBRANCH   6  30
ENDBRANCH   4   6
TORSDOF 7
ENDMDL
MODEL       86
REMARK 921   NORMALIZED FREE ENERGY PREDICTED BY IDOCK:   -5.09 KCAL/MOL
REMARK 922        TOTAL FREE ENERGY PREDICTED BY IDOCK:   -7.55 KCAL/MOL
REMARK 923 INTER-LIGAND FREE ENERGY PREDICTED BY IDOCK:   -7.76 KCAL/MOL
REMARK 924 INTRA-LIGAND FREE ENERGY PREDICTED BY IDOCK:    0.21 KCAL/MOL
REMARK 927      BINDING AFFINITY PREDICTED BY RF-SCORE:    0.00 PKD
ROOT
HETATM    1  C   UNL     1     -11.860  12.012  63.489  1.00  0.00    -0.492 C  
HETATM    2  N   UNL     1     -11.606  12.448  64.860  1.00  0.00    -0.331 N  
HETATM    3  C   UNL     1     -12.650  13.251  65.472  1.00  0.00    -0.446 C  
HETATM    4  C   UNL     1     -10.294  12.316  65.323  1.00  0.00    -0.281 C  
HETATM    5  O   UNL     1      -9.454  11.806  64.562  1.00  0.00    -0.116 OA 
ENDROOT
BRANCH   4   6
HETATM    6  C   UNL     1      -9.857  12.782  66.795  1.00  0.00    -0.242 C  
BRANCH   6   7
HETATM    7  C   UNL     1     -10.882  12.025  67.763  1.00  0.00    -0.256 C  
BRANCH   7   8
HETATM    8  C   UNL     1     -10.819  10.488  67.815  1.00  0.00    -0.294 C  
BRANCH   8   9
HETATM    9  N   UNL     1      -9.928   9.914  68.846  1.00  0.00    -0.173 NA 
HETATM   10  C   UNL     1     -10.387  10.078  70.233  1.00  0.00    -0.242 C  
HETATM   11  C   UNL     1     -11.556   9.162  70.598  1.00  0.00    -0.282 C  
HETATM   12  C   UNL     1     -11.184   7.676  70.392  1.00  0.00    -0.244 C  
HETATM   13  H   UNL     1     -12.138   5.975  70.467  1.00  0.00     0.000 HD 
HETATM   14  O   UNL     1     -12.367   6.889  70.593  1.00  0.00    -0.348 OA 
HETATM   15  C   UNL     1     -10.765   7.539  68.912  1.00  0.00    -0.135 C  
HETATM   16  C   UNL     1      -9.624   8.498  68.563  1.00  0.00    -0.151 C  
BRANCH  12  17
HETATM   17  C   UNL     1     -10.177   7.112  71.408  1.00  0.00    -0.203 A  
HETATM   18  C   UNL     1      -9.694   5.792  71.310  1.00  0.00    -0.210 A  
HETATM   19  C   UNL     1      -8.753   5.282  72.212  1.00  0.00    -0.129 A  
HETATM   20  C   UNL     1      -8.254   6.092  73.223  1.00  0.00    -0.113 A  
HETATM   21  C   UNL     1      -8.690   7.406  73.338  1.00  0.00    -0.202 A  
HETATM   22 CL   UNL     1      -7.078   5.476  74.315  1.00  0.00    -0.081 Cl 
HETATM   23  C   UNL     1      -9.634   7.911  72.434  1.00  0.00    -0.270 A  
ENDBRANCH  12  17
ENDBRANCH   8   9
ENDBRANCH   7   8
ENDBRANCH   6   7
BRANCH   6  24
HETATM   24  C   UNL     1      -8.408  12.254  67.070  1.00  0.00    -0.168 A  
HETATM   25  C   UNL     1      -7.940  11.093  66.422  1.00  0.00    -0.147 A  
HETATM   26  C   UNL     1      -7.511  12.892  67.944  1.00  0.00    -0.131 A  
HETATM   27  C   UNL     1      -6.667  10.572  66.688  1.00  0.00    -0.099 A  
HETATM   28  C   UNL     1      -5.824  11.203  67.597  1.00  0.00    -0.048 A  
HETATM   29  C   UNL     1      -6.247  12.369  68.220  1.00  0.00    -0.056 A  
ENDBRANCH   6  24
BRANCH   6  30
HETATM   30  C   UNL     1     -10.041  14.327  66.994  1.00  0.00    -0.260 A  
HETATM   31  C   UNL     1     -10.987  16.251  68.179  1.00  0.00    -0.343 A  
HETATM   32  C   UNL     1      -9.556  15.248  66.037  1.00  0.00    -0.372 A  
HETATM   33  C   UNL     1     -10.723  14.878  68.094  1.00  0.00    -0.251 A  
HETATM   34  C   UNL     1     -10.510  17.123  67.208  1.00  0.00    -0.313 A  
HETATM   35  C   UNL     1      -9.772  16.623  66.146  1.00  0.00    -0.329 A  
ENDBRANCH   6  30
ENDBRANCH   4   6
TORSDOF 7
ENDMDL
MODEL       87
REMARK 921   NORMALIZED FREE ENERGY PREDICTED BY IDOCK:   -5.08 KCAL/MOL
REMARK 922        TOTAL FREE ENERGY PREDICTED BY IDOCK:   -7.53 KCAL/MOL
REMARK 923 INTER-LIGAND FREE ENERGY PREDICTED BY IDOCK:   -8.28 KCAL/MOL
REMARK 924 INTRA-LIGAND FREE ENERGY PREDICTED BY IDOCK:    0.75 KCAL/MOL
REMARK 927      BINDING AFFINITY PREDICTED BY RF-SCORE:    0.00 PKD
ROOT
HETATM    1  C   UNL     1     -11.995  14.876  64.615  1.00  0.00    -0.401 C  
HETATM    2  N   UNL     1     -11.619  14.070  65.773  1.00  0.00    -0.330 N  
HETATM    3  C   UNL     1     -12.231  12.757  65.857  1.00  0.00    -0.359 C  
HETATM    4  C   UNL     1     -10.970  14.741  66.814  1.00  0.00    -0.327 C  
HETATM    5  O   UNL     1     -10.724  15.950  66.667  1.00  0.00    -0.316 OA 
ENDROOT
BRANCH   4   6
HETATM    6  C   UNL     1     -10.526  13.996  68.164  1.00  0.00    -0.243 C  
BRANCH   6   7
HETATM    7  C   UNL     1     -10.948  12.471  67.924  1.00  0.00    -0.262 C  
BRANCH   7   8
HETATM    8  C   UNL     1     -10.887  11.511  69.127  1.00  0.00    -0.195 C  
BRANCH   8   9
HETATM    9  N   UNL     1     -11.007  10.072  68.809  1.00  0.00    -0.220 NA 
HETATM   10  C   UNL     1      -9.942   9.527  67.956  1.00  0.00    -0.167 C  
HETATM   11  C   UNL     1      -8.609   9.352  68.685  1.00  0.00    -0.123 C  
HETATM   12  C   UNL     1      -8.763   8.420  69.908  1.00  0.00    -0.136 C  
HETATM   13  H   UNL     1      -7.620   7.858  71.387  1.00  0.00     0.000 HD 
HETATM   14  O   UNL     1      -7.525   8.432  70.635  1.00  0.00    -0.058 OA 
HETATM   15  C   UNL     1      -9.847   9.060  70.803  1.00  0.00    -0.304 C  
HETATM   16  C   UNL     1     -11.156   9.265  70.035  1.00  0.00    -0.205 C  
BRANCH  12  17
HETATM   17  C   UNL     1      -8.990   6.937  69.571  1.00  0.00    -0.143 A  
HETATM   18  C   UNL     1      -8.338   6.322  68.484  1.00  0.00    -0.115 A  
HETATM   19  C   UNL     1      -8.515   4.964  68.192  1.00  0.00    -0.102 A  
HETATM   20  C   UNL     1      -9.333   4.184  68.996  1.00  0.00    -0.165 A  
HETATM   21  C   UNL     1      -9.975   4.751  70.090  1.00  0.00    -0.321 A  
HETATM   22 CL   UNL     1      -9.530   2.511  68.654  1.00  0.00    -0.241 Cl 
HETATM   23  C   UNL     1      -9.797   6.110  70.377  1.00  0.00    -0.214 A  
ENDBRANCH  12  17
ENDBRANCH   8   9
ENDBRANCH   7   8
ENDBRANCH   6   7
BRANCH   6  24
HETATM   24  C   UNL     1      -8.967  14.082  68.286  1.00  0.00    -0.190 A  
HETATM   25  C   UNL     1      -8.146  13.221  67.529  1.00  0.00    -0.187 A  
HETATM   26  C   UNL     1      -8.311  15.002  69.124  1.00  0.00    -0.187 A  
HETATM   27  C   UNL     1      -6.751  13.244  67.657  1.00  0.00    -0.171 A  
HETATM   28  C   UNL     1      -6.139  14.135  68.533  1.00  0.00    -0.091 A  
HETATM   29  C   UNL     1      -6.923  15.019  69.262  1.00  0.00    -0.156 A  
ENDBRANCH   6  24
BRANCH   6  30
HETATM   30  C   UNL     1     -11.312  14.533  69.411  1.00  0.00    -0.314 A  
HETATM   31  C   UNL     1     -13.278  14.564  70.872  1.00  0.00    -0.373 A  
HETATM   32  C   UNL     1     -10.839  15.644  70.147  1.00  0.00    -0.356 A  
HETATM   33  C   UNL     1     -12.533  13.982  69.838  1.00  0.00    -0.301 A  
HETATM   34  C   UNL     1     -12.788  15.668  71.560  1.00  0.00    -0.538 A  
HETATM   35  C   UNL     1     -11.554  16.195  71.212  1.00  0.00    -0.470 A  
ENDBRANCH   6  30
ENDBRANCH   4   6
TORSDOF 7
ENDMDL
MODEL       88
REMARK 921   NORMALIZED FREE ENERGY PREDICTED BY IDOCK:   -5.03 KCAL/MOL
REMARK 922        TOTAL FREE ENERGY PREDICTED BY IDOCK:   -7.46 KCAL/MOL
REMARK 923 INTER-LIGAND FREE ENERGY PREDICTED BY IDOCK:   -8.15 KCAL/MOL
REMARK 924 INTRA-LIGAND FREE ENERGY PREDICTED BY IDOCK:    0.68 KCAL/MOL
REMARK 927      BINDING AFFINITY PREDICTED BY RF-SCORE:    0.00 PKD
ROOT
HETATM    1  C   UNL     1     -10.840   6.429  67.564  1.00  0.00    -0.354 C  
HETATM    2  N   UNL     1     -10.536   7.177  68.781  1.00  0.00    -0.199 N  
HETATM    3  C   UNL     1     -10.695   6.450  70.028  1.00  0.00    -0.259 C  
HETATM    4  C   UNL     1     -10.425   8.565  68.648  1.00  0.00    -0.169 C  
HETATM    5  O   UNL     1     -10.550   9.055  67.513  1.00  0.00    -0.265 OA 
ENDROOT
BRANCH   4   6
HETATM    6  C   UNL     1     -10.128   9.521  69.902  1.00  0.00    -0.262 C  
BRANCH   6   7
HETATM    7  C   UNL     1      -9.539  10.855  69.243  1.00  0.00    -0.067 C  
BRANCH   7   8
HETATM    8  C   UNL     1     -10.399  11.574  68.187  1.00  0.00    -0.195 C  
BRANCH   8   9
HETATM    9  N   UNL     1      -9.861  12.856  67.682  1.00  0.00    -0.207 NA 
HETATM   10  C   UNL     1     -10.775  13.626  66.827  1.00  0.00    -0.272 C  
HETATM   11  C   UNL     1     -11.909  14.299  67.602  1.00  0.00    -0.420 C  
HETATM   12  C   UNL     1     -11.354  15.251  68.685  1.00  0.00    -0.317 C  
HETATM   13  H   UNL     1     -12.117  16.303  70.142  1.00  0.00     0.000 HD 
HETATM   14  O   UNL     1     -12.458  15.717  69.476  1.00  0.00    -0.199 OA 
HETATM   15  C   UNL     1     -10.449  14.390  69.592  1.00  0.00     0.042 C  
HETATM   16  C   UNL     1      -9.350  13.693  68.784  1.00  0.00     0.038 C  
BRANCH  12  17
HETATM   17  C   UNL     1     -10.703  16.537  68.149  1.00  0.00    -0.343 A  
HETATM   18  C   UNL     1     -10.645  16.811  66.768  1.00  0.00    -0.203 A  
HETATM   19  C   UNL     1     -10.083  17.995  66.275  1.00  0.00    -0.363 A  
HETATM   20  C   UNL     1      -9.586  18.945  67.157  1.00  0.00    -0.306 A  
HETATM   21  C   UNL     1      -9.646  18.718  68.526  1.00  0.00    -0.413 A  
HETATM   22 CL   UNL     1      -8.920  20.411  66.555  1.00  0.00    -0.296 Cl 
HETATM   23  C   UNL     1     -10.207  17.531  69.015  1.00  0.00    -0.314 A  
ENDBRANCH  12  17
ENDBRANCH   8   9
ENDBRANCH   7   8
ENDBRANCH   6   7
BRANCH   6  24
HETATM   24  C   UNL     1     -11.490   9.854  70.602  1.00  0.00    -0.411 A  
HETATM   25  C   UNL     1     -11.832  11.191  70.891  1.00  0.00    -0.237 A  
HETATM   26  C   UNL     1     -12.428   8.871  70.964  1.00  0.00    -0.181 A  
HETATM   27  C   UNL     1     -13.020  11.511  71.562  1.00  0.00    -0.485 A  
HETATM   28  C   UNL     1     -13.902  10.507  71.948  1.00  0.00     0.089 A  
HETATM   29  C   UNL     1     -13.606   9.186  71.642  1.00  0.00    -0.451 A  
ENDBRANCH   6  24
BRANCH   6  30
HETATM   30  C   UNL     1      -9.035   8.915  70.849  1.00  0.00    -0.273 A  
HETATM   31  C   UNL     1      -8.288   8.100  73.036  1.00  0.00    -0.260 A  
HETATM   32  C   UNL     1      -7.693   8.784  70.424  1.00  0.00    -0.091 A  
HETATM   33  C   UNL     1      -9.308   8.514  72.169  1.00  0.00    -0.353 A  
HETATM   34  C   UNL     1      -6.977   8.003  72.586  1.00  0.00    -0.100 A  
HETATM   35  C   UNL     1      -6.682   8.322  71.269  1.00  0.00    -0.050 A  
ENDBRANCH   6  30
ENDBRANCH   4   6
TORSDOF 7
ENDMDL
MODEL       89
REMARK 921   NORMALIZED FREE ENERGY PREDICTED BY IDOCK:   -5.02 KCAL/MOL
REMARK 922        TOTAL FREE ENERGY PREDICTED BY IDOCK:   -7.45 KCAL/MOL
REMARK 923 INTER-LIGAND FREE ENERGY PREDICTED BY IDOCK:   -7.40 KCAL/MOL
REMARK 924 INTRA-LIGAND FREE ENERGY PREDICTED BY IDOCK:   -0.05 KCAL/MOL
REMARK 927      BINDING AFFINITY PREDICTED BY RF-SCORE:    0.00 PKD
ROOT
HETATM    1  C   UNL     1      -7.100  15.956  67.441  1.00  0.00    -0.197 C  
HETATM    2  N   UNL     1      -8.054  14.912  67.806  1.00  0.00    -0.141 N  
HETATM    3  C   UNL     1      -7.670  14.064  68.920  1.00  0.00    -0.069 C  
HETATM    4  C   UNL     1      -9.066  14.641  66.879  1.00  0.00    -0.252 C  
HETATM    5  O   UNL     1      -9.108  15.326  65.844  1.00  0.00    -0.291 OA 
ENDROOT
BRANCH   4   6
HETATM    6  C   UNL     1     -10.165  13.499  67.126  1.00  0.00    -0.247 C  
BRANCH   6   7
HETATM    7  C   UNL     1      -9.308  12.220  67.560  1.00  0.00    -0.183 C  
BRANCH   7   8
HETATM    8  C   UNL     1      -8.456  11.527  66.480  1.00  0.00    -0.160 C  
BRANCH   8   9
HETATM    9  N   UNL     1      -8.412  10.051  66.543  1.00  0.00    -0.125 NA 
HETATM   10  C   UNL     1      -9.323   9.356  65.623  1.00  0.00    -0.246 C  
HETATM   11  C   UNL     1      -8.865   9.402  64.165  1.00  0.00    -0.216 C  
HETATM   12  C   UNL     1      -7.460   8.779  64.003  1.00  0.00    -0.116 C  
HETATM   13  H   UNL     1      -6.163   8.619  62.554  1.00  0.00     0.000 HD 
HETATM   14  O   UNL     1      -7.027   9.003  62.653  1.00  0.00    -0.094 OA 
HETATM   15  C   UNL     1      -6.527   9.575  64.941  1.00  0.00    -0.085 C  
HETATM   16  C   UNL     1      -7.033   9.550  66.386  1.00  0.00    -0.088 C  
BRANCH  12  17
HETATM   17  C   UNL     1      -7.403   7.251  64.171  1.00  0.00    -0.091 A  
HETATM   18  C   UNL     1      -8.209   6.395  63.395  1.00  0.00     0.042 A  
HETATM   19  C   UNL     1      -8.137   5.003  63.520  1.00  0.00    -0.105 A  
HETATM   20  C   UNL     1      -7.239   4.433  64.411  1.00  0.00    -0.062 A  
HETATM   21  C   UNL     1      -6.413   5.245  65.178  1.00  0.00    -0.039 A  
HETATM   22 CL   UNL     1      -7.132   2.722  64.547  1.00  0.00    -0.049 Cl 
HETATM   23  C   UNL     1      -6.489   6.638  65.051  1.00  0.00    -0.042 A  
ENDBRANCH  12  17
ENDBRANCH   8   9
ENDBRANCH   7   8
ENDBRANCH   6   7
BRANCH   6  24
HETATM   24  C   UNL     1     -11.072  13.939  68.327  1.00  0.00    -0.280 A  
HETATM   25  C   UNL     1     -11.513  15.274  68.432  1.00  0.00    -0.358 A  
HETATM   26  C   UNL     1     -11.494  13.055  69.334  1.00  0.00    -0.323 A  
HETATM   27  C   UNL     1     -12.282  15.704  69.521  1.00  0.00    -0.231 A  
HETATM   28  C   UNL     1     -12.641  14.811  70.525  1.00  0.00    -0.416 A  
HETATM   29  C   UNL     1     -12.251  13.483  70.426  1.00  0.00    -0.426 A  
ENDBRANCH   6  24
BRANCH   6  30
HETATM   30  C   UNL     1     -10.945  13.148  65.811  1.00  0.00    -0.295 A  
HETATM   31  C   UNL     1     -13.020  12.698  64.590  1.00  0.00    -0.225 A  
HETATM   32  C   UNL     1     -10.257  12.772  64.634  1.00  0.00    -0.321 A  
HETATM   33  C   UNL     1     -12.349  13.143  65.736  1.00  0.00    -0.496 A  
HETATM   34  C   UNL     1     -12.308  12.318  63.458  1.00  0.00    -0.670 A  
HETATM   35  C   UNL     1     -10.923  12.378  63.473  1.00  0.00    -0.506 A  
ENDBRANCH   6  30
ENDBRANCH   4   6
TORSDOF 7
ENDMDL
MODEL       90
REMARK 921   NORMALIZED FREE ENERGY PREDICTED BY IDOCK:   -5.01 KCAL/MOL
REMARK 922        TOTAL FREE ENERGY PREDICTED BY IDOCK:   -7.44 KCAL/MOL
REMARK 923 INTER-LIGAND FREE ENERGY PREDICTED BY IDOCK:   -7.09 KCAL/MOL
REMARK 924 INTRA-LIGAND FREE ENERGY PREDICTED BY IDOCK:   -0.35 KCAL/MOL
REMARK 927      BINDING AFFINITY PREDICTED BY RF-SCORE:    0.00 PKD
ROOT
HETATM    1  C   UNL     1      -7.009  10.438  63.289  1.00  0.00    -0.047 C  
HETATM    2  N   UNL     1      -7.995  10.021  64.282  1.00  0.00    -0.148 N  
HETATM    3  C   UNL     1      -9.344   9.814  63.786  1.00  0.00    -0.120 C  
HETATM    4  C   UNL     1      -7.627  10.160  65.624  1.00  0.00    -0.144 C  
HETATM    5  O   UNL     1      -6.486  10.583  65.875  1.00  0.00    -0.111 OA 
ENDROOT
BRANCH   4   6
HETATM    6  C   UNL     1      -8.618   9.775  66.825  1.00  0.00    -0.133 C  
BRANCH   6   7
HETATM    7  C   UNL     1      -7.686   9.814  68.126  1.00  0.00    -0.082 C  
BRANCH   7   8
HETATM    8  C   UNL     1      -8.358   9.606  69.496  1.00  0.00    -0.152 C  
BRANCH   8   9
HETATM    9  N   UNL     1      -8.853   8.240  69.770  1.00  0.00    -0.141 NA 
HETATM   10  C   UNL     1      -7.881   7.335  70.400  1.00  0.00    -0.099 C  
HETATM   11  C   UNL     1      -7.633   7.643  71.877  1.00  0.00    -0.086 C  
HETATM   12  C   UNL     1      -8.946   7.570  72.688  1.00  0.00    -0.144 C  
HETATM   13  H   UNL     1      -9.479   7.983  74.520  1.00  0.00     0.000 HD 
HETATM   14  O   UNL     1      -8.672   8.028  74.021  1.00  0.00    -0.269 OA 
HETATM   15  C   UNL     1      -9.915   8.576  72.029  1.00  0.00    -0.383 C  
HETATM   16  C   UNL     1     -10.110   8.271  70.541  1.00  0.00    -0.195 C  
BRANCH  12  17
HETATM   17  C   UNL     1      -9.512   6.154  72.883  1.00  0.00    -0.150 A  
HETATM   18  C   UNL     1      -8.667   5.031  72.987  1.00  0.00    -0.113 A  
HETATM   19  C   UNL     1      -9.175   3.744  73.197  1.00  0.00    -0.118 A  
HETATM   20  C   UNL     1     -10.543   3.553  73.332  1.00  0.00    -0.192 A  
HETATM   21  C   UNL     1     -11.405   4.639  73.257  1.00  0.00    -0.393 A  
HETATM   22 CL   UNL     1     -11.165   1.976  73.617  1.00  0.00    -0.285 Cl 
HETATM   23  C   UNL     1     -10.893   5.925  73.045  1.00  0.00    -0.300 A  
ENDBRANCH  12  17
ENDBRANCH   8   9
ENDBRANCH   7   8
ENDBRANCH   6   7
BRANCH   6  24
HETATM   24  C   UNL     1      -9.708  10.895  66.943  1.00  0.00    -0.210 A  
HETATM   25  C   UNL     1      -9.490  12.163  66.367  1.00  0.00    -0.238 A  
HETATM   26  C   UNL     1     -10.936  10.705  67.600  1.00  0.00    -0.370 A  
HETATM   27  C   UNL     1     -10.426  13.196  66.501  1.00  0.00    -0.283 A  
HETATM   28  C   UNL     1     -11.610  12.986  67.201  1.00  0.00    -0.411 A  
HETATM   29  C   UNL     1     -11.866  11.735  67.746  1.00  0.00    -0.266 A  
ENDBRANCH   6  24
BRANCH   6  30
HETATM   30  C   UNL     1      -9.185   8.322  66.669  1.00  0.00    -0.224 A  
HETATM   31  C   UNL     1     -10.981   6.671  66.902  1.00  0.00    -0.396 A  
HETATM   32  C   UNL     1      -8.344   7.246  66.302  1.00  0.00    -0.129 A  
HETATM   33  C   UNL     1     -10.530   7.998  66.921  1.00  0.00    -0.387 A  
HETATM   34  C   UNL     1     -10.118   5.638  66.555  1.00  0.00    -0.225 A  
HETATM   35  C   UNL     1      -8.802   5.929  66.230  1.00  0.00    -0.143 A  
ENDBRANCH   6  30
ENDBRANCH   4   6
TORSDOF 7
ENDMDL
MODEL       91
REMARK 921   NORMALIZED FREE ENERGY PREDICTED BY IDOCK:   -5.00 KCAL/MOL
REMARK 922        TOTAL FREE ENERGY PREDICTED BY IDOCK:   -7.42 KCAL/MOL
REMARK 923 INTER-LIGAND FREE ENERGY PREDICTED BY IDOCK:   -7.13 KCAL/MOL
REMARK 924 INTRA-LIGAND FREE ENERGY PREDICTED BY IDOCK:   -0.30 KCAL/MOL
REMARK 927      BINDING AFFINITY PREDICTED BY RF-SCORE:    0.00 PKD
ROOT
HETATM    1  C   UNL     1      -9.832   6.344  67.074  1.00  0.00    -0.154 C  
HETATM    2  N   UNL     1      -8.991   7.437  66.594  1.00  0.00    -0.140 N  
HETATM    3  C   UNL     1      -7.567   7.162  66.535  1.00  0.00    -0.092 C  
HETATM    4  C   UNL     1      -9.586   8.702  66.538  1.00  0.00    -0.237 C  
HETATM    5  O   UNL     1     -10.783   8.800  66.855  1.00  0.00    -0.240 OA 
ENDROOT
BRANCH   4   6
HETATM    6  C   UNL     1      -8.777  10.004  66.063  1.00  0.00    -0.152 C  
BRANCH   6   7
HETATM    7  C   UNL     1      -9.919  11.087  65.772  1.00  0.00    -0.294 C  
BRANCH   7   8
HETATM    8  C   UNL     1     -10.199  12.144  66.856  1.00  0.00    -0.208 C  
BRANCH   8   9
HETATM    9  N   UNL     1      -9.533  13.450  66.669  1.00  0.00    -0.260 NA 
HETATM   10  C   UNL     1     -10.352  14.485  66.021  1.00  0.00    -0.309 C  
HETATM   11  C   UNL     1     -11.435  15.061  66.933  1.00  0.00    -0.266 C  
HETATM   12  C   UNL     1     -10.819  15.673  68.212  1.00  0.00    -0.298 C  
HETATM   13  H   UNL     1     -11.513  16.420  69.876  1.00  0.00     0.000 HD 
HETATM   14  O   UNL     1     -11.892  16.043  69.091  1.00  0.00    -0.356 OA 
HETATM   15  C   UNL     1     -10.019  14.539  68.888  1.00  0.00    -0.206 C  
HETATM   16  C   UNL     1      -8.972  13.951  67.938  1.00  0.00    -0.191 C  
BRANCH  12  17
HETATM   17  C   UNL     1     -10.039  16.981  67.995  1.00  0.00    -0.305 A  
HETATM   18  C   UNL     1      -8.804  17.215  68.633  1.00  0.00    -0.266 A  
HETATM   19  C   UNL     1      -8.074  18.389  68.414  1.00  0.00    -0.327 A  
HETATM   20  C   UNL     1      -8.552  19.349  67.533  1.00  0.00    -0.300 A  
HETATM   21  C   UNL     1      -9.755  19.142  66.870  1.00  0.00    -0.389 A  
HETATM   22 CL   UNL     1      -7.643  20.779  67.244  1.00  0.00    -0.392 Cl 
HETATM   23  C   UNL     1     -10.485  17.967  67.093  1.00  0.00    -0.377 A  
ENDBRANCH  12  17
ENDBRANCH   8   9
ENDBRANCH   7   8
ENDBRANCH   6   7
BRANCH   6  24
HETATM   24  C   UNL     1      -7.895  10.500  67.259  1.00  0.00    -0.107 A  
HETATM   25  C   UNL     1      -8.287  10.238  68.588  1.00  0.00    -0.122 A  
HETATM   26  C   UNL     1      -6.691  11.205  67.085  1.00  0.00    -0.106 A  
HETATM   27  C   UNL     1      -7.543  10.714  69.676  1.00  0.00    -0.100 A  
HETATM   28  C   UNL     1      -6.382  11.451  69.465  1.00  0.00    -0.113 A  
HETATM   29  C   UNL     1      -5.954  11.690  68.167  1.00  0.00    -0.046 A  
ENDBRANCH   6  24
BRANCH   6  30
HETATM   30  C   UNL     1      -7.990   9.747  64.731  1.00  0.00    -0.138 A  
HETATM   31  C   UNL     1      -7.888   9.027  62.391  1.00  0.00    -0.123 A  
HETATM   32  C   UNL     1      -6.580   9.835  64.689  1.00  0.00    -0.112 A  
HETATM   33  C   UNL     1      -8.624   9.379  63.531  1.00  0.00    -0.215 A  
HETATM   34  C   UNL     1      -6.501   9.107  62.395  1.00  0.00    -0.093 A  
HETATM   35  C   UNL     1      -5.846   9.536  63.539  1.00  0.00    -0.092 A  
ENDBRANCH   6  30
ENDBRANCH   4   6
TORSDOF 7
ENDMDL
MODEL       92
REMARK 921   NORMALIZED FREE ENERGY PREDICTED BY IDOCK:   -5.00 KCAL/MOL
REMARK 922        TOTAL FREE ENERGY PREDICTED BY IDOCK:   -7.42 KCAL/MOL
REMARK 923 INTER-LIGAND FREE ENERGY PREDICTED BY IDOCK:   -8.43 KCAL/MOL
REMARK 924 INTRA-LIGAND FREE ENERGY PREDICTED BY IDOCK:    1.01 KCAL/MOL
REMARK 927      BINDING AFFINITY PREDICTED BY RF-SCORE:    0.00 PKD
ROOT
HETATM    1  C   UNL     1     -10.984   6.336  69.125  1.00  0.00    -0.377 C  
HETATM    2  N   UNL     1     -10.691   7.759  68.973  1.00  0.00    -0.157 N  
HETATM    3  C   UNL     1     -11.067   8.606  70.091  1.00  0.00    -0.192 C  
HETATM    4  C   UNL     1     -10.373   8.195  67.683  1.00  0.00    -0.247 C  
HETATM    5  O   UNL     1     -10.322   7.348  66.776  1.00  0.00    -0.279 OA 
ENDROOT
BRANCH   4   6
HETATM    6  C   UNL     1     -10.062   9.735  67.356  1.00  0.00    -0.259 C  
BRANCH   6   7
HETATM    7  C   UNL     1     -11.330  10.521  67.933  1.00  0.00    -0.297 C  
BRANCH   7   8
HETATM    8  C   UNL     1     -11.077  11.848  68.672  1.00  0.00    -0.246 C  
BRANCH   8   9
HETATM    9  N   UNL     1     -11.358  13.078  67.901  1.00  0.00    -0.270 NA 
HETATM   10  C   UNL     1     -11.928  14.188  68.678  1.00  0.00    -0.338 C  
HETATM   11  C   UNL     1     -10.912  14.877  69.588  1.00  0.00    -0.294 C  
HETATM   12  C   UNL     1      -9.720  15.429  68.774  1.00  0.00    -0.210 C  
HETATM   13  H   UNL     1      -8.001  16.252  69.198  1.00  0.00     0.000 HD 
HETATM   14  O   UNL     1      -8.734  15.912  69.699  1.00  0.00    -0.185 OA 
HETATM   15  C   UNL     1      -9.117  14.223  68.022  1.00  0.00    -0.191 C  
HETATM   16  C   UNL     1     -10.168  13.524  67.153  1.00  0.00    -0.247 C  
BRANCH  12  17
HETATM   17  C   UNL     1     -10.043  16.649  67.894  1.00  0.00    -0.270 A  
HETATM   18  C   UNL     1     -10.252  17.925  68.453  1.00  0.00    -0.398 A  
HETATM   19  C   UNL     1     -10.514  19.045  67.655  1.00  0.00    -0.523 A  
HETATM   20  C   UNL     1     -10.550  18.917  66.274  1.00  0.00    -0.392 A  
HETATM   21  C   UNL     1     -10.327  17.679  65.686  1.00  0.00    -0.120 A  
HETATM   22 CL   UNL     1     -10.845  20.297  65.292  1.00  0.00    -0.107 Cl 
HETATM   23  C   UNL     1     -10.067  16.560  66.488  1.00  0.00    -0.307 A  
ENDBRANCH  12  17
ENDBRANCH   8   9
ENDBRANCH   7   8
ENDBRANCH   6   7
BRANCH   6  24
HETATM   24  C   UNL     1      -8.786  10.161  68.159  1.00  0.00    -0.122 A  
HETATM   25  C   UNL     1      -7.854  11.055  67.592  1.00  0.00    -0.114 A  
HETATM   26  C   UNL     1      -8.507   9.701  69.458  1.00  0.00    -0.162 A  
HETATM   27  C   UNL     1      -6.681  11.412  68.269  1.00  0.00    -0.059 A  
HETATM   28  C   UNL     1      -6.414  10.899  69.534  1.00  0.00    -0.095 A  
HETATM   29  C   UNL     1      -7.333  10.046  70.130  1.00  0.00    -0.171 A  
ENDBRANCH   6  24
BRANCH   6  30
HETATM   30  C   UNL     1      -9.981   9.997  65.811  1.00  0.00    -0.346 A  
HETATM   31  C   UNL     1      -8.895   9.724  63.632  1.00  0.00    -0.258 A  
HETATM   32  C   UNL     1     -10.847  10.920  65.182  1.00  0.00    -0.133 A  
HETATM   33  C   UNL     1      -9.031   9.373  64.982  1.00  0.00    -0.258 A  
HETATM   34  C   UNL     1      -9.754  10.651  63.054  1.00  0.00    -0.362 A  
HETATM   35  C   UNL     1     -10.748  11.233  63.825  1.00  0.00    -0.448 A  
ENDBRANCH   6  30
ENDBRANCH   4   6
TORSDOF 7
ENDMDL
MODEL       93
REMARK 921   NORMALIZED FREE ENERGY PREDICTED BY IDOCK:   -5.00 KCAL/MOL
REMARK 922        TOTAL FREE ENERGY PREDICTED BY IDOCK:   -7.42 KCAL/MOL
REMARK 923 INTER-LIGAND FREE ENERGY PREDICTED BY IDOCK:   -6.79 KCAL/MOL
REMARK 924 INTRA-LIGAND FREE ENERGY PREDICTED BY IDOCK:   -0.64 KCAL/MOL
REMARK 927      BINDING AFFINITY PREDICTED BY RF-SCORE:    0.00 PKD
ROOT
HETATM    1  C   UNL     1      -9.523  10.745  62.661  1.00  0.00    -0.300 C  
HETATM    2  N   UNL     1     -10.039  10.904  64.018  1.00  0.00    -0.332 N  
HETATM    3  C   UNL     1     -11.351  11.515  64.129  1.00  0.00    -0.267 C  
HETATM    4  C   UNL     1      -9.117  10.744  65.058  1.00  0.00    -0.203 C  
HETATM    5  O   UNL     1      -7.950  10.440  64.762  1.00  0.00    -0.152 OA 
ENDROOT
BRANCH   4   6
HETATM    6  C   UNL     1      -9.529  10.922  66.598  1.00  0.00    -0.204 C  
BRANCH   6   7
HETATM    7  C   UNL     1     -10.609   9.767  66.849  1.00  0.00    -0.243 C  
BRANCH   7   8
HETATM    8  C   UNL     1     -10.159   8.308  66.648  1.00  0.00    -0.281 C  
BRANCH   8   9
HETATM    9  N   UNL     1     -10.637   7.342  67.660  1.00  0.00    -0.243 NA 
HETATM   10  C   UNL     1      -9.850   6.105  67.765  1.00  0.00    -0.123 C  
HETATM   11  C   UNL     1      -8.498   6.301  68.452  1.00  0.00    -0.115 C  
HETATM   12  C   UNL     1      -8.676   6.875  69.876  1.00  0.00    -0.142 C  
HETATM   13  H   UNL     1      -7.485   7.539  71.272  1.00  0.00     0.000 HD 
HETATM   14  O   UNL     1      -7.375   7.187  70.397  1.00  0.00    -0.076 OA 
HETATM   15  C   UNL     1      -9.454   8.199  69.712  1.00  0.00    -0.159 C  
HETATM   16  C   UNL     1     -10.782   7.980  68.982  1.00  0.00    -0.088 C  
BRANCH  12  17
HETATM   17  C   UNL     1      -9.269   5.894  70.903  1.00  0.00    -0.167 A  
HETATM   18  C   UNL     1      -9.746   6.337  72.152  1.00  0.00    -0.164 A  
HETATM   19  C   UNL     1     -10.318   5.455  73.077  1.00  0.00    -0.229 A  
HETATM   20  C   UNL     1     -10.445   4.109  72.763  1.00  0.00    -0.167 A  
HETATM   21  C   UNL     1     -10.006   3.641  71.531  1.00  0.00    -0.181 A  
HETATM   22 CL   UNL     1     -11.170   3.030  73.887  1.00  0.00    -0.244 Cl 
HETATM   23  C   UNL     1      -9.433   4.526  70.609  1.00  0.00    -0.240 A  
ENDBRANCH  12  17
ENDBRANCH   8   9
ENDBRANCH   7   8
ENDBRANCH   6   7
BRANCH   6  24
HETATM   24  C   UNL     1      -8.266  10.642  67.482  1.00  0.00    -0.111 A  
HETATM   25  C   UNL     1      -8.058  11.367  68.674  1.00  0.00    -0.141 A  
HETATM   26  C   UNL     1      -7.300   9.674  67.156  1.00  0.00    -0.087 A  
HETATM   27  C   UNL     1      -6.912  11.171  69.455  1.00  0.00    -0.111 A  
HETATM   28  C   UNL     1      -5.952  10.238  69.076  1.00  0.00    -0.037 A  
HETATM   29  C   UNL     1      -6.152   9.485  67.927  1.00  0.00    -0.052 A  
ENDBRANCH   6  24
BRANCH   6  30
HETATM   30  C   UNL     1     -10.219  12.306  66.860  1.00  0.00    -0.229 A  
HETATM   31  C   UNL     1     -10.244  14.754  66.768  1.00  0.00    -0.266 A  
HETATM   32  C   UNL     1     -11.411  12.396  67.614  1.00  0.00    -0.399 A  
HETATM   33  C   UNL     1      -9.679  13.524  66.407  1.00  0.00    -0.296 A  
HETATM   34  C   UNL     1     -11.407  14.802  67.527  1.00  0.00    -0.355 A  
HETATM   35  C   UNL     1     -12.006  13.619  67.931  1.00  0.00    -0.382 A  
ENDBRANCH   6  30
ENDBRANCH   4   6
TORSDOF 7
ENDMDL
MODEL       94
REMARK 921   NORMALIZED FREE ENERGY PREDICTED BY IDOCK:   -4.97 KCAL/MOL
REMARK 922        TOTAL FREE ENERGY PREDICTED BY IDOCK:   -7.38 KCAL/MOL
REMARK 923 INTER-LIGAND FREE ENERGY PREDICTED BY IDOCK:   -7.45 KCAL/MOL
REMARK 924 INTRA-LIGAND FREE ENERGY PREDICTED BY IDOCK:    0.07 KCAL/MOL
REMARK 927      BINDING AFFINITY PREDICTED BY RF-SCORE:    0.00 PKD
ROOT
HETATM    1  C   UNL     1     -10.494  10.984  64.443  1.00  0.00    -0.354 C  
HETATM    2  N   UNL     1     -10.590  11.509  65.802  1.00  0.00    -0.258 N  
HETATM    3  C   UNL     1     -11.796  12.256  66.109  1.00  0.00    -0.329 C  
HETATM    4  C   UNL     1      -9.411  11.507  66.555  1.00  0.00    -0.204 C  
HETATM    5  O   UNL     1      -8.389  11.027  66.038  1.00  0.00    -0.168 OA 
ENDROOT
BRANCH   4   6
HETATM    6  C   UNL     1      -9.354  12.082  68.052  1.00  0.00    -0.196 C  
BRANCH   6   7
HETATM    7  C   UNL     1     -10.183  11.017  68.911  1.00  0.00    -0.218 C  
BRANCH   7   8
HETATM    8  C   UNL     1     -10.270   9.575  68.377  1.00  0.00    -0.194 C  
BRANCH   8   9
HETATM    9  N   UNL     1      -9.682   8.531  69.243  1.00  0.00    -0.171 NA 
HETATM   10  C   UNL     1      -9.906   8.713  70.685  1.00  0.00    -0.183 C  
HETATM   11  C   UNL     1     -11.338   8.403  71.121  1.00  0.00    -0.310 C  
HETATM   12  C   UNL     1     -11.728   6.953  70.759  1.00  0.00    -0.369 C  
HETATM   13  H   UNL     1     -13.365   5.890  70.821  1.00  0.00     0.000 HD 
HETATM   14  O   UNL     1     -13.125   6.782  71.044  1.00  0.00    -0.215 OA 
HETATM   15  C   UNL     1     -11.534   6.824  69.232  1.00  0.00    -0.162 C  
HETATM   16  C   UNL     1     -10.105   7.183  68.818  1.00  0.00    -0.173 C  
BRANCH  12  17
HETATM   17  C   UNL     1     -11.036   5.864  71.596  1.00  0.00    -0.327 A  
HETATM   18  C   UNL     1     -11.408   5.616  72.932  1.00  0.00    -0.325 A  
HETATM   19  C   UNL     1     -10.804   4.605  73.689  1.00  0.00    -0.375 A  
HETATM   20  C   UNL     1      -9.827   3.802  73.118  1.00  0.00    -0.127 A  
HETATM   21  C   UNL     1      -9.450   4.004  71.796  1.00  0.00    -0.210 A  
HETATM   22 CL   UNL     1      -9.103   2.544  74.039  1.00  0.00    -0.078 Cl 
HETATM   23  C   UNL     1     -10.055   5.018  71.043  1.00  0.00    -0.297 A  
ENDBRANCH  12  17
ENDBRANCH   8   9
ENDBRANCH   7   8
ENDBRANCH   6   7
BRANCH   6  24
HETATM   24  C   UNL     1      -7.861  12.073  68.527  1.00  0.00    -0.129 A  
HETATM   25  C   UNL     1      -7.439  11.171  69.526  1.00  0.00     0.018 A  
HETATM   26  C   UNL     1      -6.880  12.928  67.996  1.00  0.00    -0.108 A  
HETATM   27  C   UNL     1      -6.122  11.176  70.004  1.00  0.00    -0.134 A  
HETATM   28  C   UNL     1      -5.190  12.071  69.489  1.00  0.00    -0.066 A  
HETATM   29  C   UNL     1      -5.570  12.944  68.479  1.00  0.00    -0.067 A  
ENDBRANCH   6  24
BRANCH   6  30
HETATM   30  C   UNL     1     -10.069  13.473  68.168  1.00  0.00    -0.250 A  
HETATM   31  C   UNL     1     -10.359  15.812  67.498  1.00  0.00    -0.280 A  
HETATM   32  C   UNL     1     -10.996  13.732  69.204  1.00  0.00    -0.246 A  
HETATM   33  C   UNL     1      -9.806  14.541  67.292  1.00  0.00    -0.236 A  
HETATM   34  C   UNL     1     -11.251  16.033  68.541  1.00  0.00    -0.374 A  
HETATM   35  C   UNL     1     -11.590  14.983  69.381  1.00  0.00    -0.337 A  
ENDBRANCH   6  30
ENDBRANCH   4   6
TORSDOF 7
ENDMDL
MODEL       95
REMARK 921   NORMALIZED FREE ENERGY PREDICTED BY IDOCK:   -4.97 KCAL/MOL
REMARK 922        TOTAL FREE ENERGY PREDICTED BY IDOCK:   -7.38 KCAL/MOL
REMARK 923 INTER-LIGAND FREE ENERGY PREDICTED BY IDOCK:   -7.10 KCAL/MOL
REMARK 924 INTRA-LIGAND FREE ENERGY PREDICTED BY IDOCK:   -0.28 KCAL/MOL
REMARK 927      BINDING AFFINITY PREDICTED BY RF-SCORE:    0.00 PKD
ROOT
HETATM    1  C   UNL     1     -10.751  16.172  66.268  1.00  0.00    -0.213 C  
HETATM    2  N   UNL     1     -10.919  14.751  66.564  1.00  0.00    -0.320 N  
HETATM    3  C   UNL     1     -12.151  14.147  66.091  1.00  0.00    -0.435 C  
HETATM    4  C   UNL     1     -10.048  14.206  67.513  1.00  0.00    -0.236 C  
HETATM    5  O   UNL     1      -9.178  14.945  68.001  1.00  0.00    -0.179 OA 
ENDROOT
BRANCH   4   6
HETATM    6  C   UNL     1     -10.134  12.668  67.964  1.00  0.00    -0.229 C  
BRANCH   6   7
HETATM    7  C   UNL     1     -10.711  11.915  66.676  1.00  0.00    -0.291 C  
BRANCH   7   8
HETATM    8  C   UNL     1      -9.701  11.373  65.648  1.00  0.00    -0.231 C  
BRANCH   8   9
HETATM    9  N   UNL     1      -9.961  10.006  65.149  1.00  0.00    -0.325 NA 
HETATM   10  C   UNL     1      -8.815   9.343  64.510  1.00  0.00    -0.198 C  
HETATM   11  C   UNL     1      -7.750   8.879  65.504  1.00  0.00    -0.088 C  
HETATM   12  C   UNL     1      -8.346   7.902  66.542  1.00  0.00    -0.127 C  
HETATM   13  H   UNL     1      -7.709   7.037  68.172  1.00  0.00     0.000 HD 
HETATM   14  O   UNL     1      -7.342   7.638  67.534  1.00  0.00    -0.090 OA 
HETATM   15  C   UNL     1      -9.505   8.658  67.228  1.00  0.00    -0.198 C  
HETATM   16  C   UNL     1     -10.534   9.150  66.205  1.00  0.00     0.035 C  
BRANCH  12  17
HETATM   17  C   UNL     1      -8.711   6.512  65.993  1.00  0.00    -0.155 A  
HETATM   18  C   UNL     1      -9.789   5.773  66.519  1.00  0.00    -0.193 A  
HETATM   19  C   UNL     1     -10.146   4.523  66.002  1.00  0.00    -0.282 A  
HETATM   20  C   UNL     1      -9.444   3.991  64.928  1.00  0.00    -0.171 A  
HETATM   21  C   UNL     1      -8.389   4.701  64.370  1.00  0.00    -0.118 A  
HETATM   22 CL   UNL     1      -9.899   2.467  64.275  1.00  0.00    -0.126 Cl 
HETATM   23  C   UNL     1      -8.034   5.952  64.892  1.00  0.00    -0.125 A  
ENDBRANCH  12  17
ENDBRANCH   8   9
ENDBRANCH   7   8
ENDBRANCH   6   7
BRANCH   6  24
HETATM   24  C   UNL     1      -8.680  12.156  68.248  1.00  0.00    -0.178 A  
HETATM   25  C   UNL     1      -8.468  11.062  69.112  1.00  0.00    -0.022 A  
HETATM   26  C   UNL     1      -7.536  12.732  67.668  1.00  0.00    -0.152 A  
HETATM   27  C   UNL     1      -7.176  10.617  69.421  1.00  0.00    -0.126 A  
HETATM   28  C   UNL     1      -6.065  11.243  68.866  1.00  0.00    -0.046 A  
HETATM   29  C   UNL     1      -6.248  12.298  67.984  1.00  0.00    -0.073 A  
ENDBRANCH   6  24
BRANCH   6  30
HETATM   30  C   UNL     1     -11.143  12.464  69.148  1.00  0.00    -0.260 A  
HETATM   31  C   UNL     1     -12.453  13.315  71.035  1.00  0.00    -0.422 A  
HETATM   32  C   UNL     1     -11.552  11.170  69.542  1.00  0.00    -0.392 A  
HETATM   33  C   UNL     1     -11.658  13.534  69.902  1.00  0.00    -0.271 A  
HETATM   34  C   UNL     1     -12.818  12.025  71.403  1.00  0.00    -0.391 A  
HETATM   35  C   UNL     1     -12.387  10.951  70.639  1.00  0.00    -0.470 A  
ENDBRANCH   6  30
ENDBRANCH   4   6
TORSDOF 7
ENDMDL
MODEL       96
REMARK 921   NORMALIZED FREE ENERGY PREDICTED BY IDOCK:   -4.95 KCAL/MOL
REMARK 922        TOTAL FREE ENERGY PREDICTED BY IDOCK:   -7.34 KCAL/MOL
REMARK 923 INTER-LIGAND FREE ENERGY PREDICTED BY IDOCK:   -7.43 KCAL/MOL
REMARK 924 INTRA-LIGAND FREE ENERGY PREDICTED BY IDOCK:    0.09 KCAL/MOL
REMARK 927      BINDING AFFINITY PREDICTED BY RF-SCORE:    0.00 PKD
ROOT
HETATM    1  C   UNL     1     -12.078  12.492  69.784  1.00  0.00    -0.224 C  
HETATM    2  N   UNL     1     -11.380  12.496  68.501  1.00  0.00    -0.272 N  
HETATM    3  C   UNL     1     -11.624  11.349  67.644  1.00  0.00    -0.238 C  
HETATM    4  C   UNL     1     -10.339  13.419  68.360  1.00  0.00    -0.251 C  
HETATM    5  O   UNL     1     -10.109  14.189  69.307  1.00  0.00    -0.084 OA 
ENDROOT
BRANCH   4   6
HETATM    6  C   UNL     1      -9.460  13.516  67.021  1.00  0.00    -0.251 C  
BRANCH   6   7
HETATM    7  C   UNL     1      -8.501  12.237  67.090  1.00  0.00    -0.184 C  
BRANCH   7   8
HETATM    8  C   UNL     1      -8.406  11.483  68.429  1.00  0.00    -0.154 C  
BRANCH   8   9
HETATM    9  N   UNL     1      -7.834  10.121  68.362  1.00  0.00    -0.092 NA 
HETATM   10  C   UNL     1      -8.441   9.141  69.273  1.00  0.00    -0.132 C  
HETATM   11  C   UNL     1      -9.831   8.681  68.832  1.00  0.00    -0.184 C  
HETATM   12  C   UNL     1      -9.788   8.055  67.420  1.00  0.00    -0.186 C  
HETATM   13  H   UNL     1     -11.111   7.414  66.136  1.00  0.00     0.000 HD 
HETATM   14  O   UNL     1     -11.138   7.800  67.004  1.00  0.00    -0.123 OA 
HETATM   15  C   UNL     1      -9.200   9.137  66.488  1.00  0.00    -0.221 C  
HETATM   16  C   UNL     1      -7.828   9.611  66.978  1.00  0.00    -0.098 C  
BRANCH  12  17
HETATM   17  C   UNL     1      -9.100   6.682  67.338  1.00  0.00    -0.120 A  
HETATM   18  C   UNL     1      -9.270   5.713  68.346  1.00  0.00    -0.125 A  
HETATM   19  C   UNL     1      -8.674   4.450  68.262  1.00  0.00    -0.116 A  
HETATM   20  C   UNL     1      -7.909   4.118  67.151  1.00  0.00    -0.096 A  
HETATM   21  C   UNL     1      -7.738   5.040  66.127  1.00  0.00    -0.091 A  
HETATM   22 CL   UNL     1      -7.198   2.557  67.034  1.00  0.00    -0.056 Cl 
HETATM   23  C   UNL     1      -8.335   6.304  66.217  1.00  0.00    -0.122 A  
ENDBRANCH  12  17
ENDBRANCH   8   9
ENDBRANCH   7   8
ENDBRANCH   6   7
BRANCH   6  24
HETATM   24  C   UNL     1     -10.419  13.371  65.791  1.00  0.00    -0.291 A  
HETATM   25  C   UNL     1     -11.494  14.267  65.617  1.00  0.00    -0.329 A  
HETATM   26  C   UNL     1     -10.265  12.376  64.810  1.00  0.00    -0.303 A  
HETATM   27  C   UNL     1     -12.395  14.128  64.554  1.00  0.00    -0.419 A  
HETATM   28  C   UNL     1     -12.239  13.101  63.629  1.00  0.00    -0.553 A  
HETATM   29  C   UNL     1     -11.168  12.228  63.756  1.00  0.00    -0.510 A  
ENDBRANCH   6  24
BRANCH   6  30
HETATM   30  C   UNL     1      -8.565  14.804  67.005  1.00  0.00    -0.260 A  
HETATM   31  C   UNL     1      -8.133  17.122  66.342  1.00  0.00    -0.337 A  
HETATM   32  C   UNL     1      -7.243  14.779  67.507  1.00  0.00    -0.222 A  
HETATM   33  C   UNL     1      -8.998  16.027  66.463  1.00  0.00    -0.327 A  
HETATM   34  C   UNL     1      -6.834  17.053  66.829  1.00  0.00    -0.265 A  
HETATM   35  C   UNL     1      -6.395  15.886  67.436  1.00  0.00    -0.196 A  
ENDBRANCH   6  30
ENDBRANCH   4   6
TORSDOF 7
ENDMDL
MODEL       97
REMARK 921   NORMALIZED FREE ENERGY PREDICTED BY IDOCK:   -4.94 KCAL/MOL
REMARK 922        TOTAL FREE ENERGY PREDICTED BY IDOCK:   -7.33 KCAL/MOL
REMARK 923 INTER-LIGAND FREE ENERGY PREDICTED BY IDOCK:   -8.10 KCAL/MOL
REMARK 924 INTRA-LIGAND FREE ENERGY PREDICTED BY IDOCK:    0.77 KCAL/MOL
REMARK 927      BINDING AFFINITY PREDICTED BY RF-SCORE:    0.00 PKD
ROOT
HETATM    1  C   UNL     1     -12.304  12.055  63.818  1.00  0.00    -0.496 C  
HETATM    2  N   UNL     1     -11.370  12.484  64.855  1.00  0.00    -0.301 N  
HETATM    3  C   UNL     1     -10.688  13.743  64.613  1.00  0.00    -0.414 C  
HETATM    4  C   UNL     1     -11.003  11.520  65.800  1.00  0.00    -0.246 C  
HETATM    5  O   UNL     1     -11.521  10.395  65.718  1.00  0.00     0.639 OA 
ENDROOT
BRANCH   4   6
HETATM    6  C   UNL     1      -9.960  11.835  66.978  1.00  0.00    -0.224 C  
BRANCH   6   7
HETATM    7  C   UNL     1     -10.062  13.419  67.176  1.00  0.00    -0.240 C  
BRANCH   7   8
HETATM    8  C   UNL     1     -10.423  13.946  68.578  1.00  0.00    -0.250 C  
BRANCH   8   9
HETATM    9  N   UNL     1      -9.501  14.953  69.145  1.00  0.00    -0.188 NA 
HETATM   10  C   UNL     1      -8.158  14.981  68.547  1.00  0.00    -0.148 C  
HETATM   11  C   UNL     1      -8.128  15.601  67.150  1.00  0.00    -0.247 C  
HETATM   12  C   UNL     1      -8.669  17.049  67.172  1.00  0.00    -0.210 C  
HETATM   13  H   UNL     1      -9.099  18.398  65.829  1.00  0.00     0.000 HD 
HETATM   14  O   UNL     1      -8.766  17.508  65.815  1.00  0.00    -0.514 OA 
HETATM   15  C   UNL     1     -10.098  16.965  67.750  1.00  0.00    -0.292 C  
HETATM   16  C   UNL     1     -10.105  16.299  69.129  1.00  0.00    -0.264 C  
BRANCH  12  17
HETATM   17  C   UNL     1      -7.750  18.076  67.854  1.00  0.00    -0.230 A  
HETATM   18  C   UNL     1      -7.962  19.462  67.711  1.00  0.00    -0.321 A  
HETATM   19  C   UNL     1      -7.150  20.401  68.357  1.00  0.00    -0.182 A  
HETATM   20  C   UNL     1      -6.117  19.974  69.181  1.00  0.00    -0.310 A  
HETATM   21  C   UNL     1      -5.893  18.615  69.363  1.00  0.00    -0.251 A  
HETATM   22 CL   UNL     1      -5.136  21.127  69.995  1.00  0.00    -0.392 Cl 
HETATM   23  C   UNL     1      -6.707  17.679  68.714  1.00  0.00    -0.230 A  
ENDBRANCH  12  17
ENDBRANCH   8   9
ENDBRANCH   7   8
ENDBRANCH   6   7
BRANCH   6  24
HETATM   24  C   UNL     1     -10.460  11.123  68.282  1.00  0.00    -0.215 A  
HETATM   25  C   UNL     1     -11.805  11.242  68.686  1.00  0.00    -0.369 A  
HETATM   26  C   UNL     1      -9.625  10.338  69.097  1.00  0.00    -0.229 A  
HETATM   27  C   UNL     1     -12.265  10.658  69.873  1.00  0.00    -0.346 A  
HETATM   28  C   UNL     1     -11.398   9.928  70.680  1.00  0.00    -0.413 A  
HETATM   29  C   UNL     1     -10.077   9.764  70.286  1.00  0.00    -0.323 A  
ENDBRANCH   6  24
BRANCH   6  30
HETATM   30  C   UNL     1      -8.489  11.483  66.563  1.00  0.00    -0.160 A  
HETATM   31  C   UNL     1      -6.866  10.182  65.269  1.00  0.00    -0.137 A  
HETATM   32  C   UNL     1      -7.385  12.039  67.249  1.00  0.00    -0.151 A  
HETATM   33  C   UNL     1      -8.185  10.577  65.531  1.00  0.00    -0.162 A  
HETATM   34  C   UNL     1      -5.808  10.737  65.978  1.00  0.00    -0.140 A  
HETATM   35  C   UNL     1      -6.067  11.687  66.955  1.00  0.00    -0.148 A  
ENDBRANCH   6  30
ENDBRANCH   4   6
TORSDOF 7
ENDMDL
MODEL       98
REMARK 921   NORMALIZED FREE ENERGY PREDICTED BY IDOCK:   -4.94 KCAL/MOL
REMARK 922        TOTAL FREE ENERGY PREDICTED BY IDOCK:   -7.33 KCAL/MOL
REMARK 923 INTER-LIGAND FREE ENERGY PREDICTED BY IDOCK:   -7.27 KCAL/MOL
REMARK 924 INTRA-LIGAND FREE ENERGY PREDICTED BY IDOCK:   -0.06 KCAL/MOL
REMARK 927      BINDING AFFINITY PREDICTED BY RF-SCORE:    0.00 PKD
ROOT
HETATM    1  C   UNL     1      -8.385  16.054  66.900  1.00  0.00    -0.243 C  
HETATM    2  N   UNL     1      -9.130  14.815  66.697  1.00  0.00    -0.268 N  
HETATM    3  C   UNL     1     -10.328  14.922  65.883  1.00  0.00    -0.314 C  
HETATM    4  C   UNL     1      -8.799  13.745  67.534  1.00  0.00    -0.197 C  
HETATM    5  O   UNL     1      -7.879  13.906  68.353  1.00  0.00    -0.126 OA 
ENDROOT
BRANCH   4   6
HETATM    6  C   UNL     1      -9.554  12.331  67.451  1.00  0.00    -0.179 C  
BRANCH   6   7
HETATM    7  C   UNL     1      -8.421  11.262  67.819  1.00  0.00    -0.126 C  
BRANCH   7   8
HETATM    8  C   UNL     1      -8.874   9.891  68.354  1.00  0.00    -0.120 C  
BRANCH   8   9
HETATM    9  N   UNL     1      -8.577   8.731  67.486  1.00  0.00    -0.126 NA 
HETATM   10  C   UNL     1      -7.917   7.601  68.155  1.00  0.00    -0.123 C  
HETATM   11  C   UNL     1      -8.852   6.803  69.064  1.00  0.00    -0.129 C  
HETATM   12  C   UNL     1     -10.058   6.248  68.272  1.00  0.00    -0.153 C  
HETATM   13  H   UNL     1     -11.713   5.315  68.720  1.00  0.00     0.000 HD 
HETATM   14  O   UNL     1     -10.972   5.656  69.208  1.00  0.00    -0.304 OA 
HETATM   15  C   UNL     1     -10.754   7.471  67.636  1.00  0.00    -0.266 C  
HETATM   16  C   UNL     1      -9.783   8.278  66.768  1.00  0.00    -0.239 C  
BRANCH  12  17
HETATM   17  C   UNL     1      -9.725   5.108  67.294  1.00  0.00    -0.172 A  
HETATM   18  C   UNL     1     -10.455   4.924  66.103  1.00  0.00    -0.346 A  
HETATM   19  C   UNL     1     -10.136   3.909  65.194  1.00  0.00    -0.145 A  
HETATM   20  C   UNL     1      -9.062   3.066  65.445  1.00  0.00    -0.150 A  
HETATM   21  C   UNL     1      -8.306   3.232  66.599  1.00  0.00    -0.102 A  
HETATM   22 CL   UNL     1      -8.653   1.836  64.316  1.00  0.00    -0.082 Cl 
HETATM   23  C   UNL     1      -8.630   4.248  67.507  1.00  0.00    -0.108 A  
ENDBRANCH  12  17
ENDBRANCH   8   9
ENDBRANCH   7   8
ENDBRANCH   6   7
BRANCH   6  24
HETATM   24  C   UNL     1     -10.665  12.300  68.555  1.00  0.00    -0.261 A  
HETATM   25  C   UNL     1     -10.959  13.460  69.301  1.00  0.00    -0.159 A  
HETATM   26  C   UNL     1     -11.420  11.152  68.854  1.00  0.00    -0.363 A  
HETATM   27  C   UNL     1     -11.912  13.445  70.327  1.00  0.00    -0.378 A  
HETATM   28  C   UNL     1     -12.606  12.277  70.627  1.00  0.00    -0.241 A  
HETATM   29  C   UNL     1     -12.362  11.131  69.883  1.00  0.00    -0.330 A  
ENDBRANCH   6  24
BRANCH   6  30
HETATM   30  C   UNL     1     -10.064  12.028  65.999  1.00  0.00    -0.257 A  
HETATM   31  C   UNL     1     -11.861  11.791  64.351  1.00  0.00    -0.274 A  
HETATM   32  C   UNL     1      -9.189  11.526  65.009  1.00  0.00    -0.033 A  
HETATM   33  C   UNL     1     -11.407  12.194  65.614  1.00  0.00    -0.395 A  
HETATM   34  C   UNL     1     -10.973  11.283  63.410  1.00  0.00    -0.257 A  
HETATM   35  C   UNL     1      -9.629  11.173  63.732  1.00  0.00    -0.301 A  
ENDBRANCH   6  30
ENDBRANCH   4   6
TORSDOF 7
ENDMDL
MODEL       99
REMARK 921   NORMALIZED FREE ENERGY PREDICTED BY IDOCK:   -4.93 KCAL/MOL
REMARK 922        TOTAL FREE ENERGY PREDICTED BY IDOCK:   -7.32 KCAL/MOL
REMARK 923 INTER-LIGAND FREE ENERGY PREDICTED BY IDOCK:   -8.58 KCAL/MOL
REMARK 924 INTRA-LIGAND FREE ENERGY PREDICTED BY IDOCK:    1.26 KCAL/MOL
REMARK 927      BINDING AFFINITY PREDICTED BY RF-SCORE:    0.00 PKD
ROOT
HETATM    1  C   UNL     1     -10.095  20.549  67.584  1.00  0.00    -0.271 C  
HETATM    2  N   UNL     1     -10.119  19.096  67.439  1.00  0.00    -0.356 N  
HETATM    3  C   UNL     1     -10.472  18.597  66.122  1.00  0.00    -0.430 C  
HETATM    4  C   UNL     1     -10.106  18.352  68.623  1.00  0.00    -0.377 C  
HETATM    5  O   UNL     1     -10.033  18.968  69.699  1.00  0.00    -0.044 OA 
ENDROOT
BRANCH   4   6
HETATM    6  C   UNL     1     -10.163  16.749  68.624  1.00  0.00    -0.298 C  
BRANCH   6   7
HETATM    7  C   UNL     1     -10.760  16.379  67.186  1.00  0.00    -0.233 C  
BRANCH   7   8
HETATM    8  C   UNL     1     -11.334  14.964  66.989  1.00  0.00    -0.342 C  
BRANCH   8   9
HETATM    9  N   UNL     1     -10.368  13.932  66.557  1.00  0.00    -0.281 NA 
HETATM   10  C   UNL     1     -10.780  12.543  66.808  1.00  0.00    -0.236 C  
HETATM   11  C   UNL     1     -11.873  12.053  65.857  1.00  0.00    -0.232 C  
HETATM   12  C   UNL     1     -11.417  12.155  64.384  1.00  0.00    -0.350 C  
HETATM   13  H   UNL     1     -12.257  11.901  62.641  1.00  0.00     0.000 HD 
HETATM   14  O   UNL     1     -12.539  11.838  63.547  1.00  0.00    -0.523 OA 
HETATM   15  C   UNL     1     -11.050  13.637  64.150  1.00  0.00    -0.250 C  
HETATM   16  C   UNL     1      -9.986  14.113  65.143  1.00  0.00    -0.229 C  
BRANCH  12  17
HETATM   17  C   UNL     1     -10.336  11.143  63.967  1.00  0.00    -0.437 A  
HETATM   18  C   UNL     1      -9.665  11.250  62.733  1.00  0.00    -0.289 A  
HETATM   19  C   UNL     1      -8.658  10.352  62.362  1.00  0.00    -0.242 A  
HETATM   20  C   UNL     1      -8.281   9.337  63.230  1.00  0.00    -0.176 A  
HETATM   21  C   UNL     1      -8.905   9.214  64.465  1.00  0.00    -0.165 A  
HETATM   22 CL   UNL     1      -7.026   8.249  62.786  1.00  0.00    -0.089 Cl 
HETATM   23  C   UNL     1      -9.914  10.113  64.831  1.00  0.00    -0.358 A  
ENDBRANCH  12  17
ENDBRANCH   8   9
ENDBRANCH   7   8
ENDBRANCH   6   7
BRANCH   6  24
HETATM   24  C   UNL     1      -8.697  16.203  68.725  1.00  0.00    -0.240 A  
HETATM   25  C   UNL     1      -7.652  16.841  68.027  1.00  0.00    -0.173 A  
HETATM   26  C   UNL     1      -8.346  15.086  69.502  1.00  0.00    -0.092 A  
HETATM   27  C   UNL     1      -6.342  16.344  68.060  1.00  0.00    -0.137 A  
HETATM   28  C   UNL     1      -6.041  15.206  68.802  1.00  0.00    -0.087 A  
HETATM   29  C   UNL     1      -7.045  14.581  69.529  1.00  0.00    -0.125 A  
ENDBRANCH   6  24
BRANCH   6  30
HETATM   30  C   UNL     1     -11.143  16.201  69.719  1.00  0.00    -0.350 A  
HETATM   31  C   UNL     1     -13.145  14.962  70.396  1.00  0.00    -0.206 A  
HETATM   32  C   UNL     1     -11.023  16.601  71.070  1.00  0.00     0.399 A  
HETATM   33  C   UNL     1     -12.207  15.330  69.423  1.00  0.00    -0.247 A  
HETATM   34  C   UNL     1     -13.004  15.392  71.710  1.00  0.00    -0.509 A  
HETATM   35  C   UNL     1     -11.927  16.194  72.053  1.00  0.00    -0.607 A  
ENDBRANCH   6  30
ENDBRANCH   4   6
TORSDOF 7
ENDMDL
MODEL      100
REMARK 921   NORMALIZED FREE ENERGY PREDICTED BY IDOCK:   -4.88 KCAL/MOL
REMARK 922        TOTAL FREE ENERGY PREDICTED BY IDOCK:   -7.25 KCAL/MOL
REMARK 923 INTER-LIGAND FREE ENERGY PREDICTED BY IDOCK:   -7.13 KCAL/MOL
REMARK 924 INTRA-LIGAND FREE ENERGY PREDICTED BY IDOCK:   -0.12 KCAL/MOL
REMARK 927      BINDING AFFINITY PREDICTED BY RF-SCORE:    0.00 PKD
ROOT
HETATM    1  C   UNL     1      -9.532   3.157  68.392  1.00  0.00    -0.147 C  
HETATM    2  N   UNL     1      -9.297   3.932  69.607  1.00  0.00    -0.160 N  
HETATM    3  C   UNL     1      -9.631   3.270  70.855  1.00  0.00    -0.164 C  
HETATM    4  C   UNL     1      -9.075   5.302  69.438  1.00  0.00    -0.104 C  
HETATM    5  O   UNL     1      -9.051   5.752  68.281  1.00  0.00    -0.118 OA 
ENDROOT
BRANCH   4   6
HETATM    6  C   UNL     1      -8.835   6.287  70.682  1.00  0.00    -0.144 C  
BRANCH   6   7
HETATM    7  C   UNL     1      -7.961   7.480  70.072  1.00  0.00    -0.112 C  
BRANCH   7   8
HETATM    8  C   UNL     1      -8.613   8.872  69.974  1.00  0.00    -0.142 C  
BRANCH   8   9
HETATM    9  N   UNL     1      -9.157   9.237  68.649  1.00  0.00    -0.132 NA 
HETATM   10  C   UNL     1     -10.623   9.273  68.561  1.00  0.00    -0.183 C  
HETATM   11  C   UNL     1     -11.244  10.486  69.254  1.00  0.00    -0.320 C  
HETATM   12  C   UNL     1     -10.699  11.805  68.661  1.00  0.00    -0.220 C  
HETATM   13  H   UNL     1     -10.858  13.701  69.096  1.00  0.00     0.000 HD 
HETATM   14  O   UNL     1     -11.192  12.890  69.461  1.00  0.00    -0.185 OA 
HETATM   15  C   UNL     1      -9.165  11.749  68.827  1.00  0.00    -0.009 C  
HETATM   16  C   UNL     1      -8.575  10.502  68.162  1.00  0.00    -0.123 C  
BRANCH  12  17
HETATM   17  C   UNL     1     -11.188  12.129  67.240  1.00  0.00    -0.366 A  
HETATM   18  C   UNL     1     -12.112  13.165  66.998  1.00  0.00    -0.366 A  
HETATM   19  C   UNL     1     -12.536  13.487  65.703  1.00  0.00    -0.528 A  
HETATM   20  C   UNL     1     -12.026  12.792  64.615  1.00  0.00    -0.396 A  
HETATM   21  C   UNL     1     -11.097  11.779  64.813  1.00  0.00    -0.356 A  
HETATM   22 CL   UNL     1     -12.526  13.204  63.023  1.00  0.00    -0.194 Cl 
HETATM   23  C   UNL     1     -10.677  11.459  66.111  1.00  0.00    -0.320 A  
ENDBRANCH  12  17
ENDBRANCH   8   9
ENDBRANCH   7   8
ENDBRANCH   6   7
BRANCH   6  24
HETATM   24  C   UNL     1     -10.224   6.852  71.138  1.00  0.00    -0.211 A  
HETATM   25  C   UNL     1     -11.415   6.350  70.576  1.00  0.00    -0.444 A  
HETATM   26  C   UNL     1     -10.362   7.856  72.113  1.00  0.00    -0.297 A  
HETATM   27  C   UNL     1     -12.666   6.872  70.929  1.00  0.00    -0.196 A  
HETATM   28  C   UNL     1     -12.761   7.900  71.863  1.00  0.00    -0.341 A  
HETATM   29  C   UNL     1     -11.606   8.386  72.459  1.00  0.00    -0.426 A  
ENDBRANCH   6  24
BRANCH   6  30
HETATM   30  C   UNL     1      -8.003   5.598  71.819  1.00  0.00    -0.114 A  
HETATM   31  C   UNL     1      -7.737   4.817  74.126  1.00  0.00    -0.093 A  
HETATM   32  C   UNL     1      -6.642   5.267  71.628  1.00  0.00    -0.040 A  
HETATM   33  C   UNL     1      -8.538   5.311  73.088  1.00  0.00    -0.117 A  
HETATM   34  C   UNL     1      -6.397   4.522  73.904  1.00  0.00    -0.047 A  
HETATM   35  C   UNL     1      -5.854   4.725  72.645  1.00  0.00    -0.016 A  
ENDBRANCH   6  30
ENDBRANCH   4   6
TORSDOF 7
ENDMDL
MODEL      101
REMARK 921   NORMALIZED FREE ENERGY PREDICTED BY IDOCK:   -4.85 KCAL/MOL
REMARK 922        TOTAL FREE ENERGY PREDICTED BY IDOCK:   -7.21 KCAL/MOL
REMARK 923 INTER-LIGAND FREE ENERGY PREDICTED BY IDOCK:   -7.20 KCAL/MOL
REMARK 924 INTRA-LIGAND FREE ENERGY PREDICTED BY IDOCK:   -0.00 KCAL/MOL
REMARK 927      BINDING AFFINITY PREDICTED BY RF-SCORE:    0.00 PKD
ROOT
HETATM    1  C   UNL     1     -12.501  13.836  65.693  1.00  0.00    -0.503 C  
HETATM    2  N   UNL     1     -11.769  13.974  66.949  1.00  0.00    -0.388 N  
HETATM    3  C   UNL     1     -12.076  12.990  67.972  1.00  0.00    -0.174 C  
HETATM    4  C   UNL     1     -11.095  15.183  67.149  1.00  0.00    -0.335 C  
HETATM    5  O   UNL     1     -11.131  16.028  66.239  1.00  0.00    -0.144 OA 
ENDROOT
BRANCH   4   6
HETATM    6  C   UNL     1     -10.276  15.492  68.493  1.00  0.00    -0.215 C  
BRANCH   6   7
HETATM    7  C   UNL     1      -9.251  14.269  68.614  1.00  0.00    -0.167 C  
BRANCH   7   8
HETATM    8  C   UNL     1      -8.744  13.625  67.311  1.00  0.00    -0.218 C  
BRANCH   8   9
HETATM    9  N   UNL     1      -7.979  12.370  67.467  1.00  0.00    -0.161 NA 
HETATM   10  C   UNL     1      -8.191  11.660  68.736  1.00  0.00    -0.055 C  
HETATM   11  C   UNL     1      -9.546  10.955  68.819  1.00  0.00    -0.195 C  
HETATM   12  C   UNL     1      -9.713   9.936  67.670  1.00  0.00    -0.155 C  
HETATM   13  H   UNL     1     -11.161   8.809  67.004  1.00  0.00     0.000 HD 
HETATM   14  O   UNL     1     -11.058   9.436  67.710  1.00  0.00    -0.148 OA 
HETATM   15  C   UNL     1      -9.541  10.733  66.359  1.00  0.00    -0.226 C  
HETATM   16  C   UNL     1      -8.196  11.465  66.323  1.00  0.00    -0.088 C  
BRANCH  12  17
HETATM   17  C   UNL     1      -8.838   8.676  67.785  1.00  0.00    -0.137 A  
HETATM   18  C   UNL     1      -8.453   8.160  69.038  1.00  0.00    -0.129 A  
HETATM   19  C   UNL     1      -7.684   6.996  69.150  1.00  0.00    -0.105 A  
HETATM   20  C   UNL     1      -7.300   6.307  68.008  1.00  0.00    -0.089 A  
HETATM   21  C   UNL     1      -7.680   6.774  66.756  1.00  0.00    -0.106 A  
HETATM   22 CL   UNL     1      -6.378   4.863  68.146  1.00  0.00    -0.035 Cl 
HETATM   23  C   UNL     1      -8.447   7.941  66.649  1.00  0.00    -0.131 A  
ENDBRANCH  12  17
ENDBRANCH   8   9
ENDBRANCH   7   8
ENDBRANCH   6   7
BRANCH   6  24
HETATM   24  C   UNL     1      -9.468  16.818  68.285  1.00  0.00    -0.240 A  
HETATM   25  C   UNL     1      -9.997  18.049  68.726  1.00  0.00    -0.380 A  
HETATM   26  C   UNL     1      -8.203  16.859  67.673  1.00  0.00    -0.196 A  
HETATM   27  C   UNL     1      -9.318  19.254  68.507  1.00  0.00    -0.443 A  
HETATM   28  C   UNL     1      -8.089  19.261  67.855  1.00  0.00    -0.325 A  
HETATM   29  C   UNL     1      -7.530  18.059  67.444  1.00  0.00    -0.212 A  
ENDBRANCH   6  24
BRANCH   6  30
HETATM   30  C   UNL     1     -11.206  15.482  69.756  1.00  0.00    -0.307 A  
HETATM   31  C   UNL     1     -11.589  15.122  72.149  1.00  0.00    -0.490 A  
HETATM   32  C   UNL     1     -12.603  15.661  69.635  1.00  0.00     0.033 A  
HETATM   33  C   UNL     1     -10.721  15.256  71.057  1.00  0.00    -0.058 A  
HETATM   34  C   UNL     1     -12.959  15.286  71.986  1.00  0.00    -0.455 A  
HETATM   35  C   UNL     1     -13.466  15.580  70.729  1.00  0.00    -0.226 A  
ENDBRANCH   6  30
ENDBRANCH   4   6
TORSDOF 7
ENDMDL
MODEL      102
REMARK 921   NORMALIZED FREE ENERGY PREDICTED BY IDOCK:   -4.83 KCAL/MOL
REMARK 922        TOTAL FREE ENERGY PREDICTED BY IDOCK:   -7.18 KCAL/MOL
REMARK 923 INTER-LIGAND FREE ENERGY PREDICTED BY IDOCK:   -7.48 KCAL/MOL
REMARK 924 INTRA-LIGAND FREE ENERGY PREDICTED BY IDOCK:    0.30 KCAL/MOL
REMARK 927      BINDING AFFINITY PREDICTED BY RF-SCORE:    0.00 PKD
ROOT
HETATM    1  C   UNL     1      -9.574   5.529  67.620  1.00  0.00    -0.123 C  
HETATM    2  N   UNL     1      -9.548   6.411  68.784  1.00  0.00    -0.126 N  
HETATM    3  C   UNL     1      -9.026   5.830  70.008  1.00  0.00    -0.139 C  
HETATM    4  C   UNL     1     -10.292   7.591  68.688  1.00  0.00    -0.200 C  
HETATM    5  O   UNL     1     -10.882   7.825  67.620  1.00  0.00    -0.187 OA 
ENDROOT
BRANCH   4   6
HETATM    6  C   UNL     1     -10.385   8.642  69.897  1.00  0.00    -0.213 C  
BRANCH   6   7
HETATM    7  C   UNL     1     -10.730  10.031  69.181  1.00  0.00    -0.244 C  
BRANCH   7   8
HETATM    8  C   UNL     1      -9.819  10.489  68.028  1.00  0.00    -0.147 C  
BRANCH   8   9
HETATM    9  N   UNL     1      -9.292  11.867  68.132  1.00  0.00    -0.187 NA 
HETATM   10  C   UNL     1      -8.910  12.490  66.856  1.00  0.00    -0.203 C  
HETATM   11  C   UNL     1     -10.108  12.911  66.004  1.00  0.00    -0.290 C  
HETATM   12  C   UNL     1     -11.012  13.905  66.767  1.00  0.00    -0.299 C  
HETATM   13  H   UNL     1     -12.748  14.740  66.450  1.00  0.00     0.000 HD 
HETATM   14  O   UNL     1     -12.192  14.129  65.980  1.00  0.00    -0.419 OA 
HETATM   15  C   UNL     1     -11.436  13.189  68.068  1.00  0.00    -0.346 C  
HETATM   16  C   UNL     1     -10.218  12.738  68.880  1.00  0.00     0.017 C  
BRANCH  12  17
HETATM   17  C   UNL     1     -10.416  15.309  66.962  1.00  0.00    -0.292 A  
HETATM   18  C   UNL     1      -9.433  15.819  66.090  1.00  0.00    -0.375 A  
HETATM   19  C   UNL     1      -8.910  17.108  66.243  1.00  0.00    -0.266 A  
HETATM   20  C   UNL     1      -9.377  17.929  67.261  1.00  0.00    -0.258 A  
HETATM   21  C   UNL     1     -10.361  17.468  68.126  1.00  0.00    -0.375 A  
HETATM   22 CL   UNL     1      -8.754  19.522  67.433  1.00  0.00    -0.340 Cl 
HETATM   23  C   UNL     1     -10.880  16.176  67.971  1.00  0.00    -0.333 A  
ENDBRANCH  12  17
ENDBRANCH   8   9
ENDBRANCH   7   8
ENDBRANCH   6   7
BRANCH   6  24
HETATM   24  C   UNL     1     -11.584   8.229  70.818  1.00  0.00    -0.250 A  
HETATM   25  C   UNL     1     -11.991   6.881  70.893  1.00  0.00    -0.430 A  
HETATM   26  C   UNL     1     -12.298   9.147  71.607  1.00  0.00    -0.434 A  
HETATM   27  C   UNL     1     -13.091   6.493  71.669  1.00  0.00     0.007 A  
HETATM   28  C   UNL     1     -13.804   7.438  72.400  1.00  0.00     0.186 A  
HETATM   29  C   UNL     1     -13.401   8.766  72.372  1.00  0.00    -0.442 A  
ENDBRANCH   6  24
BRANCH   6  30
HETATM   30  C   UNL     1      -9.013   8.798  70.640  1.00  0.00    -0.219 A  
HETATM   31  C   UNL     1      -6.590   9.164  70.639  1.00  0.00    -0.071 A  
HETATM   32  C   UNL     1      -8.898   8.535  72.024  1.00  0.00    -0.286 A  
HETATM   33  C   UNL     1      -7.826   9.160  69.978  1.00  0.00    -0.099 A  
HETATM   34  C   UNL     1      -6.516   8.880  71.998  1.00  0.00    -0.030 A  
HETATM   35  C   UNL     1      -7.677   8.589  72.698  1.00  0.00    -0.073 A  
ENDBRANCH   6  30
ENDBRANCH   4   6
TORSDOF 7
ENDMDL
MODEL      103
REMARK 921   NORMALIZED FREE ENERGY PREDICTED BY IDOCK:   -4.82 KCAL/MOL
REMARK 922        TOTAL FREE ENERGY PREDICTED BY IDOCK:   -7.17 KCAL/MOL
REMARK 923 INTER-LIGAND FREE ENERGY PREDICTED BY IDOCK:   -6.73 KCAL/MOL
REMARK 924 INTRA-LIGAND FREE ENERGY PREDICTED BY IDOCK:   -0.44 KCAL/MOL
REMARK 927      BINDING AFFINITY PREDICTED BY RF-SCORE:    0.00 PKD
ROOT
HETATM    1  C   UNL     1     -10.776  19.311  66.963  1.00  0.00    -0.464 C  
HETATM    2  N   UNL     1     -10.475  18.187  67.845  1.00  0.00    -0.395 N  
HETATM    3  C   UNL     1      -9.968  18.533  69.161  1.00  0.00    -0.184 C  
HETATM    4  C   UNL     1     -10.412  16.925  67.247  1.00  0.00    -0.301 C  
HETATM    5  O   UNL     1     -10.654  16.841  66.032  1.00  0.00    -0.307 OA 
ENDROOT
BRANCH   4   6
HETATM    6  C   UNL     1     -10.059  15.601  68.083  1.00  0.00    -0.222 C  
BRANCH   6   7
HETATM    7  C   UNL     1     -10.380  14.404  67.071  1.00  0.00    -0.263 C  
BRANCH   7   8
HETATM    8  C   UNL     1     -10.950  13.100  67.659  1.00  0.00    -0.262 C  
BRANCH   8   9
HETATM    9  N   UNL     1     -10.415  11.847  67.086  1.00  0.00    -0.217 NA 
HETATM   10  C   UNL     1      -8.983  11.610  67.321  1.00  0.00    -0.169 C  
HETATM   11  C   UNL     1      -8.664  11.200  68.759  1.00  0.00    -0.130 C  
HETATM   12  C   UNL     1      -9.429   9.917  69.154  1.00  0.00    -0.196 C  
HETATM   13  H   UNL     1      -9.685   8.894  70.797  1.00  0.00     0.000 HD 
HETATM   14  O   UNL     1      -9.215   9.683  70.554  1.00  0.00    -0.249 OA 
HETATM   15  C   UNL     1     -10.928  10.229  68.947  1.00  0.00    -0.279 C  
HETATM   16  C   UNL     1     -11.211  10.681  67.512  1.00  0.00    -0.253 C  
BRANCH  12  17
HETATM   17  C   UNL     1      -8.934   8.629  68.475  1.00  0.00    -0.139 A  
HETATM   18  C   UNL     1      -7.581   8.238  68.536  1.00  0.00    -0.100 A  
HETATM   19  C   UNL     1      -7.131   7.050  67.949  1.00  0.00    -0.086 A  
HETATM   20  C   UNL     1      -8.029   6.212  67.303  1.00  0.00    -0.102 A  
HETATM   21  C   UNL     1      -9.374   6.554  67.242  1.00  0.00    -0.129 A  
HETATM   22 CL   UNL     1      -7.481   4.741  66.604  1.00  0.00    -0.085 Cl 
HETATM   23  C   UNL     1      -9.821   7.745  67.829  1.00  0.00    -0.200 A  
ENDBRANCH  12  17
ENDBRANCH   8   9
ENDBRANCH   7   8
ENDBRANCH   6   7
BRANCH   6  24
HETATM   24  C   UNL     1      -8.524  15.610  68.395  1.00  0.00    -0.164 A  
HETATM   25  C   UNL     1      -7.659  16.466  67.683  1.00  0.00    -0.161 A  
HETATM   26  C   UNL     1      -7.935  14.798  69.380  1.00  0.00    -0.065 A  
HETATM   27  C   UNL     1      -6.276  16.457  67.907  1.00  0.00    -0.143 A  
HETATM   28  C   UNL     1      -5.723  15.604  68.857  1.00  0.00    -0.103 A  
HETATM   29  C   UNL     1      -6.557  14.779  69.598  1.00  0.00    -0.161 A  
ENDBRANCH   6  24
BRANCH   6  30
HETATM   30  C   UNL     1     -10.983  15.444  69.341  1.00  0.00    -0.276 A  
HETATM   31  C   UNL     1     -13.175  15.527  70.431  1.00  0.00    -0.051 A  
HETATM   32  C   UNL     1     -10.433  15.238  70.628  1.00  0.00    -0.030 A  
HETATM   33  C   UNL     1     -12.384  15.540  69.274  1.00  0.00    -0.106 A  
HETATM   34  C   UNL     1     -12.596  15.342  71.680  1.00  0.00    -0.446 A  
HETATM   35  C   UNL     1     -11.223  15.172  71.777  1.00  0.00    -0.299 A  
ENDBRANCH   6  30
ENDBRANCH   4   6
TORSDOF 7
ENDMDL
MODEL      104
REMARK 921   NORMALIZED FREE ENERGY PREDICTED BY IDOCK:   -4.81 KCAL/MOL
REMARK 922        TOTAL FREE ENERGY PREDICTED BY IDOCK:   -7.15 KCAL/MOL
REMARK 923 INTER-LIGAND FREE ENERGY PREDICTED BY IDOCK:   -6.73 KCAL/MOL
REMARK 924 INTRA-LIGAND FREE ENERGY PREDICTED BY IDOCK:   -0.42 KCAL/MOL
REMARK 927      BINDING AFFINITY PREDICTED BY RF-SCORE:    0.00 PKD
ROOT
HETATM    1  C   UNL     1      -8.117   3.726  67.358  1.00  0.00    -0.090 C  
HETATM    2  N   UNL     1      -8.122   4.266  68.715  1.00  0.00    -0.072 N  
HETATM    3  C   UNL     1      -7.066   3.789  69.590  1.00  0.00    -0.042 C  
HETATM    4  C   UNL     1      -9.286   4.928  69.118  1.00  0.00    -0.128 C  
HETATM    5  O   UNL     1     -10.206   5.046  68.292  1.00  0.00    -0.145 OA 
ENDROOT
BRANCH   4   6
HETATM    6  C   UNL     1      -9.451   5.545  70.590  1.00  0.00    -0.209 C  
BRANCH   6   7
HETATM    7  C   UNL     1     -10.604   6.642  70.426  1.00  0.00    -0.266 C  
BRANCH   7   8
HETATM    8  C   UNL     1     -10.181   8.120  70.343  1.00  0.00    -0.201 C  
BRANCH   8   9
HETATM    9  N   UNL     1     -10.854   8.926  69.301  1.00  0.00    -0.155 NA 
HETATM   10  C   UNL     1     -10.580  10.369  69.351  1.00  0.00    -0.239 C  
HETATM   11  C   UNL     1      -9.178  10.739  68.865  1.00  0.00    -0.180 C  
HETATM   12  C   UNL     1      -8.948  10.260  67.414  1.00  0.00    -0.135 C  
HETATM   13  H   UNL     1      -7.429  10.196  66.189  1.00  0.00     0.000 HD 
HETATM   14  O   UNL     1      -7.570  10.490  67.082  1.00  0.00    -0.094 OA 
HETATM   15  C   UNL     1      -9.188   8.735  67.421  1.00  0.00    -0.158 C  
HETATM   16  C   UNL     1     -10.582   8.391  67.954  1.00  0.00    -0.154 C  
BRANCH  12  17
HETATM   17  C   UNL     1      -9.730  11.037  66.341  1.00  0.00    -0.235 A  
HETATM   18  C   UNL     1     -10.034  10.462  65.092  1.00  0.00    -0.390 A  
HETATM   19  C   UNL     1     -10.775  11.151  64.124  1.00  0.00    -0.415 A  
HETATM   20  C   UNL     1     -11.248  12.428  64.394  1.00  0.00    -0.332 A  
HETATM   21  C   UNL     1     -10.986  13.018  65.624  1.00  0.00    -0.296 A  
HETATM   22 CL   UNL     1     -12.179  13.265  63.216  1.00  0.00    -0.536 Cl 
HETATM   23  C   UNL     1     -10.243  12.326  66.588  1.00  0.00    -0.235 A  
ENDBRANCH  12  17
ENDBRANCH   8   9
ENDBRANCH   7   8
ENDBRANCH   6   7
BRANCH   6  24
HETATM   24  C   UNL     1      -9.956   4.410  71.546  1.00  0.00    -0.250 A  
HETATM   25  C   UNL     1     -10.736   4.729  72.676  1.00  0.00    -0.263 A  
HETATM   26  C   UNL     1      -9.680   3.048  71.335  1.00  0.00    -0.219 A  
HETATM   27  C   UNL     1     -11.157   3.739  73.574  1.00  0.00    -0.328 A  
HETATM   28  C   UNL     1     -10.824   2.406  73.359  1.00  0.00    -0.285 A  
HETATM   29  C   UNL     1     -10.089   2.061  72.233  1.00  0.00    -0.230 A  
ENDBRANCH   6  24
BRANCH   6  30
HETATM   30  C   UNL     1      -8.145   6.270  71.067  1.00  0.00    -0.121 A  
HETATM   31  C   UNL     1      -6.561   6.931  72.816  1.00  0.00    -0.065 A  
HETATM   32  C   UNL     1      -7.414   7.106  70.192  1.00  0.00    -0.089 A  
HETATM   33  C   UNL     1      -7.654   6.169  72.381  1.00  0.00    -0.099 A  
HETATM   34  C   UNL     1      -5.880   7.757  71.930  1.00  0.00    -0.035 A  
HETATM   35  C   UNL     1      -6.293   7.827  70.608  1.00  0.00    -0.037 A  
ENDBRANCH   6  30
ENDBRANCH   4   6
TORSDOF 7
ENDMDL
MODEL      105
REMARK 921   NORMALIZED FREE ENERGY PREDICTED BY IDOCK:   -4.76 KCAL/MOL
REMARK 922        TOTAL FREE ENERGY PREDICTED BY IDOCK:   -7.08 KCAL/MOL
REMARK 923 INTER-LIGAND FREE ENERGY PREDICTED BY IDOCK:   -6.60 KCAL/MOL
REMARK 924 INTRA-LIGAND FREE ENERGY PREDICTED BY IDOCK:   -0.48 KCAL/MOL
REMARK 927      BINDING AFFINITY PREDICTED BY RF-SCORE:    0.00 PKD
ROOT
HETATM    1  C   UNL     1      -5.266   5.134  70.908  1.00  0.00    -0.004 C  
HETATM    2  N   UNL     1      -6.587   5.264  70.301  1.00  0.00    -0.034 N  
HETATM    3  C   UNL     1      -7.661   4.543  70.961  1.00  0.00    -0.072 C  
HETATM    4  C   UNL     1      -6.630   5.797  69.009  1.00  0.00    -0.051 C  
HETATM    5  O   UNL     1      -5.560   6.158  68.490  1.00  0.00    -0.010 OA 
ENDROOT
BRANCH   4   6
HETATM    6  C   UNL     1      -8.006   5.969  68.201  1.00  0.00    -0.110 C  
BRANCH   6   7
HETATM    7  C   UNL     1      -7.683   7.102  67.118  1.00  0.00    -0.108 C  
BRANCH   7   8
HETATM    8  C   UNL     1      -7.378   8.521  67.632  1.00  0.00    -0.089 C  
BRANCH   8   9
HETATM    9  N   UNL     1      -7.882   9.631  66.796  1.00  0.00    -0.101 NA 
HETATM   10  C   UNL     1      -9.128   9.352  66.068  1.00  0.00    -0.183 C  
HETATM   11  C   UNL     1     -10.366   9.340  66.965  1.00  0.00    -0.325 C  
HETATM   12  C   UNL     1     -10.536  10.689  67.698  1.00  0.00    -0.246 C  
HETATM   13  H   UNL     1     -11.716  11.384  69.089  1.00  0.00     0.000 HD 
HETATM   14  O   UNL     1     -11.612  10.553  68.639  1.00  0.00    -0.258 OA 
HETATM   15  C   UNL     1      -9.232  10.913  68.494  1.00  0.00    -0.181 C  
HETATM   16  C   UNL     1      -8.005  10.876  67.578  1.00  0.00    -0.115 C  
BRANCH  12  17
HETATM   17  C   UNL     1     -10.962  11.866  66.804  1.00  0.00    -0.337 A  
HETATM   18  C   UNL     1     -10.954  11.763  65.398  1.00  0.00    -0.352 A  
HETATM   19  C   UNL     1     -11.372  12.818  64.580  1.00  0.00    -0.378 A  
HETATM   20  C   UNL     1     -11.831  13.997  65.151  1.00  0.00    -0.365 A  
HETATM   21  C   UNL     1     -11.874  14.127  66.533  1.00  0.00    -0.439 A  
HETATM   22 CL   UNL     1     -12.370  15.285  64.147  1.00  0.00    -0.275 Cl 
HETATM   23  C   UNL     1     -11.453  13.069  67.349  1.00  0.00    -0.380 A  
ENDBRANCH  12  17
ENDBRANCH   8   9
ENDBRANCH   7   8
ENDBRANCH   6   7
BRANCH   6  24
HETATM   24  C   UNL     1      -8.313   4.624  67.459  1.00  0.00    -0.104 A  
HETATM   25  C   UNL     1      -8.876   4.637  66.167  1.00  0.00    -0.118 A  
HETATM   26  C   UNL     1      -8.046   3.361  68.017  1.00  0.00    -0.083 A  
HETATM   27  C   UNL     1      -9.207   3.449  65.502  1.00  0.00    -0.153 A  
HETATM   28  C   UNL     1      -8.973   2.218  66.105  1.00  0.00    -0.111 A  
HETATM   29  C   UNL     1      -8.386   2.176  67.362  1.00  0.00    -0.088 A  
ENDBRANCH   6  24
BRANCH   6  30
HETATM   30  C   UNL     1      -9.162   6.487  69.126  1.00  0.00    -0.135 A  
HETATM   31  C   UNL     1     -11.521   6.579  69.782  1.00  0.00    -0.443 A  
HETATM   32  C   UNL     1      -8.934   7.507  70.077  1.00  0.00    -0.144 A  
HETATM   33  C   UNL     1     -10.482   6.007  69.037  1.00  0.00    -0.319 A  
HETATM   34  C   UNL     1     -11.260   7.595  70.693  1.00  0.00    -0.280 A  
HETATM   35  C   UNL     1      -9.959   8.043  70.860  1.00  0.00    -0.207 A  
ENDBRANCH   6  30
ENDBRANCH   4   6
TORSDOF 7
ENDMDL
MODEL      106
REMARK 921   NORMALIZED FREE ENERGY PREDICTED BY IDOCK:   -4.75 KCAL/MOL
REMARK 922        TOTAL FREE ENERGY PREDICTED BY IDOCK:   -7.07 KCAL/MOL
REMARK 923 INTER-LIGAND FREE ENERGY PREDICTED BY IDOCK:   -7.22 KCAL/MOL
REMARK 924 INTRA-LIGAND FREE ENERGY PREDICTED BY IDOCK:    0.15 KCAL/MOL
REMARK 927      BINDING AFFINITY PREDICTED BY RF-SCORE:    0.00 PKD
ROOT
HETATM    1  C   UNL     1     -12.199  13.287  69.744  1.00  0.00    -0.222 C  
HETATM    2  N   UNL     1     -11.521  13.157  68.457  1.00  0.00    -0.280 N  
HETATM    3  C   UNL     1     -11.906  12.011  67.652  1.00  0.00    -0.224 C  
HETATM    4  C   UNL     1     -10.383  13.947  68.270  1.00  0.00    -0.249 C  
HETATM    5  O   UNL     1     -10.055  14.725  69.181  1.00  0.00    -0.224 OA 
ENDROOT
BRANCH   4   6
HETATM    6  C   UNL     1      -9.515  13.887  66.921  1.00  0.00    -0.263 C  
BRANCH   6   7
HETATM    7  C   UNL     1      -8.636  12.559  67.082  1.00  0.00    -0.200 C  
BRANCH   7   8
HETATM    8  C   UNL     1      -8.465  11.979  68.498  1.00  0.00    -0.098 C  
BRANCH   8   9
HETATM    9  N   UNL     1      -8.967  10.602  68.695  1.00  0.00    -0.162 NA 
HETATM   10  C   UNL     1      -9.121   9.809  67.467  1.00  0.00    -0.130 C  
HETATM   11  C   UNL     1      -7.791   9.341  66.876  1.00  0.00    -0.098 C  
HETATM   12  C   UNL     1      -6.997   8.492  67.894  1.00  0.00    -0.074 C  
HETATM   13  H   UNL     1      -5.213   7.704  67.965  1.00  0.00     0.000 HD 
HETATM   14  O   UNL     1      -5.700   8.227  67.338  1.00  0.00    -0.037 OA 
HETATM   15  C   UNL     1      -6.809   9.382  69.142  1.00  0.00    -0.050 C  
HETATM   16  C   UNL     1      -8.153   9.873  69.686  1.00  0.00    -0.165 C  
BRANCH  12  17
HETATM   17  C   UNL     1      -7.582   7.097  68.172  1.00  0.00    -0.115 A  
HETATM   18  C   UNL     1      -7.699   6.597  69.484  1.00  0.00    -0.104 A  
HETATM   19  C   UNL     1      -8.261   5.342  69.747  1.00  0.00    -0.098 A  
HETATM   20  C   UNL     1      -8.740   4.565  68.701  1.00  0.00    -0.098 A  
HETATM   21  C   UNL     1      -8.660   5.034  67.396  1.00  0.00    -0.104 A  
HETATM   22 CL   UNL     1      -9.453   3.035  69.025  1.00  0.00    -0.221 Cl 
HETATM   23  C   UNL     1      -8.096   6.290  67.138  1.00  0.00    -0.109 A  
ENDBRANCH  12  17
ENDBRANCH   8   9
ENDBRANCH   7   8
ENDBRANCH   6   7
BRANCH   6  24
HETATM   24  C   UNL     1     -10.495  13.709  65.712  1.00  0.00    -0.296 A  
HETATM   25  C   UNL     1     -10.393  12.579  64.875  1.00  0.00    -0.323 A  
HETATM   26  C   UNL     1     -11.510  14.632  65.403  1.00  0.00    -0.352 A  
HETATM   27  C   UNL     1     -11.223  12.422  63.757  1.00  0.00    -0.520 A  
HETATM   28  C   UNL     1     -12.185  13.381  63.455  1.00  0.00    -0.419 A  
HETATM   29  C   UNL     1     -12.331  14.484  64.285  1.00  0.00    -0.396 A  
ENDBRANCH   6  24
BRANCH   6  30
HETATM   30  C   UNL     1      -8.541  15.111  66.801  1.00  0.00    -0.297 A  
HETATM   31  C   UNL     1      -6.429  16.243  67.309  1.00  0.00    -0.223 A  
HETATM   32  C   UNL     1      -8.960  16.320  66.201  1.00  0.00    -0.374 A  
HETATM   33  C   UNL     1      -7.231  15.094  67.313  1.00  0.00    -0.197 A  
HETATM   34  C   UNL     1      -6.884  17.420  66.727  1.00  0.00    -0.247 A  
HETATM   35  C   UNL     1      -8.144  17.452  66.149  1.00  0.00    -0.255 A  
ENDBRANCH   6  30
ENDBRANCH   4   6
TORSDOF 7
ENDMDL
MODEL      107
REMARK 921   NORMALIZED FREE ENERGY PREDICTED BY IDOCK:   -4.72 KCAL/MOL
REMARK 922        TOTAL FREE ENERGY PREDICTED BY IDOCK:   -7.03 KCAL/MOL
REMARK 923 INTER-LIGAND FREE ENERGY PREDICTED BY IDOCK:   -6.65 KCAL/MOL
REMARK 924 INTRA-LIGAND FREE ENERGY PREDICTED BY IDOCK:   -0.38 KCAL/MOL
REMARK 927      BINDING AFFINITY PREDICTED BY RF-SCORE:    0.00 PKD
ROOT
HETATM    1  C   UNL     1      -6.521  19.031  64.629  1.00  0.00     0.127 C  
HETATM    2  N   UNL     1      -6.446  18.242  65.856  1.00  0.00    -0.234 N  
HETATM    3  C   UNL     1      -5.125  17.760  66.219  1.00  0.00    -0.177 C  
HETATM    4  C   UNL     1      -7.660  17.780  66.375  1.00  0.00    -0.278 C  
HETATM    5  O   UNL     1      -8.706  18.104  65.790  1.00  0.00    -0.466 OA 
ENDROOT
BRANCH   4   6
HETATM    6  C   UNL     1      -7.732  16.874  67.697  1.00  0.00    -0.179 C  
BRANCH   6   7
HETATM    7  C   UNL     1      -6.950  15.537  67.297  1.00  0.00    -0.206 C  
BRANCH   7   8
HETATM    8  C   UNL     1      -7.287  14.249  68.071  1.00  0.00    -0.142 C  
BRANCH   8   9
HETATM    9  N   UNL     1      -7.213  12.993  67.295  1.00  0.00    -0.105 NA 
HETATM   10  C   UNL     1      -6.507  11.887  67.958  1.00  0.00    -0.055 C  
HETATM   11  C   UNL     1      -7.307  11.249  69.094  1.00  0.00    -0.104 C  
HETATM   12  C   UNL     1      -8.663  10.711  68.586  1.00  0.00    -0.148 C  
HETATM   13  H   UNL     1     -10.259   9.947  69.410  1.00  0.00     0.000 HD 
HETATM   14  O   UNL     1      -9.426  10.279  69.723  1.00  0.00    -0.191 OA 
HETATM   15  C   UNL     1      -9.393  11.915  67.952  1.00  0.00    -0.187 C  
HETATM   16  C   UNL     1      -8.551  12.561  66.848  1.00  0.00    -0.158 C  
BRANCH  12  17
HETATM   17  C   UNL     1      -8.573   9.461  67.694  1.00  0.00    -0.116 A  
HETATM   18  C   UNL     1      -7.386   8.708  67.600  1.00  0.00    -0.089 A  
HETATM   19  C   UNL     1      -7.307   7.551  66.816  1.00  0.00    -0.092 A  
HETATM   20  C   UNL     1      -8.425   7.107  66.123  1.00  0.00    -0.142 A  
HETATM   21  C   UNL     1      -9.619   7.812  66.209  1.00  0.00    -0.179 A  
HETATM   22 CL   UNL     1      -8.337   5.672  65.181  1.00  0.00    -0.143 Cl 
HETATM   23  C   UNL     1      -9.693   8.970  66.994  1.00  0.00    -0.247 A  
ENDBRANCH  12  17
ENDBRANCH   8   9
ENDBRANCH   7   8
ENDBRANCH   6   7
BRANCH   6  24
HETATM   24  C   UNL     1      -6.946  17.604  68.840  1.00  0.00    -0.251 A  
HETATM   25  C   UNL     1      -7.073  18.998  69.011  1.00  0.00    -0.361 A  
HETATM   26  C   UNL     1      -6.101  16.933  69.740  1.00  0.00    -0.229 A  
HETATM   27  C   UNL     1      -6.342  19.682  69.992  1.00  0.00    -0.322 A  
HETATM   28  C   UNL     1      -5.477  18.990  70.834  1.00  0.00    -0.235 A  
HETATM   29  C   UNL     1      -5.363  17.613  70.711  1.00  0.00    -0.226 A  
ENDBRANCH   6  24
BRANCH   6  30
HETATM   30  C   UNL     1      -9.209  16.491  68.060  1.00  0.00    -0.214 A  
HETATM   31  C   UNL     1     -11.052  16.283  69.662  1.00  0.00    -0.333 A  
HETATM   32  C   UNL     1     -10.036  15.816  67.134  1.00  0.00    -0.251 A  
HETATM   33  C   UNL     1      -9.776  16.753  69.321  1.00  0.00    -0.139 A  
HETATM   34  C   UNL     1     -11.827  15.605  68.729  1.00  0.00    -0.336 A  
HETATM   35  C   UNL     1     -11.328  15.393  67.453  1.00  0.00    -0.243 A  
ENDBRANCH   6  30
ENDBRANCH   4   6
TORSDOF 7
ENDMDL
MODEL      108
REMARK 921   NORMALIZED FREE ENERGY PREDICTED BY IDOCK:   -4.71 KCAL/MOL
REMARK 922        TOTAL FREE ENERGY PREDICTED BY IDOCK:   -7.01 KCAL/MOL
REMARK 923 INTER-LIGAND FREE ENERGY PREDICTED BY IDOCK:   -7.05 KCAL/MOL
REMARK 924 INTRA-LIGAND FREE ENERGY PREDICTED BY IDOCK:    0.04 KCAL/MOL
REMARK 927      BINDING AFFINITY PREDICTED BY RF-SCORE:    0.00 PKD
ROOT
HETATM    1  C   UNL     1     -12.788  15.234  70.229  1.00  0.00    -0.260 C  
HETATM    2  N   UNL     1     -11.732  15.020  69.243  1.00  0.00    -0.306 N  
HETATM    3  C   UNL     1     -11.349  16.183  68.462  1.00  0.00    -0.359 C  
HETATM    4  C   UNL     1     -11.421  13.690  68.941  1.00  0.00    -0.303 C  
HETATM    5  O   UNL     1     -12.026  12.795  69.554  1.00  0.00    -0.309 OA 
ENDROOT
BRANCH   4   6
HETATM    6  C   UNL     1     -10.307  13.300  67.854  1.00  0.00    -0.239 C  
BRANCH   6   7
HETATM    7  C   UNL     1      -9.784  11.865  68.331  1.00  0.00    -0.201 C  
BRANCH   7   8
HETATM    8  C   UNL     1      -8.296  11.533  68.110  1.00  0.00    -0.152 C  
BRANCH   8   9
HETATM    9  N   UNL     1      -7.936  10.102  68.191  1.00  0.00    -0.103 NA 
HETATM   10  C   UNL     1      -9.027   9.163  67.893  1.00  0.00    -0.128 C  
HETATM   11  C   UNL     1      -9.376   9.088  66.407  1.00  0.00    -0.264 C  
HETATM   12  C   UNL     1      -8.147   8.671  65.567  1.00  0.00    -0.114 C  
HETATM   13  H   UNL     1      -7.742   8.524  63.664  1.00  0.00     0.000 HD 
HETATM   14  O   UNL     1      -8.498   8.781  64.179  1.00  0.00    -0.168 OA 
HETATM   15  C   UNL     1      -7.049   9.715  65.865  1.00  0.00    -0.098 C  
HETATM   16  C   UNL     1      -6.751   9.801  67.365  1.00  0.00    -0.074 C  
BRANCH  12  17
HETATM   17  C   UNL     1      -7.714   7.205  65.733  1.00  0.00    -0.099 A  
HETATM   18  C   UNL     1      -7.032   6.765  66.885  1.00  0.00    -0.070 A  
HETATM   19  C   UNL     1      -6.664   5.426  67.057  1.00  0.00    -0.062 A  
HETATM   20  C   UNL     1      -6.991   4.488  66.088  1.00  0.00    -0.063 A  
HETATM   21  C   UNL     1      -7.682   4.881  64.948  1.00  0.00    -0.083 A  
HETATM   22 CL   UNL     1      -6.562   2.838  66.310  1.00  0.00    -0.032 Cl 
HETATM   23  C   UNL     1      -8.046   6.223  64.779  1.00  0.00    -0.127 A  
ENDBRANCH  12  17
ENDBRANCH   8   9
ENDBRANCH   7   8
ENDBRANCH   6   7
BRANCH   6  24
HETATM   24  C   UNL     1     -11.008  13.152  66.461  1.00  0.00    -0.303 A  
HETATM   25  C   UNL     1     -10.477  12.284  65.486  1.00  0.00    -0.296 A  
HETATM   26  C   UNL     1     -12.179  13.848  66.113  1.00  0.00    -0.498 A  
HETATM   27  C   UNL     1     -11.055  12.172  64.215  1.00  0.00    -0.403 A  
HETATM   28  C   UNL     1     -12.186  12.913  63.889  1.00  0.00    -0.525 A  
HETATM   29  C   UNL     1     -12.751  13.747  64.844  1.00  0.00    -0.314 A  
ENDBRANCH   6  24
BRANCH   6  30
HETATM   30  C   UNL     1      -9.097  14.298  67.877  1.00  0.00    -0.190 A  
HETATM   31  C   UNL     1      -7.378  15.575  69.065  1.00  0.00    -0.162 A  
HETATM   32  C   UNL     1      -8.709  14.999  66.712  1.00  0.00    -0.293 A  
HETATM   33  C   UNL     1      -8.367  14.583  69.044  1.00  0.00    -0.061 A  
HETATM   34  C   UNL     1      -7.037  16.257  67.903  1.00  0.00    -0.147 A  
HETATM   35  C   UNL     1      -7.688  15.951  66.718  1.00  0.00    -0.245 A  
ENDBRANCH   6  30
ENDBRANCH   4   6
TORSDOF 7
ENDMDL
MODEL      109
REMARK 921   NORMALIZED FREE ENERGY PREDICTED BY IDOCK:   -4.70 KCAL/MOL
REMARK 922        TOTAL FREE ENERGY PREDICTED BY IDOCK:   -7.00 KCAL/MOL
REMARK 923 INTER-LIGAND FREE ENERGY PREDICTED BY IDOCK:   -7.04 KCAL/MOL
REMARK 924 INTRA-LIGAND FREE ENERGY PREDICTED BY IDOCK:    0.04 KCAL/MOL
REMARK 927      BINDING AFFINITY PREDICTED BY RF-SCORE:    0.00 PKD
ROOT
HETATM    1  C   UNL     1     -12.520  14.623  64.033  1.00  0.00    -0.018 C  
HETATM    2  N   UNL     1     -11.805  14.077  65.183  1.00  0.00    -0.348 N  
HETATM    3  C   UNL     1     -12.128  12.706  65.537  1.00  0.00    -0.458 C  
HETATM    4  C   UNL     1     -11.131  14.997  65.992  1.00  0.00    -0.329 C  
HETATM    5  O   UNL     1     -11.153  16.194  65.659  1.00  0.00    -0.173 OA 
ENDROOT
BRANCH   4   6
HETATM    6  C   UNL     1     -10.330  14.549  67.308  1.00  0.00    -0.260 C  
BRANCH   6   7
HETATM    7  C   UNL     1      -9.778  13.091  66.951  1.00  0.00    -0.238 C  
BRANCH   7   8
HETATM    8  C   UNL     1      -8.612  12.539  67.792  1.00  0.00    -0.178 C  
BRANCH   8   9
HETATM    9  N   UNL     1      -8.596  11.074  67.988  1.00  0.00    -0.129 NA 
HETATM   10  C   UNL     1      -9.435  10.307  67.056  1.00  0.00    -0.163 C  
HETATM   11  C   UNL     1      -8.852  10.220  65.645  1.00  0.00    -0.186 C  
HETATM   12  C   UNL     1      -7.448   9.575  65.662  1.00  0.00    -0.094 C  
HETATM   13  H   UNL     1      -6.032   9.277  64.351  1.00  0.00     0.000 HD 
HETATM   14  O   UNL     1      -6.895   9.674  64.340  1.00  0.00    -0.100 OA 
HETATM   15  C   UNL     1      -6.587  10.443  66.605  1.00  0.00    -0.082 C  
HETATM   16  C   UNL     1      -7.216  10.550  67.997  1.00  0.00    -0.087 C  
BRANCH  12  17
HETATM   17  C   UNL     1      -7.428   8.067  65.968  1.00  0.00    -0.077 A  
HETATM   18  C   UNL     1      -6.458   7.502  66.818  1.00  0.00    -0.056 A  
HETATM   19  C   UNL     1      -6.455   6.136  67.127  1.00  0.00    -0.050 A  
HETATM   20  C   UNL     1      -7.440   5.307  66.608  1.00  0.00    -0.087 A  
HETATM   21  C   UNL     1      -8.426   5.834  65.783  1.00  0.00    -0.143 A  
HETATM   22 CL   UNL     1      -7.452   3.635  67.007  1.00  0.00    -0.074 Cl 
HETATM   23  C   UNL     1      -8.423   7.200  65.475  1.00  0.00    -0.114 A  
ENDBRANCH  12  17
ENDBRANCH   8   9
ENDBRANCH   7   8
ENDBRANCH   6   7
BRANCH   6  24
HETATM   24  C   UNL     1      -9.118  15.523  67.503  1.00  0.00    -0.198 A  
HETATM   25  C   UNL     1      -8.927  16.184  68.733  1.00  0.00    -0.236 A  
HETATM   26  C   UNL     1      -8.170  15.779  66.496  1.00  0.00    -0.278 A  
HETATM   27  C   UNL     1      -7.881  17.097  68.916  1.00  0.00    -0.217 A  
HETATM   28  C   UNL     1      -6.990  17.363  67.881  1.00  0.00    -0.181 A  
HETATM   29  C   UNL     1      -7.133  16.697  66.672  1.00  0.00    -0.257 A  
ENDBRANCH   6  24
BRANCH   6  30
HETATM   30  C   UNL     1     -11.278  14.427  68.553  1.00  0.00    -0.286 A  
HETATM   31  C   UNL     1     -12.639  15.417  70.333  1.00  0.00    -0.433 A  
HETATM   32  C   UNL     1     -11.512  13.177  69.170  1.00  0.00    -0.358 A  
HETATM   33  C   UNL     1     -11.905  15.537  69.145  1.00  0.00    -0.373 A  
HETATM   34  C   UNL     1     -12.831  14.173  70.921  1.00  0.00    -0.404 A  
HETATM   35  C   UNL     1     -12.286  13.046  70.325  1.00  0.00    -0.368 A  
ENDBRANCH   6  30
ENDBRANCH   4   6
TORSDOF 7
ENDMDL
MODEL      110
REMARK 921   NORMALIZED FREE ENERGY PREDICTED BY IDOCK:   -4.69 KCAL/MOL
REMARK 922        TOTAL FREE ENERGY PREDICTED BY IDOCK:   -6.99 KCAL/MOL
REMARK 923 INTER-LIGAND FREE ENERGY PREDICTED BY IDOCK:   -6.80 KCAL/MOL
REMARK 924 INTRA-LIGAND FREE ENERGY PREDICTED BY IDOCK:   -0.19 KCAL/MOL
REMARK 927      BINDING AFFINITY PREDICTED BY RF-SCORE:    0.00 PKD
ROOT
HETATM    1  C   UNL     1     -10.803  11.358  63.822  1.00  0.00    -0.395 C  
HETATM    2  N   UNL     1     -10.942  11.714  65.231  1.00  0.00    -0.290 N  
HETATM    3  C   UNL     1     -12.119  12.493  65.574  1.00  0.00    -0.419 C  
HETATM    4  C   UNL     1      -9.809  11.544  66.032  1.00  0.00    -0.225 C  
HETATM    5  O   UNL     1      -8.789  11.069  65.507  1.00  0.00    -0.195 OA 
ENDROOT
BRANCH   4   6
HETATM    6  C   UNL     1      -9.801  11.924  67.591  1.00  0.00    -0.192 C  
BRANCH   6   7
HETATM    7  C   UNL     1     -10.709  10.796  68.272  1.00  0.00    -0.253 C  
BRANCH   7   8
HETATM    8  C   UNL     1     -10.729   9.401  67.620  1.00  0.00    -0.230 C  
BRANCH   8   9
HETATM    9  N   UNL     1      -9.847   8.388  68.239  1.00  0.00    -0.163 NA 
HETATM   10  C   UNL     1     -10.539   7.252  68.864  1.00  0.00    -0.191 C  
HETATM   11  C   UNL     1     -11.120   6.264  67.851  1.00  0.00    -0.360 C  
HETATM   12  C   UNL     1     -10.017   5.700  66.927  1.00  0.00    -0.174 C  
HETATM   13  H   UNL     1      -9.972   4.569  65.338  1.00  0.00     0.000 HD 
HETATM   14  O   UNL     1     -10.650   4.915  65.906  1.00  0.00    -0.287 OA 
HETATM   15  C   UNL     1      -9.358   6.922  66.250  1.00  0.00    -0.144 C  
HETATM   16  C   UNL     1      -8.825   7.916  67.286  1.00  0.00    -0.127 C  
BRANCH  12  17
HETATM   17  C   UNL     1      -9.039   4.725  67.603  1.00  0.00    -0.128 A  
HETATM   18  C   UNL     1      -9.411   3.977  68.737  1.00  0.00    -0.226 A  
HETATM   19  C   UNL     1      -8.537   3.063  69.336  1.00  0.00    -0.114 A  
HETATM   20  C   UNL     1      -7.273   2.859  68.799  1.00  0.00    -0.048 A  
HETATM   21  C   UNL     1      -6.879   3.563  67.668  1.00  0.00    -0.050 A  
HETATM   22 CL   UNL     1      -6.208   1.718  69.519  1.00  0.00    -0.024 Cl 
HETATM   23  C   UNL     1      -7.757   4.478  67.073  1.00  0.00    -0.090 A  
ENDBRANCH  12  17
ENDBRANCH   8   9
ENDBRANCH   7   8
ENDBRANCH   6   7
BRANCH   6  24
HETATM   24  C   UNL     1      -8.334  11.790  68.124  1.00  0.00    -0.156 A  
HETATM   25  C   UNL     1      -7.290  12.523  67.523  1.00  0.00    -0.151 A  
HETATM   26  C   UNL     1      -7.982  10.965  69.206  1.00  0.00    -0.076 A  
HETATM   27  C   UNL     1      -5.962  12.383  67.947  1.00  0.00    -0.093 A  
HETATM   28  C   UNL     1      -5.644  11.520  68.990  1.00  0.00    -0.050 A  
HETATM   29  C   UNL     1      -6.658  10.815  69.624  1.00  0.00    -0.114 A  
ENDBRANCH   6  24
BRANCH   6  30
HETATM   30  C   UNL     1     -10.469  13.319  67.853  1.00  0.00    -0.244 A  
HETATM   31  C   UNL     1     -10.605  15.742  67.517  1.00  0.00    -0.309 A  
HETATM   32  C   UNL     1     -11.473  13.473  68.836  1.00  0.00    -0.348 A  
HETATM   33  C   UNL     1     -10.086  14.487  67.171  1.00  0.00    -0.252 A  
HETATM   34  C   UNL     1     -11.578  15.855  68.503  1.00  0.00    -0.351 A  
HETATM   35  C   UNL     1     -12.031  14.714  69.148  1.00  0.00    -0.329 A  
ENDBRANCH   6  30
ENDBRANCH   4   6
TORSDOF 7
ENDMDL
MODEL      111
REMARK 921   NORMALIZED FREE ENERGY PREDICTED BY IDOCK:   -4.68 KCAL/MOL
REMARK 922        TOTAL FREE ENERGY PREDICTED BY IDOCK:   -6.97 KCAL/MOL
REMARK 923 INTER-LIGAND FREE ENERGY PREDICTED BY IDOCK:   -6.41 KCAL/MOL
REMARK 924 INTRA-LIGAND FREE ENERGY PREDICTED BY IDOCK:   -0.56 KCAL/MOL
REMARK 927      BINDING AFFINITY PREDICTED BY RF-SCORE:    0.00 PKD
ROOT
HETATM    1  C   UNL     1      -6.850   5.482  73.954  1.00  0.00    -0.081 C  
HETATM    2  N   UNL     1      -7.987   5.566  73.041  1.00  0.00    -0.104 N  
HETATM    3  C   UNL     1      -9.277   5.207  73.601  1.00  0.00    -0.129 C  
HETATM    4  C   UNL     1      -7.685   5.678  71.680  1.00  0.00    -0.107 C  
HETATM    5  O   UNL     1      -6.489   5.741  71.350  1.00  0.00    -0.042 OA 
ENDROOT
BRANCH   4   6
HETATM    6  C   UNL     1      -8.828   5.746  70.556  1.00  0.00    -0.144 C  
BRANCH   6   7
HETATM    7  C   UNL     1      -8.162   6.596  69.374  1.00  0.00    -0.124 C  
BRANCH   7   8
HETATM    8  C   UNL     1      -7.875   8.086  69.636  1.00  0.00    -0.104 C  
BRANCH   8   9
HETATM    9  N   UNL     1      -8.162   9.004  68.513  1.00  0.00    -0.111 NA 
HETATM   10  C   UNL     1      -9.420   8.746  67.798  1.00  0.00    -0.142 C  
HETATM   11  C   UNL     1     -10.663   9.166  68.583  1.00  0.00    -0.156 C  
HETATM   12  C   UNL     1     -10.616  10.670  68.935  1.00  0.00    -0.212 C  
HETATM   13  H   UNL     1     -11.691  11.884  70.022  1.00  0.00     0.000 HD 
HETATM   14  O   UNL     1     -11.720  10.959  69.806  1.00  0.00    -0.278 OA 
HETATM   15  C   UNL     1      -9.311  10.884  69.734  1.00  0.00     0.526 C  
HETATM   16  C   UNL     1      -8.088  10.413  68.942  1.00  0.00    -0.129 C  
BRANCH  12  17
HETATM   17  C   UNL     1     -10.813  11.623  67.744  1.00  0.00    -0.264 A  
HETATM   18  C   UNL     1     -11.231  11.150  66.485  1.00  0.00    -0.151 A  
HETATM   19  C   UNL     1     -11.445  12.017  65.406  1.00  0.00    -0.361 A  
HETATM   20  C   UNL     1     -11.266  13.383  65.570  1.00  0.00    -0.288 A  
HETATM   21  C   UNL     1     -10.875  13.888  66.804  1.00  0.00    -0.286 A  
HETATM   22 CL   UNL     1     -11.553  14.451  64.254  1.00  0.00    -0.324 Cl 
HETATM   23  C   UNL     1     -10.661  13.017  67.880  1.00  0.00    -0.239 A  
ENDBRANCH  12  17
ENDBRANCH   8   9
ENDBRANCH   7   8
ENDBRANCH   6   7
BRANCH   6  24
HETATM   24  C   UNL     1      -9.106   4.291  70.046  1.00  0.00    -0.175 A  
HETATM   25  C   UNL     1      -9.296   3.240  70.967  1.00  0.00    -0.213 A  
HETATM   26  C   UNL     1      -9.189   3.957  68.683  1.00  0.00    -0.211 A  
HETATM   27  C   UNL     1      -9.495   1.921  70.537  1.00  0.00    -0.168 A  
HETATM   28  C   UNL     1      -9.523   1.620  69.179  1.00  0.00    -0.154 A  
HETATM   29  C   UNL     1      -9.376   2.643  68.252  1.00  0.00    -0.258 A  
ENDBRANCH   6  24
BRANCH   6  30
HETATM   30  C   UNL     1     -10.097   6.516  71.062  1.00  0.00    -0.208 A  
HETATM   31  C   UNL     1     -12.516   6.905  71.088  1.00  0.00    -0.398 A  
HETATM   32  C   UNL     1      -9.976   7.684  71.850  1.00  0.00    -0.217 A  
HETATM   33  C   UNL     1     -11.407   6.125  70.733  1.00  0.00    -0.364 A  
HETATM   34  C   UNL     1     -12.354   8.057  71.846  1.00  0.00    -0.360 A  
HETATM   35  C   UNL     1     -11.083   8.435  72.249  1.00  0.00    -0.438 A  
ENDBRANCH   6  30
ENDBRANCH   4   6
TORSDOF 7
ENDMDL
MODEL      112
REMARK 921   NORMALIZED FREE ENERGY PREDICTED BY IDOCK:   -4.65 KCAL/MOL
REMARK 922        TOTAL FREE ENERGY PREDICTED BY IDOCK:   -6.92 KCAL/MOL
REMARK 923 INTER-LIGAND FREE ENERGY PREDICTED BY IDOCK:   -6.20 KCAL/MOL
REMARK 924 INTRA-LIGAND FREE ENERGY PREDICTED BY IDOCK:   -0.72 KCAL/MOL
REMARK 927      BINDING AFFINITY PREDICTED BY RF-SCORE:    0.00 PKD
ROOT
HETATM    1  C   UNL     1     -11.576   5.085  73.058  1.00  0.00    -0.216 C  
HETATM    2  N   UNL     1     -10.455   5.077  72.122  1.00  0.00    -0.214 N  
HETATM    3  C   UNL     1      -9.190   4.601  72.654  1.00  0.00    -0.126 C  
HETATM    4  C   UNL     1     -10.628   5.795  70.935  1.00  0.00    -0.262 C  
HETATM    5  O   UNL     1     -11.723   6.349  70.742  1.00  0.00    -0.366 OA 
ENDROOT
BRANCH   4   6
HETATM    6  C   UNL     1      -9.472   5.904  69.828  1.00  0.00    -0.178 C  
BRANCH   6   7
HETATM    7  C   UNL     1     -10.262   6.205  68.469  1.00  0.00    -0.221 C  
BRANCH   7   8
HETATM    8  C   UNL     1      -9.517   6.972  67.360  1.00  0.00    -0.133 C  
BRANCH   8   9
HETATM    9  N   UNL     1     -10.266   8.080  66.729  1.00  0.00    -0.300 NA 
HETATM   10  C   UNL     1     -10.854   9.051  67.663  1.00  0.00    -0.063 C  
HETATM   11  C   UNL     1      -9.822   9.984  68.298  1.00  0.00    -0.163 C  
HETATM   12  C   UNL     1      -9.045  10.771  67.219  1.00  0.00    -0.144 C  
HETATM   13  H   UNL     1      -7.513  11.981  67.207  1.00  0.00     0.000 HD 
HETATM   14  O   UNL     1      -7.991  11.497  67.870  1.00  0.00    -0.115 OA 
HETATM   15  C   UNL     1      -8.398   9.714  66.298  1.00  0.00    -0.117 C  
HETATM   16  C   UNL     1      -9.447   8.766  65.712  1.00  0.00    -0.169 C  
BRANCH  12  17
HETATM   17  C   UNL     1      -9.859  11.856  66.493  1.00  0.00    -0.225 A  
HETATM   18  C   UNL     1      -9.909  11.920  65.087  1.00  0.00    -0.243 A  
HETATM   19  C   UNL     1     -10.674  12.883  64.420  1.00  0.00    -0.407 A  
HETATM   20  C   UNL     1     -11.426  13.795  65.148  1.00  0.00    -0.321 A  
HETATM   21  C   UNL     1     -11.419  13.748  66.536  1.00  0.00    -0.364 A  
HETATM   22 CL   UNL     1     -12.387  14.963  64.330  1.00  0.00    -0.452 Cl 
HETATM   23  C   UNL     1     -10.650  12.783  67.199  1.00  0.00    -0.249 A  
ENDBRANCH  12  17
ENDBRANCH   8   9
ENDBRANCH   7   8
ENDBRANCH   6   7
BRANCH   6  24
HETATM   24  C   UNL     1      -8.569   7.136  70.178  1.00  0.00    -0.140 A  
HETATM   25  C   UNL     1      -7.418   7.413  69.412  1.00  0.00    -0.091 A  
HETATM   26  C   UNL     1      -8.848   8.017  71.237  1.00  0.00    -0.163 A  
HETATM   27  C   UNL     1      -6.566   8.478  69.734  1.00  0.00    -0.039 A  
HETATM   28  C   UNL     1      -6.848   9.300  70.820  1.00  0.00    -0.100 A  
HETATM   29  C   UNL     1      -7.995   9.071  71.568  1.00  0.00    -0.042 A  
ENDBRANCH   6  24
BRANCH   6  30
HETATM   30  C   UNL     1      -8.698   4.551  69.659  1.00  0.00    -0.115 A  
HETATM   31  C   UNL     1      -8.638   2.142  69.218  1.00  0.00    -0.103 A  
HETATM   32  C   UNL     1      -7.324   4.453  69.974  1.00  0.00    -0.046 A  
HETATM   33  C   UNL     1      -9.322   3.364  69.233  1.00  0.00    -0.240 A  
HETATM   34  C   UNL     1      -7.291   2.082  69.554  1.00  0.00    -0.043 A  
HETATM   35  C   UNL     1      -6.626   3.245  69.910  1.00  0.00    -0.033 A  
ENDBRANCH   6  30
ENDBRANCH   4   6
TORSDOF 7
ENDMDL
MODEL      113
REMARK 921   NORMALIZED FREE ENERGY PREDICTED BY IDOCK:   -4.64 KCAL/MOL
REMARK 922        TOTAL FREE ENERGY PREDICTED BY IDOCK:   -6.92 KCAL/MOL
REMARK 923 INTER-LIGAND FREE ENERGY PREDICTED BY IDOCK:   -7.30 KCAL/MOL
REMARK 924 INTRA-LIGAND FREE ENERGY PREDICTED BY IDOCK:    0.38 KCAL/MOL
REMARK 927      BINDING AFFINITY PREDICTED BY RF-SCORE:    0.00 PKD
ROOT
HETATM    1  C   UNL     1      -9.306   5.718  67.645  1.00  0.00    -0.108 C  
HETATM    2  N   UNL     1      -8.968   6.161  68.995  1.00  0.00    -0.125 N  
HETATM    3  C   UNL     1      -7.690   5.704  69.510  1.00  0.00    -0.091 C  
HETATM    4  C   UNL     1     -10.011   6.707  69.750  1.00  0.00    -0.173 C  
HETATM    5  O   UNL     1     -11.127   6.813  69.215  1.00  0.00    -0.260 OA 
ENDROOT
BRANCH   4   6
HETATM    6  C   UNL     1      -9.799   7.207  71.260  1.00  0.00    -0.178 C  
BRANCH   6   7
HETATM    7  C   UNL     1     -10.941   8.309  71.469  1.00  0.00    -0.312 C  
BRANCH   7   8
HETATM    8  C   UNL     1     -10.666   9.733  70.953  1.00  0.00    -0.305 C  
BRANCH   8   9
HETATM    9  N   UNL     1     -11.157  10.031  69.591  1.00  0.00    -0.252 NA 
HETATM   10  C   UNL     1     -12.145  11.116  69.504  1.00  0.00    -0.326 C  
HETATM   11  C   UNL     1     -11.537  12.507  69.691  1.00  0.00    -0.323 C  
HETATM   12  C   UNL     1     -10.437  12.779  68.641  1.00  0.00    -0.211 C  
HETATM   13  H   UNL     1      -9.125  14.190  68.327  1.00  0.00     0.000 HD 
HETATM   14  O   UNL     1      -9.801  14.023  68.973  1.00  0.00    -0.128 OA 
HETATM   15  C   UNL     1      -9.395  11.652  68.807  1.00  0.00    -0.056 C  
HETATM   16  C   UNL     1     -10.039  10.270  68.659  1.00  0.00    -0.174 C  
BRANCH  12  17
HETATM   17  C   UNL     1     -10.947  12.988  67.205  1.00  0.00    -0.293 A  
HETATM   18  C   UNL     1     -10.304  12.392  66.102  1.00  0.00    -0.271 A  
HETATM   19  C   UNL     1     -10.782  12.550  64.796  1.00  0.00    -0.333 A  
HETATM   20  C   UNL     1     -11.932  13.293  64.565  1.00  0.00    -0.400 A  
HETATM   21  C   UNL     1     -12.606  13.876  65.631  1.00  0.00    -0.553 A  
HETATM   22 CL   UNL     1     -12.536  13.466  62.965  1.00  0.00    -0.100 Cl 
HETATM   23  C   UNL     1     -12.122  13.717  66.936  1.00  0.00    -0.431 A  
ENDBRANCH  12  17
ENDBRANCH   8   9
ENDBRANCH   7   8
ENDBRANCH   6   7
BRANCH   6  24
HETATM   24  C   UNL     1     -10.071   5.999  72.222  1.00  0.00    -0.205 A  
HETATM   25  C   UNL     1     -10.339   4.719  71.697  1.00  0.00    -0.215 A  
HETATM   26  C   UNL     1     -10.054   6.115  73.623  1.00  0.00    -0.227 A  
HETATM   27  C   UNL     1     -10.635   3.635  72.533  1.00  0.00    -0.088 A  
HETATM   28  C   UNL     1     -10.657   3.797  73.915  1.00  0.00    -0.292 A  
HETATM   29  C   UNL     1     -10.359   5.039  74.458  1.00  0.00    -0.315 A  
ENDBRANCH   6  24
BRANCH   6  30
HETATM   30  C   UNL     1      -8.405   7.898  71.454  1.00  0.00    -0.119 A  
HETATM   31  C   UNL     1      -6.460   8.482  72.825  1.00  0.00    -0.089 A  
HETATM   32  C   UNL     1      -7.869   8.751  70.462  1.00  0.00    -0.104 A  
HETATM   33  C   UNL     1      -7.637   7.750  72.623  1.00  0.00    -0.123 A  
HETATM   34  C   UNL     1      -5.975   9.326  71.832  1.00  0.00    -0.021 A  
HETATM   35  C   UNL     1      -6.669   9.442  70.638  1.00  0.00    -0.097 A  
ENDBRANCH   6  30
ENDBRANCH   4   6
TORSDOF 7
ENDMDL
MODEL      114
REMARK 921   NORMALIZED FREE ENERGY PREDICTED BY IDOCK:   -4.64 KCAL/MOL
REMARK 922        TOTAL FREE ENERGY PREDICTED BY IDOCK:   -6.91 KCAL/MOL
REMARK 923 INTER-LIGAND FREE ENERGY PREDICTED BY IDOCK:   -7.12 KCAL/MOL
REMARK 924 INTRA-LIGAND FREE ENERGY PREDICTED BY IDOCK:    0.22 KCAL/MOL
REMARK 927      BINDING AFFINITY PREDICTED BY RF-SCORE:    0.00 PKD
ROOT
HETATM    1  C   UNL     1     -10.841  18.205  67.617  1.00  0.00    -0.238 C  
HETATM    2  N   UNL     1     -10.265  16.882  67.396  1.00  0.00    -0.291 N  
HETATM    3  C   UNL     1      -9.322  16.776  66.297  1.00  0.00    -0.279 C  
HETATM    4  C   UNL     1     -10.891  15.813  68.045  1.00  0.00    -0.309 C  
HETATM    5  O   UNL     1     -11.855  16.065  68.787  1.00  0.00    -0.375 OA 
ENDROOT
BRANCH   4   6
HETATM    6  C   UNL     1     -10.392  14.298  67.872  1.00  0.00    -0.233 C  
BRANCH   6   7
HETATM    7  C   UNL     1     -11.125  13.509  69.055  1.00  0.00    -0.293 C  
BRANCH   7   8
HETATM    8  C   UNL     1     -11.260  11.980  68.922  1.00  0.00    -0.261 C  
BRANCH   8   9
HETATM    9  N   UNL     1     -10.141  11.292  68.244  1.00  0.00    -0.182 NA 
HETATM   10  C   UNL     1      -9.154  10.668  69.138  1.00  0.00    -0.139 C  
HETATM   11  C   UNL     1      -9.662   9.390  69.805  1.00  0.00    -0.215 C  
HETATM   12  C   UNL     1     -10.079   8.340  68.751  1.00  0.00    -0.200 C  
HETATM   13  H   UNL     1     -10.950   6.593  68.789  1.00  0.00     0.000 HD 
HETATM   14  O   UNL     1     -10.694   7.239  69.437  1.00  0.00    -0.235 OA 
HETATM   15  C   UNL     1     -11.155   9.015  67.873  1.00  0.00     0.164 C  
HETATM   16  C   UNL     1     -10.635  10.316  67.254  1.00  0.00    -0.267 C  
BRANCH  12  17
HETATM   17  C   UNL     1      -8.915   7.699  67.976  1.00  0.00    -0.126 A  
HETATM   18  C   UNL     1      -7.607   7.673  68.500  1.00  0.00    -0.110 A  
HETATM   19  C   UNL     1      -6.551   7.063  67.814  1.00  0.00    -0.052 A  
HETATM   20  C   UNL     1      -6.784   6.443  66.594  1.00  0.00    -0.060 A  
HETATM   21  C   UNL     1      -8.065   6.430  66.057  1.00  0.00    -0.120 A  
HETATM   22 CL   UNL     1      -5.492   5.670  65.763  1.00  0.00    -0.013 Cl 
HETATM   23  C   UNL     1      -9.119   7.043  66.745  1.00  0.00    -0.162 A  
ENDBRANCH  12  17
ENDBRANCH   8   9
ENDBRANCH   7   8
ENDBRANCH   6   7
BRANCH   6  24
HETATM   24  C   UNL     1     -10.916  13.761  66.496  1.00  0.00    -0.299 A  
HETATM   25  C   UNL     1     -10.026  13.579  65.418  1.00  0.00    -0.220 A  
HETATM   26  C   UNL     1     -12.262  13.428  66.264  1.00  0.00    -0.456 A  
HETATM   27  C   UNL     1     -10.477  13.148  64.164  1.00  0.00    -0.348 A  
HETATM   28  C   UNL     1     -11.825  12.875  63.957  1.00  0.00    -0.512 A  
HETATM   29  C   UNL     1     -12.717  13.009  65.012  1.00  0.00    -0.475 A  
ENDBRANCH   6  24
BRANCH   6  30
HETATM   30  C   UNL     1      -8.843  14.169  68.078  1.00  0.00    -0.182 A  
HETATM   31  C   UNL     1      -6.661  13.224  67.489  1.00  0.00    -0.153 A  
HETATM   32  C   UNL     1      -8.204  14.761  69.192  1.00  0.00    -0.106 A  
HETATM   33  C   UNL     1      -8.017  13.433  67.209  1.00  0.00    -0.130 A  
HETATM   34  C   UNL     1      -6.072  13.807  68.605  1.00  0.00    -0.088 A  
HETATM   35  C   UNL     1      -6.841  14.598  69.446  1.00  0.00    -0.159 A  
ENDBRANCH   6  30
ENDBRANCH   4   6
TORSDOF 7
ENDMDL
MODEL      115
REMARK 921   NORMALIZED FREE ENERGY PREDICTED BY IDOCK:   -4.63 KCAL/MOL
REMARK 922        TOTAL FREE ENERGY PREDICTED BY IDOCK:   -6.89 KCAL/MOL
REMARK 923 INTER-LIGAND FREE ENERGY PREDICTED BY IDOCK:   -7.62 KCAL/MOL
REMARK 924 INTRA-LIGAND FREE ENERGY PREDICTED BY IDOCK:    0.73 KCAL/MOL
REMARK 927      BINDING AFFINITY PREDICTED BY RF-SCORE:    0.00 PKD
ROOT
HETATM    1  C   UNL     1     -13.356   7.509  71.674  1.00  0.00    -0.358 C  
HETATM    2  N   UNL     1     -11.998   7.018  71.452  1.00  0.00    -0.319 N  
HETATM    3  C   UNL     1     -11.649   5.790  72.145  1.00  0.00    -0.203 C  
HETATM    4  C   UNL     1     -11.100   7.913  70.864  1.00  0.00    -0.255 C  
HETATM    5  O   UNL     1     -11.522   9.034  70.537  1.00  0.00    -0.259 OA 
ENDROOT
BRANCH   4   6
HETATM    6  C   UNL     1      -9.567   7.527  70.590  1.00  0.00    -0.171 C  
BRANCH   6   7
HETATM    7  C   UNL     1      -8.965   8.816  69.858  1.00  0.00    -0.152 C  
BRANCH   7   8
HETATM    8  C   UNL     1      -8.433   8.643  68.423  1.00  0.00    -0.131 C  
BRANCH   8   9
HETATM    9  N   UNL     1      -8.561   9.824  67.542  1.00  0.00    -0.125 NA 
HETATM   10  C   UNL     1      -9.643   9.750  66.550  1.00  0.00    -0.194 C  
HETATM   11  C   UNL     1     -11.036   9.932  67.155  1.00  0.00    -0.147 C  
HETATM   12  C   UNL     1     -11.152  11.288  67.886  1.00  0.00    -0.267 C  
HETATM   13  H   UNL     1     -12.488  12.156  69.013  1.00  0.00     0.000 HD 
HETATM   14  O   UNL     1     -12.417  11.321  68.564  1.00  0.00    -0.434 OA 
HETATM   15  C   UNL     1     -10.038  11.298  68.955  1.00  0.00    -0.185 C  
HETATM   16  C   UNL     1      -8.660  11.069  68.327  1.00  0.00    -0.143 C  
BRANCH  12  17
HETATM   17  C   UNL     1     -11.183  12.521  66.967  1.00  0.00    -0.353 A  
HETATM   18  C   UNL     1     -10.910  12.419  65.588  1.00  0.00    -0.312 A  
HETATM   19  C   UNL     1     -10.969  13.531  64.741  1.00  0.00    -0.382 A  
HETATM   20  C   UNL     1     -11.325  14.772  65.252  1.00  0.00    -0.363 A  
HETATM   21  C   UNL     1     -11.622  14.907  66.602  1.00  0.00    -0.265 A  
HETATM   22 CL   UNL     1     -11.423  16.134  64.207  1.00  0.00    -0.317 Cl 
HETATM   23  C   UNL     1     -11.560  13.791  67.447  1.00  0.00    -0.393 A  
ENDBRANCH  12  17
ENDBRANCH   8   9
ENDBRANCH   7   8
ENDBRANCH   6   7
BRANCH   6  24
HETATM   24  C   UNL     1      -8.850   7.341  71.972  1.00  0.00    -0.138 A  
HETATM   25  C   UNL     1      -8.022   6.223  72.198  1.00  0.00    -0.108 A  
HETATM   26  C   UNL     1      -8.978   8.256  73.032  1.00  0.00    -0.311 A  
HETATM   27  C   UNL     1      -7.411   6.008  73.440  1.00  0.00    -0.089 A  
HETATM   28  C   UNL     1      -7.599   6.910  74.483  1.00  0.00    -0.126 A  
HETATM   29  C   UNL     1      -8.380   8.038  74.274  1.00  0.00    -0.285 A  
ENDBRANCH   6  24
BRANCH   6  30
HETATM   30  C   UNL     1      -9.440   6.303  69.617  1.00  0.00    -0.157 A  
HETATM   31  C   UNL     1     -10.351   4.805  67.906  1.00  0.00     0.006 A  
HETATM   32  C   UNL     1      -8.326   5.434  69.680  1.00  0.00    -0.100 A  
HETATM   33  C   UNL     1     -10.427   5.977  68.671  1.00  0.00    -0.297 A  
HETATM   34  C   UNL     1      -9.249   3.965  68.010  1.00  0.00    -0.212 A  
HETATM   35  C   UNL     1      -8.222   4.293  68.882  1.00  0.00    -0.080 A  
ENDBRANCH   6  30
ENDBRANCH   4   6
TORSDOF 7
ENDMDL
MODEL      116
REMARK 921   NORMALIZED FREE ENERGY PREDICTED BY IDOCK:   -4.61 KCAL/MOL
REMARK 922        TOTAL FREE ENERGY PREDICTED BY IDOCK:   -6.87 KCAL/MOL
REMARK 923 INTER-LIGAND FREE ENERGY PREDICTED BY IDOCK:   -6.01 KCAL/MOL
REMARK 924 INTRA-LIGAND FREE ENERGY PREDICTED BY IDOCK:   -0.86 KCAL/MOL
REMARK 927      BINDING AFFINITY PREDICTED BY RF-SCORE:    0.00 PKD
ROOT
HETATM    1  C   UNL     1     -12.899  13.945  65.643  1.00  0.00    -0.424 C  
HETATM    2  N   UNL     1     -11.855  13.745  66.644  1.00  0.00    -0.388 N  
HETATM    3  C   UNL     1     -12.022  14.475  67.888  1.00  0.00    -0.287 C  
HETATM    4  C   UNL     1     -10.677  13.135  66.202  1.00  0.00    -0.278 C  
HETATM    5  O   UNL     1     -10.616  12.772  65.015  1.00  0.00    -0.290 OA 
ENDROOT
BRANCH   4   6
HETATM    6  C   UNL     1      -9.429  12.880  67.178  1.00  0.00    -0.229 C  
BRANCH   6   7
HETATM    7  C   UNL     1     -10.093  12.305  68.516  1.00  0.00    -0.192 C  
BRANCH   7   8
HETATM    8  C   UNL     1     -10.737  10.908  68.455  1.00  0.00    -0.203 C  
BRANCH   8   9
HETATM    9  N   UNL     1     -10.503  10.038  69.627  1.00  0.00    -0.230 NA 
HETATM   10  C   UNL     1     -11.034   8.673  69.511  1.00  0.00    -0.055 C  
HETATM   11  C   UNL     1     -10.221   7.783  68.569  1.00  0.00    -0.227 C  
HETATM   12  C   UNL     1      -8.750   7.684  69.030  1.00  0.00    -0.136 C  
HETATM   13  H   UNL     1      -7.109   6.915  68.305  1.00  0.00     0.000 HD 
HETATM   14  O   UNL     1      -8.013   6.976  68.021  1.00  0.00    -0.112 OA 
HETATM   15  C   UNL     1      -8.217   9.132  69.082  1.00  0.00    -0.117 C  
HETATM   16  C   UNL     1      -9.075  10.011  69.996  1.00  0.00    -0.091 C  
BRANCH  12  17
HETATM   17  C   UNL     1      -8.523   6.861  70.310  1.00  0.00    -0.139 A  
HETATM   18  C   UNL     1      -7.392   7.064  71.125  1.00  0.00    -0.076 A  
HETATM   19  C   UNL     1      -7.197   6.343  72.308  1.00  0.00    -0.087 A  
HETATM   20  C   UNL     1      -8.144   5.413  72.716  1.00  0.00    -0.109 A  
HETATM   21  C   UNL     1      -9.283   5.202  71.950  1.00  0.00    -0.160 A  
HETATM   22 CL   UNL     1      -7.918   4.545  74.183  1.00  0.00    -0.095 Cl 
HETATM   23  C   UNL     1      -9.473   5.925  70.765  1.00  0.00    -0.192 A  
ENDBRANCH  12  17
ENDBRANCH   8   9
ENDBRANCH   7   8
ENDBRANCH   6   7
BRANCH   6  24
HETATM   24  C   UNL     1      -8.522  11.774  66.541  1.00  0.00    -0.125 A  
HETATM   25  C   UNL     1      -7.123  11.818  66.710  1.00  0.00    -0.047 A  
HETATM   26  C   UNL     1      -9.032  10.698  65.793  1.00  0.00    -0.200 A  
HETATM   27  C   UNL     1      -6.285  10.869  66.108  1.00  0.00    -0.130 A  
HETATM   28  C   UNL     1      -6.823   9.846  65.334  1.00  0.00    -0.112 A  
HETATM   29  C   UNL     1      -8.200   9.758  65.183  1.00  0.00    -0.140 A  
ENDBRANCH   6  24
BRANCH   6  30
HETATM   30  C   UNL     1      -8.685  14.215  67.532  1.00  0.00    -0.208 A  
HETATM   31  C   UNL     1      -7.734  15.790  69.149  1.00  0.00    -0.220 A  
HETATM   32  C   UNL     1      -8.425  15.189  66.541  1.00  0.00    -0.149 A  
HETATM   33  C   UNL     1      -8.278  14.537  68.839  1.00  0.00    -0.114 A  
HETATM   34  C   UNL     1      -7.511  16.730  68.150  1.00  0.00    -0.172 A  
HETATM   35  C   UNL     1      -7.835  16.419  66.838  1.00  0.00    -0.273 A  
ENDBRANCH   6  30
ENDBRANCH   4   6
TORSDOF 7
ENDMDL
MODEL      117
REMARK 921   NORMALIZED FREE ENERGY PREDICTED BY IDOCK:   -4.60 KCAL/MOL
REMARK 922        TOTAL FREE ENERGY PREDICTED BY IDOCK:   -6.85 KCAL/MOL
REMARK 923 INTER-LIGAND FREE ENERGY PREDICTED BY IDOCK:   -5.79 KCAL/MOL
REMARK 924 INTRA-LIGAND FREE ENERGY PREDICTED BY IDOCK:   -1.06 KCAL/MOL
REMARK 927      BINDING AFFINITY PREDICTED BY RF-SCORE:    0.00 PKD
ROOT
HETATM    1  C   UNL     1      -9.632   1.989  71.511  1.00  0.00    -0.140 C  
HETATM    2  N   UNL     1      -9.095   3.007  70.612  1.00  0.00    -0.108 N  
HETATM    3  C   UNL     1      -7.911   2.627  69.861  1.00  0.00    -0.042 C  
HETATM    4  C   UNL     1      -9.572   4.309  70.788  1.00  0.00    -0.186 C  
HETATM    5  O   UNL     1     -10.439   4.501  71.657  1.00  0.00    -0.134 OA 
ENDROOT
BRANCH   4   6
HETATM    6  C   UNL     1      -9.050   5.537  69.898  1.00  0.00    -0.159 C  
BRANCH   6   7
HETATM    7  C   UNL     1     -10.102   6.707  70.191  1.00  0.00    -0.200 C  
BRANCH   7   8
HETATM    8  C   UNL     1      -9.626   8.161  70.020  1.00  0.00    -0.171 C  
BRANCH   8   9
HETATM    9  N   UNL     1     -10.455   9.011  69.139  1.00  0.00    -0.226 NA 
HETATM   10  C   UNL     1     -10.114  10.441  69.145  1.00  0.00    -0.222 C  
HETATM   11  C   UNL     1      -8.821  10.760  68.394  1.00  0.00    -0.146 C  
HETATM   12  C   UNL     1      -8.904  10.297  66.922  1.00  0.00    -0.132 C  
HETATM   13  H   UNL     1      -7.662  10.191  65.420  1.00  0.00     0.000 HD 
HETATM   14  O   UNL     1      -7.610  10.475  66.326  1.00  0.00    -0.120 OA 
HETATM   15  C   UNL     1      -9.205   8.783  66.964  1.00  0.00    -0.177 C  
HETATM   16  C   UNL     1     -10.480   8.488  67.760  1.00  0.00    -0.223 C  
BRANCH  12  17
HETATM   17  C   UNL     1      -9.848  11.124  66.033  1.00  0.00    -0.270 A  
HETATM   18  C   UNL     1     -10.291  12.404  66.421  1.00  0.00    -0.255 A  
HETATM   19  C   UNL     1     -11.124  13.174  65.601  1.00  0.00    -0.296 A  
HETATM   20  C   UNL     1     -11.516  12.690  64.361  1.00  0.00    -0.349 A  
HETATM   21  C   UNL     1     -11.081  11.441  63.936  1.00  0.00    -0.410 A  
HETATM   22 CL   UNL     1     -12.517  13.646  63.342  1.00  0.00    -0.270 Cl 
HETATM   23  C   UNL     1     -10.249  10.672  64.760  1.00  0.00    -0.401 A  
ENDBRANCH  12  17
ENDBRANCH   8   9
ENDBRANCH   7   8
ENDBRANCH   6   7
BRANCH   6  24
HETATM   24  C   UNL     1      -7.642   5.970  70.433  1.00  0.00    -0.095 A  
HETATM   25  C   UNL     1      -7.323   5.818  71.798  1.00  0.00    -0.093 A  
HETATM   26  C   UNL     1      -6.640   6.510  69.609  1.00  0.00    -0.048 A  
HETATM   27  C   UNL     1      -6.090   6.243  72.311  1.00  0.00    -0.038 A  
HETATM   28  C   UNL     1      -5.140   6.818  71.473  1.00  0.00    -0.027 A  
HETATM   29  C   UNL     1      -5.415   6.945  70.119  1.00  0.00    -0.023 A  
ENDBRANCH   6  24
BRANCH   6  30
HETATM   30  C   UNL     1      -9.095   5.207  68.366  1.00  0.00    -0.131 A  
HETATM   31  C   UNL     1      -8.044   5.075  66.156  1.00  0.00    -0.108 A  
HETATM   32  C   UNL     1     -10.314   4.891  67.724  1.00  0.00    -0.067 A  
HETATM   33  C   UNL     1      -7.954   5.246  67.544  1.00  0.00    -0.100 A  
HETATM   34  C   UNL     1      -9.265   4.785  65.559  1.00  0.00    -0.155 A  
HETATM   35  C   UNL     1     -10.399   4.669  66.348  1.00  0.00    -0.264 A  
ENDBRANCH   6  30
ENDBRANCH   4   6
TORSDOF 7
ENDMDL
MODEL      118
REMARK 921   NORMALIZED FREE ENERGY PREDICTED BY IDOCK:   -4.53 KCAL/MOL
REMARK 922        TOTAL FREE ENERGY PREDICTED BY IDOCK:   -6.76 KCAL/MOL
REMARK 923 INTER-LIGAND FREE ENERGY PREDICTED BY IDOCK:   -7.43 KCAL/MOL
REMARK 924 INTRA-LIGAND FREE ENERGY PREDICTED BY IDOCK:    0.67 KCAL/MOL
REMARK 927      BINDING AFFINITY PREDICTED BY RF-SCORE:    0.00 PKD
ROOT
HETATM    1  C   UNL     1     -11.340  13.411  64.401  1.00  0.00    -0.391 C  
HETATM    2  N   UNL     1     -11.312  14.170  65.649  1.00  0.00    -0.313 N  
HETATM    3  C   UNL     1     -12.587  14.700  66.096  1.00  0.00     0.113 C  
HETATM    4  C   UNL     1     -10.052  14.562  66.111  1.00  0.00    -0.305 C  
HETATM    5  O   UNL     1      -9.055  14.208  65.461  1.00  0.00     0.347 OA 
ENDROOT
BRANCH   4   6
HETATM    6  C   UNL     1      -9.865  15.428  67.449  1.00  0.00    -0.216 C  
BRANCH   6   7
HETATM    7  C   UNL     1     -10.993  14.868  68.436  1.00  0.00    -0.266 C  
BRANCH   7   8
HETATM    8  C   UNL     1     -10.718  13.535  69.158  1.00  0.00    -0.082 C  
BRANCH   8   9
HETATM    9  N   UNL     1     -10.883  12.314  68.340  1.00  0.00    -0.220 NA 
HETATM   10  C   UNL     1      -9.639  11.598  68.026  1.00  0.00    -0.184 C  
HETATM   11  C   UNL     1      -9.058  10.836  69.218  1.00  0.00    -0.056 C  
HETATM   12  C   UNL     1     -10.072   9.808  69.768  1.00  0.00    -0.239 C  
HETATM   13  H   UNL     1     -10.155   8.619  71.314  1.00  0.00     0.000 HD 
HETATM   14  O   UNL     1      -9.531   9.252  70.976  1.00  0.00    -0.266 OA 
HETATM   15  C   UNL     1     -11.339  10.611  70.140  1.00  0.00    -0.402 C  
HETATM   16  C   UNL     1     -11.872  11.399  68.940  1.00  0.00    -0.347 C  
BRANCH  12  17
HETATM   17  C   UNL     1     -10.317   8.588  68.865  1.00  0.00    -0.226 A  
HETATM   18  C   UNL     1      -9.841   8.546  67.540  1.00  0.00    -0.231 A  
HETATM   19  C   UNL     1     -10.032   7.425  66.723  1.00  0.00    -0.300 A  
HETATM   20  C   UNL     1     -10.686   6.308  67.223  1.00  0.00    -0.349 A  
HETATM   21  C   UNL     1     -11.150   6.304  68.533  1.00  0.00    -0.397 A  
HETATM   22 CL   UNL     1     -10.898   4.921  66.230  1.00  0.00    -0.225 Cl 
HETATM   23  C   UNL     1     -10.958   7.429  69.346  1.00  0.00    -0.126 A  
ENDBRANCH  12  17
ENDBRANCH   8   9
ENDBRANCH   7   8
ENDBRANCH   6   7
BRANCH   6  24
HETATM   24  C   UNL     1      -8.454  15.109  68.050  1.00  0.00    -0.148 A  
HETATM   25  C   UNL     1      -8.291  14.966  69.443  1.00  0.00    -0.069 A  
HETATM   26  C   UNL     1      -7.303  14.941  67.261  1.00  0.00    -0.174 A  
HETATM   27  C   UNL     1      -7.031  14.731  70.010  1.00  0.00    -0.083 A  
HETATM   28  C   UNL     1      -5.906  14.618  69.200  1.00  0.00    -0.099 A  
HETATM   29  C   UNL     1      -6.045  14.718  67.823  1.00  0.00    -0.143 A  
ENDBRANCH   6  24
BRANCH   6  30
HETATM   30  C   UNL     1     -10.142  16.951  67.199  1.00  0.00    -0.287 A  
HETATM   31  C   UNL     1     -10.645  19.211  68.000  1.00  0.00    -0.405 A  
HETATM   32  C   UNL     1     -10.322  17.455  65.890  1.00  0.00    -0.276 A  
HETATM   33  C   UNL     1     -10.267  17.884  68.244  1.00  0.00    -0.391 A  
HETATM   34  C   UNL     1     -10.832  19.664  66.700  1.00  0.00    -0.472 A  
HETATM   35  C   UNL     1     -10.647  18.790  65.640  1.00  0.00    -0.202 A  
ENDBRANCH   6  30
ENDBRANCH   4   6
TORSDOF 7
ENDMDL
MODEL      119
REMARK 921   NORMALIZED FREE ENERGY PREDICTED BY IDOCK:   -4.49 KCAL/MOL
REMARK 922        TOTAL FREE ENERGY PREDICTED BY IDOCK:   -6.71 KCAL/MOL
REMARK 923 INTER-LIGAND FREE ENERGY PREDICTED BY IDOCK:   -7.33 KCAL/MOL
REMARK 924 INTRA-LIGAND FREE ENERGY PREDICTED BY IDOCK:    0.62 KCAL/MOL
REMARK 927      BINDING AFFINITY PREDICTED BY RF-SCORE:    0.00 PKD
ROOT
HETATM    1  C   UNL     1      -7.178   7.296  64.744  1.00  0.00    -0.072 C  
HETATM    2  N   UNL     1      -7.377   7.770  66.111  1.00  0.00    -0.077 N  
HETATM    3  C   UNL     1      -6.621   7.076  67.139  1.00  0.00    -0.055 C  
HETATM    4  C   UNL     1      -8.474   8.611  66.326  1.00  0.00    -0.125 C  
HETATM    5  O   UNL     1      -9.169   8.925  65.346  1.00  0.00    -0.205 OA 
ENDROOT
BRANCH   4   6
HETATM    6  C   UNL     1      -8.838   9.183  67.780  1.00  0.00    -0.125 C  
BRANCH   6   7
HETATM    7  C   UNL     1      -9.969  10.279  67.495  1.00  0.00    -0.226 C  
BRANCH   7   8
HETATM    8  C   UNL     1     -10.842  10.734  68.679  1.00  0.00    -0.220 C  
BRANCH   8   9
HETATM    9  N   UNL     1     -10.829  12.184  68.969  1.00  0.00    -0.197 NA 
HETATM   10  C   UNL     1      -9.558  12.867  68.689  1.00  0.00    -0.019 C  
HETATM   11  C   UNL     1      -9.292  13.068  67.197  1.00  0.00    -0.230 C  
HETATM   12  C   UNL     1     -10.426  13.882  66.534  1.00  0.00    -0.282 C  
HETATM   13  H   UNL     1     -10.896  14.391  64.710  1.00  0.00     0.000 HD 
HETATM   14  O   UNL     1     -10.199  13.890  65.117  1.00  0.00    -0.359 OA 
HETATM   15  C   UNL     1     -11.730  13.099  66.803  1.00  0.00    -0.439 C  
HETATM   16  C   UNL     1     -11.948  12.874  68.302  1.00  0.00    -0.254 C  
BRANCH  12  17
HETATM   17  C   UNL     1     -10.470  15.370  66.920  1.00  0.00    -0.295 A  
HETATM   18  C   UNL     1     -10.956  15.791  68.173  1.00  0.00    -0.330 A  
HETATM   19  C   UNL     1     -10.967  17.141  68.543  1.00  0.00    -0.204 A  
HETATM   20  C   UNL     1     -10.470  18.101  67.673  1.00  0.00    -0.416 A  
HETATM   21  C   UNL     1      -9.962  17.721  66.437  1.00  0.00    -0.345 A  
HETATM   22 CL   UNL     1     -10.459  19.757  68.137  1.00  0.00    -0.544 Cl 
HETATM   23  C   UNL     1      -9.955  16.369  66.070  1.00  0.00    -0.369 A  
ENDBRANCH  12  17
ENDBRANCH   8   9
ENDBRANCH   7   8
ENDBRANCH   6   7
BRANCH   6  24
HETATM   24  C   UNL     1      -9.456   8.019  68.628  1.00  0.00    -0.147 A  
HETATM   25  C   UNL     1      -8.895   7.673  69.874  1.00  0.00    -0.143 A  
HETATM   26  C   UNL     1     -10.578   7.279  68.215  1.00  0.00    -0.217 A  
HETATM   27  C   UNL     1      -9.396   6.603  70.628  1.00  0.00    -0.164 A  
HETATM   28  C   UNL     1     -10.478   5.862  70.164  1.00  0.00    -0.329 A  
HETATM   29  C   UNL     1     -11.072   6.206  68.958  1.00  0.00    -0.437 A  
ENDBRANCH   6  24
BRANCH   6  30
HETATM   30  C   UNL     1      -7.614   9.901  68.447  1.00  0.00    -0.083 A  
HETATM   31  C   UNL     1      -6.274  10.506  70.406  1.00  0.00    -0.128 A  
HETATM   32  C   UNL     1      -6.791  10.779  67.705  1.00  0.00    -0.073 A  
HETATM   33  C   UNL     1      -7.291   9.752  69.807  1.00  0.00    -0.116 A  
HETATM   34  C   UNL     1      -5.499  11.374  69.647  1.00  0.00    -0.059 A  
HETATM   35  C   UNL     1      -5.742  11.493  68.287  1.00  0.00    -0.045 A  
ENDBRANCH   6  30
ENDBRANCH   4   6
TORSDOF 7
ENDMDL
MODEL      120
REMARK 921   NORMALIZED FREE ENERGY PREDICTED BY IDOCK:   -4.46 KCAL/MOL
REMARK 922        TOTAL FREE ENERGY PREDICTED BY IDOCK:   -6.66 KCAL/MOL
REMARK 923 INTER-LIGAND FREE ENERGY PREDICTED BY IDOCK:   -6.71 KCAL/MOL
REMARK 924 INTRA-LIGAND FREE ENERGY PREDICTED BY IDOCK:    0.05 KCAL/MOL
REMARK 927      BINDING AFFINITY PREDICTED BY RF-SCORE:    0.00 PKD
ROOT
HETATM    1  C   UNL     1     -10.887   7.747  69.639  1.00  0.00    -0.184 C  
HETATM    2  N   UNL     1     -10.447   8.573  68.518  1.00  0.00    -0.196 N  
HETATM    3  C   UNL     1     -10.737   8.050  67.195  1.00  0.00    -0.215 C  
HETATM    4  C   UNL     1      -9.545   9.599  68.816  1.00  0.00    -0.152 C  
HETATM    5  O   UNL     1      -9.217   9.762  70.002  1.00  0.00    -0.222 OA 
ENDROOT
BRANCH   4   6
HETATM    6  C   UNL     1      -8.949  10.566  67.683  1.00  0.00    -0.138 C  
BRANCH   6   7
HETATM    7  C   UNL     1      -8.128  11.668  68.503  1.00  0.00    -0.145 C  
BRANCH   7   8
HETATM    8  C   UNL     1      -7.652  12.920  67.745  1.00  0.00    -0.141 C  
BRANCH   8   9
HETATM    9  N   UNL     1      -6.997  13.961  68.566  1.00  0.00    -0.093 NA 
HETATM   10  C   UNL     1      -6.077  14.847  67.840  1.00  0.00    -0.154 C  
HETATM   11  C   UNL     1      -6.790  15.864  66.949  1.00  0.00    -0.013 C  
HETATM   12  C   UNL     1      -7.750  16.750  67.774  1.00  0.00    -0.168 C  
HETATM   13  H   UNL     1      -9.092  18.108  67.369  1.00  0.00     0.000 HD 
HETATM   14  O   UNL     1      -8.502  17.564  66.861  1.00  0.00    -0.222 OA 
HETATM   15  C   UNL     1      -8.732  15.785  68.472  1.00  0.00    -0.184 C  
HETATM   16  C   UNL     1      -7.990  14.749  69.321  1.00  0.00    -0.103 C  
BRANCH  12  17
HETATM   17  C   UNL     1      -7.062  17.763  68.705  1.00  0.00    -0.263 A  
HETATM   18  C   UNL     1      -7.563  19.070  68.869  1.00  0.00    -0.355 A  
HETATM   19  C   UNL     1      -6.960  19.985  69.740  1.00  0.00    -0.133 A  
HETATM   20  C   UNL     1      -5.852  19.606  70.485  1.00  0.00    -0.257 A  
HETATM   21  C   UNL     1      -5.344  18.319  70.366  1.00  0.00    -0.255 A  
HETATM   22 CL   UNL     1      -5.128  20.721  71.575  1.00  0.00    -0.240 Cl 
HETATM   23  C   UNL     1      -5.949  17.406  69.492  1.00  0.00    -0.246 A  
ENDBRANCH  12  17
ENDBRANCH   8   9
ENDBRANCH   7   8
ENDBRANCH   6   7
BRANCH   6  24
HETATM   24  C   UNL     1      -7.954   9.738  66.800  1.00  0.00    -0.105 A  
HETATM   25  C   UNL     1      -7.027   8.864  67.405  1.00  0.00    -0.075 A  
HETATM   26  C   UNL     1      -7.933   9.806  65.396  1.00  0.00    -0.125 A  
HETATM   27  C   UNL     1      -6.093   8.150  66.642  1.00  0.00    -0.053 A  
HETATM   28  C   UNL     1      -6.070   8.280  65.257  1.00  0.00    -0.045 A  
HETATM   29  C   UNL     1      -6.996   9.105  64.635  1.00  0.00    -0.090 A  
ENDBRANCH   6  24
BRANCH   6  30
HETATM   30  C   UNL     1     -10.085  11.294  66.882  1.00  0.00    -0.246 A  
HETATM   31  C   UNL     1     -11.172  11.934  64.782  1.00  0.00    -0.356 A  
HETATM   32  C   UNL     1     -10.999  12.154  67.532  1.00  0.00    -0.304 A  
HETATM   33  C   UNL     1     -10.234  11.171  65.489  1.00  0.00    -0.319 A  
HETATM   34  C   UNL     1     -12.041  12.784  65.455  1.00  0.00    -0.512 A  
HETATM   35  C   UNL     1     -11.971  12.876  66.837  1.00  0.00    -0.402 A  
ENDBRANCH   6  30
ENDBRANCH   4   6
TORSDOF 7
ENDMDL
MODEL      121
REMARK 921   NORMALIZED FREE ENERGY PREDICTED BY IDOCK:   -4.44 KCAL/MOL
REMARK 922        TOTAL FREE ENERGY PREDICTED BY IDOCK:   -6.64 KCAL/MOL
REMARK 923 INTER-LIGAND FREE ENERGY PREDICTED BY IDOCK:   -5.80 KCAL/MOL
REMARK 924 INTRA-LIGAND FREE ENERGY PREDICTED BY IDOCK:   -0.84 KCAL/MOL
REMARK 927      BINDING AFFINITY PREDICTED BY RF-SCORE:    0.00 PKD
ROOT
HETATM    1  C   UNL     1      -8.119   2.282  69.575  1.00  0.00    -0.044 C  
HETATM    2  N   UNL     1      -8.034   3.333  68.565  1.00  0.00    -0.058 N  
HETATM    3  C   UNL     1      -6.827   3.340  67.757  1.00  0.00    -0.049 C  
HETATM    4  C   UNL     1      -8.950   4.384  68.680  1.00  0.00    -0.115 C  
HETATM    5  O   UNL     1      -9.788   4.330  69.595  1.00  0.00    -0.213 OA 
ENDROOT
BRANCH   4   6
HETATM    6  C   UNL     1      -8.955   5.626  67.664  1.00  0.00    -0.107 C  
BRANCH   6   7
HETATM    7  C   UNL     1     -10.201   6.511  68.139  1.00  0.00    -0.194 C  
BRANCH   7   8
HETATM    8  C   UNL     1      -9.905   7.821  68.892  1.00  0.00    -0.166 C  
BRANCH   8   9
HETATM    9  N   UNL     1     -10.571   9.032  68.365  1.00  0.00    -0.188 NA 
HETATM   10  C   UNL     1      -9.926  10.305  68.716  1.00  0.00    -0.179 C  
HETATM   11  C   UNL     1      -8.633  10.564  67.941  1.00  0.00    -0.123 C  
HETATM   12  C   UNL     1      -8.888  10.564  66.417  1.00  0.00    -0.153 C  
HETATM   13  H   UNL     1      -7.776  10.646  64.815  1.00  0.00     0.000 HD 
HETATM   14  O   UNL     1      -7.618  10.646  65.753  1.00  0.00    -0.149 OA 
HETATM   15  C   UNL     1      -9.511   9.189  66.086  1.00  0.00    -0.309 C  
HETATM   16  C   UNL     1     -10.778   8.937  66.908  1.00  0.00    -0.083 C  
BRANCH  12  17
HETATM   17  C   UNL     1      -9.672  11.777  65.888  1.00  0.00    -0.259 A  
HETATM   18  C   UNL     1      -9.464  13.070  66.407  1.00  0.00    -0.228 A  
HETATM   19  C   UNL     1     -10.150  14.183  65.908  1.00  0.00    -0.337 A  
HETATM   20  C   UNL     1     -11.046  14.031  64.859  1.00  0.00    -0.375 A  
HETATM   21  C   UNL     1     -11.261  12.774  64.308  1.00  0.00    -0.409 A  
HETATM   22 CL   UNL     1     -11.870  15.402  64.227  1.00  0.00    -0.319 Cl 
HETATM   23  C   UNL     1     -10.574  11.663  64.812  1.00  0.00    -0.358 A  
ENDBRANCH  12  17
ENDBRANCH   8   9
ENDBRANCH   7   8
ENDBRANCH   6   7
BRANCH   6  24
HETATM   24  C   UNL     1      -7.636   6.443  67.878  1.00  0.00    -0.102 A  
HETATM   25  C   UNL     1      -7.101   6.605  69.172  1.00  0.00    -0.088 A  
HETATM   26  C   UNL     1      -6.922   7.038  66.823  1.00  0.00    -0.073 A  
HETATM   27  C   UNL     1      -5.951   7.373  69.396  1.00  0.00    -0.030 A  
HETATM   28  C   UNL     1      -5.298   7.987  68.332  1.00  0.00    -0.032 A  
HETATM   29  C   UNL     1      -5.782   7.813  67.044  1.00  0.00    -0.032 A  
ENDBRANCH   6  24
BRANCH   6  30
HETATM   30  C   UNL     1      -9.211   5.168  66.186  1.00  0.00    -0.153 A  
HETATM   31  C   UNL     1     -10.486   3.924  64.504  1.00  0.00    -0.221 A  
HETATM   32  C   UNL     1      -8.272   5.442  65.165  1.00  0.00    -0.138 A  
HETATM   33  C   UNL     1     -10.347   4.433  65.802  1.00  0.00    -0.246 A  
HETATM   34  C   UNL     1      -9.531   4.199  63.532  1.00  0.00    -0.139 A  
HETATM   35  C   UNL     1      -8.433   4.981  63.857  1.00  0.00    -0.129 A  
ENDBRANCH   6  30
ENDBRANCH   4   6
TORSDOF 7
ENDMDL
MODEL      122
REMARK 921   NORMALIZED FREE ENERGY PREDICTED BY IDOCK:   -4.36 KCAL/MOL
REMARK 922        TOTAL FREE ENERGY PREDICTED BY IDOCK:   -6.52 KCAL/MOL
REMARK 923 INTER-LIGAND FREE ENERGY PREDICTED BY IDOCK:   -6.68 KCAL/MOL
REMARK 924 INTRA-LIGAND FREE ENERGY PREDICTED BY IDOCK:    0.16 KCAL/MOL
REMARK 927      BINDING AFFINITY PREDICTED BY RF-SCORE:    0.00 PKD
ROOT
HETATM    1  C   UNL     1      -9.499  15.046  69.204  1.00  0.00    -0.195 C  
HETATM    2  N   UNL     1     -10.016  13.885  68.484  1.00  0.00    -0.229 N  
HETATM    3  C   UNL     1     -11.184  13.248  69.065  1.00  0.00    -0.270 C  
HETATM    4  C   UNL     1      -9.178  13.332  67.511  1.00  0.00    -0.213 C  
HETATM    5  O   UNL     1      -8.085  13.883  67.299  1.00  0.00    -0.178 OA 
ENDROOT
BRANCH   4   6
HETATM    6  C   UNL     1      -9.595  12.036  66.662  1.00  0.00    -0.225 C  
BRANCH   6   7
HETATM    7  C   UNL     1     -10.335  11.096  67.725  1.00  0.00    -0.215 C  
BRANCH   7   8
HETATM    8  C   UNL     1     -10.526   9.612  67.360  1.00  0.00    -0.257 C  
BRANCH   8   9
HETATM    9  N   UNL     1      -9.769   8.644  68.182  1.00  0.00    -0.154 NA 
HETATM   10  C   UNL     1     -10.590   7.705  68.960  1.00  0.00    -0.174 C  
HETATM   11  C   UNL     1     -11.242   6.616  68.107  1.00  0.00    -0.207 C  
HETATM   12  C   UNL     1     -10.177   5.797  67.343  1.00  0.00    -0.200 C  
HETATM   13  H   UNL     1     -10.204   4.406  65.974  1.00  0.00     0.000 HD 
HETATM   14  O   UNL     1     -10.859   4.910  66.443  1.00  0.00    -0.228 OA 
HETATM   15  C   UNL     1      -9.379   6.812  66.496  1.00  0.00    -0.197 C  
HETATM   16  C   UNL     1      -8.775   7.916  67.370  1.00  0.00    -0.128 C  
BRANCH  12  17
HETATM   17  C   UNL     1      -9.323   4.865  68.218  1.00  0.00    -0.168 A  
HETATM   18  C   UNL     1      -8.066   4.396  67.785  1.00  0.00    -0.095 A  
HETATM   19  C   UNL     1      -7.269   3.575  68.591  1.00  0.00    -0.050 A  
HETATM   20  C   UNL     1      -7.702   3.221  69.861  1.00  0.00    -0.043 A  
HETATM   21  C   UNL     1      -8.925   3.682  70.330  1.00  0.00    -0.165 A  
HETATM   22 CL   UNL     1      -6.712   2.234  70.861  1.00  0.00    -0.031 Cl 
HETATM   23  C   UNL     1      -9.721   4.502  69.520  1.00  0.00    -0.282 A  
ENDBRANCH  12  17
ENDBRANCH   8   9
ENDBRANCH   7   8
ENDBRANCH   6   7
BRANCH   6  24
HETATM   24  C   UNL     1     -10.624  12.476  65.565  1.00  0.00    -0.304 A  
HETATM   25  C   UNL     1     -11.358  11.507  64.850  1.00  0.00    -0.189 A  
HETATM   26  C   UNL     1     -10.877  13.821  65.243  1.00  0.00    -0.326 A  
HETATM   27  C   UNL     1     -12.246  11.871  63.829  1.00  0.00    -0.549 A  
HETATM   28  C   UNL     1     -12.435  13.211  63.506  1.00  0.00    -0.361 A  
HETATM   29  C   UNL     1     -11.752  14.186  64.219  1.00  0.00    -0.365 A  
ENDBRANCH   6  24
BRANCH   6  30
HETATM   30  C   UNL     1      -8.341  11.270  66.115  1.00  0.00    -0.111 A  
HETATM   31  C   UNL     1      -7.262   9.775  64.502  1.00  0.00    -0.128 A  
HETATM   32  C   UNL     1      -7.135  11.225  66.852  1.00  0.00    -0.139 A  
HETATM   33  C   UNL     1      -8.352  10.558  64.902  1.00  0.00    -0.135 A  
HETATM   34  C   UNL     1      -6.100   9.740  65.264  1.00  0.00    -0.083 A  
HETATM   35  C   UNL     1      -6.028  10.487  66.430  1.00  0.00    -0.084 A  
ENDBRANCH   6  30
ENDBRANCH   4   6
TORSDOF 7
ENDMDL
MODEL      123
REMARK 921   NORMALIZED FREE ENERGY PREDICTED BY IDOCK:   -4.35 KCAL/MOL
REMARK 922        TOTAL FREE ENERGY PREDICTED BY IDOCK:   -6.50 KCAL/MOL
REMARK 923 INTER-LIGAND FREE ENERGY PREDICTED BY IDOCK:   -6.52 KCAL/MOL
REMARK 924 INTRA-LIGAND FREE ENERGY PREDICTED BY IDOCK:    0.02 KCAL/MOL
REMARK 927      BINDING AFFINITY PREDICTED BY RF-SCORE:    0.00 PKD
ROOT
HETATM    1  C   UNL     1     -10.390   5.040  66.087  1.00  0.00    -0.268 C  
HETATM    2  N   UNL     1      -9.965   6.310  66.669  1.00  0.00    -0.167 N  
HETATM    3  C   UNL     1     -10.864   6.888  67.652  1.00  0.00    -0.263 C  
HETATM    4  C   UNL     1      -8.923   6.976  66.018  1.00  0.00    -0.107 C  
HETATM    5  O   UNL     1      -8.409   6.430  65.027  1.00  0.00    -0.140 OA 
ENDROOT
BRANCH   4   6
HETATM    6  C   UNL     1      -8.371   8.396  66.522  1.00  0.00    -0.111 C  
BRANCH   6   7
HETATM    7  C   UNL     1      -9.690   9.286  66.699  1.00  0.00    -0.281 C  
BRANCH   7   8
HETATM    8  C   UNL     1     -10.028  10.297  65.588  1.00  0.00    -0.280 C  
BRANCH   8   9
HETATM    9  N   UNL     1      -9.490  11.661  65.773  1.00  0.00    -0.231 NA 
HETATM   10  C   UNL     1     -10.374  12.749  65.329  1.00  0.00    -0.296 C  
HETATM   11  C   UNL     1     -11.560  12.988  66.264  1.00  0.00    -0.408 C  
HETATM   12  C   UNL     1     -11.082  13.317  67.696  1.00  0.00    -0.269 C  
HETATM   13  H   UNL     1     -11.941  13.569  69.431  1.00  0.00     0.000 HD 
HETATM   14  O   UNL     1     -12.235  13.366  68.550  1.00  0.00    -0.295 OA 
HETATM   15  C   UNL     1     -10.208  12.125  68.143  1.00  0.00    -0.203 C  
HETATM   16  C   UNL     1      -9.055  11.880  67.165  1.00  0.00    -0.178 C  
BRANCH  12  17
HETATM   17  C   UNL     1     -10.430  14.700  67.862  1.00  0.00    -0.242 A  
HETATM   18  C   UNL     1     -10.902  15.825  67.157  1.00  0.00    -0.289 A  
HETATM   19  C   UNL     1     -10.334  17.093  67.329  1.00  0.00    -0.320 A  
HETATM   20  C   UNL     1      -9.291  17.269  68.229  1.00  0.00    -0.272 A  
HETATM   21  C   UNL     1      -8.815  16.186  68.957  1.00  0.00    -0.251 A  
HETATM   22 CL   UNL     1      -8.610  18.830  68.459  1.00  0.00    -0.369 Cl 
HETATM   23  C   UNL     1      -9.385  14.919  68.781  1.00  0.00    -0.203 A  
ENDBRANCH  12  17
ENDBRANCH   8   9
ENDBRANCH   7   8
ENDBRANCH   6   7
BRANCH   6  24
HETATM   24  C   UNL     1      -7.697   8.195  67.922  1.00  0.00    -0.114 A  
HETATM   25  C   UNL     1      -6.790   7.135  68.128  1.00  0.00    -0.074 A  
HETATM   26  C   UNL     1      -7.941   9.038  69.020  1.00  0.00    -0.102 A  
HETATM   27  C   UNL     1      -6.213   6.903  69.384  1.00  0.00    -0.034 A  
HETATM   28  C   UNL     1      -6.515   7.730  70.461  1.00  0.00    -0.038 A  
HETATM   29  C   UNL     1      -7.377   8.802  70.275  1.00  0.00    -0.058 A  
ENDBRANCH   6  24
BRANCH   6  30
HETATM   30  C   UNL     1      -7.457   9.080  65.447  1.00  0.00    -0.089 A  
HETATM   31  C   UNL     1      -6.721   9.403  63.132  1.00  0.00    -0.099 A  
HETATM   32  C   UNL     1      -6.370   9.900  65.829  1.00  0.00    -0.084 A  
HETATM   33  C   UNL     1      -7.631   8.888  64.065  1.00  0.00    -0.121 A  
HETATM   34  C   UNL     1      -5.653  10.190  63.549  1.00  0.00    -0.126 A  
HETATM   35  C   UNL     1      -5.491  10.459  64.899  1.00  0.00    -0.136 A  
ENDBRANCH   6  30
ENDBRANCH   4   6
TORSDOF 7
ENDMDL
MODEL      124
REMARK 921   NORMALIZED FREE ENERGY PREDICTED BY IDOCK:   -4.29 KCAL/MOL
REMARK 922        TOTAL FREE ENERGY PREDICTED BY IDOCK:   -6.42 KCAL/MOL
REMARK 923 INTER-LIGAND FREE ENERGY PREDICTED BY IDOCK:   -6.84 KCAL/MOL
REMARK 924 INTRA-LIGAND FREE ENERGY PREDICTED BY IDOCK:    0.42 KCAL/MOL
REMARK 927      BINDING AFFINITY PREDICTED BY RF-SCORE:    0.00 PKD
ROOT
HETATM    1  C   UNL     1     -11.348   6.606  69.157  1.00  0.00    -0.194 C  
HETATM    2  N   UNL     1     -10.399   7.699  68.961  1.00  0.00    -0.211 N  
HETATM    3  C   UNL     1     -10.062   8.466  70.147  1.00  0.00    -0.191 C  
HETATM    4  C   UNL     1     -10.155   8.083  67.639  1.00  0.00    -0.209 C  
HETATM    5  O   UNL     1     -10.723   7.451  66.733  1.00  0.00    -0.319 OA 
ENDROOT
BRANCH   4   6
HETATM    6  C   UNL     1      -9.164   9.289  67.270  1.00  0.00    -0.149 C  
BRANCH   6   7
HETATM    7  C   UNL     1      -9.715  10.524  68.126  1.00  0.00    -0.166 C  
BRANCH   7   8
HETATM    8  C   UNL     1      -8.738  11.670  68.444  1.00  0.00    -0.158 C  
BRANCH   8   9
HETATM    9  N   UNL     1      -8.888  12.891  67.623  1.00  0.00    -0.175 NA 
HETATM   10  C   UNL     1     -10.258  13.415  67.523  1.00  0.00    -0.226 C  
HETATM   11  C   UNL     1     -10.741  14.100  68.802  1.00  0.00    -0.265 C  
HETATM   12  C   UNL     1      -9.811  15.272  69.190  1.00  0.00    -0.239 C  
HETATM   13  H   UNL     1      -9.652  16.482  70.714  1.00  0.00     0.000 HD 
HETATM   14  O   UNL     1     -10.223  15.761  70.476  1.00  0.00    -0.106 OA 
HETATM   15  C   UNL     1      -8.398  14.667  69.341  1.00  0.00     0.085 C  
HETATM   16  C   UNL     1      -7.958  13.949  68.062  1.00  0.00    -0.154 C  
BRANCH  12  17
HETATM   17  C   UNL     1      -9.898  16.503  68.271  1.00  0.00    -0.243 A  
HETATM   18  C   UNL     1     -10.452  16.418  66.979  1.00  0.00    -0.291 A  
HETATM   19  C   UNL     1     -10.563  17.541  66.151  1.00  0.00    -0.211 A  
HETATM   20  C   UNL     1     -10.142  18.782  66.607  1.00  0.00    -0.378 A  
HETATM   21  C   UNL     1      -9.611  18.908  67.884  1.00  0.00    -0.361 A  
HETATM   22 CL   UNL     1     -10.303  20.167  65.600  1.00  0.00    -0.446 Cl 
HETATM   23  C   UNL     1      -9.499  17.781  68.709  1.00  0.00    -0.254 A  
ENDBRANCH  12  17
ENDBRANCH   8   9
ENDBRANCH   7   8
ENDBRANCH   6   7
BRANCH   6  24
HETATM   24  C   UNL     1      -7.727   8.918  67.773  1.00  0.00    -0.101 A  
HETATM   25  C   UNL     1      -7.414   7.585  68.108  1.00  0.00    -0.105 A  
HETATM   26  C   UNL     1      -6.693   9.861  67.908  1.00  0.00    -0.068 A  
HETATM   27  C   UNL     1      -6.153   7.236  68.609  1.00  0.00    -0.027 A  
HETATM   28  C   UNL     1      -5.168   8.205  68.774  1.00  0.00    -0.028 A  
HETATM   29  C   UNL     1      -5.439   9.518  68.417  1.00  0.00    -0.036 A  
ENDBRANCH   6  24
BRANCH   6  30
HETATM   30  C   UNL     1      -9.248   9.668  65.750  1.00  0.00    -0.264 A  
HETATM   31  C   UNL     1     -10.353  10.765  63.859  1.00  0.00    -0.329 A  
HETATM   32  C   UNL     1      -8.363   9.096  64.806  1.00  0.00    -0.176 A  
HETATM   33  C   UNL     1     -10.217  10.548  65.236  1.00  0.00    -0.352 A  
HETATM   34  C   UNL     1      -9.476  10.170  62.960  1.00  0.00    -0.292 A  
HETATM   35  C   UNL     1      -8.463   9.352  63.437  1.00  0.00    -0.202 A  
ENDBRANCH   6  30
ENDBRANCH   4   6
TORSDOF 7
ENDMDL
MODEL      125
REMARK 921   NORMALIZED FREE ENERGY PREDICTED BY IDOCK:   -4.28 KCAL/MOL
REMARK 922        TOTAL FREE ENERGY PREDICTED BY IDOCK:   -6.41 KCAL/MOL
REMARK 923 INTER-LIGAND FREE ENERGY PREDICTED BY IDOCK:   -6.26 KCAL/MOL
REMARK 924 INTRA-LIGAND FREE ENERGY PREDICTED BY IDOCK:   -0.14 KCAL/MOL
REMARK 927      BINDING AFFINITY PREDICTED BY RF-SCORE:    0.00 PKD
ROOT
HETATM    1  C   UNL     1     -11.115   7.518  69.973  1.00  0.00    -0.204 C  
HETATM    2  N   UNL     1      -9.911   7.250  69.191  1.00  0.00    -0.164 N  
HETATM    3  C   UNL     1      -8.740   8.035  69.542  1.00  0.00    -0.136 C  
HETATM    4  C   UNL     1     -10.082   6.511  68.017  1.00  0.00    -0.150 C  
HETATM    5  O   UNL     1     -11.223   6.104  67.743  1.00  0.00    -0.294 OA 
ENDROOT
BRANCH   4   6
HETATM    6  C   UNL     1      -8.857   6.167  67.039  1.00  0.00    -0.110 C  
BRANCH   6   7
HETATM    7  C   UNL     1      -8.313   7.599  66.577  1.00  0.00    -0.129 C  
BRANCH   7   8
HETATM    8  C   UNL     1      -9.293   8.538  65.849  1.00  0.00    -0.163 C  
BRANCH   8   9
HETATM    9  N   UNL     1      -8.826   9.927  65.648  1.00  0.00    -0.150 NA 
HETATM   10  C   UNL     1      -9.655  10.744  64.751  1.00  0.00    -0.262 C  
HETATM   11  C   UNL     1     -10.980  11.179  65.377  1.00  0.00    -0.151 C  
HETATM   12  C   UNL     1     -10.744  11.987  66.673  1.00  0.00    -0.245 C  
HETATM   13  H   UNL     1     -11.873  12.717  68.088  1.00  0.00     0.000 HD 
HETATM   14  O   UNL     1     -12.019  12.220  67.291  1.00  0.00    -0.546 OA 
HETATM   15  C   UNL     1      -9.922  11.072  67.606  1.00  0.00    -0.196 C  
HETATM   16  C   UNL     1      -8.622  10.614  66.937  1.00  0.00    -0.126 C  
BRANCH  12  17
HETATM   17  C   UNL     1     -10.161  13.395  66.464  1.00  0.00    -0.282 A  
HETATM   18  C   UNL     1     -10.779  14.327  65.607  1.00  0.00    -0.321 A  
HETATM   19  C   UNL     1     -10.272  15.621  65.439  1.00  0.00    -0.401 A  
HETATM   20  C   UNL     1      -9.145  16.021  66.143  1.00  0.00    -0.351 A  
HETATM   21  C   UNL     1      -8.522  15.135  67.014  1.00  0.00    -0.259 A  
HETATM   22 CL   UNL     1      -8.537  17.618  65.957  1.00  0.00    -0.143 Cl 
HETATM   23  C   UNL     1      -9.032  13.841  67.178  1.00  0.00    -0.241 A  
ENDBRANCH  12  17
ENDBRANCH   8   9
ENDBRANCH   7   8
ENDBRANCH   6   7
BRANCH   6  24
HETATM   24  C   UNL     1      -7.747   5.444  67.876  1.00  0.00    -0.092 A  
HETATM   25  C   UNL     1      -8.068   4.315  68.657  1.00  0.00    -0.077 A  
HETATM   26  C   UNL     1      -6.403   5.857  67.889  1.00  0.00    -0.041 A  
HETATM   27  C   UNL     1      -7.105   3.681  69.453  1.00  0.00    -0.045 A  
HETATM   28  C   UNL     1      -5.795   4.148  69.479  1.00  0.00    -0.018 A  
HETATM   29  C   UNL     1      -5.444   5.234  68.690  1.00  0.00    -0.007 A  
ENDBRANCH   6  24
BRANCH   6  30
HETATM   30  C   UNL     1      -9.331   5.385  65.765  1.00  0.00    -0.132 A  
HETATM   31  C   UNL     1     -10.882   3.879  64.612  1.00  0.00    -0.087 A  
HETATM   32  C   UNL     1      -8.524   5.322  64.606  1.00  0.00    -0.142 A  
HETATM   33  C   UNL     1     -10.545   4.677  65.714  1.00  0.00    -0.264 A  
HETATM   34  C   UNL     1     -10.052   3.828  63.498  1.00  0.00    -0.193 A  
HETATM   35  C   UNL     1      -8.882   4.570  63.485  1.00  0.00    -0.139 A  
ENDBRANCH   6  30
ENDBRANCH   4   6
TORSDOF 7
ENDMDL
MODEL      126
REMARK 921   NORMALIZED FREE ENERGY PREDICTED BY IDOCK:   -4.28 KCAL/MOL
REMARK 922        TOTAL FREE ENERGY PREDICTED BY IDOCK:   -6.40 KCAL/MOL
REMARK 923 INTER-LIGAND FREE ENERGY PREDICTED BY IDOCK:   -7.15 KCAL/MOL
REMARK 924 INTRA-LIGAND FREE ENERGY PREDICTED BY IDOCK:    0.74 KCAL/MOL
REMARK 927      BINDING AFFINITY PREDICTED BY RF-SCORE:    0.00 PKD
ROOT
HETATM    1  C   UNL     1     -12.802  15.107  70.516  1.00  0.00    -0.348 C  
HETATM    2  N   UNL     1     -11.837  14.886  69.442  1.00  0.00    -0.313 N  
HETATM    3  C   UNL     1     -11.707  15.962  68.476  1.00  0.00    -0.292 C  
HETATM    4  C   UNL     1     -11.377  13.575  69.278  1.00  0.00    -0.262 C  
HETATM    5  O   UNL     1     -11.782  12.710  70.072  1.00  0.00    -0.293 OA 
ENDROOT
BRANCH   4   6
HETATM    6  C   UNL     1     -10.342  13.173  68.120  1.00  0.00    -0.247 C  
BRANCH   6   7
HETATM    7  C   UNL     1     -10.257  11.578  68.211  1.00  0.00    -0.205 C  
BRANCH   7   8
HETATM    8  C   UNL     1      -9.772  10.959  69.535  1.00  0.00     0.111 C  
BRANCH   8   9
HETATM    9  N   UNL     1      -8.885   9.782  69.409  1.00  0.00    -0.168 NA 
HETATM   10  C   UNL     1      -8.713   8.993  70.637  1.00  0.00    -0.213 C  
HETATM   11  C   UNL     1      -9.938   8.150  70.995  1.00  0.00    -0.220 C  
HETATM   12  C   UNL     1     -10.296   7.176  69.850  1.00  0.00    -0.213 C  
HETATM   13  H   UNL     1     -11.760   5.941  69.475  1.00  0.00     0.000 HD 
HETATM   14  O   UNL     1     -11.540   6.540  70.179  1.00  0.00    -0.396 OA 
HETATM   15  C   UNL     1     -10.525   8.050  68.598  1.00  0.00    -0.196 C  
HETATM   16  C   UNL     1      -9.300   8.917  68.289  1.00  0.00    -0.143 C  
BRANCH  12  17
HETATM   17  C   UNL     1      -9.313   6.009  69.658  1.00  0.00    -0.161 A  
HETATM   18  C   UNL     1      -8.397   5.988  68.587  1.00  0.00    -0.113 A  
HETATM   19  C   UNL     1      -7.477   4.945  68.426  1.00  0.00    -0.074 A  
HETATM   20  C   UNL     1      -7.438   3.907  69.347  1.00  0.00    -0.053 A  
HETATM   21  C   UNL     1      -8.312   3.906  70.427  1.00  0.00    -0.080 A  
HETATM   22 CL   UNL     1      -6.292   2.639  69.164  1.00  0.00    -0.029 Cl 
HETATM   23  C   UNL     1      -9.232   4.951  70.584  1.00  0.00    -0.189 A  
ENDBRANCH  12  17
ENDBRANCH   8   9
ENDBRANCH   7   8
ENDBRANCH   6   7
BRANCH   6  24
HETATM   24  C   UNL     1     -10.965  13.575  66.740  1.00  0.00    -0.297 A  
HETATM   25  C   UNL     1     -12.336  13.363  66.490  1.00  0.00    -0.354 A  
HETATM   26  C   UNL     1     -10.219  14.163  65.703  1.00  0.00    -0.357 A  
HETATM   27  C   UNL     1     -12.907  13.666  65.247  1.00  0.00    -0.421 A  
HETATM   28  C   UNL     1     -12.127  14.203  64.227  1.00  0.00    -0.471 A  
HETATM   29  C   UNL     1     -10.783  14.457  64.460  1.00  0.00    -0.236 A  
ENDBRANCH   6  24
BRANCH   6  30
HETATM   30  C   UNL     1      -8.912  13.759  68.389  1.00  0.00    -0.166 A  
HETATM   31  C   UNL     1      -7.423  15.552  69.144  1.00  0.00    -0.191 A  
HETATM   32  C   UNL     1      -7.752  13.082  67.948  1.00  0.00    -0.145 A  
HETATM   33  C   UNL     1      -8.702  14.991  69.035  1.00  0.00    -0.203 A  
HETATM   34  C   UNL     1      -6.308  14.864  68.681  1.00  0.00    -0.084 A  
HETATM   35  C   UNL     1      -6.471  13.614  68.103  1.00  0.00    -0.125 A  
ENDBRANCH   6  30
ENDBRANCH   4   6
TORSDOF 7
ENDMDL
MODEL      127
REMARK 921   NORMALIZED FREE ENERGY PREDICTED BY IDOCK:   -4.26 KCAL/MOL
REMARK 922        TOTAL FREE ENERGY PREDICTED BY IDOCK:   -6.38 KCAL/MOL
REMARK 923 INTER-LIGAND FREE ENERGY PREDICTED BY IDOCK:   -5.63 KCAL/MOL
REMARK 924 INTRA-LIGAND FREE ENERGY PREDICTED BY IDOCK:   -0.76 KCAL/MOL
REMARK 927      BINDING AFFINITY PREDICTED BY RF-SCORE:    0.00 PKD
ROOT
HETATM    1  C   UNL     1      -5.903   8.114  64.480  1.00  0.00    -0.052 C  
HETATM    2  N   UNL     1      -6.271   6.821  65.049  1.00  0.00    -0.038 N  
HETATM    3  C   UNL     1      -5.258   5.783  64.970  1.00  0.00    -0.010 C  
HETATM    4  C   UNL     1      -7.627   6.625  65.326  1.00  0.00    -0.088 C  
HETATM    5  O   UNL     1      -8.409   7.565  65.110  1.00  0.00    -0.137 OA 
ENDROOT
BRANCH   4   6
HETATM    6  C   UNL     1      -8.186   5.243  65.921  1.00  0.00    -0.117 C  
BRANCH   6   7
HETATM    7  C   UNL     1      -9.730   5.542  66.215  1.00  0.00    -0.172 C  
BRANCH   7   8
HETATM    8  C   UNL     1     -10.247   5.308  67.647  1.00  0.00    -0.170 C  
BRANCH   8   9
HETATM    9  N   UNL     1     -11.166   6.338  68.176  1.00  0.00    -0.271 NA 
HETATM   10  C   UNL     1     -11.405   6.279  69.625  1.00  0.00    -0.422 C  
HETATM   11  C   UNL     1     -10.221   6.772  70.458  1.00  0.00    -0.212 C  
HETATM   12  C   UNL     1      -9.855   8.229  70.095  1.00  0.00    -0.184 C  
HETATM   13  H   UNL     1      -8.419   9.465  70.564  1.00  0.00     0.000 HD 
HETATM   14  O   UNL     1      -8.644   8.569  70.787  1.00  0.00    -0.131 OA 
HETATM   15  C   UNL     1      -9.555   8.232  68.580  1.00  0.00    -0.154 C  
HETATM   16  C   UNL     1     -10.740   7.692  67.774  1.00  0.00    -0.145 C  
BRANCH  12  17
HETATM   17  C   UNL     1     -10.867   9.289  70.560  1.00  0.00    -0.318 A  
HETATM   18  C   UNL     1     -11.694   9.075  71.681  1.00  0.00    -0.431 A  
HETATM   19  C   UNL     1     -12.594  10.049  72.129  1.00  0.00    -0.275 A  
HETATM   20  C   UNL     1     -12.672  11.272  71.477  1.00  0.00    -0.376 A  
HETATM   21  C   UNL     1     -11.856  11.527  70.382  1.00  0.00    -0.413 A  
HETATM   22 CL   UNL     1     -13.758  12.479  72.043  1.00  0.00    -0.368 Cl 
HETATM   23  C   UNL     1     -10.958  10.548  69.936  1.00  0.00    -0.359 A  
ENDBRANCH  12  17
ENDBRANCH   8   9
ENDBRANCH   7   8
ENDBRANCH   6   7
BRANCH   6  24
HETATM   24  C   UNL     1      -8.079   4.147  64.807  1.00  0.00    -0.094 A  
HETATM   25  C   UNL     1      -8.961   4.163  63.707  1.00  0.00    -0.130 A  
HETATM   26  C   UNL     1      -7.120   3.118  64.831  1.00  0.00    -0.058 A  
HETATM   27  C   UNL     1      -8.919   3.165  62.724  1.00  0.00    -0.091 A  
HETATM   28  C   UNL     1      -7.988   2.135  62.807  1.00  0.00    -0.060 A  
HETATM   29  C   UNL     1      -7.084   2.117  63.859  1.00  0.00    -0.040 A  
ENDBRANCH   6  24
BRANCH   6  30
HETATM   30  C   UNL     1      -7.490   4.870  67.277  1.00  0.00    -0.083 A  
HETATM   31  C   UNL     1      -7.008   3.297  69.092  1.00  0.00    -0.041 A  
HETATM   32  C   UNL     1      -6.823   5.850  68.048  1.00  0.00    -0.067 A  
HETATM   33  C   UNL     1      -7.523   3.573  67.818  1.00  0.00    -0.062 A  
HETATM   34  C   UNL     1      -6.376   4.292  69.828  1.00  0.00    -0.028 A  
HETATM   35  C   UNL     1      -6.262   5.567  69.294  1.00  0.00    -0.029 A  
ENDBRANCH   6  30
ENDBRANCH   4   6
TORSDOF 7
ENDMDL
MODEL      128
REMARK 921   NORMALIZED FREE ENERGY PREDICTED BY IDOCK:   -4.23 KCAL/MOL
REMARK 922        TOTAL FREE ENERGY PREDICTED BY IDOCK:   -6.33 KCAL/MOL
REMARK 923 INTER-LIGAND FREE ENERGY PREDICTED BY IDOCK:   -6.46 KCAL/MOL
REMARK 924 INTRA-LIGAND FREE ENERGY PREDICTED BY IDOCK:    0.13 KCAL/MOL
REMARK 927      BINDING AFFINITY PREDICTED BY RF-SCORE:    0.00 PKD
ROOT
HETATM    1  C   UNL     1     -12.127   8.167  70.970  1.00  0.00    -0.207 C  
HETATM    2  N   UNL     1     -10.718   7.809  71.115  1.00  0.00    -0.225 N  
HETATM    3  C   UNL     1      -9.830   8.885  71.518  1.00  0.00    -0.314 C  
HETATM    4  C   UNL     1     -10.327   6.584  70.567  1.00  0.00    -0.201 C  
HETATM    5  O   UNL     1     -11.200   5.874  70.040  1.00  0.00    -0.364 OA 
ENDROOT
BRANCH   4   6
HETATM    6  C   UNL     1      -8.807   6.072  70.619  1.00  0.00    -0.142 C  
BRANCH   6   7
HETATM    7  C   UNL     1      -8.062   6.950  69.508  1.00  0.00    -0.130 C  
BRANCH   7   8
HETATM    8  C   UNL     1      -8.624   6.921  68.074  1.00  0.00    -0.123 C  
BRANCH   8   9
HETATM    9  N   UNL     1      -9.546   8.021  67.721  1.00  0.00    -0.148 NA 
HETATM   10  C   UNL     1      -9.103   9.364  68.125  1.00  0.00    -0.127 C  
HETATM   11  C   UNL     1      -7.966   9.913  67.263  1.00  0.00    -0.109 C  
HETATM   12  C   UNL     1      -8.375   9.975  65.774  1.00  0.00    -0.132 C  
HETATM   13  H   UNL     1      -7.470  10.377  64.093  1.00  0.00     0.000 HD 
HETATM   14  O   UNL     1      -7.217  10.339  65.008  1.00  0.00    -0.136 OA 
HETATM   15  C   UNL     1      -8.776   8.537  65.378  1.00  0.00    -0.194 C  
HETATM   16  C   UNL     1      -9.885   7.995  66.286  1.00  0.00    -0.091 C  
BRANCH  12  17
HETATM   17  C   UNL     1      -9.413  11.057  65.430  1.00  0.00    -0.257 A  
HETATM   18  C   UNL     1      -9.481  12.266  66.150  1.00  0.00    -0.221 A  
HETATM   19  C   UNL     1     -10.401  13.268  65.820  1.00  0.00    -0.290 A  
HETATM   20  C   UNL     1     -11.261  13.092  64.745  1.00  0.00    -0.324 A  
HETATM   21  C   UNL     1     -11.207  11.922  63.998  1.00  0.00    -0.470 A  
HETATM   22 CL   UNL     1     -12.373  14.334  64.323  1.00  0.00    -0.458 Cl 
HETATM   23  C   UNL     1     -10.286  10.921  64.333  1.00  0.00    -0.430 A  
ENDBRANCH  12  17
ENDBRANCH   8   9
ENDBRANCH   7   8
ENDBRANCH   6   7
BRANCH   6  24
HETATM   24  C   UNL     1      -8.217   6.422  72.028  1.00  0.00    -0.109 A  
HETATM   25  C   UNL     1      -6.904   6.922  72.144  1.00  0.00    -0.058 A  
HETATM   26  C   UNL     1      -8.942   6.272  73.223  1.00  0.00    -0.131 A  
HETATM   27  C   UNL     1      -6.335   7.195  73.395  1.00  0.00    -0.065 A  
HETATM   28  C   UNL     1      -7.067   6.988  74.561  1.00  0.00    -0.106 A  
HETATM   29  C   UNL     1      -8.375   6.532  74.471  1.00  0.00    -0.151 A  
ENDBRANCH   6  24
BRANCH   6  30
HETATM   30  C   UNL     1      -8.687   4.561  70.215  1.00  0.00    -0.116 A  
HETATM   31  C   UNL     1      -8.069   2.794  68.635  1.00  0.00    -0.069 A  
HETATM   32  C   UNL     1      -9.267   3.546  71.010  1.00  0.00    -0.195 A  
HETATM   33  C   UNL     1      -8.046   4.136  69.038  1.00  0.00    -0.074 A  
HETATM   34  C   UNL     1      -8.666   1.827  69.435  1.00  0.00    -0.112 A  
HETATM   35  C   UNL     1      -9.245   2.201  70.638  1.00  0.00    -0.185 A  
ENDBRANCH   6  30
ENDBRANCH   4   6
TORSDOF 7
ENDMDL
MODEL      129
REMARK 921   NORMALIZED FREE ENERGY PREDICTED BY IDOCK:   -4.22 KCAL/MOL
REMARK 922        TOTAL FREE ENERGY PREDICTED BY IDOCK:   -6.32 KCAL/MOL
REMARK 923 INTER-LIGAND FREE ENERGY PREDICTED BY IDOCK:   -6.72 KCAL/MOL
REMARK 924 INTRA-LIGAND FREE ENERGY PREDICTED BY IDOCK:    0.41 KCAL/MOL
REMARK 927      BINDING AFFINITY PREDICTED BY RF-SCORE:    0.00 PKD
ROOT
HETATM    1  C   UNL     1      -9.842  10.741  64.224  1.00  0.00    -0.326 C  
HETATM    2  N   UNL     1      -9.298  10.841  65.576  1.00  0.00    -0.197 N  
HETATM    3  C   UNL     1      -8.025  10.178  65.797  1.00  0.00    -0.140 C  
HETATM    4  C   UNL     1     -10.177  11.283  66.570  1.00  0.00    -0.228 C  
HETATM    5  O   UNL     1     -11.331  11.597  66.233  1.00  0.00    -0.314 OA 
ENDROOT
BRANCH   4   6
HETATM    6  C   UNL     1      -9.732  11.411  68.106  1.00  0.00    -0.194 C  
BRANCH   6   7
HETATM    7  C   UNL     1      -9.518   9.897  68.577  1.00  0.00    -0.149 C  
BRANCH   7   8
HETATM    8  C   UNL     1     -10.414   8.815  67.946  1.00  0.00    -0.216 C  
BRANCH   8   9
HETATM    9  N   UNL     1     -10.739   7.662  68.812  1.00  0.00    -0.135 NA 
HETATM   10  C   UNL     1      -9.929   6.457  68.581  1.00  0.00    -0.146 C  
HETATM   11  C   UNL     1      -8.500   6.575  69.113  1.00  0.00    -0.126 C  
HETATM   12  C   UNL     1      -8.494   6.869  70.630  1.00  0.00    -0.136 C  
HETATM   13  H   UNL     1      -7.135   7.310  71.961  1.00  0.00     0.000 HD 
HETATM   14  O   UNL     1      -7.139   7.129  71.028  1.00  0.00    -0.066 OA 
HETATM   15  C   UNL     1      -9.304   8.170  70.819  1.00  0.00    -0.174 C  
HETATM   16  C   UNL     1     -10.715   8.040  70.237  1.00  0.00    -0.239 C  
BRANCH  12  17
HETATM   17  C   UNL     1      -8.931   5.695  71.522  1.00  0.00    -0.148 A  
HETATM   18  C   UNL     1      -9.030   5.831  72.921  1.00  0.00    -0.123 A  
HETATM   19  C   UNL     1      -9.460   4.777  73.735  1.00  0.00    -0.128 A  
HETATM   20  C   UNL     1      -9.823   3.565  73.164  1.00  0.00    -0.128 A  
HETATM   21  C   UNL     1      -9.759   3.401  71.786  1.00  0.00    -0.236 A  
HETATM   22 CL   UNL     1     -10.375   2.277  74.160  1.00  0.00    -0.171 Cl 
HETATM   23  C   UNL     1      -9.326   4.458  70.975  1.00  0.00    -0.216 A  
ENDBRANCH  12  17
ENDBRANCH   8   9
ENDBRANCH   7   8
ENDBRANCH   6   7
BRANCH   6  24
HETATM   24  C   UNL     1      -8.359  12.164  68.161  1.00  0.00    -0.170 A  
HETATM   25  C   UNL     1      -7.301  11.656  68.944  1.00  0.00    -0.107 A  
HETATM   26  C   UNL     1      -8.103  13.348  67.448  1.00  0.00    -0.178 A  
HETATM   27  C   UNL     1      -6.081  12.336  69.050  1.00  0.00    -0.076 A  
HETATM   28  C   UNL     1      -5.881  13.532  68.368  1.00  0.00    -0.092 A  
HETATM   29  C   UNL     1      -6.893  14.033  67.561  1.00  0.00    -0.150 A  
ENDBRANCH   6  24
BRANCH   6  30
HETATM   30  C   UNL     1     -10.863  12.046  68.988  1.00  0.00    -0.223 A  
HETATM   31  C   UNL     1     -12.155  13.971  69.781  1.00  0.00    -0.405 A  
HETATM   32  C   UNL     1     -11.540  11.283  69.967  1.00  0.00    -0.404 A  
HETATM   33  C   UNL     1     -11.236  13.399  68.891  1.00  0.00    -0.320 A  
HETATM   34  C   UNL     1     -12.785  13.192  70.743  1.00  0.00    -0.260 A  
HETATM   35  C   UNL     1     -12.495  11.838  70.821  1.00  0.00    -0.405 A  
ENDBRANCH   6  30
ENDBRANCH   4   6
TORSDOF 7
ENDMDL
MODEL      130
REMARK 921   NORMALIZED FREE ENERGY PREDICTED BY IDOCK:   -4.21 KCAL/MOL
REMARK 922        TOTAL FREE ENERGY PREDICTED BY IDOCK:   -6.31 KCAL/MOL
REMARK 923 INTER-LIGAND FREE ENERGY PREDICTED BY IDOCK:   -7.32 KCAL/MOL
REMARK 924 INTRA-LIGAND FREE ENERGY PREDICTED BY IDOCK:    1.01 KCAL/MOL
REMARK 927      BINDING AFFINITY PREDICTED BY RF-SCORE:    0.00 PKD
ROOT
HETATM    1  C   UNL     1      -5.691   9.688  65.019  1.00  0.00    -0.068 C  
HETATM    2  N   UNL     1      -7.059   9.552  65.512  1.00  0.00    -0.087 N  
HETATM    3  C   UNL     1      -7.832   8.463  64.943  1.00  0.00    -0.121 C  
HETATM    4  C   UNL     1      -7.574  10.637  66.229  1.00  0.00    -0.137 C  
HETATM    5  O   UNL     1      -6.829  11.610  66.430  1.00  0.00    -0.024 OA 
ENDROOT
BRANCH   4   6
HETATM    6  C   UNL     1      -9.072  10.647  66.803  1.00  0.00    -0.167 C  
BRANCH   6   7
HETATM    7  C   UNL     1      -9.010  11.667  68.034  1.00  0.00    -0.176 C  
BRANCH   7   8
HETATM    8  C   UNL     1      -7.855  12.685  68.066  1.00  0.00    -0.149 C  
BRANCH   8   9
HETATM    9  N   UNL     1      -8.186  14.018  68.614  1.00  0.00    -0.132 NA 
HETATM   10  C   UNL     1      -7.328  15.117  68.150  1.00  0.00    -0.112 C  
HETATM   11  C   UNL     1      -7.607  15.537  66.706  1.00  0.00    -0.053 C  
HETATM   12  C   UNL     1      -9.079  15.974  66.528  1.00  0.00    -0.285 C  
HETATM   13  H   UNL     1     -10.217  16.464  65.020  1.00  0.00     0.000 HD 
HETATM   14  O   UNL     1      -9.312  16.195  65.129  1.00  0.00    -0.098 OA 
HETATM   15  C   UNL     1      -9.941  14.772  66.971  1.00  0.00    -0.238 C  
HETATM   16  C   UNL     1      -9.609  14.344  68.404  1.00  0.00    -0.219 C  
BRANCH  12  17
HETATM   17  C   UNL     1      -9.443  17.315  67.189  1.00  0.00    -0.256 A  
HETATM   18  C   UNL     1     -10.530  18.087  66.734  1.00  0.00    -0.335 A  
HETATM   19  C   UNL     1     -10.887  19.291  67.352  1.00  0.00    -0.554 A  
HETATM   20  C   UNL     1     -10.176  19.740  68.456  1.00  0.00    -0.433 A  
HETATM   21  C   UNL     1      -9.112  18.994  68.946  1.00  0.00    -0.321 A  
HETATM   22 CL   UNL     1     -10.631  21.206  69.232  1.00  0.00     0.693 Cl 
HETATM   23  C   UNL     1      -8.757  17.790  68.323  1.00  0.00    -0.277 A  
ENDBRANCH  12  17
ENDBRANCH   8   9
ENDBRANCH   7   8
ENDBRANCH   6   7
BRANCH   6  24
HETATM   24  C   UNL     1     -10.019  11.231  65.700  1.00  0.00    -0.292 A  
HETATM   25  C   UNL     1     -11.223  11.868  66.063  1.00  0.00    -0.377 A  
HETATM   26  C   UNL     1      -9.729  11.167  64.326  1.00  0.00    -0.315 A  
HETATM   27  C   UNL     1     -12.112  12.355  65.094  1.00  0.00    -0.464 A  
HETATM   28  C   UNL     1     -11.814  12.230  63.741  1.00  0.00    -0.587 A  
HETATM   29  C   UNL     1     -10.617  11.640  63.359  1.00  0.00    -0.472 A  
ENDBRANCH   6  24
BRANCH   6  30
HETATM   30  C   UNL     1      -9.494   9.239  67.350  1.00  0.00    -0.165 A  
HETATM   31  C   UNL     1     -10.940   7.261  67.327  1.00  0.00    -0.284 A  
HETATM   32  C   UNL     1      -8.912   8.708  68.524  1.00  0.00    -0.139 A  
HETATM   33  C   UNL     1     -10.490   8.453  66.743  1.00  0.00    -0.315 A  
HETATM   34  C   UNL     1     -10.356   6.782  68.492  1.00  0.00    -0.210 A  
HETATM   35  C   UNL     1      -9.322   7.495  69.080  1.00  0.00    -0.146 A  
ENDBRANCH   6  30
ENDBRANCH   4   6
TORSDOF 7
ENDMDL
MODEL      131
REMARK 921   NORMALIZED FREE ENERGY PREDICTED BY IDOCK:   -4.18 KCAL/MOL
REMARK 922        TOTAL FREE ENERGY PREDICTED BY IDOCK:   -6.27 KCAL/MOL
REMARK 923 INTER-LIGAND FREE ENERGY PREDICTED BY IDOCK:   -7.14 KCAL/MOL
REMARK 924 INTRA-LIGAND FREE ENERGY PREDICTED BY IDOCK:    0.87 KCAL/MOL
REMARK 927      BINDING AFFINITY PREDICTED BY RF-SCORE:    0.00 PKD
ROOT
HETATM    1  C   UNL     1     -12.519  14.594  69.990  1.00  0.00    -0.284 C  
HETATM    2  N   UNL     1     -11.877  13.409  69.429  1.00  0.00    -0.320 N  
HETATM    3  C   UNL     1     -11.808  12.252  70.304  1.00  0.00    -0.240 C  
HETATM    4  C   UNL     1     -11.139  13.596  68.256  1.00  0.00    -0.256 C  
HETATM    5  O   UNL     1     -11.115  14.733  67.756  1.00  0.00    -0.278 OA 
ENDROOT
BRANCH   4   6
HETATM    6  C   UNL     1     -10.351  12.394  67.542  1.00  0.00    -0.223 C  
BRANCH   6   7
HETATM    7  C   UNL     1     -10.819  11.091  68.344  1.00  0.00    -0.264 C  
BRANCH   7   8
HETATM    8  C   UNL     1     -10.546   9.718  67.704  1.00  0.00    -0.276 C  
BRANCH   8   9
HETATM    9  N   UNL     1     -10.116   8.649  68.630  1.00  0.00    -0.185 NA 
HETATM   10  C   UNL     1     -11.065   7.538  68.790  1.00  0.00     0.204 C  
HETATM   11  C   UNL     1     -11.113   6.602  67.582  1.00  0.00    -0.357 C  
HETATM   12  C   UNL     1      -9.721   5.999  67.289  1.00  0.00    -0.125 C  
HETATM   13  H   UNL     1      -8.946   4.898  65.876  1.00  0.00     0.000 HD 
HETATM   14  O   UNL     1      -9.802   5.268  66.056  1.00  0.00    -0.164 OA 
HETATM   15  C   UNL     1      -8.771   7.197  67.070  1.00  0.00    -0.123 C  
HETATM   16  C   UNL     1      -8.776   8.142  68.276  1.00  0.00    -0.133 C  
BRANCH  12  17
HETATM   17  C   UNL     1      -9.233   4.961  68.313  1.00  0.00    -0.154 A  
HETATM   18  C   UNL     1      -9.702   4.961  69.641  1.00  0.00    -0.266 A  
HETATM   19  C   UNL     1      -9.287   3.998  70.569  1.00  0.00    -0.220 A  
HETATM   20  C   UNL     1      -8.407   2.998  70.182  1.00  0.00    -0.044 A  
HETATM   21  C   UNL     1      -7.940   2.953  68.874  1.00  0.00    -0.065 A  
HETATM   22 CL   UNL     1      -7.917   1.800  71.313  1.00  0.00    -0.039 Cl 
HETATM   23  C   UNL     1      -8.356   3.919  67.949  1.00  0.00    -0.099 A  
ENDBRANCH  12  17
ENDBRANCH   8   9
ENDBRANCH   7   8
ENDBRANCH   6   7
BRANCH   6  24
HETATM   24  C   UNL     1     -10.849  12.290  66.060  1.00  0.00    -0.310 A  
HETATM   25  C   UNL     1      -9.934  12.022  65.021  1.00  0.00    -0.259 A  
HETATM   26  C   UNL     1     -12.197  12.441  65.690  1.00  0.00    -0.322 A  
HETATM   27  C   UNL     1     -10.345  11.974  63.682  1.00  0.00    -0.482 A  
HETATM   28  C   UNL     1     -11.681  12.177  63.349  1.00  0.00    -0.533 A  
HETATM   29  C   UNL     1     -12.607  12.404  64.357  1.00  0.00    -0.489 A  
ENDBRANCH   6  24
BRANCH   6  30
HETATM   30  C   UNL     1      -8.798  12.540  67.703  1.00  0.00    -0.179 A  
HETATM   31  C   UNL     1      -6.783  13.891  68.050  1.00  0.00    -0.146 A  
HETATM   32  C   UNL     1      -7.934  11.446  67.467  1.00  0.00    -0.127 A  
HETATM   33  C   UNL     1      -8.178  13.757  68.042  1.00  0.00    -0.164 A  
HETATM   34  C   UNL     1      -5.967  12.796  67.794  1.00  0.00    -0.133 A  
HETATM   35  C   UNL     1      -6.544  11.564  67.525  1.00  0.00    -0.087 A  
ENDBRANCH   6  30
ENDBRANCH   4   6
TORSDOF 7
ENDMDL
MODEL      132
REMARK 921   NORMALIZED FREE ENERGY PREDICTED BY IDOCK:   -4.00 KCAL/MOL
REMARK 922        TOTAL FREE ENERGY PREDICTED BY IDOCK:   -6.01 KCAL/MOL
REMARK 923 INTER-LIGAND FREE ENERGY PREDICTED BY IDOCK:   -6.33 KCAL/MOL
REMARK 924 INTRA-LIGAND FREE ENERGY PREDICTED BY IDOCK:    0.32 KCAL/MOL
REMARK 927      BINDING AFFINITY PREDICTED BY RF-SCORE:    0.00 PKD
ROOT
HETATM    1  C   UNL     1     -12.281   8.132  71.828  1.00  0.00    -0.319 C  
HETATM    2  N   UNL     1     -10.992   7.451  71.733  1.00  0.00    -0.231 N  
HETATM    3  C   UNL     1      -9.932   7.983  72.571  1.00  0.00    -0.270 C  
HETATM    4  C   UNL     1     -10.826   6.582  70.651  1.00  0.00    -0.266 C  
HETATM    5  O   UNL     1     -11.786   6.418  69.880  1.00  0.00    -0.426 OA 
ENDROOT
BRANCH   4   6
HETATM    6  C   UNL     1      -9.454   5.789  70.397  1.00  0.00    -0.201 C  
BRANCH   6   7
HETATM    7  C   UNL     1      -8.340   6.938  70.371  1.00  0.00    -0.130 C  
BRANCH   7   8
HETATM    8  C   UNL     1      -8.039   7.616  69.021  1.00  0.00    -0.126 C  
BRANCH   8   9
HETATM    9  N   UNL     1      -8.836   8.823  68.715  1.00  0.00    -0.134 NA 
HETATM   10  C   UNL     1      -8.752   9.900  69.711  1.00  0.00    -0.212 C  
HETATM   11  C   UNL     1      -7.423  10.654  69.679  1.00  0.00    -0.121 C  
HETATM   12  C   UNL     1      -7.168  11.274  68.287  1.00  0.00    -0.080 C  
HETATM   13  H   UNL     1      -5.685  12.202  67.422  1.00  0.00     0.000 HD 
HETATM   14  O   UNL     1      -5.841  11.821  68.278  1.00  0.00    -0.049 OA 
HETATM   15  C   UNL     1      -7.207  10.102  67.281  1.00  0.00    -0.089 C  
HETATM   16  C   UNL     1      -8.531   9.337  67.366  1.00  0.00    -0.122 C  
BRANCH  12  17
HETATM   17  C   UNL     1      -8.071  12.467  67.931  1.00  0.00    -0.161 A  
HETATM   18  C   UNL     1      -9.470  12.403  68.087  1.00  0.00    -0.214 A  
HETATM   19  C   UNL     1     -10.294  13.496  67.797  1.00  0.00    -0.241 A  
HETATM   20  C   UNL     1      -9.734  14.690  67.363  1.00  0.00    -0.218 A  
HETATM   21  C   UNL     1      -8.357  14.797  67.218  1.00  0.00    -0.234 A  
HETATM   22 CL   UNL     1     -10.743  16.042  67.031  1.00  0.00    -0.308 Cl 
HETATM   23  C   UNL     1      -7.536  13.699  67.508  1.00  0.00    -0.181 A  
ENDBRANCH  12  17
ENDBRANCH   8   9
ENDBRANCH   7   8
ENDBRANCH   6   7
BRANCH   6  24
HETATM   24  C   UNL     1      -9.192   4.850  71.623  1.00  0.00    -0.179 A  
HETATM   25  C   UNL     1      -7.909   4.779  72.203  1.00  0.00    -0.104 A  
HETATM   26  C   UNL     1     -10.192   4.054  72.208  1.00  0.00    -0.227 A  
HETATM   27  C   UNL     1      -7.636   3.910  73.267  1.00  0.00    -0.074 A  
HETATM   28  C   UNL     1      -8.640   3.100  73.789  1.00  0.00    -0.074 A  
HETATM   29  C   UNL     1      -9.921   3.179  73.261  1.00  0.00    -0.183 A  
ENDBRANCH   6  24
BRANCH   6  30
HETATM   30  C   UNL     1      -9.449   5.066  69.005  1.00  0.00    -0.194 A  
HETATM   31  C   UNL     1     -10.112   4.914  66.651  1.00  0.00    -0.280 A  
HETATM   32  C   UNL     1      -8.905   3.769  68.859  1.00  0.00    -0.158 A  
HETATM   33  C   UNL     1     -10.013   5.635  67.849  1.00  0.00    -0.174 A  
HETATM   34  C   UNL     1      -9.583   3.633  66.553  1.00  0.00    -0.159 A  
HETATM   35  C   UNL     1      -8.956   3.068  67.653  1.00  0.00    -0.192 A  
ENDBRANCH   6  30
ENDBRANCH   4   6
TORSDOF 7
ENDMDL
MODEL      133
REMARK 921   NORMALIZED FREE ENERGY PREDICTED BY IDOCK:   -3.97 KCAL/MOL
REMARK 922        TOTAL FREE ENERGY PREDICTED BY IDOCK:   -5.97 KCAL/MOL
REMARK 923 INTER-LIGAND FREE ENERGY PREDICTED BY IDOCK:   -5.77 KCAL/MOL
REMARK 924 INTRA-LIGAND FREE ENERGY PREDICTED BY IDOCK:   -0.20 KCAL/MOL
REMARK 927      BINDING AFFINITY PREDICTED BY RF-SCORE:    0.00 PKD
ROOT
HETATM    1  C   UNL     1      -5.436  10.450  63.157  1.00  0.00    -0.151 C  
HETATM    2  N   UNL     1      -6.495   9.846  63.962  1.00  0.00    -0.121 N  
HETATM    3  C   UNL     1      -7.478   9.065  63.233  1.00  0.00    -0.099 C  
HETATM    4  C   UNL     1      -6.631  10.322  65.271  1.00  0.00    -0.119 C  
HETATM    5  O   UNL     1      -5.826  11.182  65.666  1.00  0.00    -0.091 OA 
ENDROOT
BRANCH   4   6
HETATM    6  C   UNL     1      -7.769   9.778  66.262  1.00  0.00    -0.103 C  
BRANCH   6   7
HETATM    7  C   UNL     1      -7.216  10.132  67.721  1.00  0.00    -0.087 C  
BRANCH   7   8
HETATM    8  C   UNL     1      -8.209  10.079  68.897  1.00  0.00    -0.121 C  
BRANCH   8   9
HETATM    9  N   UNL     1      -8.078   8.916  69.800  1.00  0.00    -0.104 NA 
HETATM   10  C   UNL     1      -8.451   9.163  71.200  1.00  0.00    -0.113 C  
HETATM   11  C   UNL     1      -9.960   9.278  71.415  1.00  0.00    -0.323 C  
HETATM   12  C   UNL     1     -10.688   7.998  70.947  1.00  0.00    -0.221 C  
HETATM   13  H   UNL     1     -12.549   7.448  70.735  1.00  0.00     0.000 HD 
HETATM   14  O   UNL     1     -12.102   8.236  71.022  1.00  0.00    -0.288 OA 
HETATM   15  C   UNL     1     -10.315   7.810  69.460  1.00  0.00    -0.219 C  
HETATM   16  C   UNL     1      -8.797   7.743  69.269  1.00  0.00    -0.139 C  
BRANCH  12  17
HETATM   17  C   UNL     1     -10.465   6.762  71.835  1.00  0.00    -0.221 A  
HETATM   18  C   UNL     1     -10.270   6.880  73.225  1.00  0.00    -0.286 A  
HETATM   19  C   UNL     1     -10.099   5.757  74.043  1.00  0.00    -0.246 A  
HETATM   20  C   UNL     1     -10.142   4.485  73.490  1.00  0.00    -0.158 A  
HETATM   21  C   UNL     1     -10.355   4.329  72.126  1.00  0.00    -0.193 A  
HETATM   22 CL   UNL     1      -9.959   3.104  74.498  1.00  0.00    -0.162 Cl 
HETATM   23  C   UNL     1     -10.523   5.455  71.311  1.00  0.00    -0.296 A  
ENDBRANCH  12  17
ENDBRANCH   8   9
ENDBRANCH   7   8
ENDBRANCH   6   7
BRANCH   6  24
HETATM   24  C   UNL     1      -9.081  10.594  66.000  1.00  0.00    -0.201 A  
HETATM   25  C   UNL     1     -10.076  10.678  66.995  1.00  0.00    -0.255 A  
HETATM   26  C   UNL     1      -9.334  11.277  64.797  1.00  0.00    -0.166 A  
HETATM   27  C   UNL     1     -11.280  11.358  66.768  1.00  0.00    -0.319 A  
HETATM   28  C   UNL     1     -11.515  11.983  65.547  1.00  0.00    -0.368 A  
HETATM   29  C   UNL     1     -10.536  11.946  64.564  1.00  0.00    -0.358 A  
ENDBRANCH   6  24
BRANCH   6  30
HETATM   30  C   UNL     1      -7.934   8.222  66.162  1.00  0.00    -0.100 A  
HETATM   31  C   UNL     1      -7.008   5.954  66.106  1.00  0.00    -0.062 A  
HETATM   32  C   UNL     1      -9.184   7.639  65.848  1.00  0.00    -0.053 A  
HETATM   33  C   UNL     1      -6.860   7.329  66.331  1.00  0.00    -0.061 A  
HETATM   34  C   UNL     1      -8.249   5.422  65.780  1.00  0.00    -0.121 A  
HETATM   35  C   UNL     1      -9.346   6.264  65.675  1.00  0.00     0.153 A  
ENDBRANCH   6  30
ENDBRANCH   4   6
TORSDOF 7
ENDMDL
MODEL      134
REMARK 921   NORMALIZED FREE ENERGY PREDICTED BY IDOCK:   -3.86 KCAL/MOL
REMARK 922        TOTAL FREE ENERGY PREDICTED BY IDOCK:   -5.81 KCAL/MOL
REMARK 923 INTER-LIGAND FREE ENERGY PREDICTED BY IDOCK:   -6.53 KCAL/MOL
REMARK 924 INTRA-LIGAND FREE ENERGY PREDICTED BY IDOCK:    0.72 KCAL/MOL
REMARK 927      BINDING AFFINITY PREDICTED BY RF-SCORE:    0.00 PKD
ROOT
HETATM    1  C   UNL     1      -7.638   9.830  63.666  1.00  0.00    -0.130 C  
HETATM    2  N   UNL     1      -8.405  10.102  64.879  1.00  0.00    -0.158 N  
HETATM    3  C   UNL     1      -9.847   9.995  64.754  1.00  0.00    -0.254 C  
HETATM    4  C   UNL     1      -7.715  10.722  65.926  1.00  0.00    -0.118 C  
HETATM    5  O   UNL     1      -6.506  10.957  65.770  1.00  0.00    -0.109 OA 
ENDROOT
BRANCH   4   6
HETATM    6  C   UNL     1      -8.433  11.112  67.307  1.00  0.00    -0.137 C  
BRANCH   6   7
HETATM    7  C   UNL     1      -7.308  11.912  68.118  1.00  0.00    -0.092 C  
BRANCH   7   8
HETATM    8  C   UNL     1      -6.742  13.195  67.483  1.00  0.00    -0.152 C  
BRANCH   8   9
HETATM    9  N   UNL     1      -6.245  14.217  68.429  1.00  0.00    -0.093 NA 
HETATM   10  C   UNL     1      -5.459  15.302  67.824  1.00  0.00    -0.084 C  
HETATM   11  C   UNL     1      -6.310  16.304  67.041  1.00  0.00    -0.134 C  
HETATM   12  C   UNL     1      -7.388  16.944  67.945  1.00  0.00    -0.167 C  
HETATM   13  H   UNL     1      -8.910  18.135  67.673  1.00  0.00     0.000 HD 
HETATM   14  O   UNL     1      -8.247  17.741  67.117  1.00  0.00    -0.210 OA 
HETATM   15  C   UNL     1      -8.223  15.774  68.511  1.00  0.00    -0.166 C  
HETATM   16  C   UNL     1      -7.341  14.764  69.250  1.00  0.00    -0.168 C  
BRANCH  12  17
HETATM   17  C   UNL     1      -6.853  17.930  68.997  1.00  0.00    -0.242 A  
HETATM   18  C   UNL     1      -6.020  17.503  70.050  1.00  0.00    -0.188 A  
HETATM   19  C   UNL     1      -5.504  18.401  70.991  1.00  0.00    -0.157 A  
HETATM   20  C   UNL     1      -5.792  19.755  70.887  1.00  0.00    -0.247 A  
HETATM   21  C   UNL     1      -6.592  20.216  69.849  1.00  0.00    -0.272 A  
HETATM   22 CL   UNL     1      -5.136  20.862  72.027  1.00  0.00    -0.171 Cl 
HETATM   23  C   UNL     1      -7.108  19.313  68.910  1.00  0.00    -0.385 A  
ENDBRANCH  12  17
ENDBRANCH   8   9
ENDBRANCH   7   8
ENDBRANCH   6   7
BRANCH   6  24
HETATM   24  C   UNL     1      -9.622  12.082  66.988  1.00  0.00    -0.200 A  
HETATM   25  C   UNL     1      -9.423  13.197  66.148  1.00  0.00    -0.156 A  
HETATM   26  C   UNL     1     -10.919  11.899  67.497  1.00  0.00    -0.299 A  
HETATM   27  C   UNL     1     -10.456  14.107  65.888  1.00  0.00    -0.313 A  
HETATM   28  C   UNL     1     -11.716  13.920  66.448  1.00  0.00    -0.403 A  
HETATM   29  C   UNL     1     -11.947  12.810  67.249  1.00  0.00    -0.345 A  
ENDBRANCH   6  24
BRANCH   6  30
HETATM   30  C   UNL     1      -8.828   9.841  68.137  1.00  0.00    -0.119 A  
HETATM   31  C   UNL     1      -9.317   8.717  70.258  1.00  0.00    -0.193 A  
HETATM   32  C   UNL     1      -8.892   8.565  67.531  1.00  0.00    -0.139 A  
HETATM   33  C   UNL     1      -9.096   9.886  69.517  1.00  0.00    -0.237 A  
HETATM   34  C   UNL     1      -9.353   7.479  69.630  1.00  0.00    -0.153 A  
HETATM   35  C   UNL     1      -9.164   7.405  68.258  1.00  0.00    -0.137 A  
ENDBRANCH   6  30
ENDBRANCH   4   6
TORSDOF 7
ENDMDL
MODEL      135
REMARK 921   NORMALIZED FREE ENERGY PREDICTED BY IDOCK:   -3.84 KCAL/MOL
REMARK 922        TOTAL FREE ENERGY PREDICTED BY IDOCK:   -5.79 KCAL/MOL
REMARK 923 INTER-LIGAND FREE ENERGY PREDICTED BY IDOCK:   -7.03 KCAL/MOL
REMARK 924 INTRA-LIGAND FREE ENERGY PREDICTED BY IDOCK:    1.24 KCAL/MOL
REMARK 927      BINDING AFFINITY PREDICTED BY RF-SCORE:    0.00 PKD
ROOT
HETATM    1  C   UNL     1     -12.095  13.350  63.524  1.00  0.00    -0.432 C  
HETATM    2  N   UNL     1     -11.933  13.099  64.954  1.00  0.00    -0.366 N  
HETATM    3  C   UNL     1     -13.012  13.565  65.805  1.00  0.00    -0.102 C  
HETATM    4  C   UNL     1     -10.654  12.725  65.380  1.00  0.00    -0.287 C  
HETATM    5  O   UNL     1      -9.767  12.594  64.520  1.00  0.00    -0.076 OA 
ENDROOT
BRANCH   4   6
HETATM    6  C   UNL     1     -10.316  12.448  66.923  1.00  0.00    -0.240 C  
BRANCH   6   7
HETATM    7  C   UNL     1     -10.999  11.032  67.224  1.00  0.00    -0.356 C  
BRANCH   7   8
HETATM    8  C   UNL     1     -10.139   9.768  67.041  1.00  0.00    -0.218 C  
BRANCH   8   9
HETATM    9  N   UNL     1     -10.327   8.709  68.055  1.00  0.00    -0.223 NA 
HETATM   10  C   UNL     1     -10.436   7.343  67.523  1.00  0.00    -0.268 C  
HETATM   11  C   UNL     1      -9.103   6.773  67.036  1.00  0.00    -0.139 C  
HETATM   12  C   UNL     1      -8.056   6.758  68.173  1.00  0.00    -0.115 C  
HETATM   13  H   UNL     1      -6.150   6.360  68.310  1.00  0.00     0.000 HD 
HETATM   14  O   UNL     1      -6.794   6.369  67.611  1.00  0.00    -0.070 OA 
HETATM   15  C   UNL     1      -7.931   8.218  68.661  1.00  0.00    -0.122 C  
HETATM   16  C   UNL     1      -9.288   8.778  69.100  1.00  0.00    -0.149 C  
BRANCH  12  17
HETATM   17  C   UNL     1      -8.313   5.721  69.280  1.00  0.00    -0.108 A  
HETATM   18  C   UNL     1      -7.302   5.350  70.188  1.00  0.00    -0.068 A  
HETATM   19  C   UNL     1      -7.539   4.432  71.218  1.00  0.00    -0.064 A  
HETATM   20  C   UNL     1      -8.802   3.880  71.377  1.00  0.00    -0.100 A  
HETATM   21  C   UNL     1      -9.829   4.239  70.513  1.00  0.00    -0.269 A  
HETATM   22 CL   UNL     1      -9.101   2.772  72.658  1.00  0.00    -0.111 Cl 
HETATM   23  C   UNL     1      -9.588   5.157  69.483  1.00  0.00    -0.226 A  
ENDBRANCH  12  17
ENDBRANCH   8   9
ENDBRANCH   7   8
ENDBRANCH   6   7
BRANCH   6  24
HETATM   24  C   UNL     1      -8.762  12.309  67.071  1.00  0.00    -0.199 A  
HETATM   25  C   UNL     1      -8.096  11.186  66.539  1.00  0.00    -0.163 A  
HETATM   26  C   UNL     1      -7.963  13.270  67.713  1.00  0.00    -0.166 A  
HETATM   27  C   UNL     1      -6.715  11.013  66.701  1.00  0.00    -0.134 A  
HETATM   28  C   UNL     1      -5.963  11.962  67.386  1.00  0.00    -0.116 A  
HETATM   29  C   UNL     1      -6.589  13.095  67.886  1.00  0.00    -0.137 A  
ENDBRANCH   6  24
BRANCH   6  30
HETATM   30  C   UNL     1     -10.970  13.520  67.864  1.00  0.00    -0.275 A  
HETATM   31  C   UNL     1     -11.231  15.825  68.653  1.00  0.00    -0.351 A  
HETATM   32  C   UNL     1     -11.799  13.135  68.943  1.00  0.00    -0.361 A  
HETATM   33  C   UNL     1     -10.741  14.900  67.720  1.00  0.00    -0.271 A  
HETATM   34  C   UNL     1     -12.026  15.405  69.712  1.00  0.00    -0.381 A  
HETATM   35  C   UNL     1     -12.332  14.059  69.843  1.00  0.00    -0.367 A  
ENDBRANCH   6  30
ENDBRANCH   4   6
TORSDOF 7
ENDMDL
MODEL      136
REMARK 921   NORMALIZED FREE ENERGY PREDICTED BY IDOCK:   -3.84 KCAL/MOL
REMARK 922        TOTAL FREE ENERGY PREDICTED BY IDOCK:   -5.78 KCAL/MOL
REMARK 923 INTER-LIGAND FREE ENERGY PREDICTED BY IDOCK:   -7.00 KCAL/MOL
REMARK 924 INTRA-LIGAND FREE ENERGY PREDICTED BY IDOCK:    1.22 KCAL/MOL
REMARK 927      BINDING AFFINITY PREDICTED BY RF-SCORE:    0.00 PKD
ROOT
HETATM    1  C   UNL     1     -12.619  15.233  70.307  1.00  0.00    -0.347 C  
HETATM    2  N   UNL     1     -11.807  15.274  69.094  1.00  0.00    -0.327 N  
HETATM    3  C   UNL     1     -12.378  14.624  67.927  1.00  0.00     0.115 C  
HETATM    4  C   UNL     1     -10.469  15.649  69.252  1.00  0.00    -0.247 C  
HETATM    5  O   UNL     1     -10.080  15.958  70.390  1.00  0.00    -0.038 OA 
ENDROOT
BRANCH   4   6
HETATM    6  C   UNL     1      -9.447  15.707  68.016  1.00  0.00    -0.194 C  
BRANCH   6   7
HETATM    7  C   UNL     1     -10.043  14.653  66.969  1.00  0.00    -0.249 C  
BRANCH   7   8
HETATM    8  C   UNL     1      -9.499  13.213  67.013  1.00  0.00    -0.242 C  
BRANCH   8   9
HETATM    9  N   UNL     1     -10.070  12.341  68.061  1.00  0.00    -0.200 NA 
HETATM   10  C   UNL     1     -11.132  11.431  67.611  1.00  0.00    -0.268 C  
HETATM   11  C   UNL     1     -10.614  10.255  66.782  1.00  0.00    -0.252 C  
HETATM   12  C   UNL     1      -9.583   9.425  67.578  1.00  0.00    -0.141 C  
HETATM   13  H   UNL     1      -8.386   7.934  67.183  1.00  0.00     0.000 HD 
HETATM   14  O   UNL     1      -9.020   8.445  66.693  1.00  0.00    -0.136 OA 
HETATM   15  C   UNL     1      -8.459  10.405  67.980  1.00  0.00    -0.119 C  
HETATM   16  C   UNL     1      -9.013  11.595  68.770  1.00  0.00    -0.009 C  
BRANCH  12  17
HETATM   17  C   UNL     1     -10.169   8.597  68.735  1.00  0.00    -0.224 A  
HETATM   18  C   UNL     1      -9.943   8.950  70.080  1.00  0.00    -0.207 A  
HETATM   19  C   UNL     1     -10.501   8.220  71.136  1.00  0.00    -0.254 A  
HETATM   20  C   UNL     1     -11.317   7.130  70.870  1.00  0.00    -0.286 A  
HETATM   21  C   UNL     1     -11.580   6.766  69.555  1.00  0.00    -0.183 A  
HETATM   22 CL   UNL     1     -12.024   6.249  72.166  1.00  0.00    -0.373 Cl 
HETATM   23  C   UNL     1     -11.018   7.498  68.501  1.00  0.00     0.062 A  
ENDBRANCH  12  17
ENDBRANCH   8   9
ENDBRANCH   7   8
ENDBRANCH   6   7
BRANCH   6  24
HETATM   24  C   UNL     1      -9.511  17.142  67.391  1.00  0.00    -0.247 A  
HETATM   25  C   UNL     1      -8.517  18.095  67.695  1.00  0.00    -0.245 A  
HETATM   26  C   UNL     1     -10.525  17.551  66.508  1.00  0.00    -0.270 A  
HETATM   27  C   UNL     1      -8.577  19.400  67.189  1.00  0.00    -0.325 A  
HETATM   28  C   UNL     1      -9.624  19.783  66.356  1.00  0.00    -0.508 A  
HETATM   29  C   UNL     1     -10.595  18.854  66.011  1.00  0.00    -0.470 A  
ENDBRANCH   6  24
BRANCH   6  30
HETATM   30  C   UNL     1      -8.010  15.234  68.427  1.00  0.00    -0.131 A  
HETATM   31  C   UNL     1      -5.835  14.237  67.901  1.00  0.00    -0.132 A  
HETATM   32  C   UNL     1      -7.611  15.207  69.784  1.00  0.00    -0.094 A  
HETATM   33  C   UNL     1      -7.062  14.777  67.494  1.00  0.00    -0.209 A  
HETATM   34  C   UNL     1      -5.487  14.210  69.246  1.00  0.00    -0.081 A  
HETATM   35  C   UNL     1      -6.367  14.719  70.188  1.00  0.00    -0.169 A  
ENDBRANCH   6  30
ENDBRANCH   4   6
TORSDOF 7
ENDMDL
MODEL      137
REMARK 921   NORMALIZED FREE ENERGY PREDICTED BY IDOCK:   -3.82 KCAL/MOL
REMARK 922        TOTAL FREE ENERGY PREDICTED BY IDOCK:   -5.76 KCAL/MOL
REMARK 923 INTER-LIGAND FREE ENERGY PREDICTED BY IDOCK:   -5.61 KCAL/MOL
REMARK 924 INTRA-LIGAND FREE ENERGY PREDICTED BY IDOCK:   -0.15 KCAL/MOL
REMARK 927      BINDING AFFINITY PREDICTED BY RF-SCORE:    0.00 PKD
ROOT
HETATM    1  C   UNL     1      -9.937   3.587  65.702  1.00  0.00     0.097 C  
HETATM    2  N   UNL     1      -9.262   4.081  66.899  1.00  0.00    -0.153 N  
HETATM    3  C   UNL     1      -9.094   3.119  67.974  1.00  0.00    -0.172 C  
HETATM    4  C   UNL     1      -9.126   5.468  67.011  1.00  0.00    -0.112 C  
HETATM    5  O   UNL     1      -9.546   6.173  66.079  1.00  0.00    -0.090 OA 
ENDROOT
BRANCH   4   6
HETATM    6  C   UNL     1      -8.437   6.158  68.285  1.00  0.00    -0.113 C  
BRANCH   6   7
HETATM    7  C   UNL     1      -7.785   7.496  67.698  1.00  0.00    -0.115 C  
BRANCH   7   8
HETATM    8  C   UNL     1      -7.310   8.563  68.702  1.00  0.00    -0.088 C  
BRANCH   8   9
HETATM    9  N   UNL     1      -7.358   9.962  68.226  1.00  0.00    -0.078 NA 
HETATM   10  C   UNL     1      -7.869  10.143  66.859  1.00  0.00    -0.107 C  
HETATM   11  C   UNL     1      -9.382   9.953  66.747  1.00  0.00    -0.187 C  
HETATM   12  C   UNL     1     -10.136  10.936  67.670  1.00  0.00    -0.179 C  
HETATM   13  H   UNL     1     -11.994  11.201  68.208  1.00  0.00     0.000 HD 
HETATM   14  O   UNL     1     -11.530  10.595  67.640  1.00  0.00    -0.474 OA 
HETATM   15  C   UNL     1      -9.612  10.672  69.099  1.00  0.00    -0.193 C  
HETATM   16  C   UNL     1      -8.090  10.825  69.172  1.00  0.00    -0.131 C  
BRANCH  12  17
HETATM   17  C   UNL     1     -10.096  12.408  67.224  1.00  0.00    -0.214 A  
HETATM   18  C   UNL     1     -10.103  12.764  65.861  1.00  0.00    -0.286 A  
HETATM   19  C   UNL     1     -10.101  14.101  65.449  1.00  0.00    -0.359 A  
HETATM   20  C   UNL     1     -10.113  15.117  66.395  1.00  0.00    -0.273 A  
HETATM   21  C   UNL     1     -10.128  14.804  67.748  1.00  0.00    -0.224 A  
HETATM   22 CL   UNL     1     -10.136  16.760  65.890  1.00  0.00    -0.343 Cl 
HETATM   23  C   UNL     1     -10.129  13.464  68.156  1.00  0.00    -0.244 A  
ENDBRANCH  12  17
ENDBRANCH   8   9
ENDBRANCH   7   8
ENDBRANCH   6   7
BRANCH   6  24
HETATM   24  C   UNL     1      -9.561   6.542  69.307  1.00  0.00    -0.143 A  
HETATM   25  C   UNL     1     -10.913   6.266  69.013  1.00  0.00    -0.437 A  
HETATM   26  C   UNL     1      -9.298   7.155  70.544  1.00  0.00    -0.158 A  
HETATM   27  C   UNL     1     -11.941   6.645  69.887  1.00  0.00    -0.105 A  
HETATM   28  C   UNL     1     -11.645   7.294  71.081  1.00  0.00    -0.323 A  
HETATM   29  C   UNL     1     -10.321   7.543  71.411  1.00  0.00    -0.209 A  
ENDBRANCH   6  24
BRANCH   6  30
HETATM   30  C   UNL     1      -7.288   5.269  68.878  1.00  0.00    -0.070 A  
HETATM   31  C   UNL     1      -5.173   4.053  68.661  1.00  0.00    -0.011 A  
HETATM   32  C   UNL     1      -7.398   4.700  70.167  1.00  0.00    -0.050 A  
HETATM   33  C   UNL     1      -6.121   4.955  68.159  1.00  0.00    -0.031 A  
HETATM   34  C   UNL     1      -5.326   3.499  69.926  1.00  0.00    -0.008 A  
HETATM   35  C   UNL     1      -6.430   3.842  70.691  1.00  0.00    -0.031 A  
ENDBRANCH   6  30
ENDBRANCH   4   6
TORSDOF 7
ENDMDL
MODEL      138
REMARK 921   NORMALIZED FREE ENERGY PREDICTED BY IDOCK:   -3.80 KCAL/MOL
REMARK 922        TOTAL FREE ENERGY PREDICTED BY IDOCK:   -5.73 KCAL/MOL
REMARK 923 INTER-LIGAND FREE ENERGY PREDICTED BY IDOCK:   -6.10 KCAL/MOL
REMARK 924 INTRA-LIGAND FREE ENERGY PREDICTED BY IDOCK:    0.37 KCAL/MOL
REMARK 927      BINDING AFFINITY PREDICTED BY RF-SCORE:    0.00 PKD
ROOT
HETATM    1  C   UNL     1     -10.209   5.354  68.994  1.00  0.00    -0.221 C  
HETATM    2  N   UNL     1     -10.093   6.559  68.177  1.00  0.00    -0.145 N  
HETATM    3  C   UNL     1     -11.065   6.695  67.107  1.00  0.00    -0.357 C  
HETATM    4  C   UNL     1      -8.905   7.286  68.305  1.00  0.00    -0.127 C  
HETATM    5  O   UNL     1      -8.060   6.885  69.123  1.00  0.00    -0.117 OA 
ENDROOT
BRANCH   4   6
HETATM    6  C   UNL     1      -8.620   8.612  67.448  1.00  0.00    -0.134 C  
BRANCH   6   7
HETATM    7  C   UNL     1     -10.005   9.412  67.496  1.00  0.00    -0.250 C  
BRANCH   7   8
HETATM    8  C   UNL     1     -10.535  10.010  66.180  1.00  0.00    -0.086 C  
BRANCH   8   9
HETATM    9  N   UNL     1     -10.944  11.429  66.235  1.00  0.00    -0.275 NA 
HETATM   10  C   UNL     1     -11.174  11.964  67.585  1.00  0.00    -0.276 C  
HETATM   11  C   UNL     1      -9.884  12.206  68.370  1.00  0.00    -0.200 C  
HETATM   12  C   UNL     1      -8.954  13.187  67.622  1.00  0.00    -0.192 C  
HETATM   13  H   UNL     1      -7.132  13.845  67.866  1.00  0.00     0.000 HD 
HETATM   14  O   UNL     1      -7.704  13.241  68.326  1.00  0.00    -0.124 OA 
HETATM   15  C   UNL     1      -8.692  12.560  66.235  1.00  0.00     0.139 C  
HETATM   16  C   UNL     1     -10.002  12.286  65.490  1.00  0.00    -0.244 C  
BRANCH  12  17
HETATM   17  C   UNL     1      -9.436  14.648  67.595  1.00  0.00    -0.205 A  
HETATM   18  C   UNL     1      -8.975  15.557  66.622  1.00  0.00    -0.320 A  
HETATM   19  C   UNL     1      -9.436  16.878  66.571  1.00  0.00    -0.296 A  
HETATM   20  C   UNL     1     -10.387  17.315  67.483  1.00  0.00    -0.346 A  
HETATM   21  C   UNL     1     -10.880  16.440  68.443  1.00  0.00    -0.342 A  
HETATM   22 CL   UNL     1     -10.972  18.929  67.405  1.00  0.00    -0.437 Cl 
HETATM   23  C   UNL     1     -10.416  15.120  68.491  1.00  0.00    -0.233 A  
ENDBRANCH  12  17
ENDBRANCH   8   9
ENDBRANCH   7   8
ENDBRANCH   6   7
BRANCH   6  24
HETATM   24  C   UNL     1      -7.519   9.448  68.185  1.00  0.00    -0.079 A  
HETATM   25  C   UNL     1      -6.382   9.901  67.484  1.00  0.00    -0.063 A  
HETATM   26  C   UNL     1      -7.600   9.796  69.545  1.00  0.00    -0.114 A  
HETATM   27  C   UNL     1      -5.360  10.607  68.131  1.00  0.00    -0.036 A  
HETATM   28  C   UNL     1      -5.452  10.891  69.490  1.00  0.00    -0.038 A  
HETATM   29  C   UNL     1      -6.578  10.489  70.194  1.00  0.00    -0.149 A  
ENDBRANCH   6  24
BRANCH   6  30
HETATM   30  C   UNL     1      -8.296   8.278  65.950  1.00  0.00    -0.132 A  
HETATM   31  C   UNL     1      -8.124   8.909  63.589  1.00  0.00    -0.167 A  
HETATM   32  C   UNL     1      -8.037   6.951  65.538  1.00  0.00    -0.132 A  
HETATM   33  C   UNL     1      -8.286   9.254  64.937  1.00  0.00    -0.164 A  
HETATM   34  C   UNL     1      -7.891   7.589  63.221  1.00  0.00    -0.126 A  
HETATM   35  C   UNL     1      -7.823   6.611  64.201  1.00  0.00    -0.108 A  
ENDBRANCH   6  30
ENDBRANCH   4   6
TORSDOF 7
ENDMDL
MODEL      139
REMARK 921   NORMALIZED FREE ENERGY PREDICTED BY IDOCK:   -3.66 KCAL/MOL
REMARK 922        TOTAL FREE ENERGY PREDICTED BY IDOCK:   -5.53 KCAL/MOL
REMARK 923 INTER-LIGAND FREE ENERGY PREDICTED BY IDOCK:   -6.02 KCAL/MOL
REMARK 924 INTRA-LIGAND FREE ENERGY PREDICTED BY IDOCK:    0.49 KCAL/MOL
REMARK 927      BINDING AFFINITY PREDICTED BY RF-SCORE:    0.00 PKD
ROOT
HETATM    1  C   UNL     1     -12.074  12.741  63.892  1.00  0.00    -0.486 C  
HETATM    2  N   UNL     1     -11.458  12.814  65.214  1.00  0.00    -0.313 N  
HETATM    3  C   UNL     1     -12.146  12.099  66.274  1.00  0.00     0.047 C  
HETATM    4  C   UNL     1     -10.470  13.788  65.388  1.00  0.00    -0.331 C  
HETATM    5  O   UNL     1     -10.159  14.487  64.409  1.00  0.00    -0.067 OA 
ENDROOT
BRANCH   4   6
HETATM    6  C   UNL     1      -9.728  14.009  66.793  1.00  0.00    -0.283 C  
BRANCH   6   7
HETATM    7  C   UNL     1      -8.709  12.779  66.893  1.00  0.00    -0.169 C  
BRANCH   7   8
HETATM    8  C   UNL     1      -8.612  11.827  65.686  1.00  0.00     0.301 C  
BRANCH   8   9
HETATM    9  N   UNL     1      -7.866  10.571  65.914  1.00  0.00    -0.148 NA 
HETATM   10  C   UNL     1      -7.885  10.073  67.297  1.00  0.00    -0.102 C  
HETATM   11  C   UNL     1      -9.226   9.461  67.704  1.00  0.00    -0.142 C  
HETATM   12  C   UNL     1      -9.609   8.290  66.771  1.00  0.00    -0.224 C  
HETATM   13  H   UNL     1     -11.177   7.154  66.530  1.00  0.00     0.000 HD 
HETATM   14  O   UNL     1     -10.942   7.874  67.103  1.00  0.00    -0.219 OA 
HETATM   15  C   UNL     1      -9.634   8.871  65.340  1.00  0.00     0.010 C  
HETATM   16  C   UNL     1      -8.294   9.517  64.976  1.00  0.00    -0.143 C  
BRANCH  12  17
HETATM   17  C   UNL     1      -8.761   7.018  66.942  1.00  0.00    -0.122 A  
HETATM   18  C   UNL     1      -7.917   6.553  65.914  1.00  0.00    -0.115 A  
HETATM   19  C   UNL     1      -7.118   5.415  66.076  1.00  0.00    -0.068 A  
HETATM   20  C   UNL     1      -7.129   4.727  67.281  1.00  0.00    -0.069 A  
HETATM   21  C   UNL     1      -7.933   5.169  68.325  1.00  0.00    -0.087 A  
HETATM   22 CL   UNL     1      -6.129   3.345  67.490  1.00  0.00    -0.027 Cl 
HETATM   23  C   UNL     1      -8.732   6.307  68.158  1.00  0.00    -0.115 A  
ENDBRANCH  12  17
ENDBRANCH   8   9
ENDBRANCH   7   8
ENDBRANCH   6   7
BRANCH   6  24
HETATM   24  C   UNL     1      -8.912  15.344  66.715  1.00  0.00    -0.288 A  
HETATM   25  C   UNL     1      -7.546  15.364  67.067  1.00  0.00    -0.195 A  
HETATM   26  C   UNL     1      -9.471  16.563  66.293  1.00  0.00    -0.339 A  
HETATM   27  C   UNL     1      -6.807  16.554  67.055  1.00  0.00    -0.248 A  
HETATM   28  C   UNL     1      -7.408  17.751  66.678  1.00  0.00    -0.262 A  
HETATM   29  C   UNL     1      -8.741  17.752  66.291  1.00  0.00    -0.206 A  
ENDBRANCH   6  24
BRANCH   6  30
HETATM   30  C   UNL     1     -10.726  13.921  67.999  1.00  0.00    -0.255 A  
HETATM   31  C   UNL     1     -12.401  14.910  69.489  1.00  0.00    -0.202 A  
HETATM   32  C   UNL     1     -10.748  12.789  68.847  1.00  0.00    -0.199 A  
HETATM   33  C   UNL     1     -11.614  14.960  68.331  1.00  0.00    -0.348 A  
HETATM   34  C   UNL     1     -12.380  13.788  70.309  1.00  0.00    -0.407 A  
HETATM   35  C   UNL     1     -11.569  12.714  69.973  1.00  0.00    -0.199 A  
ENDBRANCH   6  30
ENDBRANCH   4   6
TORSDOF 7
ENDMDL
MODEL      140
REMARK 921   NORMALIZED FREE ENERGY PREDICTED BY IDOCK:   -3.65 KCAL/MOL
REMARK 922        TOTAL FREE ENERGY PREDICTED BY IDOCK:   -5.52 KCAL/MOL
REMARK 923 INTER-LIGAND FREE ENERGY PREDICTED BY IDOCK:   -6.34 KCAL/MOL
REMARK 924 INTRA-LIGAND FREE ENERGY PREDICTED BY IDOCK:    0.81 KCAL/MOL
REMARK 927      BINDING AFFINITY PREDICTED BY RF-SCORE:    0.00 PKD
ROOT
HETATM    1  C   UNL     1     -12.476  15.176  64.547  1.00  0.00    -0.086 C  
HETATM    2  N   UNL     1     -11.998  14.205  65.527  1.00  0.00    -0.375 N  
HETATM    3  C   UNL     1     -12.650  12.907  65.503  1.00  0.00    -0.296 C  
HETATM    4  C   UNL     1     -11.203  14.704  66.563  1.00  0.00    -0.346 C  
HETATM    5  O   UNL     1     -10.928  15.916  66.556  1.00  0.00    -0.252 OA 
ENDROOT
BRANCH   4   6
HETATM    6  C   UNL     1     -10.633  13.764  67.732  1.00  0.00    -0.250 C  
BRANCH   6   7
HETATM    7  C   UNL     1     -10.884  12.278  67.193  1.00  0.00    -0.282 C  
BRANCH   7   8
HETATM    8  C   UNL     1      -9.652  11.389  66.940  1.00  0.00    -0.185 C  
BRANCH   8   9
HETATM    9  N   UNL     1      -9.819   9.953  67.251  1.00  0.00    -0.174 NA 
HETATM   10  C   UNL     1      -9.701   9.045  66.101  1.00  0.00    -0.283 C  
HETATM   11  C   UNL     1      -8.263   8.869  65.612  1.00  0.00    -0.126 C  
HETATM   12  C   UNL     1      -7.354   8.330  66.739  1.00  0.00    -0.083 C  
HETATM   13  H   UNL     1      -5.440   8.013  66.958  1.00  0.00     0.000 HD 
HETATM   14  O   UNL     1      -5.999   8.345  66.264  1.00  0.00    -0.043 OA 
HETATM   15  C   UNL     1      -7.463   9.342  67.900  1.00  0.00    -0.084 C  
HETATM   16  C   UNL     1      -8.918   9.533  68.340  1.00  0.00    -0.127 C  
BRANCH  12  17
HETATM   17  C   UNL     1      -7.602   6.863  67.129  1.00  0.00    -0.107 A  
HETATM   18  C   UNL     1      -8.544   6.069  66.446  1.00  0.00    -0.129 A  
HETATM   19  C   UNL     1      -8.751   4.724  66.774  1.00  0.00    -0.107 A  
HETATM   20  C   UNL     1      -8.001   4.135  67.783  1.00  0.00    -0.090 A  
HETATM   21  C   UNL     1      -7.047   4.881  68.464  1.00  0.00    -0.057 A  
HETATM   22 CL   UNL     1      -8.235   2.476  68.170  1.00  0.00    -0.068 Cl 
HETATM   23  C   UNL     1      -6.845   6.227  68.133  1.00  0.00    -0.070 A  
ENDBRANCH  12  17
ENDBRANCH   8   9
ENDBRANCH   7   8
ENDBRANCH   6   7
BRANCH   6  24
HETATM   24  C   UNL     1      -9.091  14.011  67.855  1.00  0.00    -0.188 A  
HETATM   25  C   UNL     1      -8.440  14.896  66.971  1.00  0.00    -0.260 A  
HETATM   26  C   UNL     1      -8.290  13.391  68.830  1.00  0.00     0.206 A  
HETATM   27  C   UNL     1      -7.054  15.095  67.028  1.00  0.00     0.142 A  
HETATM   28  C   UNL     1      -6.286  14.427  67.976  1.00  0.00    -0.162 A  
HETATM   29  C   UNL     1      -6.907  13.579  68.882  1.00  0.00    -0.111 A  
ENDBRANCH   6  24
BRANCH   6  30
HETATM   30  C   UNL     1     -11.435  13.945  69.068  1.00  0.00    -0.341 A  
HETATM   31  C   UNL     1     -12.693  13.043  70.966  1.00  0.00    -0.347 A  
HETATM   32  C   UNL     1     -11.801  15.230  69.530  1.00  0.00    -0.368 A  
HETATM   33  C   UNL     1     -11.867  12.859  69.850  1.00  0.00    -0.373 A  
HETATM   34  C   UNL     1     -13.048  14.321  71.379  1.00  0.00    -0.421 A  
HETATM   35  C   UNL     1     -12.580  15.419  70.673  1.00  0.00    -0.491 A  
ENDBRANCH   6  30
ENDBRANCH   4   6
TORSDOF 7
ENDMDL
MODEL      141
REMARK 921   NORMALIZED FREE ENERGY PREDICTED BY IDOCK:   -3.59 KCAL/MOL
REMARK 922        TOTAL FREE ENERGY PREDICTED BY IDOCK:   -5.43 KCAL/MOL
REMARK 923 INTER-LIGAND FREE ENERGY PREDICTED BY IDOCK:   -6.34 KCAL/MOL
REMARK 924 INTRA-LIGAND FREE ENERGY PREDICTED BY IDOCK:    0.91 KCAL/MOL
REMARK 927      BINDING AFFINITY PREDICTED BY RF-SCORE:    0.00 PKD
ROOT
HETATM    1  C   UNL     1     -12.489   9.595  70.780  1.00  0.00    -0.169 C  
HETATM    2  N   UNL     1     -11.529  10.342  69.973  1.00  0.00    -0.278 N  
HETATM    3  C   UNL     1     -11.703  11.784  69.954  1.00  0.00    -0.323 C  
HETATM    4  C   UNL     1     -10.754   9.597  69.078  1.00  0.00    -0.211 C  
HETATM    5  O   UNL     1     -10.904   8.364  69.062  1.00  0.00    -0.133 OA 
ENDROOT
BRANCH   4   6
HETATM    6  C   UNL     1      -9.681  10.283  68.102  1.00  0.00    -0.158 C  
BRANCH   6   7
HETATM    7  C   UNL     1      -8.885  11.297  69.049  1.00  0.00     0.026 C  
BRANCH   7   8
HETATM    8  C   UNL     1      -8.013  12.373  68.376  1.00  0.00    -0.149 C  
BRANCH   8   9
HETATM    9  N   UNL     1      -8.657  13.688  68.170  1.00  0.00    -0.170 NA 
HETATM   10  C   UNL     1      -8.587  14.607  69.315  1.00  0.00     0.035 C  
HETATM   11  C   UNL     1      -7.199  15.214  69.522  1.00  0.00    -0.204 C  
HETATM   12  C   UNL     1      -6.734  15.983  68.265  1.00  0.00    -0.117 C  
HETATM   13  H   UNL     1      -5.084  16.855  67.693  1.00  0.00     0.000 HD 
HETATM   14  O   UNL     1      -5.369  16.382  68.466  1.00  0.00    -0.102 OA 
HETATM   15  C   UNL     1      -6.767  14.967  67.103  1.00  0.00     0.214 C  
HETATM   16  C   UNL     1      -8.157  14.342  66.946  1.00  0.00     0.054 C  
BRANCH  12  17
HETATM   17  C   UNL     1      -7.479  17.302  67.998  1.00  0.00    -0.195 A  
HETATM   18  C   UNL     1      -8.005  17.605  66.727  1.00  0.00    -0.268 A  
HETATM   19  C   UNL     1      -8.712  18.789  66.486  1.00  0.00    -0.317 A  
HETATM   20  C   UNL     1      -8.929  19.689  67.520  1.00  0.00    -0.317 A  
HETATM   21  C   UNL     1      -8.444  19.413  68.792  1.00  0.00    -0.377 A  
HETATM   22 CL   UNL     1      -9.820  21.130  67.231  1.00  0.00    -0.225 Cl 
HETATM   23  C   UNL     1      -7.735  18.228  69.028  1.00  0.00    -0.151 A  
ENDBRANCH  12  17
ENDBRANCH   8   9
ENDBRANCH   7   8
ENDBRANCH   6   7
BRANCH   6  24
HETATM   24  C   UNL     1      -8.696   9.174  67.595  1.00  0.00    -0.120 A  
HETATM   25  C   UNL     1      -7.359   9.154  68.043  1.00  0.00    -0.083 A  
HETATM   26  C   UNL     1      -9.076   8.159  66.700  1.00  0.00    -0.202 A  
HETATM   27  C   UNL     1      -6.445   8.205  67.567  1.00  0.00    -0.057 A  
HETATM   28  C   UNL     1      -6.845   7.244  66.643  1.00  0.00    -0.065 A  
HETATM   29  C   UNL     1      -8.165   7.220  66.216  1.00  0.00    -0.123 A  
ENDBRANCH   6  24
BRANCH   6  30
HETATM   30  C   UNL     1     -10.375  11.112  66.965  1.00  0.00    -0.263 A  
HETATM   31  C   UNL     1     -12.127  12.625  66.162  1.00  0.00    -0.399 A  
HETATM   32  C   UNL     1      -9.982  10.969  65.615  1.00  0.00    -0.299 A  
HETATM   33  C   UNL     1     -11.439  11.998  67.210  1.00  0.00    -0.403 A  
HETATM   34  C   UNL     1     -11.722  12.444  64.845  1.00  0.00    -0.418 A  
HETATM   35  C   UNL     1     -10.631  11.633  64.572  1.00  0.00    -0.373 A  
ENDBRANCH   6  30
ENDBRANCH   4   6
TORSDOF 7
ENDMDL
MODEL      142
REMARK 921   NORMALIZED FREE ENERGY PREDICTED BY IDOCK:   -3.57 KCAL/MOL
REMARK 922        TOTAL FREE ENERGY PREDICTED BY IDOCK:   -5.40 KCAL/MOL
REMARK 923 INTER-LIGAND FREE ENERGY PREDICTED BY IDOCK:   -5.67 KCAL/MOL
REMARK 924 INTRA-LIGAND FREE ENERGY PREDICTED BY IDOCK:    0.27 KCAL/MOL
REMARK 927      BINDING AFFINITY PREDICTED BY RF-SCORE:    0.00 PKD
ROOT
HETATM    1  C   UNL     1     -12.147  12.792  66.541  1.00  0.00    -0.268 C  
HETATM    2  N   UNL     1     -10.933  12.689  67.346  1.00  0.00    -0.246 N  
HETATM    3  C   UNL     1     -10.801  13.659  68.419  1.00  0.00    -0.256 C  
HETATM    4  C   UNL     1      -9.906  11.894  66.828  1.00  0.00    -0.197 C  
HETATM    5  O   UNL     1     -10.110  11.305  65.753  1.00  0.00    -0.228 OA 
ENDROOT
BRANCH   4   6
HETATM    6  C   UNL     1      -8.503  11.713  67.584  1.00  0.00    -0.142 C  
BRANCH   6   7
HETATM    7  C   UNL     1      -8.880  10.919  68.921  1.00  0.00    -0.143 C  
BRANCH   7   8
HETATM    8  C   UNL     1      -9.731   9.644  68.783  1.00  0.00    -0.163 C  
BRANCH   8   9
HETATM    9  N   UNL     1      -9.300   8.490  69.601  1.00  0.00    -0.157 NA 
HETATM   10  C   UNL     1      -9.209   8.745  71.046  1.00  0.00    -0.222 C  
HETATM   11  C   UNL     1     -10.572   8.843  71.732  1.00  0.00    -0.432 C  
HETATM   12  C   UNL     1     -11.393   7.550  71.528  1.00  0.00    -0.255 C  
HETATM   13  H   UNL     1     -13.215   6.976  71.926  1.00  0.00     0.000 HD 
HETATM   14  O   UNL     1     -12.711   7.771  72.051  1.00  0.00    -0.305 OA 
HETATM   15  C   UNL     1     -11.513   7.353  70.001  1.00  0.00    -0.089 C  
HETATM   16  C   UNL     1     -10.135   7.304  69.334  1.00  0.00    -0.183 C  
BRANCH  12  17
HETATM   17  C   UNL     1     -10.879   6.324  72.303  1.00  0.00    -0.276 A  
HETATM   18  C   UNL     1     -11.024   5.019  71.794  1.00  0.00    -0.008 A  
HETATM   19  C   UNL     1     -10.529   3.903  72.479  1.00  0.00    -0.176 A  
HETATM   20  C   UNL     1      -9.856   4.070  73.681  1.00  0.00    -0.115 A  
HETATM   21  C   UNL     1      -9.675   5.345  74.203  1.00  0.00    -0.170 A  
HETATM   22 CL   UNL     1      -9.225   2.702  74.510  1.00  0.00    -0.095 Cl 
HETATM   23  C   UNL     1     -10.174   6.459  73.515  1.00  0.00    -0.262 A  
ENDBRANCH  12  17
ENDBRANCH   8   9
ENDBRANCH   7   8
ENDBRANCH   6   7
BRANCH   6  24
HETATM   24  C   UNL     1      -7.578  10.811  66.697  1.00  0.00    -0.134 A  
HETATM   25  C   UNL     1      -6.291  11.256  66.330  1.00  0.00    -0.048 A  
HETATM   26  C   UNL     1      -7.959   9.538  66.236  1.00  0.00    -0.107 A  
HETATM   27  C   UNL     1      -5.465  10.491  65.497  1.00  0.00    -0.122 A  
HETATM   28  C   UNL     1      -5.895   9.257  65.020  1.00  0.00    -0.063 A  
HETATM   29  C   UNL     1      -7.143   8.779  65.397  1.00  0.00    -0.083 A  
ENDBRANCH   6  24
BRANCH   6  30
HETATM   30  C   UNL     1      -7.878  13.093  67.989  1.00  0.00    -0.147 A  
HETATM   31  C   UNL     1      -7.285  15.419  67.499  1.00  0.00    -0.224 A  
HETATM   32  C   UNL     1      -7.150  13.239  69.192  1.00  0.00     0.005 A  
HETATM   33  C   UNL     1      -7.964  14.237  67.175  1.00  0.00    -0.128 A  
HETATM   34  C   UNL     1      -6.563  15.517  68.682  1.00  0.00    -0.103 A  
HETATM   35  C   UNL     1      -6.516  14.432  69.544  1.00  0.00    -0.133 A  
ENDBRANCH   6  30
ENDBRANCH   4   6
TORSDOF 7
ENDMDL
MODEL      143
REMARK 921   NORMALIZED FREE ENERGY PREDICTED BY IDOCK:   -3.52 KCAL/MOL
REMARK 922        TOTAL FREE ENERGY PREDICTED BY IDOCK:   -5.34 KCAL/MOL
REMARK 923 INTER-LIGAND FREE ENERGY PREDICTED BY IDOCK:   -6.84 KCAL/MOL
REMARK 924 INTRA-LIGAND FREE ENERGY PREDICTED BY IDOCK:    1.50 KCAL/MOL
REMARK 927      BINDING AFFINITY PREDICTED BY RF-SCORE:    0.00 PKD
ROOT
HETATM    1  C   UNL     1     -11.658   9.753  68.951  1.00  0.00     0.277 C  
HETATM    2  N   UNL     1     -10.598  10.084  68.003  1.00  0.00    -0.219 N  
HETATM    3  C   UNL     1      -9.689   9.002  67.667  1.00  0.00    -0.156 C  
HETATM    4  C   UNL     1     -10.382  11.444  67.759  1.00  0.00    -0.182 C  
HETATM    5  O   UNL     1     -11.123  12.264  68.326  1.00  0.00    -0.210 OA 
ENDROOT
BRANCH   4   6
HETATM    6  C   UNL     1      -9.230  11.960  66.768  1.00  0.00    -0.194 C  
BRANCH   6   7
HETATM    7  C   UNL     1      -9.510  13.530  66.631  1.00  0.00    -0.271 C  
BRANCH   7   8
HETATM    8  C   UNL     1     -10.280  14.224  67.769  1.00  0.00    -0.235 C  
BRANCH   8   9
HETATM    9  N   UNL     1      -9.502  15.181  68.584  1.00  0.00    -0.199 NA 
HETATM   10  C   UNL     1      -8.043  15.106  68.417  1.00  0.00    -0.139 C  
HETATM   11  C   UNL     1      -7.553  15.689  67.091  1.00  0.00    -0.258 C  
HETATM   12  C   UNL     1      -7.973  17.170  66.946  1.00  0.00    -0.217 C  
HETATM   13  H   UNL     1      -7.886  18.513  65.532  1.00  0.00     0.000 HD 
HETATM   14  O   UNL     1      -7.628  17.603  65.621  1.00  0.00    -0.521 OA 
HETATM   15  C   UNL     1      -9.512  17.194  67.069  1.00  0.00    -0.257 C  
HETATM   16  C   UNL     1      -9.977  16.563  68.385  1.00  0.00    -0.250 C  
BRANCH  12  17
HETATM   17  C   UNL     1      -7.230  18.150  67.870  1.00  0.00    -0.223 A  
HETATM   18  C   UNL     1      -7.458  19.538  67.805  1.00  0.00    -0.304 A  
HETATM   19  C   UNL     1      -6.811  20.432  68.665  1.00  0.00    -0.205 A  
HETATM   20  C   UNL     1      -5.934  19.954  69.629  1.00  0.00    -0.320 A  
HETATM   21  C   UNL     1      -5.701  18.588  69.737  1.00  0.00    -0.250 A  
HETATM   22 CL   UNL     1      -5.158  21.048  70.704  1.00  0.00    -0.271 Cl 
HETATM   23  C   UNL     1      -6.350  17.697  68.873  1.00  0.00    -0.213 A  
ENDBRANCH  12  17
ENDBRANCH   8   9
ENDBRANCH   7   8
ENDBRANCH   6   7
BRANCH   6  24
HETATM   24  C   UNL     1      -7.845  11.746  67.468  1.00  0.00    -0.148 A  
HETATM   25  C   UNL     1      -7.784  11.390  68.831  1.00  0.00    -0.108 A  
HETATM   26  C   UNL     1      -6.617  11.882  66.797  1.00  0.00    -0.020 A  
HETATM   27  C   UNL     1      -6.558  11.242  69.492  1.00  0.00    -0.129 A  
HETATM   28  C   UNL     1      -5.362  11.432  68.807  1.00  0.00    -0.043 A  
HETATM   29  C   UNL     1      -5.394  11.747  67.456  1.00  0.00    -0.076 A  
ENDBRANCH   6  24
BRANCH   6  30
HETATM   30  C   UNL     1      -9.353  11.312  65.345  1.00  0.00    -0.232 A  
HETATM   31  C   UNL     1      -8.484   9.915  63.530  1.00  0.00    -0.183 A  
HETATM   32  C   UNL     1     -10.398  11.677  64.465  1.00  0.00    -0.349 A  
HETATM   33  C   UNL     1      -8.425  10.378  64.851  1.00  0.00    -0.179 A  
HETATM   34  C   UNL     1      -9.516  10.312  62.689  1.00  0.00    -0.309 A  
HETATM   35  C   UNL     1     -10.490  11.176  63.165  1.00  0.00    -0.243 A  
ENDBRANCH   6  30
ENDBRANCH   4   6
TORSDOF 7
ENDMDL
MODEL      144
REMARK 921   NORMALIZED FREE ENERGY PREDICTED BY IDOCK:   -3.47 KCAL/MOL
REMARK 922        TOTAL FREE ENERGY PREDICTED BY IDOCK:   -5.27 KCAL/MOL
REMARK 923 INTER-LIGAND FREE ENERGY PREDICTED BY IDOCK:   -6.55 KCAL/MOL
REMARK 924 INTRA-LIGAND FREE ENERGY PREDICTED BY IDOCK:    1.28 KCAL/MOL
REMARK 927      BINDING AFFINITY PREDICTED BY RF-SCORE:    0.00 PKD
ROOT
HETATM    1  C   UNL     1      -7.690   7.413  63.567  1.00  0.00    -0.125 C  
HETATM    2  N   UNL     1      -7.838   8.126  64.833  1.00  0.00    -0.120 N  
HETATM    3  C   UNL     1      -7.431   7.398  66.021  1.00  0.00    -0.083 C  
HETATM    4  C   UNL     1      -8.621   9.284  64.807  1.00  0.00    -0.184 C  
HETATM    5  O   UNL     1      -9.096   9.645  63.718  1.00  0.00    -0.241 OA 
ENDROOT
BRANCH   4   6
HETATM    6  C   UNL     1      -8.901  10.154  66.127  1.00  0.00    -0.162 C  
BRANCH   6   7
HETATM    7  C   UNL     1      -9.308   9.068  67.230  1.00  0.00    -0.172 C  
BRANCH   7   8
HETATM    8  C   UNL     1     -10.446   8.089  66.888  1.00  0.00    -0.317 C  
BRANCH   8   9
HETATM    9  N   UNL     1     -10.951   7.271  68.012  1.00  0.00    -0.075 NA 
HETATM   10  C   UNL     1     -10.781   5.820  67.857  1.00  0.00    -0.213 C  
HETATM   11  C   UNL     1      -9.336   5.354  68.043  1.00  0.00    -0.127 C  
HETATM   12  C   UNL     1      -8.800   5.750  69.437  1.00  0.00    -0.117 C  
HETATM   13  H   UNL     1      -7.071   5.676  70.341  1.00  0.00     0.000 HD 
HETATM   14  O   UNL     1      -7.400   5.433  69.483  1.00  0.00    -0.062 OA 
HETATM   15  C   UNL     1      -8.944   7.285  69.534  1.00  0.00    -0.144 C  
HETATM   16  C   UNL     1     -10.391   7.726  69.298  1.00  0.00    -0.219 C  
BRANCH  12  17
HETATM   17  C   UNL     1      -9.404   4.965  70.614  1.00  0.00    -0.222 A  
HETATM   18  C   UNL     1      -9.231   3.572  70.735  1.00  0.00    -0.204 A  
HETATM   19  C   UNL     1      -9.750   2.857  71.821  1.00  0.00    -0.224 A  
HETATM   20  C   UNL     1     -10.439   3.525  72.824  1.00  0.00    -0.133 A  
HETATM   21  C   UNL     1     -10.611   4.901  72.748  1.00  0.00    -0.273 A  
HETATM   22 CL   UNL     1     -11.055   2.652  74.170  1.00  0.00    -0.188 Cl 
HETATM   23  C   UNL     1     -10.091   5.613  71.659  1.00  0.00    -0.245 A  
ENDBRANCH  12  17
ENDBRANCH   8   9
ENDBRANCH   7   8
ENDBRANCH   6   7
BRANCH   6  24
HETATM   24  C   UNL     1      -7.561  10.844  66.556  1.00  0.00    -0.142 A  
HETATM   25  C   UNL     1      -7.447  11.444  67.827  1.00  0.00    -0.100 A  
HETATM   26  C   UNL     1      -6.425  10.895  65.730  1.00  0.00    -0.022 A  
HETATM   27  C   UNL     1      -6.278  12.111  68.215  1.00  0.00    -0.052 A  
HETATM   28  C   UNL     1      -5.189  12.184  67.352  1.00  0.00    -0.110 A  
HETATM   29  C   UNL     1      -5.263  11.568  66.110  1.00  0.00     0.028 A  
ENDBRANCH   6  24
BRANCH   6  30
HETATM   30  C   UNL     1     -10.110  11.134  65.932  1.00  0.00    -0.296 A  
HETATM   31  C   UNL     1     -11.555  12.522  64.522  1.00  0.00    -0.406 A  
HETATM   32  C   UNL     1     -10.783  11.692  67.043  1.00  0.00    -0.292 A  
HETATM   33  C   UNL     1     -10.561  11.545  64.664  1.00  0.00    -0.369 A  
HETATM   34  C   UNL     1     -12.180  13.061  65.640  1.00  0.00    -0.521 A  
HETATM   35  C   UNL     1     -11.811  12.626  66.903  1.00  0.00    -0.425 A  
ENDBRANCH   6  30
ENDBRANCH   4   6
TORSDOF 7
ENDMDL
MODEL      145
REMARK 921   NORMALIZED FREE ENERGY PREDICTED BY IDOCK:   -3.33 KCAL/MOL
REMARK 922        TOTAL FREE ENERGY PREDICTED BY IDOCK:   -5.06 KCAL/MOL
REMARK 923 INTER-LIGAND FREE ENERGY PREDICTED BY IDOCK:   -5.22 KCAL/MOL
REMARK 924 INTRA-LIGAND FREE ENERGY PREDICTED BY IDOCK:    0.16 KCAL/MOL
REMARK 927      BINDING AFFINITY PREDICTED BY RF-SCORE:    0.00 PKD
ROOT
HETATM    1  C   UNL     1      -8.021  17.988  65.803  1.00  0.00     0.136 C  
HETATM    2  N   UNL     1      -8.546  16.681  66.189  1.00  0.00    -0.318 N  
HETATM    3  C   UNL     1      -9.755  16.256  65.506  1.00  0.00    -0.040 C  
HETATM    4  C   UNL     1      -8.026  16.123  67.362  1.00  0.00    -0.160 C  
HETATM    5  O   UNL     1      -7.137  16.749  67.962  1.00  0.00    -0.146 OA 
ENDROOT
BRANCH   4   6
HETATM    6  C   UNL     1      -8.529  14.709  67.929  1.00  0.00    -0.158 C  
BRANCH   6   7
HETATM    7  C   UNL     1      -8.739  13.815  66.618  1.00  0.00    -0.026 C  
BRANCH   7   8
HETATM    8  C   UNL     1      -9.951  12.866  66.583  1.00  0.00    -0.251 C  
BRANCH   8   9
HETATM    9  N   UNL     1      -9.703  11.526  66.008  1.00  0.00    -0.219 NA 
HETATM   10  C   UNL     1      -8.616  10.764  66.639  1.00  0.00    -0.143 C  
HETATM   11  C   UNL     1      -8.983  10.210  68.017  1.00  0.00    -0.125 C  
HETATM   12  C   UNL     1     -10.222   9.291  67.934  1.00  0.00    -0.214 C  
HETATM   13  H   UNL     1     -11.370   8.376  69.221  1.00  0.00     0.000 HD 
HETATM   14  O   UNL     1     -10.608   8.941  69.272  1.00  0.00    -0.227 OA 
HETATM   15  C   UNL     1     -11.352  10.147  67.322  1.00  0.00     0.215 C  
HETATM   16  C   UNL     1     -10.942  10.726  65.965  1.00  0.00     0.060 C  
BRANCH  12  17
HETATM   17  C   UNL     1      -9.984   7.938  67.243  1.00  0.00    -0.280 A  
HETATM   18  C   UNL     1     -10.921   6.890  67.334  1.00  0.00    -0.374 A  
HETATM   19  C   UNL     1     -10.725   5.668  66.680  1.00  0.00    -0.339 A  
HETATM   20  C   UNL     1      -9.594   5.473  65.900  1.00  0.00    -0.063 A  
HETATM   21  C   UNL     1      -8.659   6.492  65.769  1.00  0.00    -0.149 A  
HETATM   22 CL   UNL     1      -9.366   3.982  65.075  1.00  0.00    -0.152 Cl 
HETATM   23  C   UNL     1      -8.858   7.713  66.427  1.00  0.00    -0.179 A  
ENDBRANCH  12  17
ENDBRANCH   8   9
ENDBRANCH   7   8
ENDBRANCH   6   7
BRANCH   6  24
HETATM   24  C   UNL     1      -7.380  14.087  68.794  1.00  0.00    -0.127 A  
HETATM   25  C   UNL     1      -6.693  12.941  68.344  1.00  0.00    -0.092 A  
HETATM   26  C   UNL     1      -6.970  14.624  70.027  1.00  0.00    -0.058 A  
HETATM   27  C   UNL     1      -5.696  12.336  69.122  1.00  0.00    -0.070 A  
HETATM   28  C   UNL     1      -5.350  12.868  70.360  1.00  0.00    -0.131 A  
HETATM   29  C   UNL     1      -5.985  14.018  70.808  1.00  0.00    -0.188 A  
ENDBRANCH   6  24
BRANCH   6  30
HETATM   30  C   UNL     1      -9.908  14.834  68.665  1.00  0.00    -0.225 A  
HETATM   31  C   UNL     1     -11.727  16.166  69.624  1.00  0.00    -0.193 A  
HETATM   32  C   UNL     1     -10.543  13.701  69.224  1.00  0.00     0.008 A  
HETATM   33  C   UNL     1     -10.564  16.065  68.849  1.00  0.00    -0.257 A  
HETATM   34  C   UNL     1     -12.311  15.031  70.174  1.00  0.00    -0.380 A  
HETATM   35  C   UNL     1     -11.730  13.792  69.952  1.00  0.00    -0.353 A  
ENDBRANCH   6  30
ENDBRANCH   4   6
TORSDOF 7
ENDMDL
MODEL      146
REMARK 921   NORMALIZED FREE ENERGY PREDICTED BY IDOCK:   -3.32 KCAL/MOL
REMARK 922        TOTAL FREE ENERGY PREDICTED BY IDOCK:   -5.05 KCAL/MOL
REMARK 923 INTER-LIGAND FREE ENERGY PREDICTED BY IDOCK:   -4.94 KCAL/MOL
REMARK 924 INTRA-LIGAND FREE ENERGY PREDICTED BY IDOCK:   -0.11 KCAL/MOL
REMARK 927      BINDING AFFINITY PREDICTED BY RF-SCORE:    0.00 PKD
ROOT
HETATM    1  C   UNL     1      -6.026  10.297  63.002  1.00  0.00    -0.145 C  
HETATM    2  N   UNL     1      -7.073   9.911  63.945  1.00  0.00    -0.124 N  
HETATM    3  C   UNL     1      -8.283   9.364  63.357  1.00  0.00    -0.168 C  
HETATM    4  C   UNL     1      -6.936  10.380  65.255  1.00  0.00    -0.099 C  
HETATM    5  O   UNL     1      -5.926  11.048  65.534  1.00  0.00    -0.080 OA 
ENDROOT
BRANCH   4   6
HETATM    6  C   UNL     1      -8.024  10.066  66.392  1.00  0.00    -0.116 C  
BRANCH   6   7
HETATM    7  C   UNL     1      -7.186  10.108  67.755  1.00  0.00    -0.087 C  
BRANCH   7   8
HETATM    8  C   UNL     1      -7.886   9.633  69.042  1.00  0.00    -0.079 C  
BRANCH   8   9
HETATM    9  N   UNL     1      -7.155   8.624  69.837  1.00  0.00    -0.049 NA 
HETATM   10  C   UNL     1      -7.345   8.714  71.292  1.00  0.00    -0.096 C  
HETATM   11  C   UNL     1      -8.717   8.225  71.757  1.00  0.00    -0.218 C  
HETATM   12  C   UNL     1      -8.957   6.758  71.336  1.00  0.00    -0.142 C  
HETATM   13  H   UNL     1     -10.461   5.516  71.396  1.00  0.00     0.000 HD 
HETATM   14  O   UNL     1     -10.315   6.418  71.655  1.00  0.00    -0.201 OA 
HETATM   15  C   UNL     1      -8.805   6.721  69.799  1.00  0.00    -0.141 C  
HETATM   16  C   UNL     1      -7.440   7.258  69.359  1.00  0.00    -0.092 C  
BRANCH  12  17
HETATM   17  C   UNL     1      -8.117   5.717  72.097  1.00  0.00    -0.108 A  
HETATM   18  C   UNL     1      -7.308   4.785  71.418  1.00  0.00    -0.068 A  
HETATM   19  C   UNL     1      -6.517   3.858  72.106  1.00  0.00    -0.014 A  
HETATM   20  C   UNL     1      -6.500   3.857  73.494  1.00  0.00    -0.040 A  
HETATM   21  C   UNL     1      -7.268   4.776  74.197  1.00  0.00    -0.078 A  
HETATM   22 CL   UNL     1      -5.508   2.736  74.339  1.00  0.00     0.000 Cl 
HETATM   23  C   UNL     1      -8.060   5.701  73.505  1.00  0.00    -0.113 A  
ENDBRANCH  12  17
ENDBRANCH   8   9
ENDBRANCH   7   8
ENDBRANCH   6   7
BRANCH   6  24
HETATM   24  C   UNL     1      -9.077  11.226  66.401  1.00  0.00    -0.201 A  
HETATM   25  C   UNL     1      -8.901  12.338  67.250  1.00  0.00    -0.190 A  
HETATM   26  C   UNL     1     -10.219  11.234  65.582  1.00  0.00    -0.304 A  
HETATM   27  C   UNL     1      -9.852  13.365  67.315  1.00  0.00    -0.233 A  
HETATM   28  C   UNL     1     -10.996  13.314  66.524  1.00  0.00    -0.299 A  
HETATM   29  C   UNL     1     -11.174  12.249  65.652  1.00  0.00    -0.375 A  
ENDBRANCH   6  24
BRANCH   6  30
HETATM   30  C   UNL     1      -8.634   8.630  66.233  1.00  0.00    -0.151 A  
HETATM   31  C   UNL     1     -10.411   6.987  66.615  1.00  0.00    -0.215 A  
HETATM   32  C   UNL     1      -7.869   7.568  65.696  1.00  0.00    -0.110 A  
HETATM   33  C   UNL     1      -9.938   8.306  66.647  1.00  0.00    -0.348 A  
HETATM   34  C   UNL     1      -9.622   5.967  66.097  1.00  0.00    -0.107 A  
HETATM   35  C   UNL     1      -8.357   6.262  65.614  1.00  0.00    -0.147 A  
ENDBRANCH   6  30
ENDBRANCH   4   6
TORSDOF 7
ENDMDL
MODEL      147
REMARK 921   NORMALIZED FREE ENERGY PREDICTED BY IDOCK:   -3.32 KCAL/MOL
REMARK 922        TOTAL FREE ENERGY PREDICTED BY IDOCK:   -5.05 KCAL/MOL
REMARK 923 INTER-LIGAND FREE ENERGY PREDICTED BY IDOCK:   -5.49 KCAL/MOL
REMARK 924 INTRA-LIGAND FREE ENERGY PREDICTED BY IDOCK:    0.44 KCAL/MOL
REMARK 927      BINDING AFFINITY PREDICTED BY RF-SCORE:    0.00 PKD
ROOT
HETATM    1  C   UNL     1     -12.038  10.222  69.830  1.00  0.00    -0.056 C  
HETATM    2  N   UNL     1     -10.959   9.260  70.034  1.00  0.00    -0.234 N  
HETATM    3  C   UNL     1     -10.226   9.385  71.281  1.00  0.00    -0.270 C  
HETATM    4  C   UNL     1     -10.548   8.537  68.910  1.00  0.00    -0.144 C  
HETATM    5  O   UNL     1     -11.149   8.729  67.840  1.00  0.00     0.031 OA 
ENDROOT
BRANCH   4   6
HETATM    6  C   UNL     1      -9.352   7.469  68.972  1.00  0.00    -0.146 C  
BRANCH   6   7
HETATM    7  C   UNL     1      -8.028   8.361  68.864  1.00  0.00    -0.115 C  
BRANCH   7   8
HETATM    8  C   UNL     1      -7.872   9.267  67.629  1.00  0.00    -0.096 C  
BRANCH   8   9
HETATM    9  N   UNL     1      -7.355  10.628  67.890  1.00  0.00    -0.088 NA 
HETATM   10  C   UNL     1      -7.162  11.464  66.696  1.00  0.00    -0.102 C  
HETATM   11  C   UNL     1      -8.471  11.974  66.094  1.00  0.00     0.172 C  
HETATM   12  C   UNL     1      -9.276  12.796  67.126  1.00  0.00    -0.219 C  
HETATM   13  H   UNL     1     -11.051  13.607  67.187  1.00  0.00     0.000 HD 
HETATM   14  O   UNL     1     -10.556  13.101  66.552  1.00  0.00    -0.279 OA 
HETATM   15  C   UNL     1      -9.506  11.862  68.334  1.00  0.00    -0.189 C  
HETATM   16  C   UNL     1      -8.181  11.331  68.889  1.00  0.00    -0.079 C  
BRANCH  12  17
HETATM   17  C   UNL     1      -8.679  14.171  67.470  1.00  0.00    -0.208 A  
HETATM   18  C   UNL     1      -8.614  15.205  66.516  1.00  0.00    -0.226 A  
HETATM   19  C   UNL     1      -8.102  16.469  66.832  1.00  0.00    -0.254 A  
HETATM   20  C   UNL     1      -7.662  16.734  68.122  1.00  0.00    -0.180 A  
HETATM   21  C   UNL     1      -7.731  15.745  69.095  1.00  0.00    -0.220 A  
HETATM   22 CL   UNL     1      -7.057  18.294  68.519  1.00  0.00    -0.264 Cl 
HETATM   23  C   UNL     1      -8.242  14.481  68.773  1.00  0.00    -0.146 A  
ENDBRANCH  12  17
ENDBRANCH   8   9
ENDBRANCH   7   8
ENDBRANCH   6   7
BRANCH   6  24
HETATM   24  C   UNL     1      -9.387   6.771  70.375  1.00  0.00    -0.163 A  
HETATM   25  C   UNL     1      -8.271   6.846  71.233  1.00  0.00    -0.114 A  
HETATM   26  C   UNL     1     -10.501   6.059  70.851  1.00  0.00    -0.293 A  
HETATM   27  C   UNL     1      -8.257   6.189  72.470  1.00  0.00    -0.108 A  
HETATM   28  C   UNL     1      -9.361   5.453  72.888  1.00  0.00    -0.145 A  
HETATM   29  C   UNL     1     -10.486   5.394  72.078  1.00  0.00    -0.278 A  
ENDBRANCH   6  24
BRANCH   6  30
HETATM   30  C   UNL     1      -9.385   6.486  67.750  1.00  0.00    -0.118 A  
HETATM   31  C   UNL     1      -8.338   5.431  65.803  1.00  0.00    -0.126 A  
HETATM   32  C   UNL     1     -10.588   5.859  67.351  1.00  0.00    -0.356 A  
HETATM   33  C   UNL     1      -8.252   6.207  66.966  1.00  0.00    -0.106 A  
HETATM   34  C   UNL     1      -9.543   4.846  65.433  1.00  0.00    -0.115 A  
HETATM   35  C   UNL     1     -10.666   5.041  66.222  1.00  0.00    -0.262 A  
ENDBRANCH   6  30
ENDBRANCH   4   6
TORSDOF 7
ENDMDL
MODEL      148
REMARK 921   NORMALIZED FREE ENERGY PREDICTED BY IDOCK:   -3.28 KCAL/MOL
REMARK 922        TOTAL FREE ENERGY PREDICTED BY IDOCK:   -5.00 KCAL/MOL
REMARK 923 INTER-LIGAND FREE ENERGY PREDICTED BY IDOCK:   -5.68 KCAL/MOL
REMARK 924 INTRA-LIGAND FREE ENERGY PREDICTED BY IDOCK:    0.68 KCAL/MOL
REMARK 927      BINDING AFFINITY PREDICTED BY RF-SCORE:    0.00 PKD
ROOT
HETATM    1  C   UNL     1     -10.672   9.524  71.626  1.00  0.00    -0.094 C  
HETATM    2  N   UNL     1     -10.664  10.193  70.328  1.00  0.00    -0.298 N  
HETATM    3  C   UNL     1     -11.921  10.178  69.601  1.00  0.00     0.017 C  
HETATM    4  C   UNL     1      -9.410  10.499  69.792  1.00  0.00     0.124 C  
HETATM    5  O   UNL     1      -8.403  10.224  70.467  1.00  0.00     0.112 OA 
ENDROOT
BRANCH   4   6
HETATM    6  C   UNL     1      -9.242  11.203  68.360  1.00  0.00    -0.175 C  
BRANCH   6   7
HETATM    7  C   UNL     1      -7.888  12.045  68.496  1.00  0.00    -0.129 C  
BRANCH   7   8
HETATM    8  C   UNL     1      -7.293  12.658  67.215  1.00  0.00    -0.104 C  
BRANCH   8   9
HETATM    9  N   UNL     1      -6.700  14.005  67.360  1.00  0.00    -0.256 NA 
HETATM   10  C   UNL     1      -7.449  15.093  66.717  1.00  0.00     0.330 C  
HETATM   11  C   UNL     1      -8.729  15.473  67.462  1.00  0.00    -0.183 C  
HETATM   12  C   UNL     1      -8.421  15.902  68.914  1.00  0.00    -0.220 C  
HETATM   13  H   UNL     1      -9.479  16.348  70.492  1.00  0.00     0.000 HD 
HETATM   14  O   UNL     1      -9.669  16.084  69.600  1.00  0.00    -0.251 OA 
HETATM   15  C   UNL     1      -7.688  14.710  69.568  1.00  0.00    -0.004 C  
HETATM   16  C   UNL     1      -6.435  14.322  68.777  1.00  0.00    -0.089 C  
BRANCH  12  17
HETATM   17  C   UNL     1      -7.710  17.259  69.055  1.00  0.00    -0.166 A  
HETATM   18  C   UNL     1      -6.477  17.377  69.726  1.00  0.00    -0.073 A  
HETATM   19  C   UNL     1      -5.809  18.603  69.828  1.00  0.00    -0.261 A  
HETATM   20  C   UNL     1      -6.351  19.738  69.241  1.00  0.00    -0.326 A  
HETATM   21  C   UNL     1      -7.555  19.655  68.553  1.00  0.00    -0.372 A  
HETATM   22 CL   UNL     1      -5.519  21.239  69.344  1.00  0.00    -0.267 Cl 
HETATM   23  C   UNL     1      -8.221  18.426  68.454  1.00  0.00    -0.331 A  
ENDBRANCH  12  17
ENDBRANCH   8   9
ENDBRANCH   7   8
ENDBRANCH   6   7
BRANCH   6  24
HETATM   24  C   UNL     1      -9.043  10.084  67.281  1.00  0.00    -0.152 A  
HETATM   25  C   UNL     1      -9.025  10.413  65.910  1.00  0.00    -0.182 A  
HETATM   26  C   UNL     1      -8.865   8.727  67.605  1.00  0.00    -0.138 A  
HETATM   27  C   UNL     1      -8.900   9.426  64.925  1.00  0.00    -0.240 A  
HETATM   28  C   UNL     1      -8.774   8.087  65.282  1.00  0.00    -0.062 A  
HETATM   29  C   UNL     1      -8.750   7.740  66.625  1.00  0.00    -0.151 A  
ENDBRANCH   6  24
BRANCH   6  30
HETATM   30  C   UNL     1     -10.415  12.200  68.061  1.00  0.00    -0.227 A  
HETATM   31  C   UNL     1     -11.956  13.315  66.516  1.00  0.00    -0.448 A  
HETATM   32  C   UNL     1     -10.913  13.062  69.064  1.00  0.00    -0.242 A  
HETATM   33  C   UNL     1     -11.002  12.326  66.789  1.00  0.00    -0.321 A  
HETATM   34  C   UNL     1     -12.407  14.157  67.526  1.00  0.00    -0.106 A  
HETATM   35  C   UNL     1     -11.902  14.014  68.809  1.00  0.00    -0.396 A  
ENDBRANCH   6  30
ENDBRANCH   4   6
TORSDOF 7
ENDMDL
MODEL      149
REMARK 921   NORMALIZED FREE ENERGY PREDICTED BY IDOCK:   -3.17 KCAL/MOL
REMARK 922        TOTAL FREE ENERGY PREDICTED BY IDOCK:   -4.84 KCAL/MOL
REMARK 923 INTER-LIGAND FREE ENERGY PREDICTED BY IDOCK:   -5.33 KCAL/MOL
REMARK 924 INTRA-LIGAND FREE ENERGY PREDICTED BY IDOCK:    0.48 KCAL/MOL
REMARK 927      BINDING AFFINITY PREDICTED BY RF-SCORE:    0.00 PKD
ROOT
HETATM    1  C   UNL     1      -9.952  18.469  66.153  1.00  0.00    -0.322 C  
HETATM    2  N   UNL     1      -9.813  17.030  66.357  1.00  0.00    -0.285 N  
HETATM    3  C   UNL     1      -8.958  16.336  65.410  1.00  0.00     0.875 C  
HETATM    4  C   UNL     1     -10.732  16.431  67.224  1.00  0.00    -0.257 C  
HETATM    5  O   UNL     1     -11.565  17.161  67.786  1.00  0.00     0.268 OA 
ENDROOT
BRANCH   4   6
HETATM    6  C   UNL     1     -10.724  14.854  67.520  1.00  0.00    -0.276 C  
BRANCH   6   7
HETATM    7  C   UNL     1     -11.854  14.661  68.636  1.00  0.00    -0.346 C  
BRANCH   7   8
HETATM    8  C   UNL     1     -12.280  13.223  68.985  1.00  0.00    -0.116 C  
BRANCH   8   9
HETATM    9  N   UNL     1     -11.305  12.435  69.768  1.00  0.00    -0.124 NA 
HETATM   10  C   UNL     1     -11.606  12.308  71.201  1.00  0.00     1.519 C  
HETATM   11  C   UNL     1     -12.761  11.350  71.496  1.00  0.00    -0.462 C  
HETATM   12  C   UNL     1     -12.466   9.937  70.946  1.00  0.00    -0.307 C  
HETATM   13  H   UNL     1     -13.467   8.270  70.771  1.00  0.00     0.000 HD 
HETATM   14  O   UNL     1     -13.649   9.139  71.109  1.00  0.00    -0.268 OA 
HETATM   15  C   UNL     1     -12.213  10.109  69.432  1.00  0.00     0.241 C  
HETATM   16  C   UNL     1     -11.083  11.107  69.164  1.00  0.00    -0.248 C  
BRANCH  12  17
HETATM   17  C   UNL     1     -11.377   9.159  71.703  1.00  0.00    -0.446 A  
HETATM   18  C   UNL     1     -11.704   8.208  72.690  1.00  0.00    -0.419 A  
HETATM   19  C   UNL     1     -10.718   7.473  73.359  1.00  0.00    -0.387 A  
HETATM   20  C   UNL     1      -9.380   7.656  73.039  1.00  0.00    -0.210 A  
HETATM   21  C   UNL     1      -9.022   8.569  72.055  1.00  0.00    -0.301 A  
HETATM   22 CL   UNL     1      -8.171   6.735  73.841  1.00  0.00    -0.134 Cl 
HETATM   23  C   UNL     1     -10.011   9.305  71.390  1.00  0.00    -0.323 A  
ENDBRANCH  12  17
ENDBRANCH   8   9
ENDBRANCH   7   8
ENDBRANCH   6   7
BRANCH   6  24
HETATM   24  C   UNL     1     -11.161  14.106  66.214  1.00  0.00    -0.318 A  
HETATM   25  C   UNL     1     -10.205  13.425  65.432  1.00  0.00    -0.311 A  
HETATM   26  C   UNL     1     -12.491  14.060  65.764  1.00  0.00    -0.523 A  
HETATM   27  C   UNL     1     -10.561  12.791  64.234  1.00  0.00    -0.424 A  
HETATM   28  C   UNL     1     -11.881  12.808  63.795  1.00  0.00    -0.572 A  
HETATM   29  C   UNL     1     -12.847  13.439  64.566  1.00  0.00    -0.075 A  
ENDBRANCH   6  24
BRANCH   6  30
HETATM   30  C   UNL     1      -9.353  14.381  68.119  1.00  0.00    -0.203 A  
HETATM   31  C   UNL     1      -7.602  12.696  68.429  1.00  0.00    -0.132 A  
HETATM   32  C   UNL     1      -8.666  15.165  69.074  1.00  0.00    -0.215 A  
HETATM   33  C   UNL     1      -8.758  13.153  67.781  1.00  0.00    -0.188 A  
HETATM   34  C   UNL     1      -6.966  13.487  69.377  1.00  0.00     0.046 A  
HETATM   35  C   UNL     1      -7.485  14.736  69.683  1.00  0.00    -0.081 A  
ENDBRANCH   6  30
ENDBRANCH   4   6
TORSDOF 7
ENDMDL
MODEL      150
REMARK 921   NORMALIZED FREE ENERGY PREDICTED BY IDOCK:   -3.06 KCAL/MOL
REMARK 922        TOTAL FREE ENERGY PREDICTED BY IDOCK:   -4.68 KCAL/MOL
REMARK 923 INTER-LIGAND FREE ENERGY PREDICTED BY IDOCK:   -6.43 KCAL/MOL
REMARK 924 INTRA-LIGAND FREE ENERGY PREDICTED BY IDOCK:    1.75 KCAL/MOL
REMARK 927      BINDING AFFINITY PREDICTED BY RF-SCORE:    0.00 PKD
ROOT
HETATM    1  C   UNL     1     -12.530  13.534  68.116  1.00  0.00     0.353 C  
HETATM    2  N   UNL     1     -11.220  12.890  68.077  1.00  0.00    -0.252 N  
HETATM    3  C   UNL     1     -10.260  13.347  69.066  1.00  0.00     0.067 C  
HETATM    4  C   UNL     1     -10.927  12.145  66.931  1.00  0.00    -0.270 C  
HETATM    5  O   UNL     1     -11.803  12.048  66.056  1.00  0.00    -0.522 OA 
ENDROOT
BRANCH   4   6
HETATM    6  C   UNL     1      -9.515  11.409  66.731  1.00  0.00    -0.197 C  
BRANCH   6   7
HETATM    7  C   UNL     1      -9.620  10.107  67.655  1.00  0.00    -0.170 C  
BRANCH   7   8
HETATM    8  C   UNL     1      -9.556  10.303  69.181  1.00  0.00    -0.218 C  
BRANCH   8   9
HETATM    9  N   UNL     1      -9.007   9.168  69.954  1.00  0.00    -0.160 NA 
HETATM   10  C   UNL     1      -9.462   9.080  71.349  1.00  0.00    -0.264 C  
HETATM   11  C   UNL     1     -10.907   8.599  71.487  1.00  0.00    -0.352 C  
HETATM   12  C   UNL     1     -11.095   7.210  70.838  1.00  0.00    -0.263 C  
HETATM   13  H   UNL     1     -12.611   6.040  70.458  1.00  0.00     0.000 HD 
HETATM   14  O   UNL     1     -12.496   6.895  70.857  1.00  0.00    -0.378 OA 
HETATM   15  C   UNL     1     -10.662   7.362  69.363  1.00  0.00    -0.220 C  
HETATM   16  C   UNL     1      -9.227   7.888  69.254  1.00  0.00    -0.148 C  
BRANCH  12  17
HETATM   17  C   UNL     1     -10.434   6.044  71.593  1.00  0.00    -0.276 A  
HETATM   18  C   UNL     1     -10.880   5.648  72.870  1.00  0.00    -0.303 A  
HETATM   19  C   UNL     1     -10.304   4.567  73.548  1.00  0.00    -0.244 A  
HETATM   20  C   UNL     1      -9.282   3.841  72.952  1.00  0.00    -0.103 A  
HETATM   21  C   UNL     1      -8.832   4.189  71.685  1.00  0.00    -0.147 A  
HETATM   22 CL   UNL     1      -8.592   2.497  73.773  1.00  0.00    -0.070 Cl 
HETATM   23  C   UNL     1      -9.409   5.273  71.011  1.00  0.00    -0.193 A  
ENDBRANCH  12  17
ENDBRANCH   8   9
ENDBRANCH   7   8
ENDBRANCH   6   7
BRANCH   6  24
HETATM   24  C   UNL     1      -9.399  10.965  65.232  1.00  0.00    -0.246 A  
HETATM   25  C   UNL     1      -8.924   9.678  64.908  1.00  0.00    -0.260 A  
HETATM   26  C   UNL     1      -9.759  11.793  64.156  1.00  0.00    -0.176 A  
HETATM   27  C   UNL     1      -8.762   9.274  63.576  1.00  0.00    -0.188 A  
HETATM   28  C   UNL     1      -9.084  10.140  62.535  1.00  0.00    -0.302 A  
HETATM   29  C   UNL     1      -9.589  11.399  62.828  1.00  0.00    -0.290 A  
ENDBRANCH   6  24
BRANCH   6  30
HETATM   30  C   UNL     1      -8.322  12.286  67.249  1.00  0.00    -0.182 A  
HETATM   31  C   UNL     1      -7.117  14.413  67.401  1.00  0.00    -0.121 A  
HETATM   32  C   UNL     1      -7.223  11.700  67.918  1.00  0.00    -0.083 A  
HETATM   33  C   UNL     1      -8.254  13.676  67.045  1.00  0.00    -0.056 A  
HETATM   34  C   UNL     1      -6.048  13.797  68.040  1.00  0.00    -0.140 A  
HETATM   35  C   UNL     1      -6.111  12.441  68.321  1.00  0.00    -0.055 A  
ENDBRANCH   6  30
ENDBRANCH   4   6
TORSDOF 7
ENDMDL
MODEL      151
REMARK 921   NORMALIZED FREE ENERGY PREDICTED BY IDOCK:   -3.05 KCAL/MOL
REMARK 922        TOTAL FREE ENERGY PREDICTED BY IDOCK:   -4.67 KCAL/MOL
REMARK 923 INTER-LIGAND FREE ENERGY PREDICTED BY IDOCK:   -5.53 KCAL/MOL
REMARK 924 INTRA-LIGAND FREE ENERGY PREDICTED BY IDOCK:    0.86 KCAL/MOL
REMARK 927      BINDING AFFINITY PREDICTED BY RF-SCORE:    0.00 PKD
ROOT
HETATM    1  C   UNL     1     -11.286  10.505  65.701  1.00  0.00     0.649 C  
HETATM    2  N   UNL     1     -10.857  10.406  67.094  1.00  0.00    -0.264 N  
HETATM    3  C   UNL     1     -11.698  11.084  68.065  1.00  0.00    -0.179 C  
HETATM    4  C   UNL     1      -9.555   9.946  67.315  1.00  0.00    -0.160 C  
HETATM    5  O   UNL     1      -8.876   9.619  66.327  1.00  0.00    -0.145 OA 
ENDROOT
BRANCH   4   6
HETATM    6  C   UNL     1      -8.934   9.817  68.788  1.00  0.00    -0.133 C  
BRANCH   6   7
HETATM    7  C   UNL     1      -8.655  11.330  69.228  1.00  0.00     0.221 C  
BRANCH   7   8
HETATM    8  C   UNL     1      -8.930  12.439  68.197  1.00  0.00    -0.196 C  
BRANCH   8   9
HETATM    9  N   UNL     1      -8.140  13.678  68.357  1.00  0.00    -0.147 NA 
HETATM   10  C   UNL     1      -7.706  14.312  67.104  1.00  0.00    -0.017 C  
HETATM   11  C   UNL     1      -8.838  15.019  66.358  1.00  0.00    -0.238 C  
HETATM   12  C   UNL     1      -9.493  16.106  67.239  1.00  0.00    -0.226 C  
HETATM   13  H   UNL     1     -11.045  17.280  67.087  1.00  0.00     0.000 HD 
HETATM   14  O   UNL     1     -10.643  16.611  66.544  1.00  0.00    -0.286 OA 
HETATM   15  C   UNL     1      -9.984  15.387  68.515  1.00  0.00    -0.213 C  
HETATM   16  C   UNL     1      -8.839  14.651  69.217  1.00  0.00     0.042 C  
BRANCH  12  17
HETATM   17  C   UNL     1      -8.624  17.351  67.488  1.00  0.00    -0.221 A  
HETATM   18  C   UNL     1      -7.588  17.714  66.605  1.00  0.00    -0.273 A  
HETATM   19  C   UNL     1      -6.816  18.863  66.807  1.00  0.00    -0.210 A  
HETATM   20  C   UNL     1      -7.079  19.692  67.890  1.00  0.00    -0.266 A  
HETATM   21  C   UNL     1      -8.107  19.378  68.769  1.00  0.00    -0.388 A  
HETATM   22 CL   UNL     1      -6.148  21.118  68.125  1.00  0.00    -0.382 Cl 
HETATM   23  C   UNL     1      -8.876  18.225  68.564  1.00  0.00    -0.322 A  
ENDBRANCH  12  17
ENDBRANCH   8   9
ENDBRANCH   7   8
ENDBRANCH   6   7
BRANCH   6  24
HETATM   24  C   UNL     1     -10.025   9.202  69.731  1.00  0.00    -0.204 A  
HETATM   25  C   UNL     1     -10.678  10.011  70.684  1.00  0.00    -0.325 A  
HETATM   26  C   UNL     1     -10.414   7.852  69.678  1.00  0.00    -0.226 A  
HETATM   27  C   UNL     1     -11.620   9.475  71.572  1.00  0.00    -0.465 A  
HETATM   28  C   UNL     1     -11.945   8.123  71.522  1.00  0.00    -0.334 A  
HETATM   29  C   UNL     1     -11.344   7.314  70.568  1.00  0.00    -0.308 A  
ENDBRANCH   6  24
BRANCH   6  30
HETATM   30  C   UNL     1      -7.568   9.046  68.778  1.00  0.00    -0.087 A  
HETATM   31  C   UNL     1      -5.132   8.979  68.523  1.00  0.00    -0.034 A  
HETATM   32  C   UNL     1      -7.526   7.635  68.843  1.00  0.00    -0.096 A  
HETATM   33  C   UNL     1      -6.327   9.698  68.663  1.00  0.00    -0.047 A  
HETATM   34  C   UNL     1      -5.134   7.591  68.573  1.00  0.00    -0.025 A  
HETATM   35  C   UNL     1      -6.332   6.917  68.758  1.00  0.00    -0.028 A  
ENDBRANCH   6  30
ENDBRANCH   4   6
TORSDOF 7
ENDMDL
MODEL      152
REMARK 921   NORMALIZED FREE ENERGY PREDICTED BY IDOCK:   -3.01 KCAL/MOL
REMARK 922        TOTAL FREE ENERGY PREDICTED BY IDOCK:   -4.62 KCAL/MOL
REMARK 923 INTER-LIGAND FREE ENERGY PREDICTED BY IDOCK:   -5.49 KCAL/MOL
REMARK 924 INTRA-LIGAND FREE ENERGY PREDICTED BY IDOCK:    0.87 KCAL/MOL
REMARK 927      BINDING AFFINITY PREDICTED BY RF-SCORE:    0.00 PKD
ROOT
HETATM    1  C   UNL     1     -11.646  11.977  66.269  1.00  0.00    -0.310 C  
HETATM    2  N   UNL     1     -10.828  11.033  67.026  1.00  0.00    -0.274 N  
HETATM    3  C   UNL     1     -11.177  10.873  68.426  1.00  0.00    -0.285 C  
HETATM    4  C   UNL     1      -9.632  10.624  66.426  1.00  0.00    -0.190 C  
HETATM    5  O   UNL     1      -9.373  11.052  65.290  1.00  0.00    -0.205 OA 
ENDROOT
BRANCH   4   6
HETATM    6  C   UNL     1      -8.615   9.618  67.151  1.00  0.00    -0.133 C  
BRANCH   6   7
HETATM    7  C   UNL     1      -7.642  10.579  67.983  1.00  0.00    -0.091 C  
BRANCH   7   8
HETATM    8  C   UNL     1      -8.105  12.026  68.232  1.00  0.00    -0.155 C  
BRANCH   8   9
HETATM    9  N   UNL     1      -7.633  13.030  67.254  1.00  0.00    -0.130 NA 
HETATM   10  C   UNL     1      -8.621  14.051  66.878  1.00  0.00    -0.125 C  
HETATM   11  C   UNL     1      -8.867  15.092  67.971  1.00  0.00    -0.165 C  
HETATM   12  C   UNL     1      -7.556  15.816  68.353  1.00  0.00    -0.130 C  
HETATM   13  H   UNL     1      -7.019  17.099  69.722  1.00  0.00     0.000 HD 
HETATM   14  O   UNL     1      -7.825  16.653  69.488  1.00  0.00    -0.067 OA 
HETATM   15  C   UNL     1      -6.569  14.714  68.796  1.00  0.00    -0.090 C  
HETATM   16  C   UNL     1      -6.377  13.662  67.700  1.00  0.00    -0.138 C  
BRANCH  12  17
HETATM   17  C   UNL     1      -7.014  16.785  67.288  1.00  0.00    -0.210 A  
HETATM   18  C   UNL     1      -7.861  17.689  66.617  1.00  0.00    -0.283 A  
HETATM   19  C   UNL     1      -7.369  18.596  65.671  1.00  0.00    -0.096 A  
HETATM   20  C   UNL     1      -6.010  18.633  65.390  1.00  0.00    -0.245 A  
HETATM   21  C   UNL     1      -5.142  17.771  66.048  1.00  0.00    -0.224 A  
HETATM   22 CL   UNL     1      -5.400  19.764  64.247  1.00  0.00    -0.214 Cl 
HETATM   23  C   UNL     1      -5.639  16.864  66.993  1.00  0.00    -0.200 A  
ENDBRANCH  12  17
ENDBRANCH   8   9
ENDBRANCH   7   8
ENDBRANCH   6   7
BRANCH   6  24
HETATM   24  C   UNL     1      -9.430   8.726  68.149  1.00  0.00    -0.152 A  
HETATM   25  C   UNL     1      -9.103   8.713  69.521  1.00  0.00    -0.146 A  
HETATM   26  C   UNL     1     -10.509   7.918  67.752  1.00  0.00    -0.278 A  
HETATM   27  C   UNL     1      -9.783   7.887  70.425  1.00  0.00    -0.179 A  
HETATM   28  C   UNL     1     -10.815   7.064  69.987  1.00  0.00    -0.290 A  
HETATM   29  C   UNL     1     -11.181   7.086  68.648  1.00  0.00     0.004 A  
ENDBRANCH   6  24
BRANCH   6  30
HETATM   30  C   UNL     1      -7.750   8.818  66.116  1.00  0.00    -0.101 A  
HETATM   31  C   UNL     1      -5.596   8.211  65.118  1.00  0.00    -0.044 A  
HETATM   32  C   UNL     1      -8.357   8.079  65.075  1.00  0.00    -0.121 A  
HETATM   33  C   UNL     1      -6.343   8.824  66.132  1.00  0.00    -0.064 A  
HETATM   34  C   UNL     1      -6.231   7.509  64.100  1.00  0.00    -0.048 A  
HETATM   35  C   UNL     1      -7.614   7.422  64.092  1.00  0.00    -0.109 A  
ENDBRANCH   6  30
ENDBRANCH   4   6
TORSDOF 7
ENDMDL
MODEL      153
REMARK 921   NORMALIZED FREE ENERGY PREDICTED BY IDOCK:   -3.00 KCAL/MOL
REMARK 922        TOTAL FREE ENERGY PREDICTED BY IDOCK:   -4.60 KCAL/MOL
REMARK 923 INTER-LIGAND FREE ENERGY PREDICTED BY IDOCK:   -4.89 KCAL/MOL
REMARK 924 INTRA-LIGAND FREE ENERGY PREDICTED BY IDOCK:    0.30 KCAL/MOL
REMARK 927      BINDING AFFINITY PREDICTED BY RF-SCORE:    0.00 PKD
ROOT
HETATM    1  C   UNL     1     -12.159  12.908  66.852  1.00  0.00    -0.244 C  
HETATM    2  N   UNL     1     -10.945  12.798  67.656  1.00  0.00    -0.237 N  
HETATM    3  C   UNL     1     -10.928  13.569  68.887  1.00  0.00    -0.252 C  
HETATM    4  C   UNL     1      -9.832  12.228  67.030  1.00  0.00    -0.205 C  
HETATM    5  O   UNL     1      -9.963  11.821  65.864  1.00  0.00    -0.222 OA 
ENDROOT
BRANCH   4   6
HETATM    6  C   UNL     1      -8.420  12.071  67.776  1.00  0.00    -0.157 C  
BRANCH   6   7
HETATM    7  C   UNL     1      -8.779  11.301  69.132  1.00  0.00     0.120 C  
BRANCH   7   8
HETATM    8  C   UNL     1      -9.705  10.074  69.037  1.00  0.00    -0.199 C  
BRANCH   8   9
HETATM    9  N   UNL     1      -9.038   8.783  68.764  1.00  0.00    -0.138 NA 
HETATM   10  C   UNL     1      -8.106   8.327  69.805  1.00  0.00    -0.118 C  
HETATM   11  C   UNL     1      -8.805   7.809  71.062  1.00  0.00    -0.145 C  
HETATM   12  C   UNL     1      -9.755   6.636  70.728  1.00  0.00    -0.179 C  
HETATM   13  H   UNL     1     -11.079   5.589  71.707  1.00  0.00     0.000 HD 
HETATM   14  O   UNL     1     -10.495   6.310  71.913  1.00  0.00    -0.202 OA 
HETATM   15  C   UNL     1     -10.750   7.176  69.677  1.00  0.00    -0.256 C  
HETATM   16  C   UNL     1     -10.022   7.729  68.449  1.00  0.00    -0.178 C  
BRANCH  12  17
HETATM   17  C   UNL     1      -9.055   5.321  70.345  1.00  0.00    -0.173 A  
HETATM   18  C   UNL     1      -9.764   4.252  69.763  1.00  0.00    -0.290 A  
HETATM   19  C   UNL     1      -9.127   3.066  69.382  1.00  0.00    -0.198 A  
HETATM   20  C   UNL     1      -7.756   2.930  69.555  1.00  0.00    -0.043 A  
HETATM   21  C   UNL     1      -7.020   3.971  70.106  1.00  0.00    -0.041 A  
HETATM   22 CL   UNL     1      -6.968   1.483  69.064  1.00  0.00    -0.036 Cl 
HETATM   23  C   UNL     1      -7.663   5.156  70.487  1.00  0.00    -0.071 A  
ENDBRANCH  12  17
ENDBRANCH   8   9
ENDBRANCH   7   8
ENDBRANCH   6   7
BRANCH   6  24
HETATM   24  C   UNL     1      -7.497  11.159  66.898  1.00  0.00    -0.138 A  
HETATM   25  C   UNL     1      -6.096  11.214  67.046  1.00  0.00    -0.092 A  
HETATM   26  C   UNL     1      -7.994  10.252  65.946  1.00  0.00    -0.137 A  
HETATM   27  C   UNL     1      -5.246  10.447  66.239  1.00  0.00    -0.054 A  
HETATM   28  C   UNL     1      -5.773   9.595  65.273  1.00  0.00    -0.064 A  
HETATM   29  C   UNL     1      -7.150   9.495  65.132  1.00  0.00    -0.104 A  
ENDBRANCH   6  24
BRANCH   6  30
HETATM   30  C   UNL     1      -7.802  13.463  68.149  1.00  0.00    -0.145 A  
HETATM   31  C   UNL     1      -7.346  15.821  67.662  1.00  0.00    -0.187 A  
HETATM   32  C   UNL     1      -6.953  13.607  69.271  1.00  0.00    -0.025 A  
HETATM   33  C   UNL     1      -8.015  14.622  67.382  1.00  0.00    -0.223 A  
HETATM   34  C   UNL     1      -6.503  15.917  68.763  1.00  0.00    -0.116 A  
HETATM   35  C   UNL     1      -6.325  14.814  69.584  1.00  0.00    -0.142 A  
ENDBRANCH   6  30
ENDBRANCH   4   6
TORSDOF 7
ENDMDL
MODEL      154
REMARK 921   NORMALIZED FREE ENERGY PREDICTED BY IDOCK:   -2.99 KCAL/MOL
REMARK 922        TOTAL FREE ENERGY PREDICTED BY IDOCK:   -4.59 KCAL/MOL
REMARK 923 INTER-LIGAND FREE ENERGY PREDICTED BY IDOCK:   -4.30 KCAL/MOL
REMARK 924 INTRA-LIGAND FREE ENERGY PREDICTED BY IDOCK:   -0.29 KCAL/MOL
REMARK 927      BINDING AFFINITY PREDICTED BY RF-SCORE:    0.00 PKD
ROOT
HETATM    1  C   UNL     1     -10.265   2.651  69.209  1.00  0.00     1.395 C  
HETATM    2  N   UNL     1      -9.415   3.428  70.108  1.00  0.00    -0.178 N  
HETATM    3  C   UNL     1      -9.462   3.049  71.509  1.00  0.00    -0.146 C  
HETATM    4  C   UNL     1      -8.894   4.621  69.597  1.00  0.00    -0.083 C  
HETATM    5  O   UNL     1      -9.152   4.913  68.417  1.00  0.00    -0.106 OA 
ENDROOT
BRANCH   4   6
HETATM    6  C   UNL     1      -7.972   5.595  70.477  1.00  0.00    -0.104 C  
BRANCH   6   7
HETATM    7  C   UNL     1      -7.117   6.406  69.394  1.00  0.00    -0.073 C  
BRANCH   7   8
HETATM    8  C   UNL     1      -7.365   7.922  69.274  1.00  0.00    -0.082 C  
BRANCH   8   9
HETATM    9  N   UNL     1      -8.452   8.326  68.358  1.00  0.00    -0.128 NA 
HETATM   10  C   UNL     1      -9.304   9.422  68.841  1.00  0.00    -0.154 C  
HETATM   11  C   UNL     1      -8.623  10.790  68.788  1.00  0.00    -0.156 C  
HETATM   12  C   UNL     1      -8.177  11.134  67.349  1.00  0.00    -0.132 C  
HETATM   13  H   UNL     1      -7.131  12.555  66.514  1.00  0.00     0.000 HD 
HETATM   14  O   UNL     1      -7.405  12.343  67.399  1.00  0.00    -0.133 OA 
HETATM   15  C   UNL     1      -7.240   9.989  66.905  1.00  0.00    -0.091 C  
HETATM   16  C   UNL     1      -7.932   8.627  67.010  1.00  0.00    -0.096 C  
BRANCH  12  17
HETATM   17  C   UNL     1      -9.321  11.455  66.373  1.00  0.00    -0.219 A  
HETATM   18  C   UNL     1      -9.379  10.872  65.091  1.00  0.00    -0.252 A  
HETATM   19  C   UNL     1     -10.435  11.134  64.211  1.00  0.00    -0.427 A  
HETATM   20  C   UNL     1     -11.471  11.971  64.602  1.00  0.00    -0.308 A  
HETATM   21  C   UNL     1     -11.458  12.546  65.866  1.00  0.00    -0.417 A  
HETATM   22 CL   UNL     1     -12.782  12.273  63.531  1.00  0.00    -0.575 Cl 
HETATM   23  C   UNL     1     -10.399  12.283  66.743  1.00  0.00    -0.238 A  
ENDBRANCH  12  17
ENDBRANCH   8   9
ENDBRANCH   7   8
ENDBRANCH   6   7
BRANCH   6  24
HETATM   24  C   UNL     1      -8.903   6.593  71.247  1.00  0.00    -0.133 A  
HETATM   25  C   UNL     1     -10.304   6.452  71.181  1.00  0.00    -0.244 A  
HETATM   26  C   UNL     1      -8.412   7.650  72.033  1.00  0.00    -0.133 A  
HETATM   27  C   UNL     1     -11.159   7.360  71.819  1.00  0.00    -0.269 A  
HETATM   28  C   UNL     1     -10.638   8.424  72.549  1.00  0.00    -0.368 A  
HETATM   29  C   UNL     1      -9.261   8.563  72.660  1.00  0.00    -0.269 A  
ENDBRANCH   6  24
BRANCH   6  30
HETATM   30  C   UNL     1      -6.978   4.791  71.386  1.00  0.00    -0.047 A  
HETATM   31  C   UNL     1      -5.151   3.188  71.693  1.00  0.00     0.000 A  
HETATM   32  C   UNL     1      -7.112   4.795  72.794  1.00  0.00    -0.078 A  
HETATM   33  C   UNL     1      -5.940   3.999  70.865  1.00  0.00    -0.014 A  
HETATM   34  C   UNL     1      -5.326   3.204  73.071  1.00  0.00     0.000 A  
HETATM   35  C   UNL     1      -6.294   4.029  73.625  1.00  0.00    -0.040 A  
ENDBRANCH   6  30
ENDBRANCH   4   6
TORSDOF 7
ENDMDL
MODEL      155
REMARK 921   NORMALIZED FREE ENERGY PREDICTED BY IDOCK:   -2.98 KCAL/MOL
REMARK 922        TOTAL FREE ENERGY PREDICTED BY IDOCK:   -4.57 KCAL/MOL
REMARK 923 INTER-LIGAND FREE ENERGY PREDICTED BY IDOCK:   -6.75 KCAL/MOL
REMARK 924 INTRA-LIGAND FREE ENERGY PREDICTED BY IDOCK:    2.18 KCAL/MOL
REMARK 927      BINDING AFFINITY PREDICTED BY RF-SCORE:    0.00 PKD
ROOT
HETATM    1  C   UNL     1      -8.652   9.598  69.440  1.00  0.00    -0.158 C  
HETATM    2  N   UNL     1      -8.301  10.387  68.263  1.00  0.00    -0.116 N  
HETATM    3  C   UNL     1      -7.196  11.315  68.429  1.00  0.00    -0.085 C  
HETATM    4  C   UNL     1      -9.231  10.398  67.219  1.00  0.00    -0.142 C  
HETATM    5  O   UNL     1     -10.259   9.711  67.346  1.00  0.00    -0.197 OA 
ENDROOT
BRANCH   4   6
HETATM    6  C   UNL     1      -8.999  11.246  65.877  1.00  0.00    -0.206 C  
BRANCH   6   7
HETATM    7  C   UNL     1      -8.253  12.571  66.378  1.00  0.00     0.338 C  
BRANCH   7   8
HETATM    8  C   UNL     1      -9.124  13.755  66.836  1.00  0.00    -0.242 C  
BRANCH   8   9
HETATM    9  N   UNL     1      -8.582  14.560  67.951  1.00  0.00    -0.153 NA 
HETATM   10  C   UNL     1      -7.122  14.725  67.954  1.00  0.00    -0.158 C  
HETATM   11  C   UNL     1      -6.618  15.696  66.885  1.00  0.00     0.311 C  
HETATM   12  C   UNL     1      -7.255  17.093  67.057  1.00  0.00    -0.184 C  
HETATM   13  H   UNL     1      -7.262  18.759  66.040  1.00  0.00     0.000 HD 
HETATM   14  O   UNL     1      -6.871  17.900  65.934  1.00  0.00    -0.276 OA 
HETATM   15  C   UNL     1      -8.784  16.880  66.990  1.00  0.00    -0.230 C  
HETATM   16  C   UNL     1      -9.254  15.870  68.041  1.00  0.00    -0.192 C  
BRANCH  12  17
HETATM   17  C   UNL     1      -6.762  17.886  68.279  1.00  0.00    -0.205 A  
HETATM   18  C   UNL     1      -5.948  17.291  69.263  1.00  0.00    -0.216 A  
HETATM   19  C   UNL     1      -5.469  18.016  70.360  1.00  0.00    -0.251 A  
HETATM   20  C   UNL     1      -5.776  19.363  70.487  1.00  0.00    -0.228 A  
HETATM   21  C   UNL     1      -6.559  19.990  69.525  1.00  0.00    -0.343 A  
HETATM   22 CL   UNL     1      -5.167  20.261  71.820  1.00  0.00    -0.398 Cl 
HETATM   23  C   UNL     1      -7.038  19.259  68.429  1.00  0.00    -0.328 A  
ENDBRANCH  12  17
ENDBRANCH   8   9
ENDBRANCH   7   8
ENDBRANCH   6   7
BRANCH   6  24
HETATM   24  C   UNL     1      -8.035  10.438  64.943  1.00  0.00    -0.115 A  
HETATM   25  C   UNL     1      -8.283  10.367  63.557  1.00  0.00    -0.135 A  
HETATM   26  C   UNL     1      -6.895   9.764  65.415  1.00  0.00    -0.101 A  
HETATM   27  C   UNL     1      -7.465   9.610  62.708  1.00  0.00    -0.114 A  
HETATM   28  C   UNL     1      -6.373   8.916  63.218  1.00  0.00    -0.090 A  
HETATM   29  C   UNL     1      -6.085   9.000  64.573  1.00  0.00    -0.070 A  
ENDBRANCH   6  24
BRANCH   6  30
HETATM   30  C   UNL     1     -10.356  11.667  65.212  1.00  0.00    -0.316 A  
HETATM   31  C   UNL     1     -11.824  11.890  63.264  1.00  0.00    -0.418 A  
HETATM   32  C   UNL     1     -11.328  12.394  65.936  1.00  0.00    -0.399 A  
HETATM   33  C   UNL     1     -10.664  11.389  63.868  1.00  0.00    -0.462 A  
HETATM   34  C   UNL     1     -12.748  12.618  64.004  1.00  0.00    -0.363 A  
HETATM   35  C   UNL     1     -12.511  12.850  65.351  1.00  0.00    -0.511 A  
ENDBRANCH   6  30
ENDBRANCH   4   6
TORSDOF 7
ENDMDL
MODEL      156
REMARK 921   NORMALIZED FREE ENERGY PREDICTED BY IDOCK:   -2.94 KCAL/MOL
REMARK 922        TOTAL FREE ENERGY PREDICTED BY IDOCK:   -4.51 KCAL/MOL
REMARK 923 INTER-LIGAND FREE ENERGY PREDICTED BY IDOCK:   -4.92 KCAL/MOL
REMARK 924 INTRA-LIGAND FREE ENERGY PREDICTED BY IDOCK:    0.40 KCAL/MOL
REMARK 927      BINDING AFFINITY PREDICTED BY RF-SCORE:    0.00 PKD
ROOT
HETATM    1  C   UNL     1     -12.335  15.890  68.915  1.00  0.00     0.322 C  
HETATM    2  N   UNL     1     -11.642  14.836  68.178  1.00  0.00    -0.321 N  
HETATM    3  C   UNL     1     -12.125  14.581  66.833  1.00  0.00    -0.281 C  
HETATM    4  C   UNL     1     -10.814  13.994  68.927  1.00  0.00    -0.258 C  
HETATM    5  O   UNL     1     -10.694  14.222  70.142  1.00  0.00     0.099 OA 
ENDROOT
BRANCH   4   6
HETATM    6  C   UNL     1     -10.015  12.772  68.262  1.00  0.00    -0.230 C  
BRANCH   6   7
HETATM    7  C   UNL     1     -10.585  12.700  66.769  1.00  0.00    -0.254 C  
BRANCH   7   8
HETATM    8  C   UNL     1      -9.685  12.078  65.685  1.00  0.00    -0.223 C  
BRANCH   8   9
HETATM    9  N   UNL     1      -9.898  10.639  65.419  1.00  0.00    -0.247 NA 
HETATM   10  C   UNL     1      -9.953  10.267  63.998  1.00  0.00    -0.125 C  
HETATM   11  C   UNL     1      -8.587  10.289  63.310  1.00  0.00    -0.194 C  
HETATM   12  C   UNL     1      -7.595   9.336  64.014  1.00  0.00    -0.113 C  
HETATM   13  H   UNL     1      -5.690   8.942  63.858  1.00  0.00     0.000 HD 
HETATM   14  O   UNL     1      -6.299   9.528  63.426  1.00  0.00    -0.095 OA 
HETATM   15  C   UNL     1      -7.524   9.799  65.485  1.00  0.00    -0.115 C  
HETATM   16  C   UNL     1      -8.910   9.811  66.135  1.00  0.00    -0.141 C  
BRANCH  12  17
HETATM   17  C   UNL     1      -7.881   7.838  63.817  1.00  0.00    -0.132 A  
HETATM   18  C   UNL     1      -8.049   7.284  62.532  1.00  0.00    -0.100 A  
HETATM   19  C   UNL     1      -8.277   5.915  62.345  1.00  0.00    -0.101 A  
HETATM   20  C   UNL     1      -8.320   5.064  63.440  1.00  0.00    -0.119 A  
HETATM   21  C   UNL     1      -8.138   5.572  64.720  1.00  0.00    -0.126 A  
HETATM   22 CL   UNL     1      -8.574   3.379  63.209  1.00  0.00    -0.089 Cl 
HETATM   23  C   UNL     1      -7.912   6.942  64.904  1.00  0.00    -0.124 A  
ENDBRANCH  12  17
ENDBRANCH   8   9
ENDBRANCH   7   8
ENDBRANCH   6   7
BRANCH   6  24
HETATM   24  C   UNL     1      -8.494  13.147  68.211  1.00  0.00    -0.161 A  
HETATM   25  C   UNL     1      -8.096  14.461  67.890  1.00  0.00    -0.153 A  
HETATM   26  C   UNL     1      -7.467  12.227  68.484  1.00  0.00    -0.113 A  
HETATM   27  C   UNL     1      -6.743  14.810  67.789  1.00  0.00    -0.193 A  
HETATM   28  C   UNL     1      -5.753  13.860  68.018  1.00  0.00    -0.131 A  
HETATM   29  C   UNL     1      -6.118  12.569  68.373  1.00  0.00    -0.058 A  
ENDBRANCH   6  24
BRANCH   6  30
HETATM   30  C   UNL     1     -10.330  11.412  68.976  1.00  0.00    -0.166 A  
HETATM   31  C   UNL     1     -11.904   9.763  69.876  1.00  0.00    -0.001 A  
HETATM   32  C   UNL     1      -9.300  10.637  69.556  1.00  0.00    -0.008 A  
HETATM   33  C   UNL     1     -11.637  10.912  69.119  1.00  0.00    -0.389 A  
HETATM   34  C   UNL     1     -10.865   9.038  70.447  1.00  0.00    -0.284 A  
HETATM   35  C   UNL     1      -9.557   9.462  70.266  1.00  0.00    -0.294 A  
ENDBRANCH   6  30
ENDBRANCH   4   6
TORSDOF 7
ENDMDL
MODEL      157
REMARK 921   NORMALIZED FREE ENERGY PREDICTED BY IDOCK:   -2.89 KCAL/MOL
REMARK 922        TOTAL FREE ENERGY PREDICTED BY IDOCK:   -4.45 KCAL/MOL
REMARK 923 INTER-LIGAND FREE ENERGY PREDICTED BY IDOCK:   -5.32 KCAL/MOL
REMARK 924 INTRA-LIGAND FREE ENERGY PREDICTED BY IDOCK:    0.87 KCAL/MOL
REMARK 927      BINDING AFFINITY PREDICTED BY RF-SCORE:    0.00 PKD
ROOT
HETATM    1  C   UNL     1      -7.863  10.025  63.290  1.00  0.00    -0.150 C  
HETATM    2  N   UNL     1      -8.528  10.130  64.586  1.00  0.00    -0.164 N  
HETATM    3  C   UNL     1      -9.977  10.031  64.563  1.00  0.00    -0.081 C  
HETATM    4  C   UNL     1      -7.755  10.610  65.647  1.00  0.00    -0.109 C  
HETATM    5  O   UNL     1      -6.560  10.872  65.427  1.00  0.00    -0.016 OA 
ENDROOT
BRANCH   4   6
HETATM    6  C   UNL     1      -8.358  10.811  67.120  1.00  0.00    -0.126 C  
BRANCH   6   7
HETATM    7  C   UNL     1      -8.766   9.333  67.579  1.00  0.00    -0.116 C  
BRANCH   7   8
HETATM    8  C   UNL     1      -8.049   8.149  66.904  1.00  0.00    -0.104 C  
BRANCH   8   9
HETATM    9  N   UNL     1      -7.721   7.008  67.786  1.00  0.00    -0.110 NA 
HETATM   10  C   UNL     1      -7.710   7.310  69.224  1.00  0.00    -0.107 C  
HETATM   11  C   UNL     1      -9.108   7.488  69.818  1.00  0.00    -0.140 C  
HETATM   12  C   UNL     1      -9.968   6.223  69.604  1.00  0.00    -0.165 C  
HETATM   13  H   UNL     1     -11.835   5.738  69.902  1.00  0.00     0.000 HD 
HETATM   14  O   UNL     1     -11.307   6.517  70.034  1.00  0.00    -0.352 OA 
HETATM   15  C   UNL     1     -10.001   5.978  68.080  1.00  0.00    -0.162 C  
HETATM   16  C   UNL     1      -8.587   5.848  67.504  1.00  0.00    -0.102 C  
BRANCH  12  17
HETATM   17  C   UNL     1      -9.557   5.006  70.450  1.00  0.00    -0.260 A  
HETATM   18  C   UNL     1      -8.440   4.218  70.111  1.00  0.00    -0.089 A  
HETATM   19  C   UNL     1      -8.041   3.130  70.896  1.00  0.00    -0.063 A  
HETATM   20  C   UNL     1      -8.740   2.817  72.053  1.00  0.00    -0.073 A  
HETATM   21  C   UNL     1      -9.835   3.585  72.430  1.00  0.00    -0.229 A  
HETATM   22 CL   UNL     1      -8.236   1.496  73.031  1.00  0.00    -0.051 Cl 
HETATM   23  C   UNL     1     -10.232   4.672  71.641  1.00  0.00    -0.233 A  
ENDBRANCH  12  17
ENDBRANCH   8   9
ENDBRANCH   7   8
ENDBRANCH   6   7
BRANCH   6  24
HETATM   24  C   UNL     1      -7.215  11.339  68.053  1.00  0.00    -0.079 A  
HETATM   25  C   UNL     1      -6.991  10.741  69.310  1.00  0.00    -0.102 A  
HETATM   26  C   UNL     1      -6.364  12.401  67.700  1.00  0.00    -0.131 A  
HETATM   27  C   UNL     1      -6.009  11.227  70.184  1.00  0.00    -0.141 A  
HETATM   28  C   UNL     1      -5.218  12.311  69.820  1.00  0.00    -0.078 A  
HETATM   29  C   UNL     1      -5.393  12.894  68.572  1.00  0.00    -0.061 A  
ENDBRANCH   6  24
BRANCH   6  30
HETATM   30  C   UNL     1      -9.652  11.697  67.104  1.00  0.00    -0.185 A  
HETATM   31  C   UNL     1     -10.873  13.719  66.454  1.00  0.00    -0.287 A  
HETATM   32  C   UNL     1     -10.774  11.363  67.896  1.00  0.00    -0.242 A  
HETATM   33  C   UNL     1      -9.757  12.878  66.348  1.00  0.00    -0.263 A  
HETATM   34  C   UNL     1     -11.949  13.366  67.258  1.00  0.00    -0.393 A  
HETATM   35  C   UNL     1     -11.910  12.172  67.963  1.00  0.00    -0.351 A  
ENDBRANCH   6  30
ENDBRANCH   4   6
TORSDOF 7
ENDMDL
MODEL      158
REMARK 921   NORMALIZED FREE ENERGY PREDICTED BY IDOCK:   -2.83 KCAL/MOL
REMARK 922        TOTAL FREE ENERGY PREDICTED BY IDOCK:   -4.37 KCAL/MOL
REMARK 923 INTER-LIGAND FREE ENERGY PREDICTED BY IDOCK:   -5.52 KCAL/MOL
REMARK 924 INTRA-LIGAND FREE ENERGY PREDICTED BY IDOCK:    1.16 KCAL/MOL
REMARK 927      BINDING AFFINITY PREDICTED BY RF-SCORE:    0.00 PKD
ROOT
HETATM    1  C   UNL     1     -11.480   6.251  67.241  1.00  0.00     0.340 C  
HETATM    2  N   UNL     1     -10.767   6.247  68.515  1.00  0.00    -0.261 N  
HETATM    3  C   UNL     1     -11.456   6.877  69.628  1.00  0.00    -0.152 C  
HETATM    4  C   UNL     1      -9.407   5.925  68.468  1.00  0.00    -0.120 C  
HETATM    5  O   UNL     1      -8.916   5.629  67.366  1.00  0.00    -0.110 OA 
ENDROOT
BRANCH   4   6
HETATM    6  C   UNL     1      -8.487   5.913  69.782  1.00  0.00    -0.125 C  
BRANCH   6   7
HETATM    7  C   UNL     1      -7.846   7.379  69.823  1.00  0.00    -0.116 C  
BRANCH   7   8
HETATM    8  C   UNL     1      -8.042   8.282  68.591  1.00  0.00    -0.120 C  
BRANCH   8   9
HETATM    9  N   UNL     1      -8.388   9.691  68.874  1.00  0.00    -0.112 NA 
HETATM   10  C   UNL     1      -7.778  10.680  67.974  1.00  0.00    -0.100 C  
HETATM   11  C   UNL     1      -8.410  10.706  66.582  1.00  0.00    -0.136 C  
HETATM   12  C   UNL     1      -9.923  11.007  66.663  1.00  0.00    -0.209 C  
HETATM   13  H   UNL     1     -11.410  11.039  65.399  1.00  0.00     0.000 HD 
HETATM   14  O   UNL     1     -10.479  10.853  65.348  1.00  0.00    -0.265 OA 
HETATM   15  C   UNL     1     -10.531   9.913  67.568  1.00  0.00    -0.310 C  
HETATM   16  C   UNL     1      -9.850   9.880  68.939  1.00  0.00    -0.176 C  
BRANCH  12  17
HETATM   17  C   UNL     1     -10.279  12.450  67.059  1.00  0.00    -0.232 A  
HETATM   18  C   UNL     1      -9.300  13.344  67.535  1.00  0.00    -0.218 A  
HETATM   19  C   UNL     1      -9.611  14.669  67.865  1.00  0.00    -0.212 A  
HETATM   20  C   UNL     1     -10.908  15.136  67.704  1.00  0.00    -0.295 A  
HETATM   21  C   UNL     1     -11.895  14.289  67.216  1.00  0.00    -0.444 A  
HETATM   22 CL   UNL     1     -11.286  16.769  68.084  1.00  0.00    -0.256 Cl 
HETATM   23  C   UNL     1     -11.580  12.963  66.889  1.00  0.00    -0.425 A  
ENDBRANCH  12  17
ENDBRANCH   8   9
ENDBRANCH   7   8
ENDBRANCH   6   7
BRANCH   6  24
HETATM   24  C   UNL     1      -9.414   5.724  71.031  1.00  0.00    -0.195 A  
HETATM   25  C   UNL     1      -9.651   6.802  71.909  1.00  0.00    -0.150 A  
HETATM   26  C   UNL     1     -10.052   4.510  71.337  1.00  0.00    -0.230 A  
HETATM   27  C   UNL     1     -10.434   6.646  73.060  1.00  0.00    -0.268 A  
HETATM   28  C   UNL     1     -11.012   5.415  73.357  1.00  0.00    -0.349 A  
HETATM   29  C   UNL     1     -10.824   4.348  72.489  1.00  0.00    -0.105 A  
ENDBRANCH   6  24
BRANCH   6  30
HETATM   30  C   UNL     1      -7.322   4.869  69.666  1.00  0.00    -0.056 A  
HETATM   31  C   UNL     1      -6.304   2.875  68.671  1.00  0.00    -0.029 A  
HETATM   32  C   UNL     1      -6.261   4.854  70.601  1.00  0.00    -0.019 A  
HETATM   33  C   UNL     1      -7.285   3.875  68.672  1.00  0.00    -0.054 A  
HETATM   34  C   UNL     1      -5.287   2.883  69.619  1.00  0.00    -0.012 A  
HETATM   35  C   UNL     1      -5.252   3.890  70.571  1.00  0.00    -0.004 A  
ENDBRANCH   6  30
ENDBRANCH   4   6
TORSDOF 7
ENDMDL
MODEL      159
REMARK 921   NORMALIZED FREE ENERGY PREDICTED BY IDOCK:   -2.77 KCAL/MOL
REMARK 922        TOTAL FREE ENERGY PREDICTED BY IDOCK:   -4.28 KCAL/MOL
REMARK 923 INTER-LIGAND FREE ENERGY PREDICTED BY IDOCK:   -5.76 KCAL/MOL
REMARK 924 INTRA-LIGAND FREE ENERGY PREDICTED BY IDOCK:    1.48 KCAL/MOL
REMARK 927      BINDING AFFINITY PREDICTED BY RF-SCORE:    0.00 PKD
ROOT
HETATM    1  C   UNL     1     -13.037  13.757  65.562  1.00  0.00    -0.158 C  
HETATM    2  N   UNL     1     -11.830  13.253  66.210  1.00  0.00    -0.375 N  
HETATM    3  C   UNL     1     -11.491  13.865  67.483  1.00  0.00    -0.340 C  
HETATM    4  C   UNL     1     -10.976  12.476  65.421  1.00  0.00    -0.294 C  
HETATM    5  O   UNL     1     -11.320  12.236  64.251  1.00  0.00    -0.313 OA 
ENDROOT
BRANCH   4   6
HETATM    6  C   UNL     1      -9.597  11.881  65.985  1.00  0.00    -0.251 C  
BRANCH   6   7
HETATM    7  C   UNL     1     -10.053  10.850  67.121  1.00  0.00    -0.235 C  
BRANCH   7   8
HETATM    8  C   UNL     1     -10.295   9.387  66.707  1.00  0.00    -0.233 C  
BRANCH   8   9
HETATM    9  N   UNL     1     -10.498   8.429  67.815  1.00  0.00    -0.236 NA 
HETATM   10  C   UNL     1      -9.381   7.506  68.058  1.00  0.00    -0.139 C  
HETATM   11  C   UNL     1      -8.178   8.170  68.728  1.00  0.00    -0.125 C  
HETATM   12  C   UNL     1      -8.574   8.804  70.080  1.00  0.00    -0.146 C  
HETATM   13  H   UNL     1      -7.692   9.936  71.403  1.00  0.00     0.000 HD 
HETATM   14  O   UNL     1      -7.448   9.546  70.571  1.00  0.00    -0.130 OA 
HETATM   15  C   UNL     1      -9.707   9.807  69.769  1.00  0.00    -0.256 C  
HETATM   16  C   UNL     1     -10.879   9.124  69.059  1.00  0.00    -0.090 C  
BRANCH  12  17
HETATM   17  C   UNL     1      -8.885   7.800  71.203  1.00  0.00    -0.143 A  
HETATM   18  C   UNL     1      -9.770   8.119  72.251  1.00  0.00    -0.322 A  
HETATM   19  C   UNL     1     -10.082   7.198  73.258  1.00  0.00    -0.318 A  
HETATM   20  C   UNL     1      -9.531   5.924  73.226  1.00  0.00    -0.142 A  
HETATM   21  C   UNL     1      -8.671   5.567  72.195  1.00  0.00    -0.130 A  
HETATM   22 CL   UNL     1      -9.935   4.783  74.447  1.00  0.00    -0.199 Cl 
HETATM   23  C   UNL     1      -8.360   6.492  71.191  1.00  0.00    -0.122 A  
ENDBRANCH  12  17
ENDBRANCH   8   9
ENDBRANCH   7   8
ENDBRANCH   6   7
BRANCH   6  24
HETATM   24  C   UNL     1      -8.891  11.092  64.830  1.00  0.00    -0.066 A  
HETATM   25  C   UNL     1      -9.201  11.374  63.484  1.00  0.00    -0.106 A  
HETATM   26  C   UNL     1      -7.930  10.092  65.059  1.00  0.00    -0.146 A  
HETATM   27  C   UNL     1      -8.621  10.648  62.435  1.00  0.00    -0.294 A  
HETATM   28  C   UNL     1      -7.709   9.632  62.702  1.00  0.00    -0.117 A  
HETATM   29  C   UNL     1      -7.359   9.360  64.017  1.00  0.00    -0.105 A  
ENDBRANCH   6  24
BRANCH   6  30
HETATM   30  C   UNL     1      -8.715  12.993  66.653  1.00  0.00    -0.030 A  
HETATM   31  C   UNL     1      -7.203  13.776  68.415  1.00  0.00    -0.108 A  
HETATM   32  C   UNL     1      -8.756  14.330  66.196  1.00  0.00     0.442 A  
HETATM   33  C   UNL     1      -7.878  12.740  67.755  1.00  0.00    -0.156 A  
HETATM   34  C   UNL     1      -7.284  15.082  67.946  1.00  0.00    -0.162 A  
HETATM   35  C   UNL     1      -8.043  15.356  66.819  1.00  0.00    -0.212 A  
ENDBRANCH   6  30
ENDBRANCH   4   6
TORSDOF 7
ENDMDL
MODEL      160
REMARK 921   NORMALIZED FREE ENERGY PREDICTED BY IDOCK:   -2.75 KCAL/MOL
REMARK 922        TOTAL FREE ENERGY PREDICTED BY IDOCK:   -4.26 KCAL/MOL
REMARK 923 INTER-LIGAND FREE ENERGY PREDICTED BY IDOCK:   -4.97 KCAL/MOL
REMARK 924 INTRA-LIGAND FREE ENERGY PREDICTED BY IDOCK:    0.71 KCAL/MOL
REMARK 927      BINDING AFFINITY PREDICTED BY RF-SCORE:    0.00 PKD
ROOT
HETATM    1  C   UNL     1     -10.493  10.762  64.464  1.00  0.00    -0.281 C  
HETATM    2  N   UNL     1     -10.225  10.705  65.898  1.00  0.00    -0.256 N  
HETATM    3  C   UNL     1     -10.813   9.582  66.608  1.00  0.00     0.088 C  
HETATM    4  C   UNL     1      -9.707  11.865  66.482  1.00  0.00    -0.210 C  
HETATM    5  O   UNL     1      -9.474  12.837  65.744  1.00  0.00    -0.154 OA 
ENDROOT
BRANCH   4   6
HETATM    6  C   UNL     1      -9.394  11.963  68.053  1.00  0.00    -0.193 C  
BRANCH   6   7
HETATM    7  C   UNL     1      -8.116  11.021  68.255  1.00  0.00    -0.128 C  
BRANCH   7   8
HETATM    8  C   UNL     1      -7.973   9.797  67.331  1.00  0.00    -0.102 C  
BRANCH   8   9
HETATM    9  N   UNL     1      -7.331   8.609  67.932  1.00  0.00    -0.091 NA 
HETATM   10  C   UNL     1      -8.018   8.050  69.105  1.00  0.00    -0.114 C  
HETATM   11  C   UNL     1      -9.302   7.297  68.754  1.00  0.00    -0.143 C  
HETATM   12  C   UNL     1      -9.017   6.138  67.773  1.00  0.00    -0.115 C  
HETATM   13  H   UNL     1     -10.099   4.870  66.758  1.00  0.00     0.000 HD 
HETATM   14  O   UNL     1     -10.275   5.583  67.361  1.00  0.00    -0.172 OA 
HETATM   15  C   UNL     1      -8.350   6.776  66.535  1.00  0.00    -0.121 C  
HETATM   16  C   UNL     1      -7.092   7.561  66.921  1.00  0.00    -0.084 C  
BRANCH  12  17
HETATM   17  C   UNL     1      -8.257   4.945  68.378  1.00  0.00    -0.084 A  
HETATM   18  C   UNL     1      -7.571   4.021  67.566  1.00  0.00    -0.068 A  
HETATM   19  C   UNL     1      -6.850   2.953  68.113  1.00  0.00    -0.048 A  
HETATM   20  C   UNL     1      -6.782   2.797  69.490  1.00  0.00    -0.034 A  
HETATM   21  C   UNL     1      -7.428   3.701  70.323  1.00  0.00    -0.041 A  
HETATM   22 CL   UNL     1      -5.875   1.500  70.164  1.00  0.00    -0.017 Cl 
HETATM   23  C   UNL     1      -8.149   4.768  69.772  1.00  0.00    -0.069 A  
ENDBRANCH  12  17
ENDBRANCH   8   9
ENDBRANCH   7   8
ENDBRANCH   6   7
BRANCH   6  24
HETATM   24  C   UNL     1      -8.998  13.442  68.385  1.00  0.00    -0.136 A  
HETATM   25  C   UNL     1      -7.641  13.802  68.515  1.00  0.00    -0.134 A  
HETATM   26  C   UNL     1      -9.941  14.469  68.560  1.00  0.00    -0.238 A  
HETATM   27  C   UNL     1      -7.262  15.106  68.861  1.00  0.00    -0.133 A  
HETATM   28  C   UNL     1      -8.227  16.086  69.073  1.00  0.00    -0.235 A  
HETATM   29  C   UNL     1      -9.568  15.766  68.916  1.00  0.00    -0.229 A  
ENDBRANCH   6  24
BRANCH   6  30
HETATM   30  C   UNL     1     -10.570  11.389  68.918  1.00  0.00    -0.234 A  
HETATM   31  C   UNL     1     -12.887  11.440  69.711  1.00  0.00     0.267 A  
HETATM   32  C   UNL     1     -10.345  10.366  69.867  1.00  0.00    -0.231 A  
HETATM   33  C   UNL     1     -11.886  11.878  68.834  1.00  0.00    -0.366 A  
HETATM   34  C   UNL     1     -12.622  10.445  70.644  1.00  0.00    -0.435 A  
HETATM   35  C   UNL     1     -11.354   9.889  70.706  1.00  0.00    -0.430 A  
ENDBRANCH   6  30
ENDBRANCH   4   6
TORSDOF 7
ENDMDL
MODEL      161
REMARK 921   NORMALIZED FREE ENERGY PREDICTED BY IDOCK:   -2.68 KCAL/MOL
REMARK 922        TOTAL FREE ENERGY PREDICTED BY IDOCK:   -4.15 KCAL/MOL
REMARK 923 INTER-LIGAND FREE ENERGY PREDICTED BY IDOCK:   -4.53 KCAL/MOL
REMARK 924 INTRA-LIGAND FREE ENERGY PREDICTED BY IDOCK:    0.37 KCAL/MOL
REMARK 927      BINDING AFFINITY PREDICTED BY RF-SCORE:    0.00 PKD
ROOT
HETATM    1  C   UNL     1      -5.341   4.462  71.384  1.00  0.00     0.000 C  
HETATM    2  N   UNL     1      -6.786   4.419  71.178  1.00  0.00    -0.034 N  
HETATM    3  C   UNL     1      -7.373   3.095  71.079  1.00  0.00    -0.033 C  
HETATM    4  C   UNL     1      -7.397   5.618  70.796  1.00  0.00    -0.084 C  
HETATM    5  O   UNL     1      -6.685   6.632  70.701  1.00  0.00    -0.054 OA 
ENDROOT
BRANCH   4   6
HETATM    6  C   UNL     1      -8.971   5.717  70.501  1.00  0.00    -0.152 C  
BRANCH   6   7
HETATM    7  C   UNL     1      -9.319   7.258  70.758  1.00  0.00    -0.160 C  
BRANCH   7   8
HETATM    8  C   UNL     1      -9.364   8.197  69.539  1.00  0.00    -0.155 C  
BRANCH   8   9
HETATM    9  N   UNL     1      -9.075   9.621  69.811  1.00  0.00    -0.200 NA 
HETATM   10  C   UNL     1      -7.761  10.093  69.353  1.00  0.00    -0.138 C  
HETATM   11  C   UNL     1      -7.672  10.267  67.836  1.00  0.00    -0.089 C  
HETATM   12  C   UNL     1      -8.739  11.263  67.327  1.00  0.00    -0.145 C  
HETATM   13  H   UNL     1      -9.365  11.866  65.580  1.00  0.00     0.000 HD 
HETATM   14  O   UNL     1      -8.709  11.253  65.892  1.00  0.00    -0.193 OA 
HETATM   15  C   UNL     1     -10.104  10.699  67.779  1.00  0.00    -0.203 C  
HETATM   16  C   UNL     1     -10.149  10.493  69.296  1.00  0.00    -0.224 C  
BRANCH  12  17
HETATM   17  C   UNL     1      -8.486  12.733  67.701  1.00  0.00    -0.178 A  
HETATM   18  C   UNL     1      -7.277  13.378  67.376  1.00  0.00    -0.116 A  
HETATM   19  C   UNL     1      -7.054  14.725  67.684  1.00  0.00    -0.206 A  
HETATM   20  C   UNL     1      -8.048  15.466  68.307  1.00  0.00    -0.136 A  
HETATM   21  C   UNL     1      -9.262  14.870  68.624  1.00  0.00    -0.193 A  
HETATM   22 CL   UNL     1      -7.785  17.128  68.662  1.00  0.00    -0.251 Cl 
HETATM   23  C   UNL     1      -9.480  13.521  68.315  1.00  0.00    -0.212 A  
ENDBRANCH  12  17
ENDBRANCH   8   9
ENDBRANCH   7   8
ENDBRANCH   6   7
BRANCH   6  24
HETATM   24  C   UNL     1      -9.211   5.384  68.989  1.00  0.00    -0.149 A  
HETATM   25  C   UNL     1     -10.523   5.237  68.493  1.00  0.00    -0.147 A  
HETATM   26  C   UNL     1      -8.166   5.226  68.062  1.00  0.00    -0.098 A  
HETATM   27  C   UNL     1     -10.763   4.890  67.158  1.00  0.00     0.120 A  
HETATM   28  C   UNL     1      -9.702   4.693  66.280  1.00  0.00    -0.212 A  
HETATM   29  C   UNL     1      -8.402   4.868  66.733  1.00  0.00    -0.107 A  
ENDBRANCH   6  24
BRANCH   6  30
HETATM   30  C   UNL     1      -9.807   4.849  71.504  1.00  0.00    -0.247 A  
HETATM   31  C   UNL     1     -10.897   4.509  73.672  1.00  0.00    -0.371 A  
HETATM   32  C   UNL     1     -10.103   3.495  71.226  1.00  0.00     0.006 A  
HETATM   33  C   UNL     1     -10.267   5.343  72.738  1.00  0.00    -0.222 A  
HETATM   34  C   UNL     1     -11.153   3.177  73.369  1.00  0.00    -0.283 A  
HETATM   35  C   UNL     1     -10.777   2.675  72.132  1.00  0.00     0.335 A  
ENDBRANCH   6  30
ENDBRANCH   4   6
TORSDOF 7
ENDMDL
MODEL      162
REMARK 921   NORMALIZED FREE ENERGY PREDICTED BY IDOCK:   -2.68 KCAL/MOL
REMARK 922        TOTAL FREE ENERGY PREDICTED BY IDOCK:   -4.15 KCAL/MOL
REMARK 923 INTER-LIGAND FREE ENERGY PREDICTED BY IDOCK:   -6.00 KCAL/MOL
REMARK 924 INTRA-LIGAND FREE ENERGY PREDICTED BY IDOCK:    1.84 KCAL/MOL
REMARK 927      BINDING AFFINITY PREDICTED BY RF-SCORE:    0.00 PKD
ROOT
HETATM    1  C   UNL     1      -5.635   9.165  73.499  1.00  0.00    -0.058 C  
HETATM    2  N   UNL     1      -6.203   8.842  72.194  1.00  0.00    -0.073 N  
HETATM    3  C   UNL     1      -5.392   9.201  71.044  1.00  0.00    -0.033 C  
HETATM    4  C   UNL     1      -7.563   8.515  72.170  1.00  0.00    -0.077 C  
HETATM    5  O   UNL     1      -8.174   8.480  73.250  1.00  0.00    -0.374 OA 
ENDROOT
BRANCH   4   6
HETATM    6  C   UNL     1      -8.333   8.170  70.805  1.00  0.00    -0.120 C  
BRANCH   6   7
HETATM    7  C   UNL     1      -8.511   9.590  70.089  1.00  0.00    -0.227 C  
BRANCH   7   8
HETATM    8  C   UNL     1      -7.430  10.027  69.084  1.00  0.00    -0.092 C  
BRANCH   8   9
HETATM    9  N   UNL     1      -7.845  11.043  68.092  1.00  0.00    -0.110 NA 
HETATM   10  C   UNL     1      -8.569  10.520  66.925  1.00  0.00    -0.125 C  
HETATM   11  C   UNL     1     -10.006  10.103  67.239  1.00  0.00    -0.241 C  
HETATM   12  C   UNL     1     -10.817  11.287  67.812  1.00  0.00    -0.235 C  
HETATM   13  H   UNL     1     -12.594  11.517  68.587  1.00  0.00     0.000 HD 
HETATM   14  O   UNL     1     -12.095  10.789  68.235  1.00  0.00    -0.496 OA 
HETATM   15  C   UNL     1     -10.053  11.765  69.066  1.00  0.00    -0.004 C  
HETATM   16  C   UNL     1      -8.605  12.134  68.731  1.00  0.00     0.105 C  
BRANCH  12  17
HETATM   17  C   UNL     1     -11.159  12.392  66.798  1.00  0.00    -0.333 A  
HETATM   18  C   UNL     1     -10.766  12.298  65.448  1.00  0.00    -0.320 A  
HETATM   19  C   UNL     1     -11.103  13.284  64.513  1.00  0.00    -0.392 A  
HETATM   20  C   UNL     1     -11.861  14.379  64.904  1.00  0.00    -0.417 A  
HETATM   21  C   UNL     1     -12.285  14.494  66.222  1.00  0.00    -0.270 A  
HETATM   22 CL   UNL     1     -12.297  15.577  63.751  1.00  0.00     0.180 Cl 
HETATM   23  C   UNL     1     -11.944  13.506  67.154  1.00  0.00    -0.426 A  
ENDBRANCH  12  17
ENDBRANCH   8   9
ENDBRANCH   7   8
ENDBRANCH   6   7
BRANCH   6  24
HETATM   24  C   UNL     1      -7.401   7.267  69.927  1.00  0.00    -0.084 A  
HETATM   25  C   UNL     1      -6.503   6.368  70.537  1.00  0.00    -0.044 A  
HETATM   26  C   UNL     1      -7.411   7.291  68.521  1.00  0.00    -0.100 A  
HETATM   27  C   UNL     1      -5.624   5.586  69.776  1.00  0.00    -0.008 A  
HETATM   28  C   UNL     1      -5.628   5.672  68.388  1.00  0.00    -0.008 A  
HETATM   29  C   UNL     1      -6.528   6.522  67.761  1.00  0.00    -0.052 A  
ENDBRANCH   6  24
BRANCH   6  30
HETATM   30  C   UNL     1      -9.758   7.573  71.076  1.00  0.00    -0.170 A  
HETATM   31  C   UNL     1     -12.177   7.817  71.374  1.00  0.00    -0.343 A  
HETATM   32  C   UNL     1      -9.921   6.222  71.459  1.00  0.00    -0.208 A  
HETATM   33  C   UNL     1     -10.933   8.341  70.999  1.00  0.00    -0.280 A  
HETATM   34  C   UNL     1     -12.295   6.488  71.764  1.00  0.00    -0.340 A  
HETATM   35  C   UNL     1     -11.167   5.682  71.783  1.00  0.00    -0.226 A  
ENDBRANCH   6  30
ENDBRANCH   4   6
TORSDOF 7
ENDMDL
MODEL      163
REMARK 921   NORMALIZED FREE ENERGY PREDICTED BY IDOCK:   -2.48 KCAL/MOL
REMARK 922        TOTAL FREE ENERGY PREDICTED BY IDOCK:   -3.87 KCAL/MOL
REMARK 923 INTER-LIGAND FREE ENERGY PREDICTED BY IDOCK:   -4.86 KCAL/MOL
REMARK 924 INTRA-LIGAND FREE ENERGY PREDICTED BY IDOCK:    0.99 KCAL/MOL
REMARK 927      BINDING AFFINITY PREDICTED BY RF-SCORE:    0.00 PKD
ROOT
HETATM    1  C   UNL     1     -11.614   9.109  70.351  1.00  0.00    -0.146 C  
HETATM    2  N   UNL     1     -10.388   9.053  69.560  1.00  0.00    -0.204 N  
HETATM    3  C   UNL     1      -9.732   7.758  69.499  1.00  0.00    -0.165 C  
HETATM    4  C   UNL     1      -9.816  10.279  69.208  1.00  0.00    -0.228 C  
HETATM    5  O   UNL     1     -10.405  11.318  69.552  1.00  0.00    -0.088 OA 
ENDROOT
BRANCH   4   6
HETATM    6  C   UNL     1      -8.451  10.376  68.370  1.00  0.00    -0.124 C  
BRANCH   6   7
HETATM    7  C   UNL     1      -8.631  11.696  67.484  1.00  0.00    -0.149 C  
BRANCH   7   8
HETATM    8  C   UNL     1      -9.540  12.811  68.032  1.00  0.00    -0.217 C  
BRANCH   8   9
HETATM    9  N   UNL     1      -8.853  13.917  68.732  1.00  0.00    -0.063 NA 
HETATM   10  C   UNL     1      -7.521  14.257  68.211  1.00  0.00    -0.125 C  
HETATM   11  C   UNL     1      -7.564  15.001  66.875  1.00  0.00     0.076 C  
HETATM   12  C   UNL     1      -8.377  16.310  66.994  1.00  0.00    -0.205 C  
HETATM   13  H   UNL     1      -9.014  17.675  65.752  1.00  0.00     0.000 HD 
HETATM   14  O   UNL     1      -8.515  16.870  65.679  1.00  0.00    -0.414 OA 
HETATM   15  C   UNL     1      -9.782  15.900  67.487  1.00  0.00    -0.223 C  
HETATM   16  C   UNL     1      -9.706  15.118  68.802  1.00  0.00    -0.221 C  
BRANCH  12  17
HETATM   17  C   UNL     1      -7.700  17.424  67.810  1.00  0.00    -0.200 A  
HETATM   18  C   UNL     1      -8.439  18.499  68.342  1.00  0.00    -0.352 A  
HETATM   19  C   UNL     1      -7.835  19.498  69.114  1.00  0.00    -0.241 A  
HETATM   20  C   UNL     1      -6.476  19.433  69.390  1.00  0.00    -0.322 A  
HETATM   21  C   UNL     1      -5.719  18.376  68.901  1.00  0.00    -0.207 A  
HETATM   22 CL   UNL     1      -5.738  20.646  70.360  1.00  0.00    -0.313 Cl 
HETATM   23  C   UNL     1      -6.328  17.379  68.127  1.00  0.00    -0.167 A  
ENDBRANCH  12  17
ENDBRANCH   8   9
ENDBRANCH   7   8
ENDBRANCH   6   7
BRANCH   6  24
HETATM   24  C   UNL     1      -7.269  10.591  69.376  1.00  0.00    -0.117 A  
HETATM   25  C   UNL     1      -7.256   9.915  70.613  1.00  0.00    -0.035 A  
HETATM   26  C   UNL     1      -6.179  11.437  69.109  1.00  0.00    -0.064 A  
HETATM   27  C   UNL     1      -6.237  10.129  71.551  1.00  0.00     0.359 A  
HETATM   28  C   UNL     1      -5.199  11.012  71.272  1.00  0.00    -0.071 A  
HETATM   29  C   UNL     1      -5.168  11.661  70.045  1.00  0.00    -0.079 A  
ENDBRANCH   6  24
BRANCH   6  30
HETATM   30  C   UNL     1      -8.275   9.153  67.403  1.00  0.00    -0.107 A  
HETATM   31  C   UNL     1      -7.034   7.197  66.606  1.00  0.00    -0.077 A  
HETATM   32  C   UNL     1      -9.127   8.975  66.290  1.00  0.00    -0.224 A  
HETATM   33  C   UNL     1      -7.250   8.202  67.557  1.00  0.00    -0.091 A  
HETATM   34  C   UNL     1      -7.883   7.066  65.513  1.00  0.00    -0.115 A  
HETATM   35  C   UNL     1      -8.947   7.942  65.368  1.00  0.00     0.056 A  
ENDBRANCH   6  30
ENDBRANCH   4   6
TORSDOF 7
ENDMDL
MODEL      164
REMARK 921   NORMALIZED FREE ENERGY PREDICTED BY IDOCK:   -2.44 KCAL/MOL
REMARK 922        TOTAL FREE ENERGY PREDICTED BY IDOCK:   -3.82 KCAL/MOL
REMARK 923 INTER-LIGAND FREE ENERGY PREDICTED BY IDOCK:   -5.65 KCAL/MOL
REMARK 924 INTRA-LIGAND FREE ENERGY PREDICTED BY IDOCK:    1.83 KCAL/MOL
REMARK 927      BINDING AFFINITY PREDICTED BY RF-SCORE:    0.00 PKD
ROOT
HETATM    1  C   UNL     1      -5.126  12.064  70.046  1.00  0.00    -0.081 C  
HETATM    2  N   UNL     1      -6.515  11.947  69.612  1.00  0.00    -0.120 N  
HETATM    3  C   UNL     1      -7.406  13.007  70.049  1.00  0.00     1.307 C  
HETATM    4  C   UNL     1      -6.905  10.706  69.098  1.00  0.00    -0.079 C  
HETATM    5  O   UNL     1      -6.045   9.814  69.008  1.00  0.00    -0.041 OA 
ENDROOT
BRANCH   4   6
HETATM    6  C   UNL     1      -8.407  10.417  68.613  1.00  0.00    -0.127 C  
BRANCH   6   7
HETATM    7  C   UNL     1      -9.000  11.870  68.297  1.00  0.00    -0.178 C  
BRANCH   7   8
HETATM    8  C   UNL     1      -9.232  12.245  66.821  1.00  0.00    -0.210 C  
BRANCH   8   9
HETATM    9  N   UNL     1      -9.062  13.675  66.487  1.00  0.00    -0.176 NA 
HETATM   10  C   UNL     1     -10.280  14.363  66.036  1.00  0.00    -0.315 C  
HETATM   11  C   UNL     1     -11.270  14.648  67.167  1.00  0.00    -0.349 C  
HETATM   12  C   UNL     1     -10.619  15.509  68.272  1.00  0.00    -0.255 C  
HETATM   13  H   UNL     1     -11.141  16.128  70.048  1.00  0.00     0.000 HD 
HETATM   14  O   UNL     1     -11.541  15.598  69.369  1.00  0.00    -0.321 OA 
HETATM   15  C   UNL     1      -9.380  14.724  68.755  1.00  0.00    -0.198 C  
HETATM   16  C   UNL     1      -8.428  14.413  67.596  1.00  0.00    -0.185 C  
BRANCH  12  17
HETATM   17  C   UNL     1     -10.350  16.973  67.883  1.00  0.00    -0.338 A  
HETATM   18  C   UNL     1     -10.680  17.466  66.606  1.00  0.00    -0.084 A  
HETATM   19  C   UNL     1     -10.469  18.805  66.257  1.00  0.00    -0.489 A  
HETATM   20  C   UNL     1      -9.941  19.689  67.188  1.00  0.00    -0.387 A  
HETATM   21  C   UNL     1      -9.624  19.242  68.465  1.00  0.00    -0.465 A  
HETATM   22 CL   UNL     1      -9.705  21.339  66.769  1.00  0.00     0.399 Cl 
HETATM   23  C   UNL     1      -9.835  17.901  68.809  1.00  0.00    -0.354 A  
ENDBRANCH  12  17
ENDBRANCH   8   9
ENDBRANCH   7   8
ENDBRANCH   6   7
BRANCH   6  24
HETATM   24  C   UNL     1      -8.345   9.590  67.283  1.00  0.00    -0.125 A  
HETATM   25  C   UNL     1      -7.346   9.857  66.325  1.00  0.00    -0.102 A  
HETATM   26  C   UNL     1      -9.248   8.555  66.980  1.00  0.00    -0.187 A  
HETATM   27  C   UNL     1      -7.300   9.167  65.107  1.00  0.00    -0.096 A  
HETATM   28  C   UNL     1      -8.240   8.182  64.821  1.00  0.00    -0.137 A  
HETATM   29  C   UNL     1      -9.211   7.873  65.763  1.00  0.00    -0.033 A  
ENDBRANCH   6  24
BRANCH   6  30
HETATM   30  C   UNL     1      -9.271   9.768  69.749  1.00  0.00    -0.248 A  
HETATM   31  C   UNL     1     -11.326   9.615  71.075  1.00  0.00    -0.444 A  
HETATM   32  C   UNL     1      -8.713   8.825  70.642  1.00  0.00    -0.208 A  
HETATM   33  C   UNL     1     -10.617  10.111  69.973  1.00  0.00    -0.338 A  
HETATM   34  C   UNL     1     -10.736   8.704  71.942  1.00  0.00    -0.414 A  
HETATM   35  C   UNL     1      -9.433   8.289  71.710  1.00  0.00    -0.274 A  
ENDBRANCH   6  30
ENDBRANCH   4   6
TORSDOF 7
ENDMDL
MODEL      165
REMARK 921   NORMALIZED FREE ENERGY PREDICTED BY IDOCK:   -2.33 KCAL/MOL
REMARK 922        TOTAL FREE ENERGY PREDICTED BY IDOCK:   -3.66 KCAL/MOL
REMARK 923 INTER-LIGAND FREE ENERGY PREDICTED BY IDOCK:   -4.61 KCAL/MOL
REMARK 924 INTRA-LIGAND FREE ENERGY PREDICTED BY IDOCK:    0.95 KCAL/MOL
REMARK 927      BINDING AFFINITY PREDICTED BY RF-SCORE:    0.00 PKD
ROOT
HETATM    1  C   UNL     1      -6.278  19.716  70.465  1.00  0.00    -0.151 C  
HETATM    2  N   UNL     1      -6.852  19.524  69.136  1.00  0.00    -0.336 N  
HETATM    3  C   UNL     1      -7.843  20.503  68.727  1.00  0.00     0.525 C  
HETATM    4  C   UNL     1      -6.628  18.281  68.534  1.00  0.00    -0.222 C  
HETATM    5  O   UNL     1      -5.931  17.454  69.145  1.00  0.00    -0.186 OA 
ENDROOT
BRANCH   4   6
HETATM    6  C   UNL     1      -7.225  17.913  67.091  1.00  0.00    -0.206 C  
BRANCH   6   7
HETATM    7  C   UNL     1      -6.882  16.360  66.914  1.00  0.00    -0.231 C  
BRANCH   7   8
HETATM    8  C   UNL     1      -8.033  15.348  67.068  1.00  0.00    -0.224 C  
BRANCH   8   9
HETATM    9  N   UNL     1      -7.860  14.333  68.129  1.00  0.00    -0.127 NA 
HETATM   10  C   UNL     1      -9.078  14.000  68.883  1.00  0.00     0.050 C  
HETATM   11  C   UNL     1     -10.067  13.143  68.092  1.00  0.00    -0.237 C  
HETATM   12  C   UNL     1      -9.414  11.819  67.634  1.00  0.00    -0.180 C  
HETATM   13  H   UNL     1      -9.934  10.330  66.485  1.00  0.00     0.000 HD 
HETATM   14  O   UNL     1     -10.336  11.144  66.765  1.00  0.00    -0.223 OA 
HETATM   15  C   UNL     1      -8.176  12.216  66.800  1.00  0.00    -0.085 C  
HETATM   16  C   UNL     1      -7.225  13.111  67.601  1.00  0.00    -0.159 C  
BRANCH  12  17
HETATM   17  C   UNL     1      -9.142  10.806  68.759  1.00  0.00    -0.180 A  
HETATM   18  C   UNL     1      -7.850  10.294  68.992  1.00  0.00    -0.114 A  
HETATM   19  C   UNL     1      -7.590   9.397  70.035  1.00  0.00    -0.113 A  
HETATM   20  C   UNL     1      -8.616   9.007  70.884  1.00  0.00    -0.215 A  
HETATM   21  C   UNL     1      -9.898   9.508  70.698  1.00  0.00    -0.328 A  
HETATM   22 CL   UNL     1      -8.292   7.926  72.181  1.00  0.00    -0.151 Cl 
HETATM   23  C   UNL     1     -10.154  10.404  69.652  1.00  0.00    -0.226 A  
ENDBRANCH  12  17
ENDBRANCH   8   9
ENDBRANCH   7   8
ENDBRANCH   6   7
BRANCH   6  24
HETATM   24  C   UNL     1      -8.781  18.091  67.140  1.00  0.00    -0.247 A  
HETATM   25  C   UNL     1      -9.411  19.060  66.333  1.00  0.00    -0.358 A  
HETATM   26  C   UNL     1      -9.618  17.314  67.960  1.00  0.00    -0.274 A  
HETATM   27  C   UNL     1     -10.794  19.275  66.395  1.00  0.00    -0.375 A  
HETATM   28  C   UNL     1     -11.585  18.519  67.254  1.00  0.00     1.312 A  
HETATM   29  C   UNL     1     -10.994  17.533  68.032  1.00  0.00    -0.138 A  
ENDBRANCH   6  24
BRANCH   6  30
HETATM   30  C   UNL     1      -6.510  18.709  65.945  1.00  0.00    -0.278 A  
HETATM   31  C   UNL     1      -6.095  20.769  64.685  1.00  0.00    -0.326 A  
HETATM   32  C   UNL     1      -5.728  18.044  64.972  1.00  0.00     0.042 A  
HETATM   33  C   UNL     1      -6.635  20.102  65.792  1.00  0.00    -0.269 A  
HETATM   34  C   UNL     1      -5.348  20.076  63.739  1.00  0.00    -0.254 A  
HETATM   35  C   UNL     1      -5.144  18.714  63.896  1.00  0.00    -0.132 A  
ENDBRANCH   6  30
ENDBRANCH   4   6
TORSDOF 7
ENDMDL
MODEL      166
REMARK 921   NORMALIZED FREE ENERGY PREDICTED BY IDOCK:   -2.28 KCAL/MOL
REMARK 922        TOTAL FREE ENERGY PREDICTED BY IDOCK:   -3.58 KCAL/MOL
REMARK 923 INTER-LIGAND FREE ENERGY PREDICTED BY IDOCK:   -5.55 KCAL/MOL
REMARK 924 INTRA-LIGAND FREE ENERGY PREDICTED BY IDOCK:    1.97 KCAL/MOL
REMARK 927      BINDING AFFINITY PREDICTED BY RF-SCORE:    0.00 PKD
ROOT
HETATM    1  C   UNL     1     -10.092   5.998  66.567  1.00  0.00    -0.137 C  
HETATM    2  N   UNL     1      -9.729   7.400  66.754  1.00  0.00    -0.197 N  
HETATM    3  C   UNL     1     -10.814   8.293  67.120  1.00  0.00    -0.024 C  
HETATM    4  C   UNL     1      -8.474   7.788  66.273  1.00  0.00    -0.141 C  
HETATM    5  O   UNL     1      -7.748   6.917  65.766  1.00  0.00    -0.090 OA 
ENDROOT
BRANCH   4   6
HETATM    6  C   UNL     1      -7.951   9.301  66.376  1.00  0.00    -0.107 C  
BRANCH   6   7
HETATM    7  C   UNL     1      -6.979   9.291  67.648  1.00  0.00    -0.078 C  
BRANCH   7   8
HETATM    8  C   UNL     1      -7.624   9.323  69.045  1.00  0.00    -0.074 C  
BRANCH   8   9
HETATM    9  N   UNL     1      -8.080   8.019  69.574  1.00  0.00    -0.118 NA 
HETATM   10  C   UNL     1      -7.133   7.340  70.470  1.00  0.00    -0.062 C  
HETATM   11  C   UNL     1      -7.045   7.979  71.856  1.00  0.00    -0.080 C  
HETATM   12  C   UNL     1      -8.426   7.997  72.550  1.00  0.00    -0.162 C  
HETATM   13  H   UNL     1      -9.154   8.762  74.191  1.00  0.00     0.000 HD 
HETATM   14  O   UNL     1      -8.304   8.751  73.765  1.00  0.00    -0.322 OA 
HETATM   15  C   UNL     1      -9.372   8.768  71.603  1.00  0.00    -0.345 C  
HETATM   16  C   UNL     1      -9.406   8.134  70.209  1.00  0.00    -0.155 C  
BRANCH  12  17
HETATM   17  C   UNL     1      -8.942   6.622  73.007  1.00  0.00    -0.139 A  
HETATM   18  C   UNL     1     -10.321   6.350  73.107  1.00  0.00    -0.245 A  
HETATM   19  C   UNL     1     -10.797   5.091  73.491  1.00  0.00    -0.369 A  
HETATM   20  C   UNL     1      -9.903   4.066  73.762  1.00  0.00    -0.112 A  
HETATM   21  C   UNL     1      -8.536   4.291  73.653  1.00  0.00    -0.092 A  
HETATM   22 CL   UNL     1     -10.487   2.512  74.208  1.00  0.00    -0.198 Cl 
HETATM   23  C   UNL     1      -8.064   5.553  73.270  1.00  0.00    -0.114 A  
ENDBRANCH  12  17
ENDBRANCH   8   9
ENDBRANCH   7   8
ENDBRANCH   6   7
BRANCH   6  24
HETATM   24  C   UNL     1      -7.112   9.621  65.092  1.00  0.00    -0.114 A  
HETATM   25  C   UNL     1      -5.953  10.419  65.182  1.00  0.00    -0.133 A  
HETATM   26  C   UNL     1      -7.448   9.140  63.815  1.00  0.00    -0.106 A  
HETATM   27  C   UNL     1      -5.213  10.762  64.042  1.00  0.00    -0.108 A  
HETATM   28  C   UNL     1      -5.604  10.307  62.787  1.00  0.00    -0.127 A  
HETATM   29  C   UNL     1      -6.720   9.489  62.677  1.00  0.00    -0.097 A  
ENDBRANCH   6  24
BRANCH   6  30
HETATM   30  C   UNL     1      -9.123  10.304  66.660  1.00  0.00    -0.163 A  
HETATM   31  C   UNL     1     -11.037  11.647  65.928  1.00  0.00    -0.320 A  
HETATM   32  C   UNL     1      -9.244  10.948  67.913  1.00  0.00    -0.152 A  
HETATM   33  C   UNL     1     -10.081  10.650  65.691  1.00  0.00    -0.335 A  
HETATM   34  C   UNL     1     -11.112  12.271  67.168  1.00  0.00    -0.330 A  
HETATM   35  C   UNL     1     -10.229  11.903  68.171  1.00  0.00    -0.203 A  
ENDBRANCH   6  30
ENDBRANCH   4   6
TORSDOF 7
ENDMDL
MODEL      167
REMARK 921   NORMALIZED FREE ENERGY PREDICTED BY IDOCK:   -2.23 KCAL/MOL
REMARK 922        TOTAL FREE ENERGY PREDICTED BY IDOCK:   -3.51 KCAL/MOL
REMARK 923 INTER-LIGAND FREE ENERGY PREDICTED BY IDOCK:   -3.44 KCAL/MOL
REMARK 924 INTRA-LIGAND FREE ENERGY PREDICTED BY IDOCK:   -0.07 KCAL/MOL
REMARK 927      BINDING AFFINITY PREDICTED BY RF-SCORE:    0.00 PKD
ROOT
HETATM    1  C   UNL     1      -9.743   2.342  64.058  1.00  0.00    -0.139 C  
HETATM    2  N   UNL     1      -9.134   2.956  65.234  1.00  0.00    -0.146 N  
HETATM    3  C   UNL     1      -9.313   2.242  66.486  1.00  0.00     0.087 C  
HETATM    4  C   UNL     1      -8.719   4.285  65.099  1.00  0.00    -0.126 C  
HETATM    5  O   UNL     1      -8.857   4.830  63.992  1.00  0.00    -0.144 OA 
ENDROOT
BRANCH   4   6
HETATM    6  C   UNL     1      -8.064   5.102  66.314  1.00  0.00    -0.108 C  
BRANCH   6   7
HETATM    7  C   UNL     1      -7.344   6.344  65.606  1.00  0.00    -0.080 C  
BRANCH   7   8
HETATM    8  C   UNL     1      -5.870   6.616  65.958  1.00  0.00    -0.026 C  
BRANCH   8   9
HETATM    9  N   UNL     1      -5.527   8.024  66.249  1.00  0.00    -0.028 NA 
HETATM   10  C   UNL     1      -6.483   9.020  65.744  1.00  0.00    -0.064 C  
HETATM   11  C   UNL     1      -7.784   9.073  66.545  1.00  0.00    -0.096 C  
HETATM   12  C   UNL     1      -7.510   9.389  68.032  1.00  0.00    -0.080 C  
HETATM   13  H   UNL     1      -8.577   9.456  69.665  1.00  0.00     0.000 HD 
HETATM   14  O   UNL     1      -8.746   9.261  68.751  1.00  0.00    -0.129 OA 
HETATM   15  C   UNL     1      -6.551   8.288  68.536  1.00  0.00    -0.059 C  
HETATM   16  C   UNL     1      -5.276   8.227  67.689  1.00  0.00    -0.034 C  
BRANCH  12  17
HETATM   17  C   UNL     1      -7.054  10.830  68.318  1.00  0.00    -0.078 A  
HETATM   18  C   UNL     1      -6.446  11.181  69.540  1.00  0.00    -0.117 A  
HETATM   19  C   UNL     1      -5.998  12.483  69.792  1.00  0.00    -0.135 A  
HETATM   20  C   UNL     1      -6.129  13.461  68.817  1.00  0.00    -0.086 A  
HETATM   21  C   UNL     1      -6.703  13.147  67.592  1.00  0.00    -0.163 A  
HETATM   22 CL   UNL     1      -5.556  15.054  69.116  1.00  0.00    -0.096 Cl 
HETATM   23  C   UNL     1      -7.152  11.843  67.344  1.00  0.00    -0.129 A  
ENDBRANCH  12  17
ENDBRANCH   8   9
ENDBRANCH   7   8
ENDBRANCH   6   7
BRANCH   6  24
HETATM   24  C   UNL     1      -9.218   5.633  67.231  1.00  0.00    -0.110 A  
HETATM   25  C   UNL     1      -9.299   5.229  68.579  1.00  0.00    -0.152 A  
HETATM   26  C   UNL     1     -10.207   6.526  66.781  1.00  0.00    -0.257 A  
HETATM   27  C   UNL     1     -10.349   5.649  69.405  1.00  0.00    -0.343 A  
HETATM   28  C   UNL     1     -11.338   6.495  68.911  1.00  0.00    -0.267 A  
HETATM   29  C   UNL     1     -11.260   6.938  67.598  1.00  0.00    -0.153 A  
ENDBRANCH   6  24
BRANCH   6  30
HETATM   30  C   UNL     1      -6.971   4.259  67.060  1.00  0.00    -0.063 A  
HETATM   31  C   UNL     1      -5.270   2.496  67.111  1.00  0.00    -0.009 A  
HETATM   32  C   UNL     1      -6.793   4.369  68.458  1.00  0.00    -0.051 A  
HETATM   33  C   UNL     1      -6.146   3.329  66.402  1.00  0.00    -0.024 A  
HETATM   34  C   UNL     1      -5.138   2.621  68.489  1.00  0.00    -0.012 A  
HETATM   35  C   UNL     1      -5.884   3.577  69.161  1.00  0.00    -0.023 A  
ENDBRANCH   6  30
ENDBRANCH   4   6
TORSDOF 7
ENDMDL
MODEL      168
REMARK 921   NORMALIZED FREE ENERGY PREDICTED BY IDOCK:   -2.02 KCAL/MOL
REMARK 922        TOTAL FREE ENERGY PREDICTED BY IDOCK:   -3.23 KCAL/MOL
REMARK 923 INTER-LIGAND FREE ENERGY PREDICTED BY IDOCK:   -5.08 KCAL/MOL
REMARK 924 INTRA-LIGAND FREE ENERGY PREDICTED BY IDOCK:    1.86 KCAL/MOL
REMARK 927      BINDING AFFINITY PREDICTED BY RF-SCORE:    0.00 PKD
ROOT
HETATM    1  C   UNL     1      -9.265   3.137  70.371  1.00  0.00    -0.145 C  
HETATM    2  N   UNL     1      -9.256   3.681  69.016  1.00  0.00    -0.146 N  
HETATM    3  C   UNL     1      -9.274   2.705  67.941  1.00  0.00    -0.205 C  
HETATM    4  C   UNL     1      -8.929   5.035  68.890  1.00  0.00    -0.101 C  
HETATM    5  O   UNL     1      -8.711   5.682  69.928  1.00  0.00    -0.122 OA 
ENDROOT
BRANCH   4   6
HETATM    6  C   UNL     1      -8.846   5.764  67.464  1.00  0.00    -0.106 C  
BRANCH   6   7
HETATM    7  C   UNL     1     -10.077   6.786  67.476  1.00  0.00    -0.215 C  
BRANCH   7   8
HETATM    8  C   UNL     1     -10.102   7.893  66.406  1.00  0.00    -0.079 C  
BRANCH   8   9
HETATM    9  N   UNL     1      -9.321   9.109  66.718  1.00  0.00    -0.156 NA 
HETATM   10  C   UNL     1      -9.383  10.172  65.705  1.00  0.00    -0.199 C  
HETATM   11  C   UNL     1     -10.718  10.918  65.689  1.00  0.00    -0.178 C  
HETATM   12  C   UNL     1     -11.015  11.555  67.065  1.00  0.00    -0.294 C  
HETATM   13  H   UNL     1     -12.527  12.486  67.876  1.00  0.00     0.000 HD 
HETATM   14  O   UNL     1     -12.345  12.094  67.029  1.00  0.00    -0.379 OA 
HETATM   15  C   UNL     1     -10.997  10.398  68.088  1.00  0.00    -0.334 C  
HETATM   16  C   UNL     1      -9.667   9.639  68.050  1.00  0.00    -0.146 C  
BRANCH  12  17
HETATM   17  C   UNL     1     -10.129  12.759  67.430  1.00  0.00    -0.219 A  
HETATM   18  C   UNL     1      -9.331  13.404  66.465  1.00  0.00    -0.225 A  
HETATM   19  C   UNL     1      -8.548  14.520  66.783  1.00  0.00    -0.163 A  
HETATM   20  C   UNL     1      -8.563  15.031  68.074  1.00  0.00    -0.158 A  
HETATM   21  C   UNL     1      -9.355  14.434  69.046  1.00  0.00    -0.028 A  
HETATM   22 CL   UNL     1      -7.622  16.417  68.459  1.00  0.00    -0.177 Cl 
HETATM   23  C   UNL     1     -10.135  13.316  68.724  1.00  0.00    -0.083 A  
ENDBRANCH  12  17
ENDBRANCH   8   9
ENDBRANCH   7   8
ENDBRANCH   6   7
BRANCH   6  24
HETATM   24  C   UNL     1      -7.507   6.576  67.402  1.00  0.00    -0.092 A  
HETATM   25  C   UNL     1      -6.948   7.115  68.579  1.00  0.00    -0.079 A  
HETATM   26  C   UNL     1      -6.800   6.802  66.208  1.00  0.00    -0.060 A  
HETATM   27  C   UNL     1      -5.779   7.887  68.544  1.00  0.00    -0.028 A  
HETATM   28  C   UNL     1      -5.132   8.130  67.337  1.00  0.00    -0.032 A  
HETATM   29  C   UNL     1      -5.642   7.581  66.169  1.00  0.00    -0.032 A  
ENDBRANCH   6  24
BRANCH   6  30
HETATM   30  C   UNL     1      -9.055   4.755  66.281  1.00  0.00    -0.122 A  
HETATM   31  C   UNL     1      -8.193   3.194  64.601  1.00  0.00    -0.090 A  
HETATM   32  C   UNL     1     -10.319   4.603  65.667  1.00  0.00    -0.266 A  
HETATM   33  C   UNL     1      -8.008   3.987  65.741  1.00  0.00    -0.097 A  
HETATM   34  C   UNL     1      -9.448   3.085  64.014  1.00  0.00    -0.132 A  
HETATM   35  C   UNL     1     -10.520   3.772  64.564  1.00  0.00    -0.193 A  
ENDBRANCH   6  30
ENDBRANCH   4   6
TORSDOF 7
ENDMDL
MODEL      169
REMARK 921   NORMALIZED FREE ENERGY PREDICTED BY IDOCK:   -1.93 KCAL/MOL
REMARK 922        TOTAL FREE ENERGY PREDICTED BY IDOCK:   -3.09 KCAL/MOL
REMARK 923 INTER-LIGAND FREE ENERGY PREDICTED BY IDOCK:   -3.24 KCAL/MOL
REMARK 924 INTRA-LIGAND FREE ENERGY PREDICTED BY IDOCK:    0.14 KCAL/MOL
REMARK 927      BINDING AFFINITY PREDICTED BY RF-SCORE:    0.00 PKD
ROOT
HETATM    1  C   UNL     1      -8.736  15.611  67.769  1.00  0.00    -0.170 C  
HETATM    2  N   UNL     1      -8.921  14.176  67.565  1.00  0.00    -0.188 N  
HETATM    3  C   UNL     1     -10.156  13.785  66.910  1.00  0.00    -0.260 C  
HETATM    4  C   UNL     1      -8.065  13.330  68.277  1.00  0.00    -0.156 C  
HETATM    5  O   UNL     1      -7.191  13.849  68.991  1.00  0.00    -0.111 OA 
ENDROOT
BRANCH   4   6
HETATM    6  C   UNL     1      -8.171  11.732  68.181  1.00  0.00    -0.153 C  
BRANCH   6   7
HETATM    7  C   UNL     1      -7.177  11.206  69.319  1.00  0.00    -0.112 C  
BRANCH   7   8
HETATM    8  C   UNL     1      -7.481   9.841  69.963  1.00  0.00    -0.154 C  
BRANCH   8   9
HETATM    9  N   UNL     1      -7.567   8.695  69.033  1.00  0.00    -0.089 NA 
HETATM   10  C   UNL     1      -6.511   7.684  69.184  1.00  0.00    -0.040 C  
HETATM   11  C   UNL     1      -6.681   6.809  70.427  1.00  0.00    -0.057 C  
HETATM   12  C   UNL     1      -8.042   6.077  70.410  1.00  0.00    -0.111 C  
HETATM   13  H   UNL     1      -9.042   4.960  71.660  1.00  0.00     0.000 HD 
HETATM   14  O   UNL     1      -8.206   5.411  71.671  1.00  0.00    -0.115 OA 
HETATM   15  C   UNL     1      -9.121   7.177  70.309  1.00  0.00    -0.156 C  
HETATM   16  C   UNL     1      -8.901   8.065  69.081  1.00  0.00    -0.145 C  
BRANCH  12  17
HETATM   17  C   UNL     1      -8.162   4.951  69.369  1.00  0.00    -0.081 A  
HETATM   18  C   UNL     1      -9.416   4.458  68.960  1.00  0.00    -0.237 A  
HETATM   19  C   UNL     1      -9.533   3.457  67.989  1.00  0.00    -0.213 A  
HETATM   20  C   UNL     1      -8.394   2.940  67.386  1.00  0.00    -0.085 A  
HETATM   21  C   UNL     1      -7.141   3.418  67.749  1.00  0.00    -0.051 A  
HETATM   22 CL   UNL     1      -8.538   1.729  66.175  1.00  0.00    -0.107 Cl 
HETATM   23  C   UNL     1      -7.029   4.419  68.722  1.00  0.00    -0.051 A  
ENDBRANCH  12  17
ENDBRANCH   8   9
ENDBRANCH   7   8
ENDBRANCH   6   7
BRANCH   6  24
HETATM   24  C   UNL     1      -9.636  11.312  68.546  1.00  0.00    -0.199 A  
HETATM   25  C   UNL     1     -10.443  10.650  67.598  1.00  0.00    -0.267 A  
HETATM   26  C   UNL     1     -10.213  11.554  69.805  1.00  0.00     0.684 A  
HETATM   27  C   UNL     1     -11.772  10.310  67.883  1.00  0.00     0.490 A  
HETATM   28  C   UNL     1     -12.325  10.608  69.124  1.00  0.00     0.111 A  
HETATM   29  C   UNL     1     -11.540  11.225  70.088  1.00  0.00    -0.393 A  
ENDBRANCH   6  24
BRANCH   6  30
HETATM   30  C   UNL     1      -7.663  11.197  66.797  1.00  0.00    -0.153 A  
HETATM   31  C   UNL     1      -8.063  10.335  64.539  1.00  0.00    -0.150 A  
HETATM   32  C   UNL     1      -6.295  10.909  66.584  1.00  0.00    -0.113 A  
HETATM   33  C   UNL     1      -8.526  10.936  65.717  1.00  0.00    -0.155 A  
HETATM   34  C   UNL     1      -6.713  10.048  64.375  1.00  0.00    -0.128 A  
HETATM   35  C   UNL     1      -5.823  10.359  65.392  1.00  0.00    -0.127 A  
ENDBRANCH   6  30
ENDBRANCH   4   6
TORSDOF 7
ENDMDL
MODEL      170
REMARK 921   NORMALIZED FREE ENERGY PREDICTED BY IDOCK:   -1.88 KCAL/MOL
REMARK 922        TOTAL FREE ENERGY PREDICTED BY IDOCK:   -3.03 KCAL/MOL
REMARK 923 INTER-LIGAND FREE ENERGY PREDICTED BY IDOCK:   -4.41 KCAL/MOL
REMARK 924 INTRA-LIGAND FREE ENERGY PREDICTED BY IDOCK:    1.38 KCAL/MOL
REMARK 927      BINDING AFFINITY PREDICTED BY RF-SCORE:    0.00 PKD
ROOT
HETATM    1  C   UNL     1      -8.216   1.524  68.563  1.00  0.00    -0.052 C  
HETATM    2  N   UNL     1      -8.134   2.270  67.310  1.00  0.00    -0.069 N  
HETATM    3  C   UNL     1      -7.007   1.947  66.453  1.00  0.00    -0.043 C  
HETATM    4  C   UNL     1      -8.946   3.404  67.206  1.00  0.00    -0.150 C  
HETATM    5  O   UNL     1      -9.702   3.671  68.155  1.00  0.00    -0.137 OA 
ENDROOT
BRANCH   4   6
HETATM    6  C   UNL     1      -8.940   4.342  65.904  1.00  0.00    -0.124 C  
BRANCH   6   7
HETATM    7  C   UNL     1     -10.122   5.387  66.170  1.00  0.00    -0.173 C  
BRANCH   7   8
HETATM    8  C   UNL     1     -10.522   5.661  67.632  1.00  0.00    -0.219 C  
BRANCH   8   9
HETATM    9  N   UNL     1     -11.220   6.940  67.880  1.00  0.00    -0.101 NA 
HETATM   10  C   UNL     1     -11.312   7.341  69.291  1.00  0.00     0.156 C  
HETATM   11  C   UNL     1      -9.988   7.843  69.868  1.00  0.00    -0.192 C  
HETATM   12  C   UNL     1      -9.454   9.050  69.064  1.00  0.00    -0.155 C  
HETATM   13  H   UNL     1      -7.812  10.106  69.057  1.00  0.00     0.000 HD 
HETATM   14  O   UNL     1      -8.140   9.363  69.552  1.00  0.00    -0.097 OA 
HETATM   15  C   UNL     1      -9.318   8.568  67.603  1.00  0.00    -0.157 C  
HETATM   16  C   UNL     1     -10.647   8.029  67.067  1.00  0.00    -0.294 C  
BRANCH  12  17
HETATM   17  C   UNL     1     -10.247  10.355  69.247  1.00  0.00    -0.248 A  
HETATM   18  C   UNL     1     -10.341  11.310  68.215  1.00  0.00    -0.200 A  
HETATM   19  C   UNL     1     -11.088  12.484  68.364  1.00  0.00    -0.293 A  
HETATM   20  C   UNL     1     -11.779  12.720  69.544  1.00  0.00    -0.318 A  
HETATM   21  C   UNL     1     -11.727  11.791  70.575  1.00  0.00    -0.146 A  
HETATM   22 CL   UNL     1     -12.718  14.149  69.718  1.00  0.00    -0.140 Cl 
HETATM   23  C   UNL     1     -10.976  10.618  70.423  1.00  0.00    -0.162 A  
ENDBRANCH  12  17
ENDBRANCH   8   9
ENDBRANCH   7   8
ENDBRANCH   6   7
BRANCH   6  24
HETATM   24  C   UNL     1      -7.576   5.112  65.858  1.00  0.00    -0.083 A  
HETATM   25  C   UNL     1      -7.085   5.758  67.011  1.00  0.00    -0.070 A  
HETATM   26  C   UNL     1      -6.779   5.194  64.703  1.00  0.00    -0.047 A  
HETATM   27  C   UNL     1      -5.895   6.496  66.983  1.00  0.00    -0.017 A  
HETATM   28  C   UNL     1      -5.156   6.595  65.809  1.00  0.00    -0.018 A  
HETATM   29  C   UNL     1      -5.598   5.937  64.669  1.00  0.00    -0.017 A  
ENDBRANCH   6  24
BRANCH   6  30
HETATM   30  C   UNL     1      -9.280   3.534  64.603  1.00  0.00    -0.139 A  
HETATM   31  C   UNL     1     -10.780   2.956  62.755  1.00  0.00    -0.187 A  
HETATM   32  C   UNL     1      -8.450   2.478  64.162  1.00  0.00    -0.086 A  
HETATM   33  C   UNL     1     -10.433   3.777  63.835  1.00  0.00    -0.265 A  
HETATM   34  C   UNL     1      -9.947   1.915  62.363  1.00  0.00    -0.087 A  
HETATM   35  C   UNL     1      -8.766   1.691  63.054  1.00  0.00    -0.075 A  
ENDBRANCH   6  30
ENDBRANCH   4   6
TORSDOF 7
ENDMDL
MODEL      171
REMARK 921   NORMALIZED FREE ENERGY PREDICTED BY IDOCK:   -1.74 KCAL/MOL
REMARK 922        TOTAL FREE ENERGY PREDICTED BY IDOCK:   -2.82 KCAL/MOL
REMARK 923 INTER-LIGAND FREE ENERGY PREDICTED BY IDOCK:   -4.19 KCAL/MOL
REMARK 924 INTRA-LIGAND FREE ENERGY PREDICTED BY IDOCK:    1.36 KCAL/MOL
REMARK 927      BINDING AFFINITY PREDICTED BY RF-SCORE:    0.00 PKD
ROOT
HETATM    1  C   UNL     1      -6.639  20.807  64.524  1.00  0.00    -0.201 C  
HETATM    2  N   UNL     1      -6.631  19.546  65.260  1.00  0.00    -0.276 N  
HETATM    3  C   UNL     1      -6.244  18.371  64.500  1.00  0.00     0.586 C  
HETATM    4  C   UNL     1      -7.275  19.545  66.501  1.00  0.00    -0.230 C  
HETATM    5  O   UNL     1      -7.767  20.612  66.905  1.00  0.00    -0.287 OA 
ENDROOT
BRANCH   4   6
HETATM    6  C   UNL     1      -7.377  18.226  67.409  1.00  0.00    -0.218 C  
BRANCH   6   7
HETATM    7  C   UNL     1      -6.546  17.127  66.593  1.00  0.00    -0.272 C  
BRANCH   7   8
HETATM    8  C   UNL     1      -5.873  15.997  67.394  1.00  0.00    -0.107 C  
BRANCH   8   9
HETATM    9  N   UNL     1      -6.454  14.648  67.218  1.00  0.00    -0.250 NA 
HETATM   10  C   UNL     1      -5.523  13.531  67.434  1.00  0.00     0.216 C  
HETATM   11  C   UNL     1      -5.185  13.298  68.906  1.00  0.00    -0.073 C  
HETATM   12  C   UNL     1      -6.462  13.020  69.733  1.00  0.00    -0.005 C  
HETATM   13  H   UNL     1      -6.878  12.803  71.627  1.00  0.00     0.000 HD 
HETATM   14  O   UNL     1      -6.094  12.974  71.119  1.00  0.00    -0.191 OA 
HETATM   15  C   UNL     1      -7.383  14.241  69.524  1.00  0.00     0.040 C  
HETATM   16  C   UNL     1      -7.669  14.479  68.038  1.00  0.00    -0.135 C  
BRANCH  12  17
HETATM   17  C   UNL     1      -7.121  11.655  69.471  1.00  0.00     0.055 A  
HETATM   18  C   UNL     1      -8.498  11.544  69.194  1.00  0.00     0.214 A  
HETATM   19  C   UNL     1      -9.097  10.309  68.922  1.00  0.00    -0.168 A  
HETATM   20  C   UNL     1      -8.326   9.155  68.899  1.00  0.00    -0.124 A  
HETATM   21  C   UNL     1      -6.961   9.229  69.146  1.00  0.00    -0.058 A  
HETATM   22 CL   UNL     1      -9.057   7.641  68.540  1.00  0.00    -0.132 Cl 
HETATM   23  C   UNL     1      -6.366  10.467  69.420  1.00  0.00    -0.053 A  
ENDBRANCH  12  17
ENDBRANCH   8   9
ENDBRANCH   7   8
ENDBRANCH   6   7
BRANCH   6  24
HETATM   24  C   UNL     1      -6.654  18.507  68.770  1.00  0.00    -0.267 A  
HETATM   25  C   UNL     1      -5.868  17.506  69.378  1.00  0.00    -0.226 A  
HETATM   26  C   UNL     1      -6.735  19.739  69.443  1.00  0.00    -0.382 A  
HETATM   27  C   UNL     1      -5.253  17.715  70.619  1.00  0.00    -0.273 A  
HETATM   28  C   UNL     1      -5.395  18.932  71.279  1.00  0.00    -0.274 A  
HETATM   29  C   UNL     1      -6.133  19.946  70.685  1.00  0.00    -0.305 A  
ENDBRANCH   6  24
BRANCH   6  30
HETATM   30  C   UNL     1      -8.857  17.724  67.544  1.00  0.00    -0.243 A  
HETATM   31  C   UNL     1     -10.981  17.576  68.756  1.00  0.00     0.156 A  
HETATM   32  C   UNL     1      -9.394  16.784  66.635  1.00  0.00    -0.274 A  
HETATM   33  C   UNL     1      -9.710  18.139  68.583  1.00  0.00    -0.367 A  
HETATM   34  C   UNL     1     -11.467  16.639  67.852  1.00  0.00     0.138 A  
HETATM   35  C   UNL     1     -10.680  16.260  66.774  1.00  0.00    -0.204 A  
ENDBRANCH   6  30
ENDBRANCH   4   6
TORSDOF 7
ENDMDL
MODEL      172
REMARK 921   NORMALIZED FREE ENERGY PREDICTED BY IDOCK:   -1.64 KCAL/MOL
REMARK 922        TOTAL FREE ENERGY PREDICTED BY IDOCK:   -2.69 KCAL/MOL
REMARK 923 INTER-LIGAND FREE ENERGY PREDICTED BY IDOCK:   -3.87 KCAL/MOL
REMARK 924 INTRA-LIGAND FREE ENERGY PREDICTED BY IDOCK:    1.18 KCAL/MOL
REMARK 927      BINDING AFFINITY PREDICTED BY RF-SCORE:    0.00 PKD
ROOT
HETATM    1  C   UNL     1      -9.833   5.300  67.604  1.00  0.00    -0.155 C  
HETATM    2  N   UNL     1     -10.012   6.699  67.225  1.00  0.00    -0.142 N  
HETATM    3  C   UNL     1     -11.181   6.990  66.414  1.00  0.00     1.255 C  
HETATM    4  C   UNL     1      -8.912   7.541  67.411  1.00  0.00    -0.126 C  
HETATM    5  O   UNL     1      -7.886   7.058  67.917  1.00  0.00    -0.110 OA 
ENDROOT
BRANCH   4   6
HETATM    6  C   UNL     1      -8.948   9.094  67.009  1.00  0.00    -0.139 C  
BRANCH   6   7
HETATM    7  C   UNL     1     -10.367   9.603  67.547  1.00  0.00    -0.297 C  
BRANCH   7   8
HETATM    8  C   UNL     1     -10.629   9.527  69.062  1.00  0.00    -0.219 C  
BRANCH   8   9
HETATM    9  N   UNL     1     -10.329   8.229  69.704  1.00  0.00    -0.214 NA 
HETATM   10  C   UNL     1      -9.555   8.310  70.951  1.00  0.00    -0.165 C  
HETATM   11  C   UNL     1     -10.371   8.817  72.141  1.00  0.00    -0.378 C  
HETATM   12  C   UNL     1     -11.597   7.913  72.400  1.00  0.00    -0.380 C  
HETATM   13  H   UNL     1     -13.156   7.977  73.573  1.00  0.00     0.000 HD 
HETATM   14  O   UNL     1     -12.402   8.534  73.414  1.00  0.00     0.356 OA 
HETATM   15  C   UNL     1     -12.410   7.904  71.086  1.00  0.00    -0.248 C  
HETATM   16  C   UNL     1     -11.556   7.435  69.904  1.00  0.00     0.080 C  
BRANCH  12  17
HETATM   17  C   UNL     1     -11.271   6.524  72.973  1.00  0.00    -0.176 A  
HETATM   18  C   UNL     1     -11.938   5.367  72.522  1.00  0.00    -0.025 A  
HETATM   19  C   UNL     1     -11.622   4.096  73.015  1.00  0.00     0.006 A  
HETATM   20  C   UNL     1     -10.614   3.950  73.958  1.00  0.00    -0.224 A  
HETATM   21  C   UNL     1      -9.921   5.065  74.410  1.00  0.00    -0.236 A  
HETATM   22 CL   UNL     1     -10.208   2.386  74.546  1.00  0.00    -0.167 Cl 
HETATM   23  C   UNL     1     -10.241   6.336  73.915  1.00  0.00    -0.307 A  
ENDBRANCH  12  17
ENDBRANCH   8   9
ENDBRANCH   7   8
ENDBRANCH   6   7
BRANCH   6  24
HETATM   24  C   UNL     1      -7.809   9.833  67.792  1.00  0.00    -0.094 A  
HETATM   25  C   UNL     1      -7.427  11.139  67.425  1.00  0.00    -0.109 A  
HETATM   26  C   UNL     1      -7.128   9.259  68.879  1.00  0.00    -0.068 A  
HETATM   27  C   UNL     1      -6.378  11.802  68.075  1.00  0.00    -0.053 A  
HETATM   28  C   UNL     1      -5.693  11.184  69.117  1.00  0.00    -0.041 A  
HETATM   29  C   UNL     1      -6.075   9.912  69.522  1.00  0.00    -0.044 A  
ENDBRANCH   6  24
BRANCH   6  30
HETATM   30  C   UNL     1      -8.910   9.294  65.454  1.00  0.00    -0.230 A  
HETATM   31  C   UNL     1      -7.876   8.949  63.260  1.00  0.00    -0.143 A  
HETATM   32  C   UNL     1      -9.806  10.179  64.810  1.00  0.00    -0.382 A  
HETATM   33  C   UNL     1      -7.973   8.651  64.626  1.00  0.00    -0.141 A  
HETATM   34  C   UNL     1      -8.763   9.839  62.667  1.00  0.00    -0.230 A  
HETATM   35  C   UNL     1      -9.747  10.437  63.440  1.00  0.00    -0.318 A  
ENDBRANCH   6  30
ENDBRANCH   4   6
TORSDOF 7
ENDMDL
MODEL      173
REMARK 921   NORMALIZED FREE ENERGY PREDICTED BY IDOCK:   -1.29 KCAL/MOL
REMARK 922        TOTAL FREE ENERGY PREDICTED BY IDOCK:   -2.19 KCAL/MOL
REMARK 923 INTER-LIGAND FREE ENERGY PREDICTED BY IDOCK:   -2.56 KCAL/MOL
REMARK 924 INTRA-LIGAND FREE ENERGY PREDICTED BY IDOCK:    0.37 KCAL/MOL
REMARK 927      BINDING AFFINITY PREDICTED BY RF-SCORE:    0.00 PKD
ROOT
HETATM    1  C   UNL     1     -10.928   4.476  67.594  1.00  0.00     1.817 C  
HETATM    2  N   UNL     1     -10.145   5.631  68.025  1.00  0.00    -0.158 N  
HETATM    3  C   UNL     1      -9.500   5.510  69.321  1.00  0.00    -0.129 C  
HETATM    4  C   UNL     1     -10.343   6.819  67.314  1.00  0.00    -0.244 C  
HETATM    5  O   UNL     1     -11.128   6.800  66.352  1.00  0.00     0.125 OA 
ENDROOT
BRANCH   4   6
HETATM    6  C   UNL     1      -9.579   8.178  67.694  1.00  0.00    -0.186 C  
BRANCH   6   7
HETATM    7  C   UNL     1      -9.759   9.101  66.399  1.00  0.00    -0.330 C  
BRANCH   7   8
HETATM    8  C   UNL     1      -8.490   9.686  65.752  1.00  0.00    -0.133 C  
BRANCH   8   9
HETATM    9  N   UNL     1      -8.579  11.097  65.321  1.00  0.00    -0.047 NA 
HETATM   10  C   UNL     1      -9.825  11.465  64.633  1.00  0.00    -0.259 C  
HETATM   11  C   UNL     1     -11.027  11.578  65.572  1.00  0.00    -0.290 C  
HETATM   12  C   UNL     1     -10.770  12.622  66.681  1.00  0.00    -0.253 C  
HETATM   13  H   UNL     1     -11.701  13.201  68.296  1.00  0.00     0.000 HD 
HETATM   14  O   UNL     1     -11.860  12.558  67.614  1.00  0.00    -0.362 OA 
HETATM   15  C   UNL     1      -9.489  12.166  67.413  1.00  0.00    -0.179 C  
HETATM   16  C   UNL     1      -8.314  12.018  66.442  1.00  0.00     0.054 C  
BRANCH  12  17
HETATM   17  C   UNL     1     -10.762  14.086  66.208  1.00  0.00    -0.289 A  
HETATM   18  C   UNL     1     -11.292  14.457  64.956  1.00  0.00    -0.373 A  
HETATM   19  C   UNL     1     -11.317  15.791  64.534  1.00  0.00    -0.324 A  
HETATM   20  C   UNL     1     -10.833  16.790  65.366  1.00  0.00    -0.141 A  
HETATM   21  C   UNL     1     -10.324  16.464  66.617  1.00  0.00    -0.292 A  
HETATM   22 CL   UNL     1     -10.888  18.432  64.859  1.00  0.00     1.021 Cl 
HETATM   23  C   UNL     1     -10.298  15.127  67.035  1.00  0.00    -0.271 A  
ENDBRANCH  12  17
ENDBRANCH   8   9
ENDBRANCH   7   8
ENDBRANCH   6   7
BRANCH   6  24
HETATM   24  C   UNL     1     -10.322   8.841  68.903  1.00  0.00    -0.229 A  
HETATM   25  C   UNL     1     -11.522   9.552  68.697  1.00  0.00     0.330 A  
HETATM   26  C   UNL     1      -9.859   8.760  70.228  1.00  0.00    -0.198 A  
HETATM   27  C   UNL     1     -12.179  10.196  69.753  1.00  0.00     0.018 A  
HETATM   28  C   UNL     1     -11.664  10.135  71.044  1.00  0.00    -0.470 A  
HETATM   29  C   UNL     1     -10.505   9.410  71.280  1.00  0.00    -0.385 A  
ENDBRANCH   6  24
BRANCH   6  30
HETATM   30  C   UNL     1      -8.045   7.940  67.919  1.00  0.00    -0.129 A  
HETATM   31  C   UNL     1      -5.978   6.683  67.530  1.00  0.00    -0.020 A  
HETATM   32  C   UNL     1      -7.326   8.679  68.886  1.00  0.00    -0.082 A  
HETATM   33  C   UNL     1      -7.314   6.965  67.216  1.00  0.00    -0.091 A  
HETATM   34  C   UNL     1      -5.311   7.419  68.501  1.00  0.00    -0.022 A  
HETATM   35  C   UNL     1      -5.980   8.436  69.165  1.00  0.00    -0.042 A  
ENDBRANCH   6  30
ENDBRANCH   4   6
TORSDOF 7
ENDMDL
MODEL      174
REMARK 921   NORMALIZED FREE ENERGY PREDICTED BY IDOCK:   -1.28 KCAL/MOL
REMARK 922        TOTAL FREE ENERGY PREDICTED BY IDOCK:   -2.18 KCAL/MOL
REMARK 923 INTER-LIGAND FREE ENERGY PREDICTED BY IDOCK:   -1.71 KCAL/MOL
REMARK 924 INTRA-LIGAND FREE ENERGY PREDICTED BY IDOCK:   -0.48 KCAL/MOL
REMARK 927      BINDING AFFINITY PREDICTED BY RF-SCORE:    0.00 PKD
ROOT
HETATM    1  C   UNL     1      -8.993   2.924  65.855  1.00  0.00    -0.145 C  
HETATM    2  N   UNL     1      -8.784   3.860  66.957  1.00  0.00    -0.106 N  
HETATM    3  C   UNL     1      -9.649   3.684  68.110  1.00  0.00    -0.103 C  
HETATM    4  C   UNL     1      -8.009   4.990  66.677  1.00  0.00    -0.107 C  
HETATM    5  O   UNL     1      -7.524   5.098  65.539  1.00  0.00    -0.075 OA 
ENDROOT
BRANCH   4   6
HETATM    6  C   UNL     1      -7.721   6.121  67.777  1.00  0.00    -0.098 C  
BRANCH   6   7
HETATM    7  C   UNL     1      -6.797   7.181  67.014  1.00  0.00    -0.072 C  
BRANCH   7   8
HETATM    8  C   UNL     1      -5.469   7.587  67.680  1.00  0.00    -0.030 C  
BRANCH   8   9
HETATM    9  N   UNL     1      -5.228   9.040  67.805  1.00  0.00    -0.034 NA 
HETATM   10  C   UNL     1      -5.985   9.884  66.869  1.00  0.00    -0.055 C  
HETATM   11  C   UNL     1      -7.468  10.003  67.221  1.00  0.00    -0.091 C  
HETATM   12  C   UNL     1      -7.658  10.581  68.642  1.00  0.00    -0.099 C  
HETATM   13  H   UNL     1      -9.170  10.867  69.842  1.00  0.00     0.000 HD 
HETATM   14  O   UNL     1      -9.054  10.512  68.968  1.00  0.00    -0.171 OA 
HETATM   15  C   UNL     1      -6.898   9.634  69.596  1.00  0.00    -0.067 C  
HETATM   16  C   UNL     1      -5.426   9.497  69.193  1.00  0.00    -0.036 C  
BRANCH  12  17
HETATM   17  C   UNL     1      -7.307  12.071  68.789  1.00  0.00    -0.098 A  
HETATM   18  C   UNL     1      -7.849  13.043  67.925  1.00  0.00    -0.149 A  
HETATM   19  C   UNL     1      -7.560  14.405  68.075  1.00  0.00    -0.139 A  
HETATM   20  C   UNL     1      -6.739  14.829  69.110  1.00  0.00    -0.123 A  
HETATM   21  C   UNL     1      -6.204  13.901  69.995  1.00  0.00    -0.131 A  
HETATM   22 CL   UNL     1      -6.405  16.503  69.311  1.00  0.00    -0.181 Cl 
HETATM   23  C   UNL     1      -6.494  12.539  69.840  1.00  0.00     0.036 A  
ENDBRANCH  12  17
ENDBRANCH   8   9
ENDBRANCH   7   8
ENDBRANCH   6   7
BRANCH   6  24
HETATM   24  C   UNL     1      -9.082   6.803  68.151  1.00  0.00    -0.123 A  
HETATM   25  C   UNL     1      -9.531   6.809  69.487  1.00  0.00    -0.148 A  
HETATM   26  C   UNL     1      -9.906   7.440  67.207  1.00  0.00    -0.230 A  
HETATM   27  C   UNL     1     -10.766   7.367  69.839  1.00  0.00    -0.254 A  
HETATM   28  C   UNL     1     -11.579   7.946  68.870  1.00  0.00     1.076 A  
HETATM   29  C   UNL     1     -11.143   7.987  67.552  1.00  0.00     0.265 A  
ENDBRANCH   6  24
BRANCH   6  30
HETATM   30  C   UNL     1      -6.916   5.554  68.998  1.00  0.00    -0.056 A  
HETATM   31  C   UNL     1      -5.387   3.925  70.004  1.00  0.00    -0.008 A  
HETATM   32  C   UNL     1      -7.118   6.060  70.303  1.00  0.00    -0.074 A  
HETATM   33  C   UNL     1      -5.993   4.500  68.879  1.00  0.00    -0.026 A  
HETATM   34  C   UNL     1      -5.626   4.438  71.273  1.00  0.00    -0.011 A  
HETATM   35  C   UNL     1      -6.475   5.525  71.420  1.00  0.00    -0.040 A  
ENDBRANCH   6  30
ENDBRANCH   4   6
TORSDOF 7
ENDMDL
MODEL      175
REMARK 921   NORMALIZED FREE ENERGY PREDICTED BY IDOCK:   -1.03 KCAL/MOL
REMARK 922        TOTAL FREE ENERGY PREDICTED BY IDOCK:   -1.82 KCAL/MOL
REMARK 923 INTER-LIGAND FREE ENERGY PREDICTED BY IDOCK:   -3.93 KCAL/MOL
REMARK 924 INTRA-LIGAND FREE ENERGY PREDICTED BY IDOCK:    2.11 KCAL/MOL
REMARK 927      BINDING AFFINITY PREDICTED BY RF-SCORE:    0.00 PKD
ROOT
HETATM    1  C   UNL     1     -12.628  11.384  63.232  1.00  0.00     0.403 C  
HETATM    2  N   UNL     1     -11.505  11.275  64.158  1.00  0.00    -0.109 N  
HETATM    3  C   UNL     1     -10.345  10.553  63.665  1.00  0.00     0.086 C  
HETATM    4  C   UNL     1     -11.765  11.596  65.494  1.00  0.00     0.093 C  
HETATM    5  O   UNL     1     -12.907  11.986  65.790  1.00  0.00     0.487 OA 
ENDROOT
BRANCH   4   6
HETATM    6  C   UNL     1     -10.638  11.491  66.632  1.00  0.00    -0.294 C  
BRANCH   6   7
HETATM    7  C   UNL     1      -9.606  12.658  66.266  1.00  0.00    -0.244 C  
BRANCH   7   8
HETATM    8  C   UNL     1     -10.063  14.113  66.476  1.00  0.00    -0.280 C  
BRANCH   8   9
HETATM    9  N   UNL     1      -9.095  15.001  67.156  1.00  0.00    -0.204 NA 
HETATM   10  C   UNL     1      -8.157  15.703  66.268  1.00  0.00     0.186 C  
HETATM   11  C   UNL     1      -8.802  16.848  65.486  1.00  0.00     0.737 C  
HETATM   12  C   UNL     1      -9.426  17.891  66.440  1.00  0.00    -0.267 C  
HETATM   13  H   UNL     1     -10.534  19.485  66.234  1.00  0.00     0.000 HD 
HETATM   14  O   UNL     1     -10.151  18.843  65.647  1.00  0.00    -0.466 OA 
HETATM   15  C   UNL     1     -10.444  17.123  67.312  1.00  0.00    -0.313 C  
HETATM   16  C   UNL     1      -9.780  15.955  68.048  1.00  0.00    -0.216 C  
BRANCH  12  17
HETATM   17  C   UNL     1      -8.412  18.744  67.223  1.00  0.00    -0.283 A  
HETATM   18  C   UNL     1      -7.935  19.968  66.716  1.00  0.00    -0.349 A  
HETATM   19  C   UNL     1      -7.038  20.765  67.437  1.00  0.00    -0.412 A  
HETATM   20  C   UNL     1      -6.615  20.364  68.697  1.00  0.00    -0.253 A  
HETATM   21  C   UNL     1      -7.082  19.172  69.238  1.00  0.00    -0.308 A  
HETATM   22 CL   UNL     1      -5.534  21.354  69.595  1.00  0.00    -0.007 Cl 
HETATM   23  C   UNL     1      -7.977  18.377  68.512  1.00  0.00    -0.333 A  
ENDBRANCH  12  17
ENDBRANCH   8   9
ENDBRANCH   7   8
ENDBRANCH   6   7
BRANCH   6  24
HETATM   24  C   UNL     1     -11.303  11.811  68.015  1.00  0.00    -0.355 A  
HETATM   25  C   UNL     1     -11.128  13.077  68.611  1.00  0.00    -0.305 A  
HETATM   26  C   UNL     1     -12.096  10.888  68.717  1.00  0.00    -0.124 A  
HETATM   27  C   UNL     1     -11.669  13.371  69.870  1.00  0.00    -0.337 A  
HETATM   28  C   UNL     1     -12.409  12.415  70.558  1.00  0.00    -0.346 A  
HETATM   29  C   UNL     1     -12.627  11.174  69.976  1.00  0.00    -0.213 A  
ENDBRANCH   6  24
BRANCH   6  30
HETATM   30  C   UNL     1      -9.876  10.122  66.572  1.00  0.00    -0.268 A  
HETATM   31  C   UNL     1      -7.856   8.764  66.856  1.00  0.00    -0.101 A  
HETATM   32  C   UNL     1     -10.475   8.979  65.995  1.00  0.00     0.389 A  
HETATM   33  C   UNL     1      -8.559   9.962  67.041  1.00  0.00    -0.130 A  
HETATM   34  C   UNL     1      -8.474   7.668  66.266  1.00  0.00    -0.140 A  
HETATM   35  C   UNL     1      -9.795   7.767  65.857  1.00  0.00     0.346 A  
ENDBRANCH   6  30
ENDBRANCH   4   6
TORSDOF 7
ENDMDL
MODEL      176
REMARK 921   NORMALIZED FREE ENERGY PREDICTED BY IDOCK:   -0.80 KCAL/MOL
REMARK 922        TOTAL FREE ENERGY PREDICTED BY IDOCK:   -1.50 KCAL/MOL
REMARK 923 INTER-LIGAND FREE ENERGY PREDICTED BY IDOCK:   -3.07 KCAL/MOL
REMARK 924 INTRA-LIGAND FREE ENERGY PREDICTED BY IDOCK:    1.56 KCAL/MOL
REMARK 927      BINDING AFFINITY PREDICTED BY RF-SCORE:    0.00 PKD
ROOT
HETATM    1  C   UNL     1     -13.374   9.959  70.549  1.00  0.00     0.105 C  
HETATM    2  N   UNL     1     -11.959   9.854  70.202  1.00  0.00    -0.140 N  
HETATM    3  C   UNL     1     -11.109   9.220  71.195  1.00  0.00    -0.341 C  
HETATM    4  C   UNL     1     -11.523  10.628  69.122  1.00  0.00    -0.280 C  
HETATM    5  O   UNL     1     -12.365  11.309  68.514  1.00  0.00    -0.543 OA 
ENDROOT
BRANCH   4   6
HETATM    6  C   UNL     1      -9.991  10.642  68.646  1.00  0.00    -0.188 C  
BRANCH   6   7
HETATM    7  C   UNL     1      -9.334  11.837  69.484  1.00  0.00     1.063 C  
BRANCH   7   8
HETATM    8  C   UNL     1     -10.030  13.210  69.444  1.00  0.00     0.759 C  
BRANCH   8   9
HETATM    9  N   UNL     1      -9.150  14.372  69.197  1.00  0.00     0.009 NA 
HETATM   10  C   UNL     1      -8.988  14.747  67.785  1.00  0.00    -0.182 C  
HETATM   11  C   UNL     1     -10.219  15.435  67.195  1.00  0.00    -0.251 C  
HETATM   12  C   UNL     1     -10.578  16.712  67.989  1.00  0.00    -0.338 C  
HETATM   13  H   UNL     1     -12.047  17.997  67.977  1.00  0.00     0.000 HD 
HETATM   14  O   UNL     1     -11.827  17.211  67.488  1.00  0.00     0.815 OA 
HETATM   15  C   UNL     1     -10.796  16.262  69.450  1.00  0.00    -0.331 C  
HETATM   16  C   UNL     1      -9.564  15.537  70.001  1.00  0.00     0.034 C  
BRANCH  12  17
HETATM   17  C   UNL     1      -9.601  17.886  67.808  1.00  0.00    -0.277 A  
HETATM   18  C   UNL     1      -8.552  18.117  68.721  1.00  0.00    -0.222 A  
HETATM   19  C   UNL     1      -7.640  19.164  68.544  1.00  0.00    -0.369 A  
HETATM   20  C   UNL     1      -7.742  19.992  67.435  1.00  0.00    -0.295 A  
HETATM   21  C   UNL     1      -8.750  19.780  66.502  1.00  0.00    -0.408 A  
HETATM   22 CL   UNL     1      -6.607  21.261  67.203  1.00  0.00    -0.420 Cl 
HETATM   23  C   UNL     1      -9.663  18.733  66.684  1.00  0.00    -0.370 A  
ENDBRANCH  12  17
ENDBRANCH   8   9
ENDBRANCH   7   8
ENDBRANCH   6   7
BRANCH   6  24
HETATM   24  C   UNL     1      -9.328   9.289  69.078  1.00  0.00    -0.151 A  
HETATM   25  C   UNL     1      -9.548   8.118  68.325  1.00  0.00    -0.154 A  
HETATM   26  C   UNL     1      -8.491   9.168  70.201  1.00  0.00    -0.186 A  
HETATM   27  C   UNL     1      -9.009   6.886  68.717  1.00  0.00    -0.130 A  
HETATM   28  C   UNL     1      -8.224   6.795  69.862  1.00  0.00    -0.127 A  
HETATM   29  C   UNL     1      -7.961   7.940  70.600  1.00  0.00    -0.096 A  
ENDBRANCH   6  24
BRANCH   6  30
HETATM   30  C   UNL     1      -9.858  10.980  67.120  1.00  0.00    -0.211 A  
HETATM   31  C   UNL     1     -10.413  10.581  64.768  1.00  0.00    -0.198 A  
HETATM   32  C   UNL     1      -8.897  11.908  66.660  1.00  0.00    -0.191 A  
HETATM   33  C   UNL     1     -10.642  10.358  66.132  1.00  0.00    -0.160 A  
HETATM   34  C   UNL     1      -9.445  11.488  64.354  1.00  0.00    -0.100 A  
HETATM   35  C   UNL     1      -8.701  12.172  65.303  1.00  0.00     0.810 A  
ENDBRANCH   6  30
ENDBRANCH   4   6
TORSDOF 7
ENDMDL
MODEL      177
REMARK 921   NORMALIZED FREE ENERGY PREDICTED BY IDOCK:   -0.53 KCAL/MOL
REMARK 922        TOTAL FREE ENERGY PREDICTED BY IDOCK:   -1.12 KCAL/MOL
REMARK 923 INTER-LIGAND FREE ENERGY PREDICTED BY IDOCK:   -3.07 KCAL/MOL
REMARK 924 INTRA-LIGAND FREE ENERGY PREDICTED BY IDOCK:    1.95 KCAL/MOL
REMARK 927      BINDING AFFINITY PREDICTED BY RF-SCORE:    0.00 PKD
ROOT
HETATM    1  C   UNL     1     -11.929  12.436  63.406  1.00  0.00    -0.504 C  
HETATM    2  N   UNL     1     -10.740  12.307  64.244  1.00  0.00    -0.323 N  
HETATM    3  C   UNL     1      -9.698  13.294  64.020  1.00  0.00     1.058 C  
HETATM    4  C   UNL     1     -10.594  11.102  64.938  1.00  0.00    -0.289 C  
HETATM    5  O   UNL     1     -11.494  10.253  64.829  1.00  0.00     1.625 OA 
ENDROOT
BRANCH   4   6
HETATM    6  C   UNL     1      -9.323  10.803  65.870  1.00  0.00    -0.220 C  
BRANCH   6   7
HETATM    7  C   UNL     1      -8.780  12.255  66.267  1.00  0.00     0.057 C  
BRANCH   7   8
HETATM    8  C   UNL     1      -8.550  12.552  67.760  1.00  0.00    -0.178 C  
BRANCH   8   9
HETATM    9  N   UNL     1      -8.550  13.981  68.141  1.00  0.00    -0.173 NA 
HETATM   10  C   UNL     1      -8.152  14.913  67.076  1.00  0.00    -0.166 C  
HETATM   11  C   UNL     1      -9.223  15.102  66.001  1.00  0.00    -0.273 C  
HETATM   12  C   UNL     1     -10.543  15.618  66.616  1.00  0.00    -0.307 C  
HETATM   13  H   UNL     1     -12.357  15.932  65.966  1.00  0.00     0.000 HD 
HETATM   14  O   UNL     1     -11.545  15.614  65.588  1.00  0.00     0.011 OA 
HETATM   15  C   UNL     1     -10.954  14.581  67.685  1.00  0.00    -0.293 C  
HETATM   16  C   UNL     1      -9.846  14.379  68.722  1.00  0.00    -0.214 C  
BRANCH  12  17
HETATM   17  C   UNL     1     -10.507  17.076  67.104  1.00  0.00    -0.291 A  
HETATM   18  C   UNL     1     -10.651  17.399  68.468  1.00  0.00    -0.340 A  
HETATM   19  C   UNL     1     -10.586  18.721  68.922  1.00  0.00     0.271 A  
HETATM   20  C   UNL     1     -10.352  19.752  68.023  1.00  0.00    -0.434 A  
HETATM   21  C   UNL     1     -10.183  19.469  66.673  1.00  0.00    -0.553 A  
HETATM   22 CL   UNL     1     -10.245  21.374  68.583  1.00  0.00     0.982 Cl 
HETATM   23  C   UNL     1     -10.251  18.145  66.222  1.00  0.00    -0.401 A  
ENDBRANCH  12  17
ENDBRANCH   8   9
ENDBRANCH   7   8
ENDBRANCH   6   7
BRANCH   6  24
HETATM   24  C   UNL     1      -9.821  10.072  67.163  1.00  0.00    -0.231 A  
HETATM   25  C   UNL     1     -10.444  10.801  68.197  1.00  0.00    -0.214 A  
HETATM   26  C   UNL     1      -9.689   8.686  67.361  1.00  0.00    -0.227 A  
HETATM   27  C   UNL     1     -10.853  10.179  69.384  1.00  0.00    -0.274 A  
HETATM   28  C   UNL     1     -10.662   8.813  69.565  1.00  0.00    -0.196 A  
HETATM   29  C   UNL     1     -10.085   8.066  68.547  1.00  0.00    -0.218 A  
ENDBRANCH   6  24
BRANCH   6  30
HETATM   30  C   UNL     1      -8.191  10.051  65.087  1.00  0.00    -0.146 A  
HETATM   31  C   UNL     1      -5.831   9.648  64.567  1.00  0.00    -0.083 A  
HETATM   32  C   UNL     1      -8.499   9.179  64.018  1.00  0.00    -0.195 A  
HETATM   33  C   UNL     1      -6.824  10.229  65.367  1.00  0.00    -0.140 A  
HETATM   34  C   UNL     1      -6.174   8.811  63.512  1.00  0.00    -0.085 A  
HETATM   35  C   UNL     1      -7.512   8.556  63.252  1.00  0.00    -0.109 A  
ENDBRANCH   6  30
ENDBRANCH   4   6
TORSDOF 7
ENDMDL
MODEL      178
REMARK 921   NORMALIZED FREE ENERGY PREDICTED BY IDOCK:    3.30 KCAL/MOL
REMARK 922        TOTAL FREE ENERGY PREDICTED BY IDOCK:    4.27 KCAL/MOL
REMARK 923 INTER-LIGAND FREE ENERGY PREDICTED BY IDOCK:    2.33 KCAL/MOL
REMARK 924 INTRA-LIGAND FREE ENERGY PREDICTED BY IDOCK:    1.94 KCAL/MOL
REMARK 927      BINDING AFFINITY PREDICTED BY RF-SCORE:    0.00 PKD
ROOT
HETATM    1  C   UNL     1     -10.020  20.005  70.568  1.00  0.00     1.182 C  
HETATM    2  N   UNL     1      -9.714  19.029  69.525  1.00  0.00    -0.005 N  
HETATM    3  C   UNL     1     -10.853  18.511  68.788  1.00  0.00     0.628 C  
HETATM    4  C   UNL     1      -8.430  18.476  69.547  1.00  0.00     0.605 C  
HETATM    5  O   UNL     1      -7.636  18.878  70.414  1.00  0.00     1.199 OA 
ENDROOT
BRANCH   4   6
HETATM    6  C   UNL     1      -7.959  17.369  68.486  1.00  0.00    -0.266 C  
BRANCH   6   7
HETATM    7  C   UNL     1      -9.311  16.609  68.091  1.00  0.00    -0.224 C  
BRANCH   7   8
HETATM    8  C   UNL     1      -9.364  15.084  68.299  1.00  0.00    -0.192 C  
BRANCH   8   9
HETATM    9  N   UNL     1      -8.426  14.289  67.479  1.00  0.00    -0.174 NA 
HETATM   10  C   UNL     1      -8.134  12.941  67.989  1.00  0.00    -0.159 C  
HETATM   11  C   UNL     1      -9.287  11.956  67.795  1.00  0.00    -0.184 C  
HETATM   12  C   UNL     1      -9.664  11.828  66.301  1.00  0.00    -0.222 C  
HETATM   13  H   UNL     1     -11.080  10.945  65.289  1.00  0.00     0.000 HD 
HETATM   14  O   UNL     1     -10.849  11.023  66.208  1.00  0.00    -0.247 OA 
HETATM   15  C   UNL     1     -10.018  13.254  65.824  1.00  0.00    -0.261 C  
HETATM   16  C   UNL     1      -8.863  14.229  66.072  1.00  0.00     0.478 C  
BRANCH  12  17
HETATM   17  C   UNL     1      -8.634  11.088  65.432  1.00  0.00    -0.070 A  
HETATM   18  C   UNL     1      -7.285  11.491  65.386  1.00  0.00     1.095 A  
HETATM   19  C   UNL     1      -6.336  10.801  64.623  1.00  0.00     0.212 A  
HETATM   20  C   UNL     1      -6.711   9.676  63.903  1.00  0.00    -0.113 A  
HETATM   21  C   UNL     1      -8.029   9.236  63.941  1.00  0.00    -0.141 A  
HETATM   22 CL   UNL     1      -5.541   8.813  62.985  1.00  0.00    -0.070 Cl 
HETATM   23  C   UNL     1      -8.976   9.930  64.705  1.00  0.00    -0.260 A  
ENDBRANCH  12  17
ENDBRANCH   8   9
ENDBRANCH   7   8
ENDBRANCH   6   7
BRANCH   6  24
HETATM   24  C   UNL     1      -7.397  18.104  67.221  1.00  0.00    -0.219 A  
HETATM   25  C   UNL     1      -6.594  17.409  66.294  1.00  0.00    -0.279 A  
HETATM   26  C   UNL     1      -7.660  19.456  66.939  1.00  0.00    -0.261 A  
HETATM   27  C   UNL     1      -6.038  18.056  65.182  1.00  0.00     0.020 A  
HETATM   28  C   UNL     1      -6.280  19.408  64.961  1.00  0.00    -0.314 A  
HETATM   29  C   UNL     1      -7.098  20.105  65.839  1.00  0.00    -0.312 A  
ENDBRANCH   6  24
BRANCH   6  30
HETATM   30  C   UNL     1      -6.978  16.327  69.128  1.00  0.00    -0.206 A  
HETATM   31  C   UNL     1      -5.160  14.693  68.967  1.00  0.00    -0.087 A  
HETATM   32  C   UNL     1      -7.128  15.918  70.473  1.00  0.00     1.124 A  
HETATM   33  C   UNL     1      -5.937  15.716  68.407  1.00  0.00    -0.105 A  
HETATM   34  C   UNL     1      -5.350  14.305  70.287  1.00  0.00    -0.104 A  
HETATM   35  C   UNL     1      -6.320  14.936  71.050  1.00  0.00     0.260 A  
ENDBRANCH   6  30
ENDBRANCH   4   6
TORSDOF 7
ENDMDL
MODEL      179
REMARK 921   NORMALIZED FREE ENERGY PREDICTED BY IDOCK:    4.79 KCAL/MOL
REMARK 922        TOTAL FREE ENERGY PREDICTED BY IDOCK:    6.38 KCAL/MOL
REMARK 923 INTER-LIGAND FREE ENERGY PREDICTED BY IDOCK:    4.41 KCAL/MOL
REMARK 924 INTRA-LIGAND FREE ENERGY PREDICTED BY IDOCK:    1.96 KCAL/MOL
REMARK 927      BINDING AFFINITY PREDICTED BY RF-SCORE:    0.00 PKD
ROOT
HETATM    1  C   UNL     1     -11.160  15.469  72.643  1.00  0.00     0.368 C  
HETATM    2  N   UNL     1     -11.092  14.892  71.303  1.00  0.00    -0.136 N  
HETATM    3  C   UNL     1     -12.257  14.136  70.880  1.00  0.00    -0.363 C  
HETATM    4  C   UNL     1      -9.830  14.862  70.701  1.00  0.00     1.005 C  
HETATM    5  O   UNL     1      -8.875  15.359  71.321  1.00  0.00     2.447 OA 
ENDROOT
BRANCH   4   6
HETATM    6  C   UNL     1      -9.594  14.228  69.246  1.00  0.00     0.175 C  
BRANCH   6   7
HETATM    7  C   UNL     1     -10.009  12.692  69.418  1.00  0.00     0.789 C  
BRANCH   7   8
HETATM    8  C   UNL     1     -11.045  12.115  68.436  1.00  0.00    -0.245 C  
BRANCH   8   9
HETATM    9  N   UNL     1     -10.802  10.728  67.985  1.00  0.00    -0.233 NA 
HETATM   10  C   UNL     1      -9.391  10.375  67.776  1.00  0.00    -0.145 C  
HETATM   11  C   UNL     1      -8.612  10.189  69.078  1.00  0.00    -0.156 C  
HETATM   12  C   UNL     1      -9.251   9.090  69.957  1.00  0.00    -0.180 C  
HETATM   13  H   UNL     1      -8.969   8.406  71.763  1.00  0.00     0.000 HD 
HETATM   14  O   UNL     1      -8.575   9.082  71.223  1.00  0.00    -0.212 OA 
HETATM   15  C   UNL     1     -10.712   9.530  70.199  1.00  0.00    -0.299 C  
HETATM   16  C   UNL     1     -11.455   9.753  68.879  1.00  0.00     0.155 C  
BRANCH  12  17
HETATM   17  C   UNL     1      -9.083   7.655  69.429  1.00  0.00    -0.142 A  
HETATM   18  C   UNL     1      -9.255   6.537  70.269  1.00  0.00    -0.156 A  
HETATM   19  C   UNL     1      -9.136   5.229  69.787  1.00  0.00    -0.150 A  
HETATM   20  C   UNL     1      -8.863   5.007  68.444  1.00  0.00    -0.102 A  
HETATM   21  C   UNL     1      -8.710   6.085  67.581  1.00  0.00    -0.104 A  
HETATM   22 CL   UNL     1      -8.743   3.400  67.846  1.00  0.00    -0.120 Cl 
HETATM   23  C   UNL     1      -8.828   7.393  68.068  1.00  0.00    -0.126 A  
ENDBRANCH  12  17
ENDBRANCH   8   9
ENDBRANCH   7   8
ENDBRANCH   6   7
BRANCH   6  24
HETATM   24  C   UNL     1     -10.581  14.916  68.243  1.00  0.00    -0.240 A  
HETATM   25  C   UNL     1     -10.670  16.322  68.184  1.00  0.00    -0.322 A  
HETATM   26  C   UNL     1     -11.405  14.196  67.360  1.00  0.00    -0.346 A  
HETATM   27  C   UNL     1     -11.581  16.961  67.332  1.00  0.00     0.739 A  
HETATM   28  C   UNL     1     -12.415  16.214  66.507  1.00  0.00     2.690 A  
HETATM   29  C   UNL     1     -12.321  14.829  66.519  1.00  0.00     0.096 A  
ENDBRANCH   6  24
BRANCH   6  30
HETATM   30  C   UNL     1      -8.085  14.287  68.824  1.00  0.00    -0.109 A  
HETATM   31  C   UNL     1      -6.277  15.110  67.390  1.00  0.00     0.040 A  
HETATM   32  C   UNL     1      -7.134  13.408  69.392  1.00  0.00     0.134 A  
HETATM   33  C   UNL     1      -7.602  15.170  67.842  1.00  0.00    -0.151 A  
HETATM   34  C   UNL     1      -5.376  14.218  67.961  1.00  0.00    -0.109 A  
HETATM   35  C   UNL     1      -5.800  13.382  68.982  1.00  0.00    -0.079 A  
ENDBRANCH   6  30
ENDBRANCH   4   6
TORSDOF 7
ENDMDL
MODEL      180
REMARK 921   NORMALIZED FREE ENERGY PREDICTED BY IDOCK:    5.14 KCAL/MOL
REMARK 922        TOTAL FREE ENERGY PREDICTED BY IDOCK:    6.86 KCAL/MOL
REMARK 923 INTER-LIGAND FREE ENERGY PREDICTED BY IDOCK:    4.66 KCAL/MOL
REMARK 924 INTRA-LIGAND FREE ENERGY PREDICTED BY IDOCK:    2.20 KCAL/MOL
REMARK 927      BINDING AFFINITY PREDICTED BY RF-SCORE:    0.00 PKD
ROOT
HETATM    1  C   UNL     1     -12.469  16.879  64.560  1.00  0.00     3.695 C  
HETATM    2  N   UNL     1     -11.726  16.374  65.711  1.00  0.00     0.883 N  
HETATM    3  C   UNL     1     -12.507  16.123  66.909  1.00  0.00     2.528 C  
HETATM    4  C   UNL     1     -10.332  16.474  65.646  1.00  0.00    -0.322 C  
HETATM    5  O   UNL     1      -9.828  16.941  64.611  1.00  0.00     1.074 OA 
ENDROOT
BRANCH   4   6
HETATM    6  C   UNL     1      -9.385  15.993  66.848  1.00  0.00    -0.246 C  
BRANCH   6   7
HETATM    7  C   UNL     1      -9.096  14.453  66.523  1.00  0.00    -0.233 C  
BRANCH   7   8
HETATM    8  C   UNL     1     -10.293  13.562  66.145  1.00  0.00    -0.296 C  
BRANCH   8   9
HETATM    9  N   UNL     1     -10.114  12.112  66.372  1.00  0.00    -0.216 NA 
HETATM   10  C   UNL     1      -9.665  11.344  65.201  1.00  0.00    -0.244 C  
HETATM   11  C   UNL     1      -8.192  11.569  64.856  1.00  0.00     0.851 C  
HETATM   12  C   UNL     1      -7.280  11.197  66.047  1.00  0.00     0.057 C  
HETATM   13  H   UNL     1      -5.376  11.356  66.449  1.00  0.00     0.000 HD 
HETATM   14  O   UNL     1      -5.937  11.584  65.717  1.00  0.00    -0.017 OA 
HETATM   15  C   UNL     1      -7.748  12.066  67.235  1.00  0.00    -0.168 C  
HETATM   16  C   UNL     1      -9.236  11.856  67.529  1.00  0.00    -0.177 C  
BRANCH  12  17
HETATM   17  C   UNL     1      -7.178   9.691  66.343  1.00  0.00    -0.094 A  
HETATM   18  C   UNL     1      -8.298   8.947  66.762  1.00  0.00    -0.111 A  
HETATM   19  C   UNL     1      -8.219   7.570  67.001  1.00  0.00    -0.124 A  
HETATM   20  C   UNL     1      -7.019   6.900  66.804  1.00  0.00    -0.066 A  
HETATM   21  C   UNL     1      -5.899   7.598  66.370  1.00  0.00    -0.037 A  
HETATM   22 CL   UNL     1      -6.928   5.205  67.072  1.00  0.00    -0.063 Cl 
HETATM   23  C   UNL     1      -5.982   8.976  66.134  1.00  0.00    -0.055 A  
ENDBRANCH  12  17
ENDBRANCH   8   9
ENDBRANCH   7   8
ENDBRANCH   6   7
BRANCH   6  24
HETATM   24  C   UNL     1      -8.041  16.794  66.768  1.00  0.00    -0.273 A  
HETATM   25  C   UNL     1      -8.057  18.196  66.619  1.00  0.00    -0.283 A  
HETATM   26  C   UNL     1      -6.777  16.184  66.849  1.00  0.00    -0.100 A  
HETATM   27  C   UNL     1      -6.871  18.930  66.495  1.00  0.00    -0.223 A  
HETATM   28  C   UNL     1      -5.638  18.286  66.530  1.00  0.00    -0.178 A  
HETATM   29  C   UNL     1      -5.593  16.911  66.714  1.00  0.00    -0.165 A  
ENDBRANCH   6  24
BRANCH   6  30
HETATM   30  C   UNL     1     -10.116  16.075  68.234  1.00  0.00    -0.229 A  
HETATM   31  C   UNL     1     -10.906  17.330  70.183  1.00  0.00     0.663 A  
HETATM   32  C   UNL     1     -10.517  14.904  68.917  1.00  0.00    -0.242 A  
HETATM   33  C   UNL     1     -10.372  17.293  68.889  1.00  0.00    -0.352 A  
HETATM   34  C   UNL     1     -11.271  16.155  70.830  1.00  0.00    -0.329 A  
HETATM   35  C   UNL     1     -11.098  14.940  70.186  1.00  0.00    -0.247 A  
ENDBRANCH   6  30
ENDBRANCH   4   6
TORSDOF 7
ENDMDL
MODEL      181
REMARK 921   NORMALIZED FREE ENERGY PREDICTED BY IDOCK:    5.53 KCAL/MOL
REMARK 922        TOTAL FREE ENERGY PREDICTED BY IDOCK:    7.42 KCAL/MOL
REMARK 923 INTER-LIGAND FREE ENERGY PREDICTED BY IDOCK:    3.59 KCAL/MOL
REMARK 924 INTRA-LIGAND FREE ENERGY PREDICTED BY IDOCK:    3.83 KCAL/MOL
REMARK 927      BINDING AFFINITY PREDICTED BY RF-SCORE:    0.00 PKD
ROOT
HETATM    1  C   UNL     1     -11.111   4.166  67.232  1.00  0.00     3.325 C  
HETATM    2  N   UNL     1     -10.397   5.173  68.013  1.00  0.00    -0.118 N  
HETATM    3  C   UNL     1      -9.621   4.672  69.133  1.00  0.00    -0.175 C  
HETATM    4  C   UNL     1     -10.769   6.504  67.802  1.00  0.00    -0.296 C  
HETATM    5  O   UNL     1     -11.639   6.740  66.947  1.00  0.00     0.049 OA 
ENDROOT
BRANCH   4   6
HETATM    6  C   UNL     1     -10.098   7.716  68.612  1.00  0.00    -0.201 C  
BRANCH   6   7
HETATM    7  C   UNL     1      -8.650   7.872  67.948  1.00  0.00    -0.125 C  
BRANCH   7   8
HETATM    8  C   UNL     1      -7.441   8.019  68.891  1.00  0.00    -0.093 C  
BRANCH   8   9
HETATM    9  N   UNL     1      -6.703   9.297  68.798  1.00  0.00    -0.053 NA 
HETATM   10  C   UNL     1      -7.026  10.124  67.627  1.00  0.00    -0.085 C  
HETATM   11  C   UNL     1      -8.390  10.809  67.725  1.00  0.00    -0.113 C  
HETATM   12  C   UNL     1      -8.471  11.708  68.980  1.00  0.00     0.168 C  
HETATM   13  H   UNL     1      -9.869  12.739  69.870  1.00  0.00     0.000 HD 
HETATM   14  O   UNL     1      -9.819  12.186  69.099  1.00  0.00     0.122 OA 
HETATM   15  C   UNL     1      -8.183  10.789  70.187  1.00  0.00     0.961 C  
HETATM   16  C   UNL     1      -6.833  10.081  70.040  1.00  0.00    -0.126 C  
BRANCH  12  17
HETATM   17  C   UNL     1      -7.620  12.988  68.919  1.00  0.00     0.047 A  
HETATM   18  C   UNL     1      -7.604  13.808  67.773  1.00  0.00    -0.173 A  
HETATM   19  C   UNL     1      -6.858  14.991  67.724  1.00  0.00    -0.190 A  
HETATM   20  C   UNL     1      -6.125  15.393  68.831  1.00  0.00    -0.098 A  
HETATM   21  C   UNL     1      -6.134  14.622  69.986  1.00  0.00    -0.151 A  
HETATM   22 CL   UNL     1      -5.228  16.860  68.781  1.00  0.00    -0.120 Cl 
HETATM   23  C   UNL     1      -6.880  13.438  70.031  1.00  0.00     0.372 A  
ENDBRANCH  12  17
ENDBRANCH   8   9
ENDBRANCH   7   8
ENDBRANCH   6   7
BRANCH   6  24
HETATM   24  C   UNL     1     -10.930   9.015  68.336  1.00  0.00     0.036 A  
HETATM   25  C   UNL     1     -10.817   9.681  67.098  1.00  0.00    -0.184 A  
HETATM   26  C   UNL     1     -11.819   9.571  69.272  1.00  0.00     0.576 A  
HETATM   27  C   UNL     1     -11.512  10.872  66.845  1.00  0.00     0.121 A  
HETATM   28  C   UNL     1     -12.346  11.419  67.814  1.00  0.00     0.942 A  
HETATM   29  C   UNL     1     -12.504  10.762  69.027  1.00  0.00     0.339 A  
ENDBRANCH   6  24
BRANCH   6  30
HETATM   30  C   UNL     1      -9.910   7.369  70.129  1.00  0.00    -0.180 A  
HETATM   31  C   UNL     1      -8.509   7.092  72.121  1.00  0.00    -0.116 A  
HETATM   32  C   UNL     1     -10.970   6.825  70.890  1.00  0.00    -0.303 A  
HETATM   33  C   UNL     1      -8.686   7.533  70.802  1.00  0.00    -0.140 A  
HETATM   34  C   UNL     1      -9.572   6.544  72.830  1.00  0.00    -0.157 A  
HETATM   35  C   UNL     1     -10.813   6.433  72.220  1.00  0.00    -0.272 A  
ENDBRANCH   6  30
ENDBRANCH   4   6
TORSDOF 7
ENDMDL
MODEL      182
REMARK 921   NORMALIZED FREE ENERGY PREDICTED BY IDOCK:    6.76 KCAL/MOL
REMARK 922        TOTAL FREE ENERGY PREDICTED BY IDOCK:    9.15 KCAL/MOL
REMARK 923 INTER-LIGAND FREE ENERGY PREDICTED BY IDOCK:    4.98 KCAL/MOL
REMARK 924 INTRA-LIGAND FREE ENERGY PREDICTED BY IDOCK:    4.17 KCAL/MOL
REMARK 927      BINDING AFFINITY PREDICTED BY RF-SCORE:    0.00 PKD
ROOT
HETATM    1  C   UNL     1     -11.336   2.360  68.460  1.00  0.00     9.505 C  
HETATM    2  N   UNL     1     -10.008   2.831  68.845  1.00  0.00     0.427 N  
HETATM    3  C   UNL     1      -9.389   2.137  69.960  1.00  0.00    -0.102 C  
HETATM    4  C   UNL     1      -9.608   4.064  68.321  1.00  0.00    -0.125 C  
HETATM    5  O   UNL     1     -10.381   4.647  67.543  1.00  0.00    -0.072 OA 
ENDROOT
BRANCH   4   6
HETATM    6  C   UNL     1      -8.191   4.724  68.682  1.00  0.00    -0.083 C  
BRANCH   6   7
HETATM    7  C   UNL     1      -7.846   5.628  67.407  1.00  0.00    -0.101 C  
BRANCH   7   8
HETATM    8  C   UNL     1      -7.796   7.155  67.601  1.00  0.00    -0.113 C  
BRANCH   8   9
HETATM    9  N   UNL     1      -8.745   7.710  68.590  1.00  0.00    -0.129 NA 
HETATM   10  C   UNL     1      -8.280   8.910  69.301  1.00  0.00    -0.114 C  
HETATM   11  C   UNL     1      -8.295  10.171  68.437  1.00  0.00    -0.113 C  
HETATM   12  C   UNL     1      -9.714  10.458  67.896  1.00  0.00    -0.149 C  
HETATM   13  H   UNL     1     -10.498  11.726  66.637  1.00  0.00     0.000 HD 
HETATM   14  O   UNL     1      -9.626  11.550  66.968  1.00  0.00    -0.182 OA 
HETATM   15  C   UNL     1     -10.138   9.198  67.110  1.00  0.00    -0.301 C  
HETATM   16  C   UNL     1     -10.070   7.944  67.986  1.00  0.00    -0.192 C  
BRANCH  12  17
HETATM   17  C   UNL     1     -10.726  10.938  68.950  1.00  0.00    -0.252 A  
HETATM   18  C   UNL     1     -10.901  10.253  70.169  1.00  0.00    -0.362 A  
HETATM   19  C   UNL     1     -11.796  10.704  71.146  1.00  0.00    -0.339 A  
HETATM   20  C   UNL     1     -12.524  11.867  70.935  1.00  0.00    -0.300 A  
HETATM   21  C   UNL     1     -12.362  12.581  69.754  1.00  0.00    -0.085 A  
HETATM   22 CL   UNL     1     -13.604  12.435  72.145  1.00  0.00    -0.531 Cl 
HETATM   23  C   UNL     1     -11.466  12.125  68.778  1.00  0.00    -0.359 A  
ENDBRANCH  12  17
ENDBRANCH   8   9
ENDBRANCH   7   8
ENDBRANCH   6   7
BRANCH   6  24
HETATM   24  C   UNL     1      -8.382   5.652  69.930  1.00  0.00    -0.117 A  
HETATM   25  C   UNL     1      -7.274   6.310  70.503  1.00  0.00    -0.080 A  
HETATM   26  C   UNL     1      -9.632   5.885  70.530  1.00  0.00    -0.208 A  
HETATM   27  C   UNL     1      -7.410   7.104  71.649  1.00  0.00    -0.085 A  
HETATM   28  C   UNL     1      -8.656   7.273  72.244  1.00  0.00    -0.131 A  
HETATM   29  C   UNL     1      -9.768   6.666  71.678  1.00  0.00    -0.170 A  
ENDBRANCH   6  24
BRANCH   6  30
HETATM   30  C   UNL     1      -7.066   3.642  68.836  1.00  0.00    -0.050 A  
HETATM   31  C   UNL     1      -5.786   1.728  67.998  1.00  0.00    -0.019 A  
HETATM   32  C   UNL     1      -6.391   3.461  70.065  1.00  0.00    -0.028 A  
HETATM   33  C   UNL     1      -6.698   2.771  67.794  1.00  0.00    -0.040 A  
HETATM   34  C   UNL     1      -5.157   1.571  69.228  1.00  0.00    -0.007 A  
HETATM   35  C   UNL     1      -5.442   2.456  70.257  1.00  0.00    -0.016 A  
ENDBRANCH   6  30
ENDBRANCH   4   6
TORSDOF 7
ENDMDL
MODEL      183
REMARK 921   NORMALIZED FREE ENERGY PREDICTED BY IDOCK:    7.39 KCAL/MOL
REMARK 922        TOTAL FREE ENERGY PREDICTED BY IDOCK:   10.04 KCAL/MOL
REMARK 923 INTER-LIGAND FREE ENERGY PREDICTED BY IDOCK:    6.37 KCAL/MOL
REMARK 924 INTRA-LIGAND FREE ENERGY PREDICTED BY IDOCK:    3.67 KCAL/MOL
REMARK 927      BINDING AFFINITY PREDICTED BY RF-SCORE:    0.00 PKD
ROOT
HETATM    1  C   UNL     1      -6.292  18.008  65.578  1.00  0.00    -0.168 C  
HETATM    2  N   UNL     1      -6.795  16.950  66.449  1.00  0.00    -0.212 N  
HETATM    3  C   UNL     1      -5.917  16.553  67.536  1.00  0.00    -0.149 C  
HETATM    4  C   UNL     1      -7.900  16.230  65.982  1.00  0.00     0.336 C  
HETATM    5  O   UNL     1      -8.396  16.564  64.893  1.00  0.00     2.462 OA 
ENDROOT
BRANCH   4   6
HETATM    6  C   UNL     1      -8.542  15.018  66.813  1.00  0.00    -0.279 C  
BRANCH   6   7
HETATM    7  C   UNL     1      -7.949  13.707  66.111  1.00  0.00     1.907 C  
BRANCH   7   8
HETATM    8  C   UNL     1      -7.291  12.646  67.012  1.00  0.00     0.055 C  
BRANCH   8   9
HETATM    9  N   UNL     1      -7.577  11.238  66.664  1.00  0.00    -0.150 NA 
HETATM   10  C   UNL     1      -6.550  10.269  67.073  1.00  0.00    -0.074 C  
HETATM   11  C   UNL     1      -6.539   9.994  68.577  1.00  0.00    -0.053 C  
HETATM   12  C   UNL     1      -7.909   9.465  69.056  1.00  0.00    -0.079 C  
HETATM   13  H   UNL     1      -8.723   9.060  70.783  1.00  0.00     0.000 HD 
HETATM   14  O   UNL     1      -7.880   9.386  70.489  1.00  0.00    -0.140 OA 
HETATM   15  C   UNL     1      -8.947  10.537  68.659  1.00  0.00    -0.162 C  
HETATM   16  C   UNL     1      -8.906  10.825  67.155  1.00  0.00    -0.134 C  
BRANCH  12  17
HETATM   17  C   UNL     1      -8.247   8.034  68.605  1.00  0.00    -0.126 A  
HETATM   18  C   UNL     1      -7.290   7.217  67.971  1.00  0.00    -0.097 A  
HETATM   19  C   UNL     1      -7.582   5.902  67.588  1.00  0.00    -0.089 A  
HETATM   20  C   UNL     1      -8.835   5.366  67.851  1.00  0.00    -0.105 A  
HETATM   21  C   UNL     1      -9.797   6.135  68.494  1.00  0.00    -0.157 A  
HETATM   22 CL   UNL     1      -9.185   3.744  67.404  1.00  0.00    -0.191 Cl 
HETATM   23  C   UNL     1      -9.501   7.451  68.874  1.00  0.00    -0.144 A  
ENDBRANCH  12  17
ENDBRANCH   8   9
ENDBRANCH   7   8
ENDBRANCH   6   7
BRANCH   6  24
HETATM   24  C   UNL     1      -8.012  15.094  68.286  1.00  0.00    -0.129 A  
HETATM   25  C   UNL     1      -7.740  13.912  69.005  1.00  0.00     0.026 A  
HETATM   26  C   UNL     1      -7.773  16.307  68.954  1.00  0.00    -0.219 A  
HETATM   27  C   UNL     1      -7.314  13.952  70.339  1.00  0.00     1.193 A  
HETATM   28  C   UNL     1      -7.134  15.172  70.984  1.00  0.00     1.243 A  
HETATM   29  C   UNL     1      -7.359  16.350  70.286  1.00  0.00     1.363 A  
ENDBRANCH   6  24
BRANCH   6  30
HETATM   30  C   UNL     1     -10.104  14.984  66.680  1.00  0.00    -0.267 A  
HETATM   31  C   UNL     1     -12.353  15.339  67.584  1.00  0.00     0.671 A  
HETATM   32  C   UNL     1     -10.728  14.383  65.563  1.00  0.00    -0.344 A  
HETATM   33  C   UNL     1     -10.964  15.500  67.666  1.00  0.00    -0.315 A  
HETATM   34  C   UNL     1     -12.928  14.725  66.478  1.00  0.00     1.297 A  
HETATM   35  C   UNL     1     -12.115  14.267  65.453  1.00  0.00    -0.396 A  
ENDBRANCH   6  30
ENDBRANCH   4   6
TORSDOF 7
ENDMDL
MODEL      184
REMARK 921   NORMALIZED FREE ENERGY PREDICTED BY IDOCK:    8.69 KCAL/MOL
REMARK 922        TOTAL FREE ENERGY PREDICTED BY IDOCK:   11.87 KCAL/MOL
REMARK 923 INTER-LIGAND FREE ENERGY PREDICTED BY IDOCK:    5.91 KCAL/MOL
REMARK 924 INTRA-LIGAND FREE ENERGY PREDICTED BY IDOCK:    5.96 KCAL/MOL
REMARK 927      BINDING AFFINITY PREDICTED BY RF-SCORE:    0.00 PKD
ROOT
HETATM    1  C   UNL     1      -7.413  10.368  68.476  1.00  0.00    -0.089 C  
HETATM    2  N   UNL     1      -7.407  10.813  67.085  1.00  0.00    -0.097 N  
HETATM    3  C   UNL     1      -6.240  11.570  66.667  1.00  0.00    -0.113 C  
HETATM    4  C   UNL     1      -8.625  10.739  66.401  1.00  0.00    -0.158 C  
HETATM    5  O   UNL     1      -9.604  10.267  67.002  1.00  0.00    -0.163 OA 
ENDROOT
BRANCH   4   6
HETATM    6  C   UNL     1      -8.780  11.222  64.880  1.00  0.00     0.173 C  
BRANCH   6   7
HETATM    7  C   UNL     1      -8.165  12.700  64.876  1.00  0.00     3.446 C  
BRANCH   7   8
HETATM    8  C   UNL     1      -9.135  13.881  64.691  1.00  0.00     2.756 C  
BRANCH   8   9
HETATM    9  N   UNL     1      -9.470  14.637  65.917  1.00  0.00    -0.254 NA 
HETATM   10  C   UNL     1     -10.906  14.851  66.148  1.00  0.00    -0.327 C  
HETATM   11  C   UNL     1     -11.642  13.593  66.609  1.00  0.00    -0.391 C  
HETATM   12  C   UNL     1     -11.028  13.036  67.914  1.00  0.00    -0.241 C  
HETATM   13  H   UNL     1     -11.275  11.433  69.000  1.00  0.00     0.000 HD 
HETATM   14  O   UNL     1     -11.652  11.775  68.197  1.00  0.00    -0.292 OA 
HETATM   15  C   UNL     1      -9.537  12.771  67.608  1.00  0.00    -0.192 C  
HETATM   16  C   UNL     1      -8.836  14.036  67.105  1.00  0.00    -0.228 C  
BRANCH  12  17
HETATM   17  C   UNL     1     -11.294  13.882  69.170  1.00  0.00    -0.331 A  
HETATM   18  C   UNL     1     -10.470  14.973  69.511  1.00  0.00    -0.245 A  
HETATM   19  C   UNL     1     -10.726  15.767  70.635  1.00  0.00    -0.199 A  
HETATM   20  C   UNL     1     -11.829  15.499  71.434  1.00  0.00    -0.401 A  
HETATM   21  C   UNL     1     -12.676  14.445  71.117  1.00  0.00    -0.422 A  
HETATM   22 CL   UNL     1     -12.159  16.490  72.800  1.00  0.00    -0.546 Cl 
HETATM   23  C   UNL     1     -12.414  13.652  69.993  1.00  0.00    -0.267 A  
ENDBRANCH  12  17
ENDBRANCH   8   9
ENDBRANCH   7   8
ENDBRANCH   6   7
BRANCH   6  24
HETATM   24  C   UNL     1      -7.896  10.297  63.975  1.00  0.00    -0.114 A  
HETATM   25  C   UNL     1      -8.349   9.011  63.616  1.00  0.00    -0.178 A  
HETATM   26  C   UNL     1      -6.640  10.685  63.475  1.00  0.00     0.141 A  
HETATM   27  C   UNL     1      -7.557   8.146  62.851  1.00  0.00    -0.123 A  
HETATM   28  C   UNL     1      -6.298   8.546  62.414  1.00  0.00    -0.095 A  
HETATM   29  C   UNL     1      -5.844   9.821  62.722  1.00  0.00    -0.098 A  
ENDBRANCH   6  24
BRANCH   6  30
HETATM   30  C   UNL     1     -10.285  11.314  64.449  1.00  0.00    -0.377 A  
HETATM   31  C   UNL     1     -12.678  11.052  64.904  1.00  0.00     3.599 A  
HETATM   32  C   UNL     1     -10.645  11.586  63.109  1.00  0.00    -0.323 A  
HETATM   33  C   UNL     1     -11.348  11.094  65.343  1.00  0.00     0.124 A  
HETATM   34  C   UNL     1     -12.990  11.305  63.574  1.00  0.00     0.937 A  
HETATM   35  C   UNL     1     -11.973  11.597  62.678  1.00  0.00     0.996 A  
ENDBRANCH   6  30
ENDBRANCH   4   6
TORSDOF 7
ENDMDL
MODEL      185
REMARK 921   NORMALIZED FREE ENERGY PREDICTED BY IDOCK:   10.47 KCAL/MOL
REMARK 922        TOTAL FREE ENERGY PREDICTED BY IDOCK:   14.38 KCAL/MOL
REMARK 923 INTER-LIGAND FREE ENERGY PREDICTED BY IDOCK:    1.80 KCAL/MOL
REMARK 924 INTRA-LIGAND FREE ENERGY PREDICTED BY IDOCK:   12.58 KCAL/MOL
REMARK 927      BINDING AFFINITY PREDICTED BY RF-SCORE:    0.00 PKD
ROOT
HETATM    1  C   UNL     1     -12.133   9.379  68.880  1.00  0.00     1.719 C  
HETATM    2  N   UNL     1     -11.113  10.387  68.602  1.00  0.00    -0.258 N  
HETATM    3  C   UNL     1      -9.762   9.886  68.418  1.00  0.00    -0.149 C  
HETATM    4  C   UNL     1     -11.470  11.718  68.841  1.00  0.00    -0.297 C  
HETATM    5  O   UNL     1     -12.627  11.952  69.227  1.00  0.00     0.071 OA 
ENDROOT
BRANCH   4   6
HETATM    6  C   UNL     1     -10.444  12.930  68.613  1.00  0.00    -0.231 C  
BRANCH   6   7
HETATM    7  C   UNL     1     -10.614  13.299  67.065  1.00  0.00    -0.259 C  
BRANCH   7   8
HETATM    8  C   UNL     1     -11.736  12.597  66.279  1.00  0.00    -0.402 C  
BRANCH   8   9
HETATM    9  N   UNL     1     -11.366  11.323  65.626  1.00  0.00    -0.016 NA 
HETATM   10  C   UNL     1     -10.932  11.438  64.227  1.00  0.00    -0.321 C  
HETATM   11  C   UNL     1      -9.533  12.034  64.072  1.00  0.00     0.078 C  
HETATM   12  C   UNL     1      -8.482  11.189  64.827  1.00  0.00     0.257 C  
HETATM   13  H   UNL     1      -6.583  11.369  65.243  1.00  0.00     0.000 HD 
HETATM   14  O   UNL     1      -7.229  11.889  64.779  1.00  0.00     2.337 OA 
HETATM   15  C   UNL     1      -8.945  11.143  66.300  1.00  0.00    -0.202 C  
HETATM   16  C   UNL     1     -10.366  10.585  66.421  1.00  0.00    -0.221 C  
BRANCH  12  17
HETATM   17  C   UNL     1      -8.175   9.819  64.199  1.00  0.00    -0.158 A  
HETATM   18  C   UNL     1      -6.957   9.154  64.442  1.00  0.00    -0.091 A  
HETATM   19  C   UNL     1      -6.685   7.893  63.901  1.00  0.00    -0.062 A  
HETATM   20  C   UNL     1      -7.638   7.255  63.118  1.00  0.00    -0.113 A  
HETATM   21  C   UNL     1      -8.859   7.871  62.874  1.00  0.00     0.596 A  
HETATM   22 CL   UNL     1      -7.316   5.695  62.473  1.00  0.00    -0.045 Cl 
HETATM   23  C   UNL     1      -9.126   9.135  63.417  1.00  0.00     0.160 A  
ENDBRANCH  12  17
ENDBRANCH   8   9
ENDBRANCH   7   8
ENDBRANCH   6   7
BRANCH   6  24
HETATM   24  C   UNL     1     -10.916  14.145  69.483  1.00  0.00    -0.176 A  
HETATM   25  C   UNL     1     -11.478  13.930  70.758  1.00  0.00     0.187 A  
HETATM   26  C   UNL     1     -10.802  15.482  69.062  1.00  0.00    -0.249 A  
HETATM   27  C   UNL     1     -11.954  14.995  71.535  1.00  0.00    -0.416 A  
HETATM   28  C   UNL     1     -11.868  16.302  71.064  1.00  0.00    -0.246 A  
HETATM   29  C   UNL     1     -11.285  16.543  69.828  1.00  0.00    -0.166 A  
ENDBRANCH   6  24
BRANCH   6  30
HETATM   30  C   UNL     1      -8.959  12.489  68.855  1.00  0.00     0.312 A  
HETATM   31  C   UNL     1      -6.548  12.750  68.505  1.00  0.00    -0.086 A  
HETATM   32  C   UNL     1      -8.656  11.281  69.524  1.00  0.00     0.575 A  
HETATM   33  C   UNL     1      -7.858  13.232  68.392  1.00  0.00    -0.137 A  
HETATM   34  C   UNL     1      -6.292  11.547  69.153  1.00  0.00    -0.078 A  
HETATM   35  C   UNL     1      -7.348  10.822  69.686  1.00  0.00    -0.107 A  
ENDBRANCH   6  30
ENDBRANCH   4   6
TORSDOF 7
ENDMDL
MODEL      186
REMARK 921   NORMALIZED FREE ENERGY PREDICTED BY IDOCK:   17.21 KCAL/MOL
REMARK 922        TOTAL FREE ENERGY PREDICTED BY IDOCK:   23.88 KCAL/MOL
REMARK 923 INTER-LIGAND FREE ENERGY PREDICTED BY IDOCK:   21.23 KCAL/MOL
REMARK 924 INTRA-LIGAND FREE ENERGY PREDICTED BY IDOCK:    2.65 KCAL/MOL
REMARK 927      BINDING AFFINITY PREDICTED BY RF-SCORE:    0.00 PKD
ROOT
HETATM    1  C   UNL     1      -9.540  19.175  70.268  1.00  0.00     1.272 C  
HETATM    2  N   UNL     1      -9.400  17.908  69.556  1.00  0.00     0.389 N  
HETATM    3  C   UNL     1     -10.620  17.365  68.985  1.00  0.00    -0.207 C  
HETATM    4  C   UNL     1      -8.204  17.211  69.754  1.00  0.00     1.143 C  
HETATM    5  O   UNL     1      -7.339  17.729  70.478  1.00  0.00     2.015 OA 
ENDROOT
BRANCH   4   6
HETATM    6  C   UNL     1      -7.921  15.790  69.064  1.00  0.00    -0.214 C  
BRANCH   6   7
HETATM    7  C   UNL     1      -9.334  15.040  69.123  1.00  0.00    -0.189 C  
BRANCH   7   8
HETATM    8  C   UNL     1      -9.339  13.546  69.497  1.00  0.00     1.206 C  
BRANCH   8   9
HETATM    9  N   UNL     1      -8.505  12.667  68.649  1.00  0.00    -0.030 NA 
HETATM   10  C   UNL     1      -8.185  11.355  69.229  1.00  0.00     0.222 C  
HETATM   11  C   UNL     1      -9.369  10.388  69.232  1.00  0.00    -0.202 C  
HETATM   12  C   UNL     1      -9.903  10.157  67.801  1.00  0.00    -0.163 C  
HETATM   13  H   UNL     1     -11.433   9.236  67.013  1.00  0.00     0.000 HD 
HETATM   14  O   UNL     1     -11.106   9.378  67.894  1.00  0.00    -0.136 OA 
HETATM   15  C   UNL     1     -10.280  11.551  67.253  1.00  0.00    -0.229 C  
HETATM   16  C   UNL     1      -9.089  12.512  67.303  1.00  0.00    -0.189 C  
BRANCH  12  17
HETATM   17  C   UNL     1      -8.983   9.327  66.890  1.00  0.00    -0.149 A  
HETATM   18  C   UNL     1      -7.666   9.737  66.605  1.00  0.00    -0.102 A  
HETATM   19  C   UNL     1      -6.813   8.969  65.804  1.00  0.00    -0.076 A  
HETATM   20  C   UNL     1      -7.253   7.759  65.285  1.00  0.00    -0.068 A  
HETATM   21  C   UNL     1      -8.539   7.313  65.562  1.00  0.00    -0.090 A  
HETATM   22 CL   UNL     1      -6.197   6.803  64.322  1.00  0.00    -0.035 Cl 
HETATM   23  C   UNL     1      -9.390   8.085  66.363  1.00  0.00    -0.259 A  
ENDBRANCH  12  17
ENDBRANCH   8   9
ENDBRANCH   7   8
ENDBRANCH   6   7
BRANCH   6  24
HETATM   24  C   UNL     1      -7.535  16.037  67.566  1.00  0.00    -0.186 A  
HETATM   25  C   UNL     1      -6.931  15.012  66.809  1.00  0.00     0.919 A  
HETATM   26  C   UNL     1      -7.769  17.254  66.903  1.00  0.00    -0.250 A  
HETATM   27  C   UNL     1      -6.530  15.223  65.484  1.00  0.00     8.704 A  
HETATM   28  C   UNL     1      -6.734  16.457  64.875  1.00  0.00     7.354 A  
HETATM   29  C   UNL     1      -7.360  17.471  65.586  1.00  0.00     0.228 A  
ENDBRANCH   6  24
BRANCH   6  30
HETATM   30  C   UNL     1      -6.881  14.945  69.878  1.00  0.00    -0.167 A  
HETATM   31  C   UNL     1      -5.243  13.131  70.057  1.00  0.00    -0.093 A  
HETATM   32  C   UNL     1      -6.743  15.108  71.276  1.00  0.00     1.088 A  
HETATM   33  C   UNL     1      -6.068  13.961  69.286  1.00  0.00    -0.098 A  
HETATM   34  C   UNL     1      -5.149  13.310  71.432  1.00  0.00    -0.172 A  
HETATM   35  C   UNL     1      -5.883  14.317  72.040  1.00  0.00    -0.006 A  
ENDBRANCH   6  30
ENDBRANCH   4   6
TORSDOF 7
ENDMDL
MODEL      187
REMARK 921   NORMALIZED FREE ENERGY PREDICTED BY IDOCK:   17.73 KCAL/MOL
REMARK 922        TOTAL FREE ENERGY PREDICTED BY IDOCK:   24.61 KCAL/MOL
REMARK 923 INTER-LIGAND FREE ENERGY PREDICTED BY IDOCK:   21.78 KCAL/MOL
REMARK 924 INTRA-LIGAND FREE ENERGY PREDICTED BY IDOCK:    2.83 KCAL/MOL
REMARK 927      BINDING AFFINITY PREDICTED BY RF-SCORE:    0.00 PKD
ROOT
HETATM    1  C   UNL     1      -8.968  14.762  67.966  1.00  0.00    -0.174 C  
HETATM    2  N   UNL     1      -8.919  13.544  67.162  1.00  0.00    -0.219 N  
HETATM    3  C   UNL     1     -10.157  13.170  66.503  1.00  0.00    -0.280 C  
HETATM    4  C   UNL     1      -7.807  12.717  67.351  1.00  0.00    -0.172 C  
HETATM    5  O   UNL     1      -6.930  13.090  68.147  1.00  0.00    -0.082 OA 
ENDROOT
BRANCH   4   6
HETATM    6  C   UNL     1      -7.631  11.331  66.563  1.00  0.00    -0.111 C  
BRANCH   6   7
HETATM    7  C   UNL     1      -6.736  10.436  67.542  1.00  0.00    -0.071 C  
BRANCH   7   8
HETATM    8  C   UNL     1      -6.616   8.933  67.232  1.00  0.00    -0.062 C  
BRANCH   8   9
HETATM    9  N   UNL     1      -7.740   8.338  66.479  1.00  0.00    -0.091 NA 
HETATM   10  C   UNL     1      -7.391   7.783  65.164  1.00  0.00    -0.071 C  
HETATM   11  C   UNL     1      -6.624   6.463  65.246  1.00  0.00    -0.039 C  
HETATM   12  C   UNL     1      -7.436   5.395  66.012  1.00  0.00    -0.082 C  
HETATM   13  H   UNL     1      -7.098   3.587  66.665  1.00  0.00     0.000 HD 
HETATM   14  O   UNL     1      -6.598   4.244  66.194  1.00  0.00    -0.040 OA 
HETATM   15  C   UNL     1      -7.730   5.995  67.404  1.00  0.00    -0.097 C  
HETATM   16  C   UNL     1      -8.458   7.338  67.291  1.00  0.00    -0.118 C  
BRANCH  12  17
HETATM   17  C   UNL     1      -8.666   4.853  65.264  1.00  0.00    -0.146 A  
HETATM   18  C   UNL     1      -8.587   4.444  63.918  1.00  0.00    -0.122 A  
HETATM   19  C   UNL     1      -9.695   3.919  63.242  1.00  0.00    -0.151 A  
HETATM   20  C   UNL     1     -10.905   3.770  63.906  1.00  0.00    -0.180 A  
HETATM   21  C   UNL     1     -11.014   4.143  65.240  1.00  0.00     0.188 A  
HETATM   22 CL   UNL     1     -12.258   3.101  63.084  1.00  0.00     2.936 Cl 
HETATM   23  C   UNL     1      -9.903   4.669  65.912  1.00  0.00    -0.231 A  
ENDBRANCH  12  17
ENDBRANCH   8   9
ENDBRANCH   7   8
ENDBRANCH   6   7
BRANCH   6  24
HETATM   24  C   UNL     1      -9.043  10.667  66.411  1.00  0.00    -0.183 A  
HETATM   25  C   UNL     1      -9.665  10.602  65.147  1.00  0.00    -0.327 A  
HETATM   26  C   UNL     1      -9.748  10.106  67.490  1.00  0.00    -0.190 A  
HETATM   27  C   UNL     1     -10.947  10.060  64.993  1.00  0.00     1.571 A  
HETATM   28  C   UNL     1     -11.636   9.557  66.092  1.00  0.00     3.422 A  
HETATM   29  C   UNL     1     -11.030   9.576  67.341  1.00  0.00    -0.103 A  
ENDBRANCH   6  24
BRANCH   6  30
HETATM   30  C   UNL     1      -6.849  11.521  65.217  1.00  0.00     1.400 A  
HETATM   31  C   UNL     1      -6.547  12.583  63.030  1.00  0.00     6.908 A  
HETATM   32  C   UNL     1      -5.789  10.655  64.860  1.00  0.00    -0.053 A  
HETATM   33  C   UNL     1      -7.175  12.519  64.280  1.00  0.00     7.966 A  
HETATM   34  C   UNL     1      -5.522  11.701  62.708  1.00  0.00     0.938 A  
HETATM   35  C   UNL     1      -5.126  10.750  63.636  1.00  0.00    -0.155 A  
ENDBRANCH   6  30
ENDBRANCH   4   6
TORSDOF 7
ENDMDL
MODEL      188
REMARK 921   NORMALIZED FREE ENERGY PREDICTED BY IDOCK:   18.82 KCAL/MOL
REMARK 922        TOTAL FREE ENERGY PREDICTED BY IDOCK:   26.15 KCAL/MOL
REMARK 923 INTER-LIGAND FREE ENERGY PREDICTED BY IDOCK:   13.96 KCAL/MOL
REMARK 924 INTRA-LIGAND FREE ENERGY PREDICTED BY IDOCK:   12.19 KCAL/MOL
REMARK 927      BINDING AFFINITY PREDICTED BY RF-SCORE:    0.00 PKD
ROOT
HETATM    1  C   UNL     1     -10.959  15.639  63.245  1.00  0.00     4.328 C  
HETATM    2  N   UNL     1     -10.320  14.824  64.275  1.00  0.00     0.527 N  
HETATM    3  C   UNL     1      -9.347  13.855  63.803  1.00  0.00     5.111 C  
HETATM    4  C   UNL     1     -10.915  14.841  65.541  1.00  0.00    -0.346 C  
HETATM    5  O   UNL     1     -11.906  15.570  65.711  1.00  0.00     0.151 OA 
ENDROOT
BRANCH   4   6
HETATM    6  C   UNL     1     -10.345  13.970  66.762  1.00  0.00    -0.271 C  
BRANCH   6   7
HETATM    7  C   UNL     1     -11.330  14.313  67.977  1.00  0.00    -0.318 C  
BRANCH   7   8
HETATM    8  C   UNL     1     -10.700  14.588  69.355  1.00  0.00    -0.195 C  
BRANCH   8   9
HETATM    9  N   UNL     1     -10.782  13.481  70.332  1.00  0.00     1.209 NA 
HETATM   10  C   UNL     1     -11.880  12.530  70.112  1.00  0.00    -0.258 C  
HETATM   11  C   UNL     1     -11.644  11.592  68.928  1.00  0.00    -0.384 C  
HETATM   12  C   UNL     1     -10.341  10.781  69.113  1.00  0.00    -0.217 C  
HETATM   13  H   UNL     1      -9.295   9.551  68.015  1.00  0.00     0.000 HD 
HETATM   14  O   UNL     1     -10.096  10.050  67.901  1.00  0.00    -0.156 OA 
HETATM   15  C   UNL     1      -9.209  11.817  69.281  1.00  0.00     0.569 C  
HETATM   16  C   UNL     1      -9.494  12.771  70.445  1.00  0.00     5.395 C  
BRANCH  12  17
HETATM   17  C   UNL     1     -10.399   9.697  70.203  1.00  0.00    -0.315 A  
HETATM   18  C   UNL     1     -11.626   9.258  70.739  1.00  0.00    -0.345 A  
HETATM   19  C   UNL     1     -11.687   8.249  71.708  1.00  0.00    -0.357 A  
HETATM   20  C   UNL     1     -10.520   7.640  72.147  1.00  0.00    -0.221 A  
HETATM   21  C   UNL     1      -9.294   8.032  71.625  1.00  0.00    -0.208 A  
HETATM   22 CL   UNL     1     -10.596   6.382  73.317  1.00  0.00    -0.268 Cl 
HETATM   23  C   UNL     1      -9.237   9.043  70.657  1.00  0.00    -0.279 A  
ENDBRANCH  12  17
ENDBRANCH   8   9
ENDBRANCH   7   8
ENDBRANCH   6   7
BRANCH   6  24
HETATM   24  C   UNL     1     -10.491  12.453  66.397  1.00  0.00    -0.267 A  
HETATM   25  C   UNL     1      -9.427  11.560  66.635  1.00  0.00    -0.208 A  
HETATM   26  C   UNL     1     -11.660  11.907  65.837  1.00  0.00    -0.291 A  
HETATM   27  C   UNL     1      -9.513  10.210  66.271  1.00  0.00    -0.229 A  
HETATM   28  C   UNL     1     -10.668   9.714  65.674  1.00  0.00     0.775 A  
HETATM   29  C   UNL     1     -11.744  10.565  65.464  1.00  0.00     2.150 A  
ENDBRANCH   6  24
BRANCH   6  30
HETATM   30  C   UNL     1      -8.895  14.411  67.165  1.00  0.00    -0.244 A  
HETATM   31  C   UNL     1      -6.682  13.942  68.107  1.00  0.00    -0.125 A  
HETATM   32  C   UNL     1      -8.505  15.769  67.117  1.00  0.00    -0.235 A  
HETATM   33  C   UNL     1      -7.925  13.504  67.630  1.00  0.00    -0.177 A  
HETATM   34  C   UNL     1      -6.344  15.289  68.061  1.00  0.00    -0.155 A  
HETATM   35  C   UNL     1      -7.248  16.202  67.542  1.00  0.00    -0.188 A  
ENDBRANCH   6  30
ENDBRANCH   4   6
TORSDOF 7
ENDMDL
MODEL      189
REMARK 921   NORMALIZED FREE ENERGY PREDICTED BY IDOCK:   30.94 KCAL/MOL
REMARK 922        TOTAL FREE ENERGY PREDICTED BY IDOCK:   43.22 KCAL/MOL
REMARK 923 INTER-LIGAND FREE ENERGY PREDICTED BY IDOCK:   23.35 KCAL/MOL
REMARK 924 INTRA-LIGAND FREE ENERGY PREDICTED BY IDOCK:   19.87 KCAL/MOL
REMARK 927      BINDING AFFINITY PREDICTED BY RF-SCORE:    0.00 PKD
ROOT
HETATM    1  C   UNL     1     -10.866  15.644  63.243  1.00  0.00     4.866 C  
HETATM    2  N   UNL     1     -10.134  15.025  64.345  1.00  0.00     0.620 N  
HETATM    3  C   UNL     1      -9.165  14.011  63.971  1.00  0.00     4.909 C  
HETATM    4  C   UNL     1     -10.644  15.240  65.629  1.00  0.00    -0.362 C  
HETATM    5  O   UNL     1     -11.645  15.966  65.747  1.00  0.00     0.192 OA 
ENDROOT
BRANCH   4   6
HETATM    6  C   UNL     1      -9.967  14.597  66.934  1.00  0.00    -0.254 C  
BRANCH   6   7
HETATM    7  C   UNL     1     -10.712  15.316  68.154  1.00  0.00    -0.257 C  
BRANCH   7   8
HETATM    8  C   UNL     1      -9.936  15.480  69.474  1.00  0.00    -0.280 C  
BRANCH   8   9
HETATM    9  N   UNL     1      -9.782  14.255  70.287  1.00  0.00     1.329 NA 
HETATM   10  C   UNL     1      -9.737  12.998  69.525  1.00  0.00     1.277 C  
HETATM   11  C   UNL     1      -8.417  12.785  68.783  1.00  0.00     0.161 C  
HETATM   12  C   UNL     1      -7.221  12.791  69.762  1.00  0.00     0.691 C  
HETATM   13  H   UNL     1      -5.277  12.756  69.591  1.00  0.00     0.000 HD 
HETATM   14  O   UNL     1      -6.012  12.753  68.988  1.00  0.00    -0.074 OA 
HETATM   15  C   UNL     1      -7.274  14.149  70.496  1.00  0.00     0.910 C  
HETATM   16  C   UNL     1      -8.622  14.356  71.192  1.00  0.00     4.379 C  
BRANCH  12  17
HETATM   17  C   UNL     1      -7.124  11.560  70.678  1.00  0.00     2.032 A  
HETATM   18  C   UNL     1      -7.854  10.384  70.410  1.00  0.00     0.570 A  
HETATM   19  C   UNL     1      -7.744   9.249  71.221  1.00  0.00     0.025 A  
HETATM   20  C   UNL     1      -6.883   9.256  72.310  1.00  0.00     0.455 A  
HETATM   21  C   UNL     1      -6.131  10.389  72.591  1.00  0.00     1.443 A  
HETATM   22 CL   UNL     1      -6.728   7.853  73.291  1.00  0.00    -0.091 Cl 
HETATM   23  C   UNL     1      -6.245  11.524  71.778  1.00  0.00     2.168 A  
ENDBRANCH  12  17
ENDBRANCH   8   9
ENDBRANCH   7   8
ENDBRANCH   6   7
BRANCH   6  24
HETATM   24  C   UNL     1     -10.303  13.066  66.960  1.00  0.00    -0.247 A  
HETATM   25  C   UNL     1      -9.355  12.139  67.440  1.00  0.00    -0.181 A  
HETATM   26  C   UNL     1     -11.535  12.543  66.530  1.00  0.00    -0.418 A  
HETATM   27  C   UNL     1      -9.611  10.762  67.427  1.00  0.00    -0.179 A  
HETATM   28  C   UNL     1     -10.824  10.276  66.948  1.00  0.00    -0.205 A  
HETATM   29  C   UNL     1     -11.788  11.170  66.505  1.00  0.00     0.837 A  
ENDBRANCH   6  24
BRANCH   6  30
HETATM   30  C   UNL     1      -8.438  14.934  67.023  1.00  0.00    -0.260 A  
HETATM   31  C   UNL     1      -6.163  14.442  67.786  1.00  0.00    -0.151 A  
HETATM   32  C   UNL     1      -7.936  16.170  66.557  1.00  0.00    -0.294 A  
HETATM   33  C   UNL     1      -7.498  14.061  67.600  1.00  0.00    -0.186 A  
HETATM   34  C   UNL     1      -5.710  15.675  67.331  1.00  0.00    -0.006 A  
HETATM   35  C   UNL     1      -6.594  16.532  66.693  1.00  0.00    -0.071 A  
ENDBRANCH   6  30
ENDBRANCH   4   6
TORSDOF 7
ENDMDL
MODEL      190
REMARK 921   NORMALIZED FREE ENERGY PREDICTED BY IDOCK:   38.43 KCAL/MOL
REMARK 922        TOTAL FREE ENERGY PREDICTED BY IDOCK:   53.78 KCAL/MOL
REMARK 923 INTER-LIGAND FREE ENERGY PREDICTED BY IDOCK:   46.90 KCAL/MOL
REMARK 924 INTRA-LIGAND FREE ENERGY PREDICTED BY IDOCK:    6.88 KCAL/MOL
REMARK 927      BINDING AFFINITY PREDICTED BY RF-SCORE:    0.00 PKD
ROOT
HETATM    1  C   UNL     1      -8.761  18.717  70.369  1.00  0.00     2.731 C  
HETATM    2  N   UNL     1      -8.891  17.270  70.222  1.00  0.00     2.495 N  
HETATM    3  C   UNL     1     -10.206  16.788  69.840  1.00  0.00     0.138 C  
HETATM    4  C   UNL     1      -7.854  16.495  70.750  1.00  0.00     3.872 C  
HETATM    5  O   UNL     1      -6.887  17.083  71.263  1.00  0.00     3.002 OA 
ENDROOT
BRANCH   4   6
HETATM    6  C   UNL     1      -7.874  14.891  70.693  1.00  0.00     1.376 C  
BRANCH   6   7
HETATM    7  C   UNL     1      -9.408  14.511  70.943  1.00  0.00     2.937 C  
BRANCH   7   8
HETATM    8  C   UNL     1      -9.781  13.018  70.980  1.00  0.00     8.853 C  
BRANCH   8   9
HETATM    9  N   UNL     1      -9.221  12.187  69.892  1.00  0.00     2.327 NA 
HETATM   10  C   UNL     1      -9.449  10.741  70.027  1.00  0.00     0.772 C  
HETATM   11  C   UNL     1     -10.890  10.323  69.734  1.00  0.00    -0.332 C  
HETATM   12  C   UNL     1     -11.310  10.739  68.306  1.00  0.00    -0.309 C  
HETATM   13  H   UNL     1     -12.970  10.722  67.279  1.00  0.00     0.000 HD 
HETATM   14  O   UNL     1     -12.712  10.466  68.157  1.00  0.00     1.747 OA 
HETATM   15  C   UNL     1     -11.111  12.268  68.228  1.00  0.00    -0.282 C  
HETATM   16  C   UNL     1      -9.671  12.663  68.570  1.00  0.00    -0.128 C  
BRANCH  12  17
HETATM   17  C   UNL     1     -10.646   9.938  67.173  1.00  0.00    -0.295 A  
HETATM   18  C   UNL     1      -9.387  10.301  66.656  1.00  0.00    -0.192 A  
HETATM   19  C   UNL     1      -8.763   9.557  65.648  1.00  0.00    -0.173 A  
HETATM   20  C   UNL     1      -9.376   8.416  65.149  1.00  0.00     0.436 A  
HETATM   21  C   UNL     1     -10.608   8.015  65.650  1.00  0.00     2.778 A  
HETATM   22 CL   UNL     1      -8.598   7.487  63.929  1.00  0.00     0.309 Cl 
HETATM   23  C   UNL     1     -11.230   8.764  66.658  1.00  0.00     1.387 A  
ENDBRANCH  12  17
ENDBRANCH   8   9
ENDBRANCH   7   8
ENDBRANCH   6   7
BRANCH   6  24
HETATM   24  C   UNL     1      -7.464  14.444  69.249  1.00  0.00    -0.060 A  
HETATM   25  C   UNL     1      -6.103  14.385  68.882  1.00  0.00    -0.087 A  
HETATM   26  C   UNL     1      -8.397  14.075  68.265  1.00  0.00    -0.162 A  
HETATM   27  C   UNL     1      -5.712  14.037  67.583  1.00  0.00     0.003 A  
HETATM   28  C   UNL     1      -6.668  13.725  66.621  1.00  0.00     2.141 A  
HETATM   29  C   UNL     1      -8.012  13.739  66.966  1.00  0.00     0.050 A  
ENDBRANCH   6  24
BRANCH   6  30
HETATM   30  C   UNL     1      -7.016  14.258  71.844  1.00  0.00     2.563 A  
HETATM   31  C   UNL     1      -5.789  12.384  72.837  1.00  0.00     2.057 A  
HETATM   32  C   UNL     1      -6.821  14.939  73.067  1.00  0.00     3.167 A  
HETATM   33  C   UNL     1      -6.437  12.980  71.747  1.00  0.00     2.747 A  
HETATM   34  C   UNL     1      -5.633  13.079  74.031  1.00  0.00     0.513 A  
HETATM   35  C   UNL     1      -6.129  14.369  74.138  1.00  0.00     0.521 A  
ENDBRANCH   6  30
ENDBRANCH   4   6
TORSDOF 7
ENDMDL
