MODEL        1
REMARK 921   NORMALIZED FREE ENERGY PREDICTED BY IDOCK:   -7.48 KCAL/MOL
REMARK 922        TOTAL FREE ENERGY PREDICTED BY IDOCK:  -18.15 KCAL/MOL
REMARK 923 INTER-LIGAND FREE ENERGY PREDICTED BY IDOCK:  -13.60 KCAL/MOL
REMARK 924 INTRA-LIGAND FREE ENERGY PREDICTED BY IDOCK:   -4.55 KCAL/MOL
REMARK 927      BINDING AFFINITY PREDICTED BY RF-SCORE:    0.00 PKD
ROOT
HETATM    1  C   UNL     1      -6.925  16.896  66.667  1.00  0.00    -0.281 C  
HETATM    2  C   UNL     1      -8.003  16.056  67.369  1.00  0.00    -0.184 C  
HETATM    3  C   UNL     1      -9.396  16.253  66.695  1.00  0.00    -0.248 C  
HETATM    4  C   UNL     1      -7.534  14.600  67.408  1.00  0.00    -0.212 C  
ENDROOT
BRANCH   3   5
HETATM    5  N   UNL     1      -9.844  17.663  66.775  1.00  0.00    -0.290 N  
HETATM    6  H   UNL     1     -11.154  20.019  64.971  1.00  0.00     0.000 HD 
HETATM    7  O   UNL     1     -10.995  17.590  64.783  1.00  0.00    -0.950 OA 
HETATM    8  C   UNL     1      -9.677  18.424  68.007  1.00  0.00    -0.316 C  
HETATM    9  C   UNL     1     -10.539  18.227  65.727  1.00  0.00    -0.186 C  
HETATM   10  C   UNL     1      -9.130  19.798  67.670  1.00  0.00    -0.416 C  
HETATM   11  N   UNL     1     -10.655  19.588  65.749  1.00  0.00    -0.489 N  
HETATM   12  C   UNL     1     -10.139  20.479  66.768  1.00  0.00    -0.219 C  
ENDBRANCH   3   5
BRANCH   3  13
HETATM   13  C   UNL     1     -10.456  15.252  67.250  1.00  0.00    -0.275 C  
HETATM   14  O   UNL     1     -10.998  15.377  68.343  1.00  0.00    -0.259 OA 
HETATM   15  N   UNL     1     -10.680  14.151  66.449  1.00  0.00    -0.286 N  
HETATM   16  H   UNL     1     -10.201  14.139  65.549  1.00  0.00     0.000 HD 
BRANCH  15  17
HETATM   17  C   UNL     1     -11.528  12.999  66.749  1.00  0.00    -0.345 C  
BRANCH  17  18
HETATM   18  C   UNL     1     -11.052  12.173  67.964  1.00  0.00    -0.292 C  
BRANCH  18  19
HETATM   19  C   UNL     1     -11.876  12.028  69.270  1.00  0.00    -0.318 C  
HETATM   20  O   UNL     1     -11.436  13.006  70.217  1.00  0.00    -0.512 OA 
HETATM   21  H   UNL     1     -11.941  12.918  71.017  1.00  0.00     0.000 HD 
BRANCH  19  22
HETATM   22  C   UNL     1     -11.663  10.604  69.917  1.00  0.00    -0.317 C  
BRANCH  22  23
HETATM   23  N   UNL     1     -12.854  10.107  70.696  1.00  0.00    -0.518 N  
HETATM   24  C   UNL     1     -13.099   9.314  71.797  1.00  0.00    -0.400 C  
HETATM   25  H   UNL     1     -13.724  10.456  70.296  1.00  0.00     0.000 HD 
HETATM   26  O   UNL     1     -14.227   9.346  72.298  1.00  0.00    -0.318 OA 
BRANCH  24  27
HETATM   27  C   UNL     1     -12.031   8.332  72.307  1.00  0.00    -0.386 C  
BRANCH  27  28
HETATM   28  O   UNL     1     -11.945   6.986  71.868  1.00  0.00    -0.294 OA 
BRANCH  28  29
HETATM   29  C   UNL     1     -10.692   6.394  71.788  1.00  0.00    -0.233 A  
HETATM   30  C   UNL     1      -9.761   6.744  74.247  1.00  0.00    -0.328 C  
HETATM   31  C   UNL     1      -9.735   6.238  72.826  1.00  0.00    -0.162 A  
HETATM   32  C   UNL     1      -8.564   5.486  72.564  1.00  0.00    -0.121 A  
HETATM   33  C   UNL     1      -8.305   4.916  71.328  1.00  0.00    -0.115 A  
HETATM   34  C   UNL     1      -9.214   5.099  70.300  1.00  0.00    -0.193 A  
HETATM   35  C   UNL     1     -10.396   5.839  70.506  1.00  0.00    -0.312 A  
HETATM   36  C   UNL     1     -11.305   6.007  69.313  1.00  0.00    -0.245 C  
ENDBRANCH  28  29
ENDBRANCH  27  28
ENDBRANCH  24  27
ENDBRANCH  22  23
BRANCH  22  37
HETATM   37  C   UNL     1     -10.960   9.604  68.960  1.00  0.00    -0.161 C  
BRANCH  37  38
HETATM   38  C   UNL     1      -9.578   9.200  69.393  1.00  0.00    -0.165 A  
HETATM   39  C   UNL     1      -7.104   8.222  70.269  1.00  0.00    -0.040 A  
HETATM   40  C   UNL     1      -9.145   9.441  70.700  1.00  0.00    -0.292 A  
HETATM   41  C   UNL     1      -7.497   8.042  68.949  1.00  0.00    -0.093 A  
HETATM   42  C   UNL     1      -8.705   8.572  68.506  1.00  0.00    -0.139 A  
HETATM   43  C   UNL     1      -7.914   8.955  71.134  1.00  0.00    -0.181 A  
ENDBRANCH  37  38
ENDBRANCH  22  37
ENDBRANCH  19  22
ENDBRANCH  18  19
ENDBRANCH  17  18
BRANCH  17  44
HETATM   44  C   UNL     1     -12.018  12.236  65.499  1.00  0.00    -0.387 C  
BRANCH  44  45
HETATM   45  C   UNL     1     -10.919  11.479  64.779  1.00  0.00    -0.338 A  
HETATM   46  C   UNL     1     -10.277  10.380  65.375  1.00  0.00    -0.329 A  
HETATM   47  C   UNL     1     -10.504  11.885  63.505  1.00  0.00    -0.505 A  
HETATM   48  C   UNL     1      -9.220   9.734  64.725  1.00  0.00    -0.319 A  
HETATM   49  C   UNL     1      -9.450  11.235  62.856  1.00  0.00    -0.385 A  
HETATM   50  C   UNL     1      -8.801  10.167  63.468  1.00  0.00    -0.242 A  
ENDBRANCH  44  45
ENDBRANCH  17  44
ENDBRANCH  15  17
ENDBRANCH   3  13
TORSDOF 14
ENDMDL
MODEL        2
REMARK 921   NORMALIZED FREE ENERGY PREDICTED BY IDOCK:   -7.20 KCAL/MOL
REMARK 922        TOTAL FREE ENERGY PREDICTED BY IDOCK:  -17.64 KCAL/MOL
REMARK 923 INTER-LIGAND FREE ENERGY PREDICTED BY IDOCK:  -14.44 KCAL/MOL
REMARK 924 INTRA-LIGAND FREE ENERGY PREDICTED BY IDOCK:   -3.20 KCAL/MOL
REMARK 927      BINDING AFFINITY PREDICTED BY RF-SCORE:    0.00 PKD
ROOT
HETATM    1  C   UNL     1      -6.059  17.462  66.387  1.00  0.00    -0.256 C  
HETATM    2  C   UNL     1      -6.701  16.739  67.581  1.00  0.00    -0.163 C  
HETATM    3  C   UNL     1      -8.244  16.604  67.392  1.00  0.00    -0.169 C  
HETATM    4  C   UNL     1      -5.982  15.404  67.783  1.00  0.00    -0.164 C  
ENDROOT
BRANCH   3   5
HETATM    5  N   UNL     1      -8.899  17.930  67.302  1.00  0.00    -0.240 N  
HETATM    6  H   UNL     1     -10.938  19.636  65.444  1.00  0.00     0.000 HD 
HETATM    7  O   UNL     1     -10.410  17.265  65.697  1.00  0.00    -0.580 OA 
HETATM    8  C   UNL     1      -8.611  18.966  68.286  1.00  0.00    -0.330 C  
HETATM    9  C   UNL     1      -9.883  18.151  66.363  1.00  0.00    -0.353 C  
HETATM   10  C   UNL     1      -8.389  20.283  67.568  1.00  0.00    -0.365 C  
HETATM   11  N   UNL     1     -10.222  19.457  66.147  1.00  0.00    -0.456 N  
HETATM   12  C   UNL     1      -9.665  20.612  66.820  1.00  0.00    -0.227 C  
ENDBRANCH   3   5
BRANCH   3  13
HETATM   13  C   UNL     1      -8.884  15.689  68.481  1.00  0.00    -0.187 C  
HETATM   14  O   UNL     1      -8.446  15.586  69.622  1.00  0.00    -0.244 OA 
HETATM   15  N   UNL     1      -9.943  14.923  68.038  1.00  0.00    -0.218 N  
HETATM   16  H   UNL     1     -10.253  15.087  67.080  1.00  0.00     0.000 HD 
BRANCH  15  17
HETATM   17  C   UNL     1     -10.670  13.902  68.790  1.00  0.00    -0.262 C  
BRANCH  17  18
HETATM   18  C   UNL     1     -10.329  12.456  68.369  1.00  0.00    -0.236 C  
BRANCH  18  19
HETATM   19  C   UNL     1      -8.878  11.947  68.172  1.00  0.00    -0.178 C  
HETATM   20  O   UNL     1      -8.242  12.717  67.147  1.00  0.00    -0.182 OA 
HETATM   21  H   UNL     1      -7.353  12.405  67.026  1.00  0.00     0.000 HD 
BRANCH  19  22
HETATM   22  C   UNL     1      -8.866  10.436  67.715  1.00  0.00    -0.128 C  
BRANCH  22  23
HETATM   23  N   UNL     1      -8.365   9.486  68.773  1.00  0.00    -0.115 N  
HETATM   24  C   UNL     1      -8.827   8.919  69.941  1.00  0.00    -0.151 C  
HETATM   25  H   UNL     1      -7.416   9.175  68.566  1.00  0.00     0.000 HD 
HETATM   26  O   UNL     1      -8.203   7.962  70.411  1.00  0.00    -0.115 OA 
BRANCH  24  27
HETATM   27  C   UNL     1     -10.016   9.538  70.695  1.00  0.00    -0.276 C  
BRANCH  27  28
HETATM   28  O   UNL     1     -10.521   9.011  71.911  1.00  0.00    -0.343 OA 
BRANCH  28  29
HETATM   29  C   UNL     1     -11.830   8.552  71.942  1.00  0.00    -0.341 A  
HETATM   30  C   UNL     1     -13.210  10.813  71.813  1.00  0.00    -0.523 C  
HETATM   31  C   UNL     1     -13.023   9.317  71.857  1.00  0.00    -0.489 A  
HETATM   32  C   UNL     1     -14.263   8.638  71.778  1.00  0.00    -0.490 A  
HETATM   33  C   UNL     1     -14.358   7.255  71.802  1.00  0.00    -0.560 A  
HETATM   34  C   UNL     1     -13.202   6.505  71.926  1.00  0.00     0.033 A  
HETATM   35  C   UNL     1     -11.942   7.130  72.009  1.00  0.00    -0.332 A  
HETATM   36  C   UNL     1     -10.747   6.224  72.174  1.00  0.00    -0.269 C  
ENDBRANCH  28  29
ENDBRANCH  27  28
ENDBRANCH  24  27
ENDBRANCH  22  23
BRANCH  22  37
HETATM   37  C   UNL     1     -10.143  10.032  66.930  1.00  0.00    -0.287 C  
BRANCH  37  38
HETATM   38  C   UNL     1     -10.033  10.204  65.440  1.00  0.00    -0.377 A  
HETATM   39  C   UNL     1      -9.635  10.689  62.710  1.00  0.00    -0.333 A  
HETATM   40  C   UNL     1     -10.769  11.193  64.783  1.00  0.00    -0.334 A  
HETATM   41  C   UNL     1      -8.953   9.656  63.341  1.00  0.00    -0.246 A  
HETATM   42  C   UNL     1      -9.191   9.387  64.686  1.00  0.00    -0.185 A  
HETATM   43  C   UNL     1     -10.571  11.433  63.425  1.00  0.00    -0.435 A  
ENDBRANCH  37  38
ENDBRANCH  22  37
ENDBRANCH  19  22
ENDBRANCH  18  19
ENDBRANCH  17  18
BRANCH  17  44
HETATM   44  C   UNL     1     -12.150  14.252  69.055  1.00  0.00    -0.320 C  
BRANCH  44  45
HETATM   45  C   UNL     1     -12.424  14.699  70.478  1.00  0.00    -0.408 A  
HETATM   46  C   UNL     1     -13.399  14.068  71.268  1.00  0.00    -0.342 A  
HETATM   47  C   UNL     1     -11.719  15.778  71.024  1.00  0.00    -0.462 A  
HETATM   48  C   UNL     1     -13.686  14.535  72.556  1.00  0.00    -0.580 A  
HETATM   49  C   UNL     1     -12.004  16.241  72.312  1.00  0.00    -0.605 A  
HETATM   50  C   UNL     1     -12.993  15.626  73.074  1.00  0.00    -0.617 A  
ENDBRANCH  44  45
ENDBRANCH  17  44
ENDBRANCH  15  17
ENDBRANCH   3  13
TORSDOF 14
ENDMDL
MODEL        3
REMARK 921   NORMALIZED FREE ENERGY PREDICTED BY IDOCK:   -7.02 KCAL/MOL
REMARK 922        TOTAL FREE ENERGY PREDICTED BY IDOCK:  -17.33 KCAL/MOL
REMARK 923 INTER-LIGAND FREE ENERGY PREDICTED BY IDOCK:  -15.29 KCAL/MOL
REMARK 924 INTRA-LIGAND FREE ENERGY PREDICTED BY IDOCK:   -2.03 KCAL/MOL
REMARK 927      BINDING AFFINITY PREDICTED BY RF-SCORE:    0.00 PKD
ROOT
HETATM    1  C   UNL     1     -13.562   8.810  72.513  1.00  0.00    -0.416 C  
HETATM    2  C   UNL     1     -12.397   9.600  71.898  1.00  0.00    -0.437 C  
HETATM    3  C   UNL     1     -11.722   8.798  70.743  1.00  0.00    -0.219 C  
HETATM    4  C   UNL     1     -12.915  10.977  71.475  1.00  0.00    -0.553 C  
ENDROOT
BRANCH   3   5
HETATM    5  N   UNL     1     -11.152   7.520  71.230  1.00  0.00    -0.243 N  
HETATM    6  H   UNL     1     -11.090   4.346  70.562  1.00  0.00     0.000 HD 
HETATM    7  O   UNL     1     -11.661   6.362  69.306  1.00  0.00    -0.354 OA 
HETATM    8  C   UNL     1     -10.344   7.485  72.442  1.00  0.00    -0.228 C  
HETATM    9  C   UNL     1     -11.273   6.376  70.470  1.00  0.00    -0.352 C  
HETATM   10  C   UNL     1     -10.782   6.310  73.296  1.00  0.00    -0.284 C  
HETATM   11  N   UNL     1     -10.990   5.202  71.108  1.00  0.00     0.010 N  
HETATM   12  C   UNL     1     -10.561   5.052  72.483  1.00  0.00    -0.219 C  
ENDBRANCH   3   5
BRANCH   3  13
HETATM   13  C   UNL     1     -10.684   9.663  69.964  1.00  0.00    -0.259 C  
HETATM   14  O   UNL     1      -9.561   9.916  70.387  1.00  0.00    -0.218 OA 
HETATM   15  N   UNL     1     -11.156  10.206  68.787  1.00  0.00    -0.351 N  
HETATM   16  H   UNL     1     -12.095   9.927  68.502  1.00  0.00     0.000 HD 
BRANCH  15  17
HETATM   17  C   UNL     1     -10.459  11.138  67.902  1.00  0.00    -0.190 C  
BRANCH  17  18
HETATM   18  C   UNL     1     -10.188  12.519  68.539  1.00  0.00    -0.210 C  
BRANCH  18  19
HETATM   19  C   UNL     1     -11.296  13.390  69.185  1.00  0.00    -0.280 C  
HETATM   20  O   UNL     1     -12.534  12.674  69.159  1.00  0.00     0.060 OA 
HETATM   21  H   UNL     1     -13.214  13.208  69.555  1.00  0.00     0.000 HD 
BRANCH  19  22
HETATM   22  C   UNL     1     -11.501  14.732  68.379  1.00  0.00    -0.314 C  
BRANCH  22  23
HETATM   23  N   UNL     1     -12.277  14.558  67.098  1.00  0.00    -0.558 N  
HETATM   24  C   UNL     1     -12.031  14.571  65.741  1.00  0.00    -0.306 C  
HETATM   25  H   UNL     1     -13.263  14.381  67.289  1.00  0.00     0.000 HD 
HETATM   26  O   UNL     1     -12.900  14.124  64.988  1.00  0.00    -0.687 OA 
BRANCH  24  27
HETATM   27  C   UNL     1     -10.761  15.235  65.183  1.00  0.00    -0.436 C  
BRANCH  27  28
HETATM   28  O   UNL     1     -10.513  16.629  65.271  1.00  0.00    -0.612 OA 
BRANCH  28  29
HETATM   29  C   UNL     1      -9.593  17.081  66.207  1.00  0.00    -0.267 A  
HETATM   30  C   UNL     1      -8.302  14.851  66.833  1.00  0.00    -0.212 C  
HETATM   31  C   UNL     1      -8.588  16.332  66.872  1.00  0.00    -0.247 A  
HETATM   32  C   UNL     1      -7.665  17.016  67.700  1.00  0.00    -0.183 A  
HETATM   33  C   UNL     1      -7.719  18.386  67.902  1.00  0.00    -0.261 A  
HETATM   34  C   UNL     1      -8.721  19.116  67.289  1.00  0.00    -0.310 A  
HETATM   35  C   UNL     1      -9.666  18.486  66.455  1.00  0.00    -0.347 A  
HETATM   36  C   UNL     1     -10.737  19.367  65.860  1.00  0.00    -0.501 C  
ENDBRANCH  28  29
ENDBRANCH  27  28
ENDBRANCH  24  27
ENDBRANCH  22  23
BRANCH  22  37
HETATM   37  C   UNL     1     -11.873  15.933  69.289  1.00  0.00    -0.328 C  
BRANCH  37  38
HETATM   38  C   UNL     1     -12.340  15.545  70.664  1.00  0.00    -0.462 A  
HETATM   39  C   UNL     1     -13.280  15.068  73.259  1.00  0.00    -0.537 A  
HETATM   40  C   UNL     1     -11.467  15.603  71.754  1.00  0.00    -0.505 A  
HETATM   41  C   UNL     1     -14.136  14.938  72.173  1.00  0.00    -0.616 A  
HETATM   42  C   UNL     1     -13.653  15.128  70.882  1.00  0.00    -0.397 A  
HETATM   43  C   UNL     1     -11.936  15.365  73.044  1.00  0.00    -0.557 A  
ENDBRANCH  37  38
ENDBRANCH  22  37
ENDBRANCH  19  22
ENDBRANCH  18  19
ENDBRANCH  17  18
BRANCH  17  44
HETATM   44  C   UNL     1     -10.945  11.097  66.437  1.00  0.00    -0.248 C  
BRANCH  44  45
HETATM   45  C   UNL     1     -10.054  10.278  65.523  1.00  0.00    -0.351 A  
HETATM   46  C   UNL     1      -9.438   9.097  65.969  1.00  0.00    -0.321 A  
HETATM   47  C   UNL     1      -9.806  10.707  64.214  1.00  0.00    -0.391 A  
HETATM   48  C   UNL     1      -8.565   8.389  65.135  1.00  0.00    -0.159 A  
HETATM   49  C   UNL     1      -8.938   9.996  63.381  1.00  0.00    -0.277 A  
HETATM   50  C   UNL     1      -8.310   8.843  63.843  1.00  0.00    -0.162 A  
ENDBRANCH  44  45
ENDBRANCH  17  44
ENDBRANCH  15  17
ENDBRANCH   3  13
TORSDOF 14
ENDMDL
MODEL        4
REMARK 921   NORMALIZED FREE ENERGY PREDICTED BY IDOCK:   -7.00 KCAL/MOL
REMARK 922        TOTAL FREE ENERGY PREDICTED BY IDOCK:  -17.28 KCAL/MOL
REMARK 923 INTER-LIGAND FREE ENERGY PREDICTED BY IDOCK:  -13.33 KCAL/MOL
REMARK 924 INTRA-LIGAND FREE ENERGY PREDICTED BY IDOCK:   -3.95 KCAL/MOL
REMARK 927      BINDING AFFINITY PREDICTED BY RF-SCORE:    0.00 PKD
ROOT
HETATM    1  C   UNL     1      -6.347  17.534  66.270  1.00  0.00    -0.279 C  
HETATM    2  C   UNL     1      -6.952  16.788  67.470  1.00  0.00    -0.167 C  
HETATM    3  C   UNL     1      -8.462  16.476  67.232  1.00  0.00    -0.180 C  
HETATM    4  C   UNL     1      -6.100  15.549  67.751  1.00  0.00    -0.175 C  
ENDROOT
BRANCH   3   5
HETATM    5  N   UNL     1      -9.254  17.717  67.065  1.00  0.00    -0.244 N  
HETATM    6  H   UNL     1     -11.315  19.159  65.017  1.00  0.00     0.000 HD 
HETATM    7  O   UNL     1     -10.543  16.868  65.356  1.00  0.00    -0.579 OA 
HETATM    8  C   UNL     1      -9.168  18.788  68.050  1.00  0.00    -0.302 C  
HETATM    9  C   UNL     1     -10.177  17.815  66.045  1.00  0.00    -0.293 C  
HETATM   10  C   UNL     1      -9.040  20.115  67.327  1.00  0.00    -0.480 C  
HETATM   11  N   UNL     1     -10.643  19.071  65.779  1.00  0.00    -0.429 N  
HETATM   12  C   UNL     1     -10.278  20.289  66.473  1.00  0.00    -0.349 C  
ENDBRANCH   3   5
BRANCH   3  13
HETATM   13  C   UNL     1      -9.041  15.536  68.334  1.00  0.00    -0.190 C  
HETATM   14  O   UNL     1      -8.625  15.509  69.487  1.00  0.00    -0.260 OA 
HETATM   15  N   UNL     1     -10.011  14.660  67.891  1.00  0.00    -0.219 N  
HETATM   16  H   UNL     1     -10.310  14.766  66.922  1.00  0.00     0.000 HD 
BRANCH  15  17
HETATM   17  C   UNL     1     -10.657  13.597  68.657  1.00  0.00    -0.248 C  
BRANCH  17  18
HETATM   18  C   UNL     1     -10.274  12.173  68.196  1.00  0.00    -0.203 C  
BRANCH  18  19
HETATM   19  C   UNL     1      -8.920  11.833  67.523  1.00  0.00    -0.168 C  
HETATM   20  O   UNL     1      -8.829  12.520  66.271  1.00  0.00    -0.413 OA 
HETATM   21  H   UNL     1      -7.999  12.312  65.858  1.00  0.00     0.000 HD 
BRANCH  19  22
HETATM   22  C   UNL     1      -8.807  10.286  67.231  1.00  0.00    -0.132 C  
BRANCH  22  23
HETATM   23  N   UNL     1      -7.871   9.559  68.164  1.00  0.00    -0.083 N  
HETATM   24  C   UNL     1      -7.870   9.108  69.466  1.00  0.00    -0.082 C  
HETATM   25  H   UNL     1      -6.990   9.340  67.701  1.00  0.00     0.000 HD 
HETATM   26  O   UNL     1      -6.992   8.309  69.805  1.00  0.00    -0.046 OA 
BRANCH  24  27
HETATM   27  C   UNL     1      -8.864   9.678  70.493  1.00  0.00    -0.113 C  
BRANCH  27  28
HETATM   28  O   UNL     1      -9.189   9.017  71.705  1.00  0.00    -0.329 OA 
BRANCH  28  29
HETATM   29  C   UNL     1     -10.377   8.302  71.773  1.00  0.00    -0.254 A  
HETATM   30  C   UNL     1     -12.185  10.202  71.384  1.00  0.00    -0.492 C  
HETATM   31  C   UNL     1     -11.698   8.790  71.593  1.00  0.00    -0.402 A  
HETATM   32  C   UNL     1     -12.769   7.863  71.576  1.00  0.00    -0.342 A  
HETATM   33  C   UNL     1     -12.579   6.501  71.750  1.00  0.00    -0.240 A  
HETATM   34  C   UNL     1     -11.298   6.024  71.967  1.00  0.00    -0.345 A  
HETATM   35  C   UNL     1     -10.196   6.903  71.993  1.00  0.00    -0.206 A  
HETATM   36  C   UNL     1      -8.846   6.286  72.268  1.00  0.00    -0.136 C  
ENDBRANCH  28  29
ENDBRANCH  27  28
ENDBRANCH  24  27
ENDBRANCH  22  23
BRANCH  22  37
HETATM   37  C   UNL     1     -10.179   9.625  66.929  1.00  0.00    -0.304 C  
BRANCH  37  38
HETATM   38  C   UNL     1     -10.203   8.134  67.121  1.00  0.00    -0.366 A  
HETATM   39  C   UNL     1     -10.037   5.384  67.623  1.00  0.00    -0.217 A  
HETATM   40  C   UNL     1      -9.527   7.293  66.233  1.00  0.00    -0.133 A  
HETATM   41  C   UNL     1     -10.771   6.204  68.471  1.00  0.00    -0.365 A  
HETATM   42  C   UNL     1     -10.892   7.562  68.190  1.00  0.00    -0.070 A  
HETATM   43  C   UNL     1      -9.445   5.925  66.484  1.00  0.00    -0.171 A  
ENDBRANCH  37  38
ENDBRANCH  22  37
ENDBRANCH  19  22
ENDBRANCH  18  19
ENDBRANCH  17  18
BRANCH  17  44
HETATM   44  C   UNL     1     -12.137  13.877  68.996  1.00  0.00    -0.365 C  
BRANCH  44  45
HETATM   45  C   UNL     1     -12.349  14.414  70.399  1.00  0.00    -0.406 A  
HETATM   46  C   UNL     1     -11.762  15.620  70.817  1.00  0.00    -0.408 A  
HETATM   47  C   UNL     1     -13.120  13.693  71.319  1.00  0.00    -0.357 A  
HETATM   48  C   UNL     1     -11.912  16.068  72.134  1.00  0.00    -0.629 A  
HETATM   49  C   UNL     1     -13.273  14.144  72.633  1.00  0.00    -0.612 A  
HETATM   50  C   UNL     1     -12.662  15.326  73.044  1.00  0.00    -0.549 A  
ENDBRANCH  44  45
ENDBRANCH  17  44
ENDBRANCH  15  17
ENDBRANCH   3  13
TORSDOF 14
ENDMDL
MODEL        5
REMARK 921   NORMALIZED FREE ENERGY PREDICTED BY IDOCK:   -6.93 KCAL/MOL
REMARK 922        TOTAL FREE ENERGY PREDICTED BY IDOCK:  -17.15 KCAL/MOL
REMARK 923 INTER-LIGAND FREE ENERGY PREDICTED BY IDOCK:  -13.05 KCAL/MOL
REMARK 924 INTRA-LIGAND FREE ENERGY PREDICTED BY IDOCK:   -4.10 KCAL/MOL
REMARK 927      BINDING AFFINITY PREDICTED BY RF-SCORE:    0.00 PKD
ROOT
HETATM    1  C   UNL     1      -9.123   7.645  65.715  1.00  0.00    -0.042 C  
HETATM    2  C   UNL     1      -9.801   8.898  66.290  1.00  0.00    -0.355 C  
HETATM    3  C   UNL     1      -9.287   9.205  67.730  1.00  0.00    -0.136 C  
HETATM    4  C   UNL     1      -9.604  10.051  65.303  1.00  0.00    -0.355 C  
ENDROOT
BRANCH   3   5
HETATM    5  N   UNL     1      -9.593   8.097  68.664  1.00  0.00    -0.148 N  
HETATM    6  H   UNL     1      -8.294   6.395  71.101  1.00  0.00     0.000 HD 
HETATM    7  O   UNL     1      -7.814   8.548  70.054  1.00  0.00    -0.095 OA 
HETATM    8  C   UNL     1     -10.859   7.381  68.573  1.00  0.00    -0.026 C  
HETATM    9  C   UNL     1      -8.738   7.818  69.709  1.00  0.00    -0.139 C  
HETATM   10  C   UNL     1     -10.594   5.891  68.675  1.00  0.00    -0.323 C  
HETATM   11  N   UNL     1      -8.930   6.619  70.336  1.00  0.00    -0.152 N  
HETATM   12  C   UNL     1      -9.945   5.637  70.020  1.00  0.00    -0.204 C  
ENDBRANCH   3   5
BRANCH   3  13
HETATM   13  C   UNL     1      -9.796  10.586  68.247  1.00  0.00    -0.149 C  
HETATM   14  O   UNL     1      -9.051  11.512  68.548  1.00  0.00    -0.175 OA 
HETATM   15  N   UNL     1     -11.162  10.664  68.427  1.00  0.00    -0.274 N  
HETATM   16  H   UNL     1     -11.706   9.853  68.131  1.00  0.00     0.000 HD 
BRANCH  15  17
HETATM   17  C   UNL     1     -11.916  11.779  68.994  1.00  0.00    -0.280 C  
BRANCH  17  18
HETATM   18  C   UNL     1     -11.591  13.145  68.349  1.00  0.00    -0.372 C  
BRANCH  18  19
HETATM   19  C   UNL     1     -11.381  14.444  69.168  1.00  0.00    -0.277 C  
HETATM   20  O   UNL     1     -12.580  15.224  69.134  1.00  0.00    -0.583 OA 
HETATM   21  H   UNL     1     -12.451  16.020  69.636  1.00  0.00     0.000 HD 
BRANCH  19  22
HETATM   22  C   UNL     1     -10.221  15.319  68.551  1.00  0.00    -0.224 C  
BRANCH  22  23
HETATM   23  N   UNL     1      -8.880  14.629  68.539  1.00  0.00    -0.178 N  
HETATM   24  C   UNL     1      -7.593  14.885  68.961  1.00  0.00    -0.151 C  
HETATM   25  H   UNL     1      -8.943  13.715  68.092  1.00  0.00     0.000 HD 
HETATM   26  O   UNL     1      -6.796  13.943  69.003  1.00  0.00    -0.105 OA 
BRANCH  24  27
HETATM   27  C   UNL     1      -7.138  16.324  69.257  1.00  0.00    -0.222 C  
BRANCH  27  28
HETATM   28  O   UNL     1      -6.104  16.973  68.534  1.00  0.00    -0.141 OA 
BRANCH  28  29
HETATM   29  C   UNL     1      -6.218  18.335  68.293  1.00  0.00    -0.185 A  
HETATM   30  C   UNL     1      -5.583  19.366  70.653  1.00  0.00    -0.257 C  
HETATM   31  C   UNL     1      -5.954  19.403  69.191  1.00  0.00    -0.283 A  
HETATM   32  C   UNL     1      -6.009  20.732  68.704  1.00  0.00    -0.381 A  
HETATM   33  C   UNL     1      -6.332  21.030  67.389  1.00  0.00    -0.415 A  
HETATM   34  C   UNL     1      -6.631  19.996  66.520  1.00  0.00    -0.226 A  
HETATM   35  C   UNL     1      -6.591  18.655  66.953  1.00  0.00    -0.204 A  
HETATM   36  C   UNL     1      -6.964  17.604  65.935  1.00  0.00    -0.259 C  
ENDBRANCH  28  29
ENDBRANCH  27  28
ENDBRANCH  24  27
ENDBRANCH  22  23
BRANCH  22  37
HETATM   37  C   UNL     1     -10.653  16.076  67.265  1.00  0.00    -0.313 C  
BRANCH  37  38
HETATM   38  C   UNL     1     -10.498  17.570  67.346  1.00  0.00    -0.342 A  
HETATM   39  C   UNL     1      -9.960  20.316  67.452  1.00  0.00    -0.567 A  
HETATM   40  C   UNL     1     -10.231  18.190  68.569  1.00  0.00    -0.399 A  
HETATM   41  C   UNL     1     -10.295  19.718  66.244  1.00  0.00    -0.626 A  
HETATM   42  C   UNL     1     -10.610  18.362  66.205  1.00  0.00    -0.346 A  
HETATM   43  C   UNL     1      -9.964  19.557  68.621  1.00  0.00    -0.538 A  
ENDBRANCH  37  38
ENDBRANCH  22  37
ENDBRANCH  19  22
ENDBRANCH  18  19
ENDBRANCH  17  18
BRANCH  17  44
HETATM   44  C   UNL     1     -12.065  11.720  70.530  1.00  0.00    -0.439 C  
BRANCH  44  45
HETATM   45  C   UNL     1     -12.261  10.315  71.068  1.00  0.00    -0.487 A  
HETATM   46  C   UNL     1     -11.188   9.579  71.598  1.00  0.00    -0.378 A  
HETATM   47  C   UNL     1     -13.524   9.714  71.020  1.00  0.00    -0.225 A  
HETATM   48  C   UNL     1     -11.372   8.261  72.029  1.00  0.00    -0.390 A  
HETATM   49  C   UNL     1     -13.707   8.398  71.455  1.00  0.00    -0.356 A  
HETATM   50  C   UNL     1     -12.630   7.668  71.950  1.00  0.00    -0.332 A  
ENDBRANCH  44  45
ENDBRANCH  17  44
ENDBRANCH  15  17
ENDBRANCH   3  13
TORSDOF 14
ENDMDL
MODEL        6
REMARK 921   NORMALIZED FREE ENERGY PREDICTED BY IDOCK:   -6.70 KCAL/MOL
REMARK 922        TOTAL FREE ENERGY PREDICTED BY IDOCK:  -16.74 KCAL/MOL
REMARK 923 INTER-LIGAND FREE ENERGY PREDICTED BY IDOCK:  -13.07 KCAL/MOL
REMARK 924 INTRA-LIGAND FREE ENERGY PREDICTED BY IDOCK:   -3.68 KCAL/MOL
REMARK 927      BINDING AFFINITY PREDICTED BY RF-SCORE:    0.00 PKD
ROOT
HETATM    1  C   UNL     1     -10.395  10.921  64.027  1.00  0.00    -0.417 C  
HETATM    2  C   UNL     1      -9.953  11.075  65.490  1.00  0.00    -0.308 C  
HETATM    3  C   UNL     1     -11.065  11.758  66.344  1.00  0.00    -0.307 C  
HETATM    4  C   UNL     1      -9.524   9.703  66.014  1.00  0.00    -0.284 C  
ENDROOT
BRANCH   3   5
HETATM    5  N   UNL     1     -11.369  13.122  65.852  1.00  0.00    -0.304 N  
HETATM    6  H   UNL     1     -13.187  14.690  63.671  1.00  0.00     0.000 HD 
HETATM    7  O   UNL     1     -13.243  12.469  64.684  1.00  0.00    -0.848 OA 
HETATM    8  C   UNL     1     -10.670  14.278  66.398  1.00  0.00    -0.297 C  
HETATM    9  C   UNL     1     -12.406  13.321  64.966  1.00  0.00    -0.448 C  
HETATM   10  C   UNL     1     -10.243  15.183  65.257  1.00  0.00    -0.400 C  
HETATM   11  N   UNL     1     -12.434  14.535  64.340  1.00  0.00    -0.402 N  
HETATM   12  C   UNL     1     -11.499  15.624  64.534  1.00  0.00    -0.300 C  
ENDBRANCH   3   5
BRANCH   3  13
HETATM   13  C   UNL     1     -10.728  11.728  67.867  1.00  0.00    -0.204 C  
HETATM   14  O   UNL     1      -9.637  12.049  68.325  1.00  0.00    -0.197 OA 
HETATM   15  N   UNL     1     -11.733  11.225  68.668  1.00  0.00    -0.319 N  
HETATM   16  H   UNL     1     -12.614  11.001  68.206  1.00  0.00     0.000 HD 
BRANCH  15  17
HETATM   17  C   UNL     1     -11.673  10.976  70.107  1.00  0.00    -0.356 C  
BRANCH  17  18
HETATM   18  C   UNL     1     -11.060   9.607  70.479  1.00  0.00    -0.369 C  
BRANCH  18  19
HETATM   19  C   UNL     1     -11.881   8.450  71.105  1.00  0.00    -0.282 C  
HETATM   20  O   UNL     1     -12.174   8.764  72.469  1.00  0.00    -0.364 OA 
HETATM   21  H   UNL     1     -12.677   8.055  72.853  1.00  0.00     0.000 HD 
BRANCH  19  22
HETATM   22  C   UNL     1     -11.060   7.102  71.087  1.00  0.00    -0.254 C  
BRANCH  22  23
HETATM   23  N   UNL     1     -10.983   6.421  72.430  1.00  0.00    -0.238 N  
HETATM   24  C   UNL     1     -10.020   6.110  73.367  1.00  0.00    -0.185 C  
HETATM   25  H   UNL     1     -11.902   6.099  72.731  1.00  0.00     0.000 HD 
HETATM   26  O   UNL     1     -10.393   5.763  74.491  1.00  0.00    -0.271 OA 
BRANCH  24  27
HETATM   27  C   UNL     1      -8.532   6.083  72.980  1.00  0.00    -0.119 C  
BRANCH  27  28
HETATM   28  O   UNL     1      -7.797   4.881  72.814  1.00  0.00    -0.091 OA 
BRANCH  28  29
HETATM   29  C   UNL     1      -8.008   4.128  71.667  1.00  0.00    -0.082 A  
HETATM   30  C   UNL     1     -10.225   2.807  72.276  1.00  0.00    -0.187 C  
HETATM   31  C   UNL     1      -9.085   3.246  71.391  1.00  0.00    -0.173 A  
HETATM   32  C   UNL     1      -9.179   2.669  70.101  1.00  0.00    -0.202 A  
HETATM   33  C   UNL     1      -8.248   2.917  69.105  1.00  0.00    -0.077 A  
HETATM   34  C   UNL     1      -7.173   3.743  69.381  1.00  0.00    -0.046 A  
HETATM   35  C   UNL     1      -7.031   4.343  70.648  1.00  0.00    -0.037 A  
HETATM   36  C   UNL     1      -5.807   5.201  70.857  1.00  0.00    -0.017 C  
ENDBRANCH  28  29
ENDBRANCH  27  28
ENDBRANCH  24  27
ENDBRANCH  22  23
BRANCH  22  37
HETATM   37  C   UNL     1     -11.373   6.219  69.849  1.00  0.00    -0.504 C  
BRANCH  37  38
HETATM   38  C   UNL     1     -10.341   6.298  68.757  1.00  0.00    -0.245 A  
HETATM   39  C   UNL     1      -8.315   6.233  66.825  1.00  0.00    -0.110 A  
HETATM   40  C   UNL     1      -9.160   7.020  68.947  1.00  0.00    -0.134 A  
HETATM   41  C   UNL     1      -9.516   5.572  66.599  1.00  0.00    -0.154 A  
HETATM   42  C   UNL     1     -10.538   5.648  67.540  1.00  0.00    -0.296 A  
HETATM   43  C   UNL     1      -8.154   6.987  67.985  1.00  0.00    -0.119 A  
ENDBRANCH  37  38
ENDBRANCH  22  37
ENDBRANCH  19  22
ENDBRANCH  18  19
ENDBRANCH  17  18
BRANCH  17  44
HETATM   44  C   UNL     1     -12.926  11.444  70.878  1.00  0.00    -0.210 C  
BRANCH  44  45
HETATM   45  C   UNL     1     -12.951  12.936  71.150  1.00  0.00    -0.259 A  
HETATM   46  C   UNL     1     -12.245  13.839  70.337  1.00  0.00    -0.433 A  
HETATM   47  C   UNL     1     -13.665  13.440  72.243  1.00  0.00    -0.705 A  
HETATM   48  C   UNL     1     -12.224  15.205  70.640  1.00  0.00    -0.401 A  
HETATM   49  C   UNL     1     -13.646  14.805  72.542  1.00  0.00    -0.571 A  
HETATM   50  C   UNL     1     -12.919  15.687  71.747  1.00  0.00    -0.541 A  
ENDBRANCH  44  45
ENDBRANCH  17  44
ENDBRANCH  15  17
ENDBRANCH   3  13
TORSDOF 14
ENDMDL
MODEL        7
REMARK 921   NORMALIZED FREE ENERGY PREDICTED BY IDOCK:   -6.62 KCAL/MOL
REMARK 922        TOTAL FREE ENERGY PREDICTED BY IDOCK:  -16.60 KCAL/MOL
REMARK 923 INTER-LIGAND FREE ENERGY PREDICTED BY IDOCK:  -13.36 KCAL/MOL
REMARK 924 INTRA-LIGAND FREE ENERGY PREDICTED BY IDOCK:   -3.24 KCAL/MOL
REMARK 927      BINDING AFFINITY PREDICTED BY RF-SCORE:    0.00 PKD
ROOT
HETATM    1  C   UNL     1     -11.808   8.272  72.417  1.00  0.00    -0.461 C  
HETATM    2  C   UNL     1     -11.547   9.526  71.569  1.00  0.00    -0.465 C  
HETATM    3  C   UNL     1     -11.272   9.151  70.080  1.00  0.00    -0.187 C  
HETATM    4  C   UNL     1     -12.720  10.491  71.758  1.00  0.00    -0.508 C  
ENDROOT
BRANCH   3   5
HETATM    5  N   UNL     1     -10.068   8.298  69.949  1.00  0.00    -0.191 N  
HETATM    6  H   UNL     1      -9.159   5.295  69.124  1.00  0.00     0.000 HD 
HETATM    7  O   UNL     1     -11.152   6.657  68.751  1.00  0.00    -0.263 OA 
HETATM    8  C   UNL     1      -8.753   8.812  70.311  1.00  0.00    -0.161 C  
HETATM    9  C   UNL     1     -10.163   7.054  69.361  1.00  0.00    -0.189 C  
HETATM   10  C   UNL     1      -8.021   7.766  71.131  1.00  0.00    -0.090 C  
HETATM   11  N   UNL     1      -9.094   6.223  69.541  1.00  0.00    -0.137 N  
HETATM   12  C   UNL     1      -7.879   6.530  70.266  1.00  0.00    -0.107 C  
ENDBRANCH   3   5
BRANCH   3  13
HETATM   13  C   UNL     1     -11.219  10.412  69.164  1.00  0.00    -0.246 C  
HETATM   14  O   UNL     1     -11.987  10.600  68.226  1.00  0.00    -0.462 OA 
HETATM   15  N   UNL     1     -10.175  11.274  69.432  1.00  0.00    -0.435 N  
HETATM   16  H   UNL     1      -9.598  11.050  70.243  1.00  0.00     0.000 HD 
BRANCH  15  17
HETATM   17  C   UNL     1      -9.806  12.473  68.683  1.00  0.00    -0.075 C  
BRANCH  17  18
HETATM   18  C   UNL     1     -10.933  13.525  68.593  1.00  0.00    -0.289 C  
BRANCH  18  19
HETATM   19  C   UNL     1     -10.907  14.866  69.371  1.00  0.00    -0.264 C  
HETATM   20  O   UNL     1     -12.164  15.530  69.209  1.00  0.00    -0.550 OA 
HETATM   21  H   UNL     1     -12.149  16.352  69.686  1.00  0.00     0.000 HD 
BRANCH  19  22
HETATM   22  C   UNL     1      -9.783  15.823  68.811  1.00  0.00    -0.213 C  
BRANCH  22  23
HETATM   23  N   UNL     1      -8.382  15.336  69.080  1.00  0.00    -0.199 N  
HETATM   24  C   UNL     1      -7.200  15.841  69.579  1.00  0.00    -0.186 C  
HETATM   25  H   UNL     1      -8.279  14.356  68.819  1.00  0.00     0.000 HD 
HETATM   26  O   UNL     1      -6.312  15.043  69.891  1.00  0.00    -0.141 OA 
BRANCH  24  27
HETATM   27  C   UNL     1      -6.958  17.359  69.630  1.00  0.00     0.130 C  
BRANCH  27  28
HETATM   28  O   UNL     1      -5.815  17.980  69.064  1.00  0.00    -0.196 OA 
BRANCH  28  29
HETATM   29  C   UNL     1      -5.998  18.888  68.030  1.00  0.00    -0.203 A  
HETATM   30  C   UNL     1      -6.756  17.311  66.039  1.00  0.00    -0.114 C  
HETATM   31  C   UNL     1      -6.450  18.626  66.711  1.00  0.00    -0.203 A  
HETATM   32  C   UNL     1      -6.691  19.719  65.843  1.00  0.00    -0.272 A  
HETATM   33  C   UNL     1      -6.481  21.035  66.227  1.00  0.00    -0.273 A  
HETATM   34  C   UNL     1      -6.001  21.295  67.499  1.00  0.00    -0.427 A  
HETATM   35  C   UNL     1      -5.745  20.244  68.402  1.00  0.00    -0.290 A  
HETATM   36  C   UNL     1      -5.194  20.632  69.752  1.00  0.00    -0.366 C  
ENDBRANCH  28  29
ENDBRANCH  27  28
ENDBRANCH  24  27
ENDBRANCH  22  23
BRANCH  22  37
HETATM   37  C   UNL     1     -10.099  16.359  67.388  1.00  0.00    -0.262 C  
BRANCH  37  38
HETATM   38  C   UNL     1     -10.139  17.859  67.288  1.00  0.00    -0.344 A  
HETATM   39  C   UNL     1      -9.966  20.643  67.039  1.00  0.00    -0.387 A  
HETATM   40  C   UNL     1      -9.874  18.653  68.406  1.00  0.00    -0.424 A  
HETATM   41  C   UNL     1     -10.301  19.865  65.939  1.00  0.00    -0.567 A  
HETATM   42  C   UNL     1     -10.435  18.486  66.078  1.00  0.00    -0.433 A  
HETATM   43  C   UNL     1      -9.788  20.038  68.282  1.00  0.00    -0.475 A  
ENDBRANCH  37  38
ENDBRANCH  22  37
ENDBRANCH  19  22
ENDBRANCH  18  19
ENDBRANCH  17  18
BRANCH  17  44
HETATM   44  C   UNL     1      -8.975  12.188  67.413  1.00  0.00    -0.180 C  
BRANCH  44  45
HETATM   45  C   UNL     1      -9.775  12.285  66.128  1.00  0.00    -0.256 A  
HETATM   46  C   UNL     1      -9.932  11.176  65.279  1.00  0.00    -0.311 A  
HETATM   47  C   UNL     1     -10.356  13.502  65.750  1.00  0.00    -0.296 A  
HETATM   48  C   UNL     1     -10.617  11.299  64.065  1.00  0.00    -0.450 A  
HETATM   49  C   UNL     1     -11.043  13.621  64.539  1.00  0.00    -0.396 A  
HETATM   50  C   UNL     1     -11.166  12.524  63.692  1.00  0.00    -0.545 A  
ENDBRANCH  44  45
ENDBRANCH  17  44
ENDBRANCH  15  17
ENDBRANCH   3  13
TORSDOF 14
ENDMDL
MODEL        8
REMARK 921   NORMALIZED FREE ENERGY PREDICTED BY IDOCK:   -6.61 KCAL/MOL
REMARK 922        TOTAL FREE ENERGY PREDICTED BY IDOCK:  -16.58 KCAL/MOL
REMARK 923 INTER-LIGAND FREE ENERGY PREDICTED BY IDOCK:  -13.52 KCAL/MOL
REMARK 924 INTRA-LIGAND FREE ENERGY PREDICTED BY IDOCK:   -3.06 KCAL/MOL
REMARK 927      BINDING AFFINITY PREDICTED BY RF-SCORE:    0.00 PKD
ROOT
HETATM    1  C   UNL     1      -9.211   7.351  66.049  1.00  0.00    -0.092 C  
HETATM    2  C   UNL     1      -9.913   8.481  66.818  1.00  0.00    -0.351 C  
HETATM    3  C   UNL     1      -9.328   8.628  68.257  1.00  0.00    -0.137 C  
HETATM    4  C   UNL     1      -9.832   9.760  65.982  1.00  0.00    -0.342 C  
ENDROOT
BRANCH   3   5
HETATM    5  N   UNL     1      -9.524   7.394  69.053  1.00  0.00    -0.148 N  
HETATM    6  H   UNL     1      -7.955   5.393  71.067  1.00  0.00     0.000 HD 
HETATM    7  O   UNL     1      -7.603   7.681  70.289  1.00  0.00    -0.085 OA 
HETATM    8  C   UNL     1     -10.790   6.673  69.001  1.00  0.00    -0.277 C  
HETATM    9  C   UNL     1      -8.557   6.989  69.948  1.00  0.00    -0.141 C  
HETATM   10  C   UNL     1     -10.508   5.189  68.861  1.00  0.00    -0.131 C  
HETATM   11  N   UNL     1      -8.672   5.710  70.415  1.00  0.00    -0.131 N  
HETATM   12  C   UNL     1      -9.713   4.762  70.078  1.00  0.00    -0.210 C  
ENDBRANCH   3   5
BRANCH   3  13
HETATM   13  C   UNL     1      -9.872   9.901  68.976  1.00  0.00    -0.190 C  
HETATM   14  O   UNL     1      -9.154  10.814  69.372  1.00  0.00    -0.102 OA 
HETATM   15  N   UNL     1     -11.230   9.888  69.219  1.00  0.00    -0.397 N  
HETATM   16  H   UNL     1     -11.752   9.099  68.838  1.00  0.00     0.000 HD 
BRANCH  15  17
HETATM   17  C   UNL     1     -12.004  10.880  69.963  1.00  0.00    -0.350 C  
BRANCH  17  18
HETATM   18  C   UNL     1     -11.628  12.341  69.632  1.00  0.00    -0.348 C  
BRANCH  18  19
HETATM   19  C   UNL     1     -12.228  13.122  68.435  1.00  0.00    -0.029 C  
HETATM   20  O   UNL     1     -11.962  12.409  67.224  1.00  0.00    -0.516 OA 
HETATM   21  H   UNL     1     -12.330  12.887  66.490  1.00  0.00     0.000 HD 
BRANCH  19  22
HETATM   22  C   UNL     1     -11.569  14.551  68.305  1.00  0.00    -0.329 C  
BRANCH  22  23
HETATM   23  N   UNL     1     -11.012  14.840  66.934  1.00  0.00    -0.320 N  
HETATM   24  C   UNL     1      -9.797  15.166  66.371  1.00  0.00    -0.280 C  
HETATM   25  H   UNL     1     -11.740  14.778  66.223  1.00  0.00     0.000 HD 
HETATM   26  O   UNL     1      -9.680  15.072  65.145  1.00  0.00    -0.232 OA 
BRANCH  24  27
HETATM   27  C   UNL     1      -8.662  15.742  67.235  1.00  0.00    -0.191 C  
BRANCH  27  28
HETATM   28  O   UNL     1      -8.874  16.723  68.236  1.00  0.00    -0.213 OA 
BRANCH  28  29
HETATM   29  C   UNL     1      -8.332  17.988  68.051  1.00  0.00    -0.260 A  
HETATM   30  C   UNL     1      -5.795  17.602  68.718  1.00  0.00    -0.174 C  
HETATM   31  C   UNL     1      -6.980  18.388  68.214  1.00  0.00    -0.257 A  
HETATM   32  C   UNL     1      -6.611  19.705  67.848  1.00  0.00    -0.270 A  
HETATM   33  C   UNL     1      -7.524  20.625  67.357  1.00  0.00    -0.384 A  
HETATM   34  C   UNL     1      -8.851  20.255  67.235  1.00  0.00    -0.454 A  
HETATM   35  C   UNL     1      -9.273  18.956  67.585  1.00  0.00    -0.318 A  
HETATM   36  C   UNL     1     -10.746  18.663  67.444  1.00  0.00    -0.456 C  
ENDBRANCH  28  29
ENDBRANCH  27  28
ENDBRANCH  24  27
ENDBRANCH  22  23
BRANCH  22  37
HETATM   37  C   UNL     1     -12.401  15.666  68.995  1.00  0.00     0.044 C  
BRANCH  37  38
HETATM   38  C   UNL     1     -12.568  15.484  70.478  1.00  0.00    -0.462 A  
HETATM   39  C   UNL     1     -12.800  14.903  73.208  1.00  0.00    -0.646 A  
HETATM   40  C   UNL     1     -13.785  15.047  71.007  1.00  0.00    -0.417 A  
HETATM   41  C   UNL     1     -11.608  15.406  72.701  1.00  0.00    -0.504 A  
HETATM   42  C   UNL     1     -11.513  15.740  71.353  1.00  0.00    -0.496 A  
HETATM   43  C   UNL     1     -13.900  14.759  72.365  1.00  0.00    -0.578 A  
ENDBRANCH  37  38
ENDBRANCH  22  37
ENDBRANCH  19  22
ENDBRANCH  18  19
ENDBRANCH  17  18
BRANCH  17  44
HETATM   44  C   UNL     1     -12.243  10.509  71.443  1.00  0.00    -0.429 C  
BRANCH  44  45
HETATM   45  C   UNL     1     -12.240   9.015  71.704  1.00  0.00    -0.418 A  
HETATM   46  C   UNL     1     -13.340   8.211  71.363  1.00  0.00    -0.243 A  
HETATM   47  C   UNL     1     -11.137   8.411  72.321  1.00  0.00    -0.438 A  
HETATM   48  C   UNL     1     -13.348   6.846  71.671  1.00  0.00    -0.296 A  
HETATM   49  C   UNL     1     -11.146   7.047  72.624  1.00  0.00    -0.317 A  
HETATM   50  C   UNL     1     -12.254   6.266  72.308  1.00  0.00    -0.203 A  
ENDBRANCH  44  45
ENDBRANCH  17  44
ENDBRANCH  15  17
ENDBRANCH   3  13
TORSDOF 14
ENDMDL
MODEL        9
REMARK 921   NORMALIZED FREE ENERGY PREDICTED BY IDOCK:   -6.55 KCAL/MOL
REMARK 922        TOTAL FREE ENERGY PREDICTED BY IDOCK:  -16.46 KCAL/MOL
REMARK 923 INTER-LIGAND FREE ENERGY PREDICTED BY IDOCK:  -12.89 KCAL/MOL
REMARK 924 INTRA-LIGAND FREE ENERGY PREDICTED BY IDOCK:   -3.57 KCAL/MOL
REMARK 927      BINDING AFFINITY PREDICTED BY RF-SCORE:    0.00 PKD
ROOT
HETATM    1  C   UNL     1      -7.140   5.139  68.261  1.00  0.00    -0.062 C  
HETATM    2  C   UNL     1      -8.210   5.618  69.254  1.00  0.00    -0.096 C  
HETATM    3  C   UNL     1      -9.268   6.520  68.547  1.00  0.00    -0.125 C  
HETATM    4  C   UNL     1      -8.806   4.395  69.953  1.00  0.00    -0.129 C  
ENDROOT
BRANCH   3   5
HETATM    5  N   UNL     1      -8.649   7.738  67.975  1.00  0.00    -0.123 N  
HETATM    6  H   UNL     1      -9.049   9.921  65.608  1.00  0.00     0.000 HD 
HETATM    7  O   UNL     1     -10.494   8.291  66.713  1.00  0.00    -0.318 OA 
HETATM    8  C   UNL     1      -7.399   8.257  68.515  1.00  0.00    -0.093 C  
HETATM    9  C   UNL     1      -9.317   8.466  67.012  1.00  0.00    -0.159 C  
HETATM   10  C   UNL     1      -6.474   8.616  67.367  1.00  0.00    -0.058 C  
HETATM   11  N   UNL     1      -8.571   9.387  66.333  1.00  0.00    -0.132 N  
HETATM   12  C   UNL     1      -7.168   9.679  66.542  1.00  0.00    -0.090 C  
ENDBRANCH   3   5
BRANCH   3  13
HETATM   13  C   UNL     1     -10.476   6.840  69.481  1.00  0.00    -0.220 C  
HETATM   14  O   UNL     1     -11.597   6.368  69.324  1.00  0.00    -0.354 OA 
HETATM   15  N   UNL     1     -10.212   7.775  70.461  1.00  0.00    -0.200 N  
HETATM   16  H   UNL     1      -9.248   8.099  70.532  1.00  0.00     0.000 HD 
BRANCH  15  17
HETATM   17  C   UNL     1     -11.162   8.351  71.410  1.00  0.00    -0.261 C  
BRANCH  17  18
HETATM   18  C   UNL     1     -11.652   9.764  71.022  1.00  0.00    -0.455 C  
BRANCH  18  19
HETATM   19  C   UNL     1     -11.186  10.503  69.741  1.00  0.00    -0.298 C  
HETATM   20  O   UNL     1      -9.761  10.631  69.762  1.00  0.00    -0.426 OA 
HETATM   21  H   UNL     1      -9.476  11.085  68.977  1.00  0.00     0.000 HD 
BRANCH  19  22
HETATM   22  C   UNL     1     -11.798  11.957  69.674  1.00  0.00    -0.337 C  
BRANCH  22  23
HETATM   23  N   UNL     1     -12.222  12.375  68.289  1.00  0.00    -0.019 N  
HETATM   24  C   UNL     1     -11.636  12.590  67.060  1.00  0.00    -0.368 C  
HETATM   25  H   UNL     1     -13.226  12.545  68.250  1.00  0.00     0.000 HD 
HETATM   26  O   UNL     1     -12.371  12.680  66.072  1.00  0.00    -0.587 OA 
BRANCH  24  27
HETATM   27  C   UNL     1     -10.121  12.830  66.947  1.00  0.00    -0.232 C  
BRANCH  27  28
HETATM   28  O   UNL     1      -9.561  13.936  66.257  1.00  0.00    -0.283 OA 
BRANCH  28  29
HETATM   29  C   UNL     1      -9.680  15.198  66.821  1.00  0.00    -0.242 A  
HETATM   30  C   UNL     1      -8.319  14.923  69.080  1.00  0.00    -0.150 C  
HETATM   31  C   UNL     1      -9.110  15.667  68.034  1.00  0.00    -0.183 A  
HETATM   32  C   UNL     1      -9.250  17.037  68.367  1.00  0.00    -0.259 A  
HETATM   33  C   UNL     1      -9.940  17.932  67.564  1.00  0.00    -0.322 A  
HETATM   34  C   UNL     1     -10.532  17.472  66.401  1.00  0.00    -0.277 A  
HETATM   35  C   UNL     1     -10.425  16.119  66.023  1.00  0.00    -0.349 A  
HETATM   36  C   UNL     1     -11.133  15.713  64.754  1.00  0.00    -0.426 C  
ENDBRANCH  28  29
ENDBRANCH  27  28
ENDBRANCH  24  27
ENDBRANCH  22  23
BRANCH  22  37
HETATM   37  C   UNL     1     -12.770  12.259  70.847  1.00  0.00    -0.277 C  
BRANCH  37  38
HETATM   38  C   UNL     1     -12.670  13.658  71.389  1.00  0.00    -0.437 A  
HETATM   39  C   UNL     1     -12.285  16.182  72.540  1.00  0.00    -0.609 A  
HETATM   40  C   UNL     1     -13.379  14.028  72.535  1.00  0.00    -0.639 A  
HETATM   41  C   UNL     1     -11.632  15.846  71.361  1.00  0.00    -0.529 A  
HETATM   42  C   UNL     1     -11.864  14.610  70.766  1.00  0.00    -0.372 A  
HETATM   43  C   UNL     1     -13.187  15.284  73.106  1.00  0.00    -0.612 A  
ENDBRANCH  37  38
ENDBRANCH  22  37
ENDBRANCH  19  22
ENDBRANCH  18  19
ENDBRANCH  17  18
BRANCH  17  44
HETATM   44  C   UNL     1     -10.813   8.085  72.890  1.00  0.00    -0.399 C  
BRANCH  44  45
HETATM   45  C   UNL     1     -10.550   6.623  73.200  1.00  0.00    -0.299 A  
HETATM   46  C   UNL     1     -11.477   5.625  72.857  1.00  0.00    -0.297 A  
HETATM   47  C   UNL     1      -9.377   6.245  73.863  1.00  0.00    -0.150 A  
HETATM   48  C   UNL     1     -11.250   4.290  73.209  1.00  0.00    -0.338 A  
HETATM   49  C   UNL     1      -9.150   4.911  74.210  1.00  0.00    -0.111 A  
HETATM   50  C   UNL     1     -10.090   3.934  73.892  1.00  0.00    -0.189 A  
ENDBRANCH  44  45
ENDBRANCH  17  44
ENDBRANCH  15  17
ENDBRANCH   3  13
TORSDOF 14
ENDMDL
MODEL       10
REMARK 921   NORMALIZED FREE ENERGY PREDICTED BY IDOCK:   -6.54 KCAL/MOL
REMARK 922        TOTAL FREE ENERGY PREDICTED BY IDOCK:  -16.45 KCAL/MOL
REMARK 923 INTER-LIGAND FREE ENERGY PREDICTED BY IDOCK:  -13.27 KCAL/MOL
REMARK 924 INTRA-LIGAND FREE ENERGY PREDICTED BY IDOCK:   -3.18 KCAL/MOL
REMARK 927      BINDING AFFINITY PREDICTED BY RF-SCORE:    0.00 PKD
ROOT
HETATM    1  C   UNL     1     -13.657   7.370  71.662  1.00  0.00    -0.449 C  
HETATM    2  C   UNL     1     -12.467   8.339  71.740  1.00  0.00    -0.367 C  
HETATM    3  C   UNL     1     -11.255   7.809  70.913  1.00  0.00    -0.271 C  
HETATM    4  C   UNL     1     -12.945   9.730  71.317  1.00  0.00    -0.470 C  
ENDROOT
BRANCH   3   5
HETATM    5  N   UNL     1     -10.772   6.507  71.430  1.00  0.00    -0.232 N  
HETATM    6  H   UNL     1      -9.944   3.530  70.443  1.00  0.00     0.000 HD 
HETATM    7  O   UNL     1     -10.200   5.699  69.351  1.00  0.00    -0.199 OA 
HETATM    8  C   UNL     1     -10.585   6.302  72.861  1.00  0.00    -0.233 C  
HETATM    9  C   UNL     1     -10.372   5.522  70.553  1.00  0.00    -0.272 C  
HETATM   10  C   UNL     1     -11.173   4.959  73.249  1.00  0.00    -0.423 C  
HETATM   11  N   UNL     1     -10.225   4.272  71.084  1.00  0.00    -0.091 N  
HETATM   12  C   UNL     1     -10.429   3.896  72.468  1.00  0.00    -0.102 C  
ENDBRANCH   3   5
BRANCH   3  13
HETATM   13  C   UNL     1     -10.119   8.871  70.801  1.00  0.00    -0.226 C  
HETATM   14  O   UNL     1      -9.477   9.280  71.762  1.00  0.00    -0.302 OA 
HETATM   15  N   UNL     1      -9.943   9.393  69.535  1.00  0.00    -0.181 N  
HETATM   16  H   UNL     1     -10.506   8.980  68.791  1.00  0.00     0.000 HD 
BRANCH  15  17
HETATM   17  C   UNL     1      -9.038  10.471  69.143  1.00  0.00    -0.166 C  
BRANCH  17  18
HETATM   18  C   UNL     1      -9.741  11.652  68.439  1.00  0.00    -0.199 C  
BRANCH  18  19
HETATM   19  C   UNL     1     -11.099  12.235  68.909  1.00  0.00    -0.242 C  
HETATM   20  O   UNL     1     -12.164  11.461  68.349  1.00  0.00    -0.571 OA 
HETATM   21  H   UNL     1     -12.997  11.818  68.637  1.00  0.00     0.000 HD 
BRANCH  19  22
HETATM   22  C   UNL     1     -11.276  13.724  68.414  1.00  0.00    -0.272 C  
BRANCH  22  23
HETATM   23  N   UNL     1     -11.004  13.911  66.943  1.00  0.00    -0.293 N  
HETATM   24  C   UNL     1     -10.621  14.928  66.094  1.00  0.00    -0.318 C  
HETATM   25  H   UNL     1     -11.142  13.040  66.432  1.00  0.00     0.000 HD 
HETATM   26  O   UNL     1     -10.245  14.626  64.958  1.00  0.00    -0.401 OA 
BRANCH  24  27
HETATM   27  C   UNL     1     -10.773  16.399  66.517  1.00  0.00    -0.163 C  
BRANCH  27  28
HETATM   28  O   UNL     1     -10.664  16.833  67.862  1.00  0.00    -0.344 OA 
BRANCH  28  29
HETATM   29  C   UNL     1      -9.458  17.370  68.290  1.00  0.00    -0.290 A  
HETATM   30  C   UNL     1      -8.152  15.211  69.105  1.00  0.00    -0.214 C  
HETATM   31  C   UNL     1      -8.328  16.677  68.798  1.00  0.00    -0.252 A  
HETATM   32  C   UNL     1      -7.143  17.407  69.059  1.00  0.00    -0.233 A  
HETATM   33  C   UNL     1      -7.052  18.776  68.859  1.00  0.00    -0.333 A  
HETATM   34  C   UNL     1      -8.163  19.464  68.404  1.00  0.00    -0.382 A  
HETATM   35  C   UNL     1      -9.367  18.786  68.128  1.00  0.00    -0.352 A  
HETATM   36  C   UNL     1     -10.528  19.632  67.666  1.00  0.00    -0.579 C  
ENDBRANCH  28  29
ENDBRANCH  27  28
ENDBRANCH  24  27
ENDBRANCH  22  23
BRANCH  22  37
HETATM   37  C   UNL     1     -12.535  14.412  69.007  1.00  0.00     0.029 C  
BRANCH  37  38
HETATM   38  C   UNL     1     -12.475  14.637  70.493  1.00  0.00    -0.408 A  
HETATM   39  C   UNL     1     -12.573  15.200  73.234  1.00  0.00    -0.615 A  
HETATM   40  C   UNL     1     -11.762  15.718  71.018  1.00  0.00    -0.462 A  
HETATM   41  C   UNL     1     -13.225  14.083  72.728  1.00  0.00    -0.580 A  
HETATM   42  C   UNL     1     -13.133  13.780  71.373  1.00  0.00    -0.413 A  
HETATM   43  C   UNL     1     -11.811  15.997  72.382  1.00  0.00    -0.639 A  
ENDBRANCH  37  38
ENDBRANCH  22  37
ENDBRANCH  19  22
ENDBRANCH  18  19
ENDBRANCH  17  18
BRANCH  17  44
HETATM   44  C   UNL     1      -7.690   9.983  68.569  1.00  0.00    -0.089 C  
BRANCH  44  45
HETATM   45  C   UNL     1      -7.816   8.770  67.667  1.00  0.00    -0.102 A  
HETATM   46  C   UNL     1      -8.423   8.859  66.402  1.00  0.00    -0.123 A  
HETATM   47  C   UNL     1      -7.349   7.522  68.096  1.00  0.00    -0.096 A  
HETATM   48  C   UNL     1      -8.591   7.718  65.610  1.00  0.00    -0.147 A  
HETATM   49  C   UNL     1      -7.515   6.384  67.301  1.00  0.00    -0.088 A  
HETATM   50  C   UNL     1      -8.144   6.479  66.063  1.00  0.00    -0.121 A  
ENDBRANCH  44  45
ENDBRANCH  17  44
ENDBRANCH  15  17
ENDBRANCH   3  13
TORSDOF 14
ENDMDL
MODEL       11
REMARK 921   NORMALIZED FREE ENERGY PREDICTED BY IDOCK:   -6.53 KCAL/MOL
REMARK 922        TOTAL FREE ENERGY PREDICTED BY IDOCK:  -16.42 KCAL/MOL
REMARK 923 INTER-LIGAND FREE ENERGY PREDICTED BY IDOCK:  -13.16 KCAL/MOL
REMARK 924 INTRA-LIGAND FREE ENERGY PREDICTED BY IDOCK:   -3.26 KCAL/MOL
REMARK 927      BINDING AFFINITY PREDICTED BY RF-SCORE:    0.00 PKD
ROOT
HETATM    1  C   UNL     1      -6.759   7.706  64.054  1.00  0.00    -0.053 C  
HETATM    2  C   UNL     1      -8.160   7.992  64.618  1.00  0.00    -0.140 C  
HETATM    3  C   UNL     1      -8.152   7.973  66.177  1.00  0.00    -0.111 C  
HETATM    4  C   UNL     1      -8.665   9.306  64.017  1.00  0.00    -0.198 C  
ENDROOT
BRANCH   3   5
HETATM    5  N   UNL     1      -7.751   6.647  66.703  1.00  0.00    -0.100 N  
HETATM    6  H   UNL     1      -5.756   5.263  68.853  1.00  0.00     0.000 HD 
HETATM    7  O   UNL     1      -6.647   7.513  68.528  1.00  0.00    -0.046 OA 
HETATM    8  C   UNL     1      -8.323   5.427  66.147  1.00  0.00    -0.117 C  
HETATM    9  C   UNL     1      -6.932   6.561  67.808  1.00  0.00    -0.082 C  
HETATM   10  C   UNL     1      -7.214   4.417  65.923  1.00  0.00    -0.075 C  
HETATM   11  N   UNL     1      -6.376   5.336  68.047  1.00  0.00    -0.038 N  
HETATM   12  C   UNL     1      -6.581   4.132  67.270  1.00  0.00    -0.046 C  
ENDBRANCH   3   5
BRANCH   3  13
HETATM   13  C   UNL     1      -9.506   8.472  66.771  1.00  0.00    -0.194 C  
HETATM   14  O   UNL     1     -10.539   7.811  66.748  1.00  0.00    -0.331 OA 
HETATM   15  N   UNL     1      -9.480   9.765  67.253  1.00  0.00    -0.151 N  
HETATM   16  H   UNL     1      -8.574  10.233  67.250  1.00  0.00     0.000 HD 
BRANCH  15  17
HETATM   17  C   UNL     1     -10.609  10.538  67.766  1.00  0.00    -0.243 C  
BRANCH  17  18
HETATM   18  C   UNL     1     -11.262  11.463  66.715  1.00  0.00    -0.319 C  
BRANCH  18  19
HETATM   19  C   UNL     1     -10.556  12.711  66.126  1.00  0.00    -0.258 C  
HETATM   20  O   UNL     1      -9.160  12.652  66.430  1.00  0.00    -0.352 OA 
HETATM   21  H   UNL     1      -8.727  13.417  66.070  1.00  0.00     0.000 HD 
BRANCH  19  22
HETATM   22  C   UNL     1     -11.130  14.037  66.763  1.00  0.00    -0.306 C  
BRANCH  22  23
HETATM   23  N   UNL     1     -11.365  15.140  65.761  1.00  0.00    -0.289 N  
HETATM   24  C   UNL     1     -10.719  16.272  65.315  1.00  0.00    -0.332 C  
HETATM   25  H   UNL     1     -12.252  15.010  65.276  1.00  0.00     0.000 HD 
HETATM   26  O   UNL     1     -11.118  16.798  64.272  1.00  0.00    -1.106 OA 
BRANCH  24  27
HETATM   27  C   UNL     1      -9.612  16.926  66.160  1.00  0.00    -0.254 C  
BRANCH  27  28
HETATM   28  O   UNL     1      -9.074  18.207  65.875  1.00  0.00    -0.509 OA 
BRANCH  28  29
HETATM   29  C   UNL     1      -8.255  18.808  66.820  1.00  0.00    -0.278 A  
HETATM   30  C   UNL     1      -9.988  19.450  68.722  1.00  0.00    -0.522 C  
HETATM   31  C   UNL     1      -8.624  19.321  68.092  1.00  0.00    -0.363 A  
HETATM   32  C   UNL     1      -7.605  19.781  68.962  1.00  0.00    -0.259 A  
HETATM   33  C   UNL     1      -6.264  19.768  68.611  1.00  0.00    -0.296 A  
HETATM   34  C   UNL     1      -5.902  19.307  67.357  1.00  0.00    -0.184 A  
HETATM   35  C   UNL     1      -6.875  18.839  66.452  1.00  0.00    -0.239 A  
HETATM   36  C   UNL     1      -6.380  18.387  65.100  1.00  0.00    -0.141 C  
ENDBRANCH  28  29
ENDBRANCH  27  28
ENDBRANCH  24  27
ENDBRANCH  22  23
BRANCH  22  37
HETATM   37  C   UNL     1     -12.241  13.771  67.814  1.00  0.00    -0.208 C  
BRANCH  37  38
HETATM   38  C   UNL     1     -12.025  14.467  69.130  1.00  0.00    -0.357 A  
HETATM   39  C   UNL     1     -11.417  15.612  71.612  1.00  0.00    -0.506 A  
HETATM   40  C   UNL     1     -12.609  13.971  70.299  1.00  0.00    -0.354 A  
HETATM   41  C   UNL     1     -10.891  16.155  70.447  1.00  0.00    -0.255 A  
HETATM   42  C   UNL     1     -11.235  15.613  69.212  1.00  0.00    -0.320 A  
HETATM   43  C   UNL     1     -12.306  14.542  71.533  1.00  0.00    -0.430 A  
ENDBRANCH  37  38
ENDBRANCH  22  37
ENDBRANCH  19  22
ENDBRANCH  18  19
ENDBRANCH  17  18
BRANCH  17  44
HETATM   44  C   UNL     1     -10.394  11.095  69.190  1.00  0.00    -0.186 C  
BRANCH  44  45
HETATM   45  C   UNL     1     -11.128  10.316  70.265  1.00  0.00    -0.388 A  
HETATM   46  C   UNL     1     -12.458  10.616  70.606  1.00  0.00    -0.462 A  
HETATM   47  C   UNL     1     -10.475   9.292  70.961  1.00  0.00    -0.384 A  
HETATM   48  C   UNL     1     -13.098   9.933  71.646  1.00  0.00    -0.538 A  
HETATM   49  C   UNL     1     -11.118   8.608  71.996  1.00  0.00    -0.437 A  
HETATM   50  C   UNL     1     -12.426   8.934  72.345  1.00  0.00    -0.405 A  
ENDBRANCH  44  45
ENDBRANCH  17  44
ENDBRANCH  15  17
ENDBRANCH   3  13
TORSDOF 14
ENDMDL
MODEL       12
REMARK 921   NORMALIZED FREE ENERGY PREDICTED BY IDOCK:   -6.52 KCAL/MOL
REMARK 922        TOTAL FREE ENERGY PREDICTED BY IDOCK:  -16.41 KCAL/MOL
REMARK 923 INTER-LIGAND FREE ENERGY PREDICTED BY IDOCK:  -12.29 KCAL/MOL
REMARK 924 INTRA-LIGAND FREE ENERGY PREDICTED BY IDOCK:   -4.12 KCAL/MOL
REMARK 927      BINDING AFFINITY PREDICTED BY RF-SCORE:    0.00 PKD
ROOT
HETATM    1  C   UNL     1     -10.137  10.873  64.273  1.00  0.00    -0.413 C  
HETATM    2  C   UNL     1      -9.770  11.168  65.735  1.00  0.00    -0.266 C  
HETATM    3  C   UNL     1     -10.964  11.827  66.492  1.00  0.00    -0.295 C  
HETATM    4  C   UNL     1      -9.266   9.875  66.380  1.00  0.00    -0.195 C  
ENDROOT
BRANCH   3   5
HETATM    5  N   UNL     1     -11.344  13.123  65.884  1.00  0.00    -0.304 N  
HETATM    6  H   UNL     1     -13.170  14.382  63.517  1.00  0.00     0.000 HD 
HETATM    7  O   UNL     1     -13.109  12.244  64.695  1.00  0.00    -0.770 OA 
HETATM    8  C   UNL     1     -10.757  14.368  66.367  1.00  0.00    -0.306 C  
HETATM    9  C   UNL     1     -12.351  13.177  64.944  1.00  0.00    -0.441 C  
HETATM   10  C   UNL     1     -10.346  15.215  65.178  1.00  0.00    -0.416 C  
HETATM   11  N   UNL     1     -12.439  14.336  64.227  1.00  0.00    -0.356 N  
HETATM   12  C   UNL     1     -11.596  15.504  64.374  1.00  0.00    -0.258 C  
ENDBRANCH   3   5
BRANCH   3  13
HETATM   13  C   UNL     1     -10.691  11.937  68.024  1.00  0.00    -0.209 C  
HETATM   14  O   UNL     1      -9.650  12.380  68.496  1.00  0.00    -0.197 OA 
HETATM   15  N   UNL     1     -11.685  11.411  68.824  1.00  0.00    -0.319 N  
HETATM   16  H   UNL     1     -12.525  11.081  68.348  1.00  0.00     0.000 HD 
BRANCH  15  17
HETATM   17  C   UNL     1     -11.667  11.273  70.278  1.00  0.00    -0.324 C  
BRANCH  17  18
HETATM   18  C   UNL     1     -11.017   9.962  70.774  1.00  0.00    -0.407 C  
BRANCH  18  19
HETATM   19  C   UNL     1     -10.249   8.990  69.842  1.00  0.00    -0.202 C  
HETATM   20  O   UNL     1     -11.157   8.437  68.885  1.00  0.00    -0.425 OA 
HETATM   21  H   UNL     1     -10.686   7.841  68.313  1.00  0.00     0.000 HD 
BRANCH  19  22
HETATM   22  C   UNL     1      -9.629   7.792  70.663  1.00  0.00    -0.166 C  
BRANCH  22  23
HETATM   23  N   UNL     1      -9.352   8.126  72.108  1.00  0.00    -0.182 N  
HETATM   24  C   UNL     1      -8.452   7.765  73.087  1.00  0.00    -0.163 C  
HETATM   25  H   UNL     1     -10.020   8.812  72.459  1.00  0.00     0.000 HD 
HETATM   26  O   UNL     1      -8.386   8.464  74.103  1.00  0.00    -0.266 OA 
BRANCH  24  27
HETATM   27  C   UNL     1      -7.643   6.463  72.965  1.00  0.00    -0.095 C  
BRANCH  27  28
HETATM   28  O   UNL     1      -7.976   5.276  73.666  1.00  0.00    -0.108 OA 
BRANCH  28  29
HETATM   29  C   UNL     1      -8.430   4.183  72.941  1.00  0.00    -0.100 A  
HETATM   30  C   UNL     1      -6.193   3.292  71.829  1.00  0.00    -0.014 C  
HETATM   31  C   UNL     1      -7.664   3.274  72.164  1.00  0.00    -0.058 A  
HETATM   32  C   UNL     1      -8.309   2.145  71.604  1.00  0.00    -0.071 A  
HETATM   33  C   UNL     1      -9.665   1.904  71.768  1.00  0.00    -0.206 A  
HETATM   34  C   UNL     1     -10.425   2.807  72.490  1.00  0.00    -0.145 A  
HETATM   35  C   UNL     1      -9.833   3.948  73.068  1.00  0.00    -0.183 A  
HETATM   36  C   UNL     1     -10.755   4.887  73.808  1.00  0.00    -0.361 C  
ENDBRANCH  28  29
ENDBRANCH  27  28
ENDBRANCH  24  27
ENDBRANCH  22  23
BRANCH  22  37
HETATM   37  C   UNL     1     -10.312   6.431  70.356  1.00  0.00    -0.251 C  
BRANCH  37  38
HETATM   38  C   UNL     1      -9.435   5.451  69.627  1.00  0.00    -0.194 A  
HETATM   39  C   UNL     1      -7.866   3.749  68.051  1.00  0.00    -0.073 A  
HETATM   40  C   UNL     1      -9.962   4.251  69.143  1.00  0.00    -0.060 A  
HETATM   41  C   UNL     1      -7.315   4.905  68.590  1.00  0.00    -0.062 A  
HETATM   42  C   UNL     1      -8.084   5.723  69.412  1.00  0.00    -0.101 A  
HETATM   43  C   UNL     1      -9.180   3.405  68.360  1.00  0.00    -0.230 A  
ENDBRANCH  37  38
ENDBRANCH  22  37
ENDBRANCH  19  22
ENDBRANCH  18  19
ENDBRANCH  17  18
BRANCH  17  44
HETATM   44  C   UNL     1     -12.963  11.747  70.971  1.00  0.00    -0.200 C  
BRANCH  44  45
HETATM   45  C   UNL     1     -12.926  13.202  71.400  1.00  0.00    -0.386 A  
HETATM   46  C   UNL     1     -13.692  13.664  72.484  1.00  0.00    -0.663 A  
HETATM   47  C   UNL     1     -12.140  14.123  70.698  1.00  0.00    -0.421 A  
HETATM   48  C   UNL     1     -13.698  15.021  72.825  1.00  0.00    -0.526 A  
HETATM   49  C   UNL     1     -12.144  15.477  71.043  1.00  0.00    -0.438 A  
HETATM   50  C   UNL     1     -12.930  15.928  72.100  1.00  0.00    -0.465 A  
ENDBRANCH  44  45
ENDBRANCH  17  44
ENDBRANCH  15  17
ENDBRANCH   3  13
TORSDOF 14
ENDMDL
MODEL       13
REMARK 921   NORMALIZED FREE ENERGY PREDICTED BY IDOCK:   -6.52 KCAL/MOL
REMARK 922        TOTAL FREE ENERGY PREDICTED BY IDOCK:  -16.40 KCAL/MOL
REMARK 923 INTER-LIGAND FREE ENERGY PREDICTED BY IDOCK:  -12.67 KCAL/MOL
REMARK 924 INTRA-LIGAND FREE ENERGY PREDICTED BY IDOCK:   -3.74 KCAL/MOL
REMARK 927      BINDING AFFINITY PREDICTED BY RF-SCORE:    0.00 PKD
ROOT
HETATM    1  C   UNL     1     -10.062   5.454  68.966  1.00  0.00    -0.283 C  
HETATM    2  C   UNL     1     -10.522   6.735  68.252  1.00  0.00    -0.243 C  
HETATM    3  C   UNL     1      -9.820   7.993  68.850  1.00  0.00    -0.175 C  
HETATM    4  C   UNL     1     -10.301   6.558  66.748  1.00  0.00    -0.279 C  
ENDROOT
BRANCH   3   5
HETATM    5  N   UNL     1     -10.150   8.170  70.284  1.00  0.00    -0.190 N  
HETATM    6  H   UNL     1      -8.801   8.979  73.121  1.00  0.00     0.000 HD 
HETATM    7  O   UNL     1      -8.191   9.276  70.775  1.00  0.00    -0.172 OA 
HETATM    8  C   UNL     1     -11.493   7.887  70.774  1.00  0.00    -0.263 C  
HETATM    9  C   UNL     1      -9.226   8.727  71.141  1.00  0.00    -0.237 C  
HETATM   10  C   UNL     1     -11.393   7.086  72.058  1.00  0.00    -0.300 C  
HETATM   11  N   UNL     1      -9.486   8.585  72.475  1.00  0.00    -0.281 N  
HETATM   12  C   UNL     1     -10.636   7.931  73.062  1.00  0.00    -0.339 C  
ENDBRANCH   3   5
BRANCH   3  13
HETATM   13  C   UNL     1     -10.105   9.273  68.005  1.00  0.00    -0.193 C  
HETATM   14  O   UNL     1     -11.210   9.796  67.920  1.00  0.00    -0.184 OA 
HETATM   15  N   UNL     1      -9.025   9.732  67.277  1.00  0.00    -0.135 N  
HETATM   16  H   UNL     1      -8.140   9.248  67.423  1.00  0.00     0.000 HD 
BRANCH  15  17
HETATM   17  C   UNL     1      -9.012  10.835  66.319  1.00  0.00    -0.170 C  
BRANCH  17  18
HETATM   18  C   UNL     1      -9.004  12.233  66.976  1.00  0.00    -0.204 C  
BRANCH  18  19
HETATM   19  C   UNL     1      -8.035  12.628  68.120  1.00  0.00    -0.158 C  
HETATM   20  O   UNL     1      -8.103  11.645  69.157  1.00  0.00    -0.355 OA 
HETATM   21  H   UNL     1      -7.509  11.887  69.859  1.00  0.00     0.000 HD 
BRANCH  19  22
HETATM   22  C   UNL     1      -8.442  14.018  68.749  1.00  0.00    -0.038 C  
BRANCH  22  23
HETATM   23  N   UNL     1      -7.290  14.981  68.890  1.00  0.00    -0.128 N  
HETATM   24  C   UNL     1      -6.719  16.006  68.167  1.00  0.00    -0.124 C  
HETATM   25  H   UNL     1      -6.794  14.832  69.768  1.00  0.00     0.000 HD 
HETATM   26  O   UNL     1      -5.918  16.749  68.743  1.00  0.00    -0.140 OA 
BRANCH  24  27
HETATM   27  C   UNL     1      -6.983  16.142  66.658  1.00  0.00     0.070 C  
BRANCH  27  28
HETATM   28  O   UNL     1      -7.192  17.390  66.018  1.00  0.00    -0.297 OA 
BRANCH  28  29
HETATM   29  C   UNL     1      -8.312  18.133  66.363  1.00  0.00    -0.245 A  
HETATM   30  C   UNL     1     -10.285  16.594  65.483  1.00  0.00    -0.227 C  
HETATM   31  C   UNL     1      -9.677  17.787  66.178  1.00  0.00    -0.230 A  
HETATM   32  C   UNL     1     -10.673  18.635  66.720  1.00  0.00    -0.337 A  
HETATM   33  C   UNL     1     -10.368  19.800  67.405  1.00  0.00    -0.582 A  
HETATM   34  C   UNL     1      -9.041  20.164  67.553  1.00  0.00    -0.465 A  
HETATM   35  C   UNL     1      -8.009  19.357  67.032  1.00  0.00    -0.287 A  
HETATM   36  C   UNL     1      -6.599  19.859  67.219  1.00  0.00    -0.231 C  
ENDBRANCH  28  29
ENDBRANCH  27  28
ENDBRANCH  24  27
ENDBRANCH  22  23
BRANCH  22  37
HETATM   37  C   UNL     1      -9.778  14.571  68.182  1.00  0.00    -0.219 C  
BRANCH  37  38
HETATM   38  C   UNL     1     -10.930  14.513  69.148  1.00  0.00    -0.286 A  
HETATM   39  C   UNL     1     -12.901  14.414  71.134  1.00  0.00    -0.417 A  
HETATM   40  C   UNL     1     -11.413  13.284  69.603  1.00  0.00    -0.267 A  
HETATM   41  C   UNL     1     -12.476  15.639  70.634  1.00  0.00    -0.463 A  
HETATM   42  C   UNL     1     -11.532  15.681  69.612  1.00  0.00    -0.345 A  
HETATM   43  C   UNL     1     -12.394  13.236  70.591  1.00  0.00    -0.416 A  
ENDBRANCH  37  38
ENDBRANCH  22  37
ENDBRANCH  19  22
ENDBRANCH  18  19
ENDBRANCH  17  18
BRANCH  17  44
HETATM   44  C   UNL     1      -9.926  10.615  65.093  1.00  0.00    -0.366 C  
BRANCH  44  45
HETATM   45  C   UNL     1     -10.885  11.762  64.835  1.00  0.00    -0.353 A  
HETATM   46  C   UNL     1     -11.075  12.278  63.542  1.00  0.00    -0.533 A  
HETATM   47  C   UNL     1     -11.583  12.348  65.897  1.00  0.00    -0.449 A  
HETATM   48  C   UNL     1     -11.912  13.379  63.330  1.00  0.00    -0.406 A  
HETATM   49  C   UNL     1     -12.421  13.445  65.683  1.00  0.00    -0.519 A  
HETATM   50  C   UNL     1     -12.579  13.967  64.402  1.00  0.00    -0.204 A  
ENDBRANCH  44  45
ENDBRANCH  17  44
ENDBRANCH  15  17
ENDBRANCH   3  13
TORSDOF 14
ENDMDL
MODEL       14
REMARK 921   NORMALIZED FREE ENERGY PREDICTED BY IDOCK:   -6.51 KCAL/MOL
REMARK 922        TOTAL FREE ENERGY PREDICTED BY IDOCK:  -16.39 KCAL/MOL
REMARK 923 INTER-LIGAND FREE ENERGY PREDICTED BY IDOCK:  -11.47 KCAL/MOL
REMARK 924 INTRA-LIGAND FREE ENERGY PREDICTED BY IDOCK:   -4.92 KCAL/MOL
REMARK 927      BINDING AFFINITY PREDICTED BY RF-SCORE:    0.00 PKD
ROOT
HETATM    1  C   UNL     1     -12.276  15.382  64.221  1.00  0.00    -0.140 C  
HETATM    2  C   UNL     1     -11.602  14.089  64.706  1.00  0.00    -0.387 C  
HETATM    3  C   UNL     1     -11.789  13.900  66.243  1.00  0.00    -0.408 C  
HETATM    4  C   UNL     1     -12.132  12.923  63.869  1.00  0.00    -0.553 C  
ENDROOT
BRANCH   3   5
HETATM    5  N   UNL     1     -11.170  15.009  67.006  1.00  0.00    -0.336 N  
HETATM    6  H   UNL     1     -11.462  16.654  69.786  1.00  0.00     0.000 HD 
HETATM    7  O   UNL     1     -12.263  14.497  68.967  1.00  0.00    -0.275 OA 
HETATM    8  C   UNL     1     -10.053  15.760  66.446  1.00  0.00    -0.291 C  
HETATM    9  C   UNL     1     -11.560  15.255  68.305  1.00  0.00    -0.341 C  
HETATM   10  C   UNL     1     -10.290  17.241  66.670  1.00  0.00    -0.305 C  
HETATM   11  N   UNL     1     -11.167  16.453  68.831  1.00  0.00    -0.327 N  
HETATM   12  C   UNL     1     -10.374  17.466  68.166  1.00  0.00    -0.366 C  
ENDBRANCH   3   5
BRANCH   3  13
HETATM   13  C   UNL     1     -11.304  12.496  66.718  1.00  0.00    -0.334 C  
HETATM   14  O   UNL     1     -12.062  11.612  67.102  1.00  0.00    -0.575 OA 
HETATM   15  N   UNL     1      -9.932  12.347  66.761  1.00  0.00    -0.221 N  
HETATM   16  H   UNL     1      -9.379  13.126  66.405  1.00  0.00     0.000 HD 
BRANCH  15  17
HETATM   17  C   UNL     1      -9.185  11.195  67.261  1.00  0.00    -0.160 C  
BRANCH  17  18
HETATM   18  C   UNL     1      -9.425  10.897  68.757  1.00  0.00    -0.196 C  
BRANCH  18  19
HETATM   19  C   UNL     1     -10.057   9.577  69.270  1.00  0.00    -0.198 C  
HETATM   20  O   UNL     1     -11.420   9.509  68.841  1.00  0.00    -0.452 OA 
HETATM   21  H   UNL     1     -11.808   8.700  69.156  1.00  0.00     0.000 HD 
BRANCH  19  22
HETATM   22  C   UNL     1     -10.047   9.522  70.848  1.00  0.00    -0.260 C  
BRANCH  22  23
HETATM   23  N   UNL     1     -11.423   9.516  71.464  1.00  0.00    -0.391 N  
HETATM   24  C   UNL     1     -12.351   8.589  71.887  1.00  0.00    -0.352 C  
HETATM   25  H   UNL     1     -11.762  10.466  71.610  1.00  0.00     0.000 HD 
HETATM   26  O   UNL     1     -13.285   8.980  72.593  1.00  0.00    -0.443 OA 
BRANCH  24  27
HETATM   27  C   UNL     1     -12.286   7.134  71.391  1.00  0.00    -0.377 C  
BRANCH  27  28
HETATM   28  O   UNL     1     -11.928   6.784  70.064  1.00  0.00    -0.291 OA 
BRANCH  28  29
HETATM   29  C   UNL     1     -10.909   5.861  69.874  1.00  0.00    -0.369 A  
HETATM   30  C   UNL     1     -10.396   5.088  72.358  1.00  0.00    -0.261 C  
HETATM   31  C   UNL     1     -10.251   5.075  70.857  1.00  0.00    -0.287 A  
HETATM   32  C   UNL     1      -9.320   4.096  70.434  1.00  0.00    -0.225 A  
HETATM   33  C   UNL     1      -9.010   3.890  69.098  1.00  0.00    -0.172 A  
HETATM   34  C   UNL     1      -9.617   4.681  68.139  1.00  0.00    -0.204 A  
HETATM   35  C   UNL     1     -10.551   5.671  68.505  1.00  0.00    -0.259 A  
HETATM   36  C   UNL     1     -11.131   6.500  67.385  1.00  0.00    -0.411 C  
ENDBRANCH  28  29
ENDBRANCH  27  28
ENDBRANCH  24  27
ENDBRANCH  22  23
BRANCH  22  37
HETATM   37  C   UNL     1      -9.001   8.522  71.411  1.00  0.00    -0.262 C  
BRANCH  37  38
HETATM   38  C   UNL     1      -7.733   8.436  70.607  1.00  0.00    -0.083 A  
HETATM   39  C   UNL     1      -5.494   8.405  68.925  1.00  0.00    -0.035 A  
HETATM   40  C   UNL     1      -7.509   7.357  69.748  1.00  0.00    -0.092 A  
HETATM   41  C   UNL     1      -5.673   9.445  69.829  1.00  0.00    -0.032 A  
HETATM   42  C   UNL     1      -6.761   9.431  70.697  1.00  0.00    -0.097 A  
HETATM   43  C   UNL     1      -6.395   7.343  68.912  1.00  0.00    -0.039 A  
ENDBRANCH  37  38
ENDBRANCH  22  37
ENDBRANCH  19  22
ENDBRANCH  18  19
ENDBRANCH  17  18
BRANCH  17  44
HETATM   44  C   UNL     1      -7.740  11.102  66.724  1.00  0.00    -0.153 C  
BRANCH  44  45
HETATM   45  C   UNL     1      -7.403   9.754  66.115  1.00  0.00    -0.101 A  
HETATM   46  C   UNL     1      -8.347   8.714  66.073  1.00  0.00    -0.135 A  
HETATM   47  C   UNL     1      -6.122   9.514  65.604  1.00  0.00    -0.064 A  
HETATM   48  C   UNL     1      -8.000   7.456  65.568  1.00  0.00    -0.122 A  
HETATM   49  C   UNL     1      -5.778   8.258  65.096  1.00  0.00    -0.044 A  
HETATM   50  C   UNL     1      -6.713   7.226  65.087  1.00  0.00    -0.047 A  
ENDBRANCH  44  45
ENDBRANCH  17  44
ENDBRANCH  15  17
ENDBRANCH   3  13
TORSDOF 14
ENDMDL
MODEL       15
REMARK 921   NORMALIZED FREE ENERGY PREDICTED BY IDOCK:   -6.50 KCAL/MOL
REMARK 922        TOTAL FREE ENERGY PREDICTED BY IDOCK:  -16.37 KCAL/MOL
REMARK 923 INTER-LIGAND FREE ENERGY PREDICTED BY IDOCK:  -12.03 KCAL/MOL
REMARK 924 INTRA-LIGAND FREE ENERGY PREDICTED BY IDOCK:   -4.34 KCAL/MOL
REMARK 927      BINDING AFFINITY PREDICTED BY RF-SCORE:    0.00 PKD
ROOT
HETATM    1  C   UNL     1      -6.096   7.834  69.263  1.00  0.00    -0.034 C  
HETATM    2  C   UNL     1      -7.576   8.042  69.622  1.00  0.00    -0.096 C  
HETATM    3  C   UNL     1      -8.343   8.738  68.455  1.00  0.00    -0.129 C  
HETATM    4  C   UNL     1      -8.169   6.695  70.037  1.00  0.00    -0.130 C  
ENDROOT
BRANCH   3   5
HETATM    5  N   UNL     1      -7.788  10.080  68.163  1.00  0.00    -0.089 N  
HETATM    6  H   UNL     1      -7.153  12.085  65.694  1.00  0.00     0.000 HD 
HETATM    7  O   UNL     1      -8.574  10.123  65.999  1.00  0.00    -0.135 OA 
HETATM    8  C   UNL     1      -7.261  10.913  69.237  1.00  0.00    -0.128 C  
HETATM    9  C   UNL     1      -7.884  10.606  66.892  1.00  0.00    -0.121 C  
HETATM   10  C   UNL     1      -5.939  11.511  68.796  1.00  0.00    -0.047 C  
HETATM   11  N   UNL     1      -7.103  11.696  66.635  1.00  0.00    -0.079 N  
HETATM   12  C   UNL     1      -6.210  12.353  67.567  1.00  0.00    -0.148 C  
ENDBRANCH   3   5
BRANCH   3  13
HETATM   13  C   UNL     1      -9.882   8.764  68.708  1.00  0.00    -0.171 C  
HETATM   14  O   UNL     1     -10.694   8.174  68.003  1.00  0.00    -0.157 OA 
HETATM   15  N   UNL     1     -10.280   9.584  69.745  1.00  0.00    -0.212 N  
HETATM   16  H   UNL     1      -9.537  10.020  70.290  1.00  0.00     0.000 HD 
BRANCH  15  17
HETATM   17  C   UNL     1     -11.650   9.895  70.148  1.00  0.00    -0.218 C  
BRANCH  17  18
HETATM   18  C   UNL     1     -12.172  11.240  69.598  1.00  0.00    -0.340 C  
BRANCH  18  19
HETATM   19  C   UNL     1     -11.333  12.167  68.681  1.00  0.00    -0.280 C  
HETATM   20  O   UNL     1     -10.134  12.546  69.363  1.00  0.00    -0.226 OA 
HETATM   21  H   UNL     1      -9.620  13.114  68.802  1.00  0.00     0.000 HD 
BRANCH  19  22
HETATM   22  C   UNL     1     -12.127  13.488  68.335  1.00  0.00    -0.258 C  
BRANCH  22  23
HETATM   23  N   UNL     1     -12.620  14.235  69.549  1.00  0.00    -0.501 N  
HETATM   24  C   UNL     1     -12.208  15.285  70.341  1.00  0.00    -0.363 C  
HETATM   25  H   UNL     1     -13.509  13.858  69.874  1.00  0.00     0.000 HD 
HETATM   26  O   UNL     1     -13.029  15.788  71.114  1.00  0.00    -0.491 OA 
BRANCH  24  27
HETATM   27  C   UNL     1     -10.736  15.733  70.345  1.00  0.00    -0.289 C  
BRANCH  27  28
HETATM   28  O   UNL     1     -10.286  16.917  69.708  1.00  0.00    -0.175 OA 
BRANCH  28  29
HETATM   29  C   UNL     1      -9.377  16.804  68.665  1.00  0.00    -0.252 A  
HETATM   30  C   UNL     1      -7.610  15.094  69.658  1.00  0.00    -0.163 C  
HETATM   31  C   UNL     1      -8.222  15.981  68.602  1.00  0.00    -0.193 A  
HETATM   32  C   UNL     1      -7.495  15.919  67.388  1.00  0.00    -0.217 A  
HETATM   33  C   UNL     1      -7.857  16.648  66.266  1.00  0.00    -0.309 A  
HETATM   34  C   UNL     1      -8.958  17.484  66.333  1.00  0.00    -0.264 A  
HETATM   35  C   UNL     1      -9.716  17.583  67.517  1.00  0.00    -0.278 A  
HETATM   36  C   UNL     1     -10.878  18.546  67.497  1.00  0.00    -0.337 C  
ENDBRANCH  28  29
ENDBRANCH  27  28
ENDBRANCH  24  27
ENDBRANCH  22  23
BRANCH  22  37
HETATM   37  C   UNL     1     -11.461  14.314  67.202  1.00  0.00    -0.377 C  
BRANCH  37  38
HETATM   38  C   UNL     1     -11.412  13.612  65.872  1.00  0.00    -0.329 A  
HETATM   39  C   UNL     1     -11.314  12.085  63.527  1.00  0.00    -0.528 A  
HETATM   40  C   UNL     1     -10.188  13.339  65.258  1.00  0.00    -0.303 A  
HETATM   41  C   UNL     1     -12.539  12.414  64.094  1.00  0.00    -0.498 A  
HETATM   42  C   UNL     1     -12.585  13.215  65.231  1.00  0.00    -0.531 A  
HETATM   43  C   UNL     1     -10.140  12.580  64.091  1.00  0.00    -0.311 A  
ENDBRANCH  37  38
ENDBRANCH  22  37
ENDBRANCH  19  22
ENDBRANCH  18  19
ENDBRANCH  17  18
BRANCH  17  44
HETATM   44  C   UNL     1     -11.970   9.537  71.616  1.00  0.00    -0.474 C  
BRANCH  44  45
HETATM   45  C   UNL     1     -11.541   8.135  72.007  1.00  0.00    -0.389 A  
HETATM   46  C   UNL     1     -12.272   7.007  71.598  1.00  0.00    -0.395 A  
HETATM   47  C   UNL     1     -10.413   7.944  72.814  1.00  0.00    -0.412 A  
HETATM   48  C   UNL     1     -11.902   5.726  72.023  1.00  0.00    -0.109 A  
HETATM   49  C   UNL     1     -10.043   6.663  73.233  1.00  0.00    -0.232 A  
HETATM   50  C   UNL     1     -10.791   5.555  72.847  1.00  0.00    -0.312 A  
ENDBRANCH  44  45
ENDBRANCH  17  44
ENDBRANCH  15  17
ENDBRANCH   3  13
TORSDOF 14
ENDMDL
MODEL       16
REMARK 921   NORMALIZED FREE ENERGY PREDICTED BY IDOCK:   -6.46 KCAL/MOL
REMARK 922        TOTAL FREE ENERGY PREDICTED BY IDOCK:  -16.31 KCAL/MOL
REMARK 923 INTER-LIGAND FREE ENERGY PREDICTED BY IDOCK:  -13.68 KCAL/MOL
REMARK 924 INTRA-LIGAND FREE ENERGY PREDICTED BY IDOCK:   -2.62 KCAL/MOL
REMARK 927      BINDING AFFINITY PREDICTED BY RF-SCORE:    0.00 PKD
ROOT
HETATM    1  C   UNL     1      -6.207   7.897  68.758  1.00  0.00    -0.040 C  
HETATM    2  C   UNL     1      -6.967   9.232  68.786  1.00  0.00    -0.061 C  
HETATM    3  C   UNL     1      -8.261   9.160  67.918  1.00  0.00    -0.112 C  
HETATM    4  C   UNL     1      -7.221   9.615  70.246  1.00  0.00    -0.137 C  
ENDROOT
BRANCH   3   5
HETATM    5  N   UNL     1      -7.947   8.885  66.496  1.00  0.00    -0.102 N  
HETATM    6  H   UNL     1      -8.478   6.707  64.152  1.00  0.00     0.000 HD 
HETATM    7  O   UNL     1      -9.543   7.239  66.285  1.00  0.00    -0.140 OA 
HETATM    8  C   UNL     1      -7.077   9.780  65.744  1.00  0.00    -0.104 C  
HETATM    9  C   UNL     1      -8.578   7.852  65.837  1.00  0.00    -0.153 C  
HETATM   10  C   UNL     1      -6.082   8.953  64.952  1.00  0.00    -0.064 C  
HETATM   11  N   UNL     1      -8.030   7.480  64.643  1.00  0.00    -0.139 N  
HETATM   12  C   UNL     1      -6.874   8.076  64.005  1.00  0.00    -0.066 C  
ENDBRANCH   3   5
BRANCH   3  13
HETATM   13  C   UNL     1      -9.155  10.425  68.103  1.00  0.00    -0.142 C  
HETATM   14  O   UNL     1      -8.706  11.559  68.228  1.00  0.00    -0.150 OA 
HETATM   15  N   UNL     1     -10.507  10.162  68.207  1.00  0.00    -0.199 N  
HETATM   16  H   UNL     1     -10.793   9.193  68.072  1.00  0.00     0.000 HD 
BRANCH  15  17
HETATM   17  C   UNL     1     -11.572  11.121  68.489  1.00  0.00    -0.314 C  
BRANCH  17  18
HETATM   18  C   UNL     1     -11.718  12.226  67.420  1.00  0.00    -0.405 C  
BRANCH  18  19
HETATM   19  C   UNL     1     -12.154  13.677  67.751  1.00  0.00    -0.290 C  
HETATM   20  O   UNL     1     -12.302  14.415  66.535  1.00  0.00    -0.458 OA 
HETATM   21  H   UNL     1     -12.569  15.304  66.737  1.00  0.00     0.000 HD 
BRANCH  19  22
HETATM   22  C   UNL     1     -11.064  14.409  68.627  1.00  0.00    -0.251 C  
BRANCH  22  23
HETATM   23  N   UNL     1      -9.677  14.359  68.037  1.00  0.00    -0.215 N  
HETATM   24  C   UNL     1      -8.863  15.161  67.266  1.00  0.00    -0.200 C  
HETATM   25  H   UNL     1      -9.209  13.485  68.276  1.00  0.00     0.000 HD 
HETATM   26  O   UNL     1      -7.663  14.878  67.198  1.00  0.00    -0.202 OA 
BRANCH  24  27
HETATM   27  C   UNL     1      -9.459  16.301  66.424  1.00  0.00    -0.294 C  
BRANCH  27  28
HETATM   28  O   UNL     1      -8.666  17.200  65.666  1.00  0.00    -0.473 OA 
BRANCH  28  29
HETATM   29  C   UNL     1      -8.357  18.437  66.215  1.00  0.00    -0.207 A  
HETATM   30  C   UNL     1     -10.762  19.484  66.600  1.00  0.00    -0.552 C  
HETATM   31  C   UNL     1      -9.256  19.436  66.671  1.00  0.00    -0.393 A  
HETATM   32  C   UNL     1      -8.731  20.580  67.319  1.00  0.00    -0.387 A  
HETATM   33  C   UNL     1      -7.371  20.772  67.506  1.00  0.00    -0.362 A  
HETATM   34  C   UNL     1      -6.487  19.821  67.027  1.00  0.00    -0.208 A  
HETATM   35  C   UNL     1      -6.956  18.664  66.374  1.00  0.00    -0.254 A  
HETATM   36  C   UNL     1      -5.909  17.705  65.861  1.00  0.00    -0.174 C  
ENDBRANCH  28  29
ENDBRANCH  27  28
ENDBRANCH  24  27
ENDBRANCH  22  23
BRANCH  22  37
HETATM   37  C   UNL     1     -11.556  15.767  69.195  1.00  0.00    -0.399 C  
BRANCH  37  38
HETATM   38  C   UNL     1     -12.238  15.668  70.532  1.00  0.00    -0.437 A  
HETATM   39  C   UNL     1     -13.394  15.253  73.049  1.00  0.00    -0.610 A  
HETATM   40  C   UNL     1     -13.507  15.094  70.641  1.00  0.00    -0.243 A  
HETATM   41  C   UNL     1     -12.164  15.890  72.943  1.00  0.00    -0.605 A  
HETATM   42  C   UNL     1     -11.616  16.138  71.688  1.00  0.00    -0.503 A  
HETATM   43  C   UNL     1     -14.081  14.889  71.893  1.00  0.00    -0.613 A  
ENDBRANCH  37  38
ENDBRANCH  22  37
ENDBRANCH  19  22
ENDBRANCH  18  19
ENDBRANCH  17  18
BRANCH  17  44
HETATM   44  C   UNL     1     -11.672  11.530  69.975  1.00  0.00    -0.414 C  
BRANCH  44  45
HETATM   45  C   UNL     1     -11.889  10.360  70.915  1.00  0.00    -0.475 A  
HETATM   46  C   UNL     1     -10.829   9.517  71.290  1.00  0.00    -0.413 A  
HETATM   47  C   UNL     1     -13.169  10.082  71.409  1.00  0.00    -0.486 A  
HETATM   48  C   UNL     1     -11.058   8.403  72.105  1.00  0.00    -0.415 A  
HETATM   49  C   UNL     1     -13.395   8.970  72.226  1.00  0.00    -0.523 A  
HETATM   50  C   UNL     1     -12.342   8.126  72.566  1.00  0.00    -0.296 A  
ENDBRANCH  44  45
ENDBRANCH  17  44
ENDBRANCH  15  17
ENDBRANCH   3  13
TORSDOF 14
ENDMDL
MODEL       17
REMARK 921   NORMALIZED FREE ENERGY PREDICTED BY IDOCK:   -6.43 KCAL/MOL
REMARK 922        TOTAL FREE ENERGY PREDICTED BY IDOCK:  -16.25 KCAL/MOL
REMARK 923 INTER-LIGAND FREE ENERGY PREDICTED BY IDOCK:  -12.92 KCAL/MOL
REMARK 924 INTRA-LIGAND FREE ENERGY PREDICTED BY IDOCK:   -3.33 KCAL/MOL
REMARK 927      BINDING AFFINITY PREDICTED BY RF-SCORE:    0.00 PKD
ROOT
HETATM    1  C   UNL     1      -6.120   6.354  66.538  1.00  0.00    -0.033 C  
HETATM    2  C   UNL     1      -7.330   7.035  67.196  1.00  0.00    -0.090 C  
HETATM    3  C   UNL     1      -8.199   7.780  66.136  1.00  0.00    -0.123 C  
HETATM    4  C   UNL     1      -8.099   5.986  68.001  1.00  0.00    -0.110 C  
ENDROOT
BRANCH   3   5
HETATM    5  N   UNL     1      -7.432   8.850  65.458  1.00  0.00    -0.085 N  
HETATM    6  H   UNL     1      -6.826  10.068  62.512  1.00  0.00     0.000 HD 
HETATM    7  O   UNL     1      -8.556   8.628  63.461  1.00  0.00    -0.126 OA 
HETATM    8  C   UNL     1      -6.559   9.734  66.222  1.00  0.00    -0.073 C  
HETATM    9  C   UNL     1      -7.634   9.103  64.118  1.00  0.00    -0.113 C  
HETATM   10  C   UNL     1      -5.239   9.879  65.491  1.00  0.00    -0.046 C  
HETATM   11  N   UNL     1      -6.696   9.886  63.507  1.00  0.00    -0.119 N  
HETATM   12  C   UNL     1      -5.535  10.483  64.134  1.00  0.00    -0.134 C  
ENDBRANCH   3   5
BRANCH   3  13
HETATM   13  C   UNL     1      -9.541   8.294  66.743  1.00  0.00    -0.224 C  
HETATM   14  O   UNL     1     -10.569   7.625  66.777  1.00  0.00    -0.325 OA 
HETATM   15  N   UNL     1      -9.514   9.607  67.168  1.00  0.00    -0.145 N  
HETATM   16  H   UNL     1      -8.612  10.081  67.121  1.00  0.00     0.000 HD 
BRANCH  15  17
HETATM   17  C   UNL     1     -10.636  10.393  67.677  1.00  0.00    -0.257 C  
BRANCH  17  18
HETATM   18  C   UNL     1     -11.238  11.366  66.640  1.00  0.00    -0.298 C  
BRANCH  18  19
HETATM   19  C   UNL     1     -10.473  12.595  66.083  1.00  0.00    -0.258 C  
HETATM   20  O   UNL     1      -9.121  12.560  66.548  1.00  0.00    -0.269 OA 
HETATM   21  H   UNL     1      -8.652  13.313  66.207  1.00  0.00     0.000 HD 
BRANCH  19  22
HETATM   22  C   UNL     1     -11.121  13.941  66.592  1.00  0.00    -0.306 C  
BRANCH  22  23
HETATM   23  N   UNL     1     -11.529  14.876  65.481  1.00  0.00    -0.335 N  
HETATM   24  C   UNL     1     -11.147  16.104  64.985  1.00  0.00    -0.294 C  
HETATM   25  H   UNL     1     -12.308  14.492  64.947  1.00  0.00     0.000 HD 
HETATM   26  O   UNL     1     -11.566  16.438  63.872  1.00  0.00    -1.100 OA 
BRANCH  24  27
HETATM   27  C   UNL     1     -10.321  17.074  65.846  1.00  0.00    -0.298 C  
BRANCH  27  28
HETATM   28  O   UNL     1      -8.903  17.093  65.847  1.00  0.00    -0.520 OA 
BRANCH  28  29
HETATM   29  C   UNL     1      -8.249  17.743  66.884  1.00  0.00    -0.232 A  
HETATM   30  C   UNL     1      -9.116  20.234  66.606  1.00  0.00    -0.395 C  
HETATM   31  C   UNL     1      -8.359  19.107  67.263  1.00  0.00    -0.301 A  
HETATM   32  C   UNL     1      -7.699  19.542  68.439  1.00  0.00    -0.372 A  
HETATM   33  C   UNL     1      -6.933  18.692  69.221  1.00  0.00    -0.222 A  
HETATM   34  C   UNL     1      -6.788  17.371  68.834  1.00  0.00    -0.241 A  
HETATM   35  C   UNL     1      -7.423  16.886  67.673  1.00  0.00    -0.176 A  
HETATM   36  C   UNL     1      -7.176  15.439  67.323  1.00  0.00    -0.229 C  
ENDBRANCH  28  29
ENDBRANCH  27  28
ENDBRANCH  24  27
ENDBRANCH  22  23
BRANCH  22  37
HETATM   37  C   UNL     1     -12.124  13.727  67.758  1.00  0.00    -0.325 C  
BRANCH  37  38
HETATM   38  C   UNL     1     -11.759  14.448  69.027  1.00  0.00    -0.345 A  
HETATM   39  C   UNL     1     -11.287  15.938  71.350  1.00  0.00    -0.407 A  
HETATM   40  C   UNL     1     -10.911  15.557  68.994  1.00  0.00    -0.256 A  
HETATM   41  C   UNL     1     -12.074  14.795  71.404  1.00  0.00    -0.401 A  
HETATM   42  C   UNL     1     -12.265  14.029  70.257  1.00  0.00    -0.430 A  
HETATM   43  C   UNL     1     -10.676  16.298  70.151  1.00  0.00    -0.246 A  
ENDBRANCH  37  38
ENDBRANCH  22  37
ENDBRANCH  19  22
ENDBRANCH  18  19
ENDBRANCH  17  18
BRANCH  17  44
HETATM   44  C   UNL     1     -10.443  10.900  69.122  1.00  0.00    -0.248 C  
BRANCH  44  45
HETATM   45  C   UNL     1     -11.275  10.151  70.146  1.00  0.00    -0.377 A  
HETATM   46  C   UNL     1     -10.982   8.822  70.495  1.00  0.00    -0.272 A  
HETATM   47  C   UNL     1     -12.377  10.771  70.746  1.00  0.00    -0.480 A  
HETATM   48  C   UNL     1     -11.798   8.124  71.391  1.00  0.00    -0.329 A  
HETATM   49  C   UNL     1     -13.189  10.074  71.644  1.00  0.00    -0.518 A  
HETATM   50  C   UNL     1     -12.906   8.748  71.960  1.00  0.00    -0.442 A  
ENDBRANCH  44  45
ENDBRANCH  17  44
ENDBRANCH  15  17
ENDBRANCH   3  13
TORSDOF 14
ENDMDL
MODEL       18
REMARK 921   NORMALIZED FREE ENERGY PREDICTED BY IDOCK:   -6.41 KCAL/MOL
REMARK 922        TOTAL FREE ENERGY PREDICTED BY IDOCK:  -16.21 KCAL/MOL
REMARK 923 INTER-LIGAND FREE ENERGY PREDICTED BY IDOCK:  -13.11 KCAL/MOL
REMARK 924 INTRA-LIGAND FREE ENERGY PREDICTED BY IDOCK:   -3.11 KCAL/MOL
REMARK 927      BINDING AFFINITY PREDICTED BY RF-SCORE:    0.00 PKD
ROOT
HETATM    1  C   UNL     1      -7.904   7.144  63.807  1.00  0.00    -0.110 C  
HETATM    2  C   UNL     1      -8.232   8.209  64.864  1.00  0.00    -0.150 C  
HETATM    3  C   UNL     1      -7.696   7.791  66.268  1.00  0.00    -0.089 C  
HETATM    4  C   UNL     1      -7.701   9.558  64.375  1.00  0.00    -0.123 C  
ENDROOT
BRANCH   3   5
HETATM    5  N   UNL     1      -8.319   6.530  66.734  1.00  0.00    -0.110 N  
HETATM    6  H   UNL     1      -7.569   3.656  68.038  1.00  0.00     0.000 HD 
HETATM    7  O   UNL     1      -6.435   5.811  67.846  1.00  0.00    -0.040 OA 
HETATM    8  C   UNL     1      -9.755   6.320  66.600  1.00  0.00    -0.155 C  
HETATM    9  C   UNL     1      -7.565   5.599  67.416  1.00  0.00    -0.089 C  
HETATM   10  C   UNL     1     -10.003   4.923  66.064  1.00  0.00    -0.243 C  
HETATM   11  N   UNL     1      -8.123   4.359  67.549  1.00  0.00    -0.099 N  
HETATM   12  C   UNL     1      -9.422   3.944  67.063  1.00  0.00    -0.200 C  
ENDBRANCH   3   5
BRANCH   3  13
HETATM   13  C   UNL     1      -7.826   8.947  67.307  1.00  0.00    -0.096 C  
HETATM   14  O   UNL     1      -6.872   9.425  67.911  1.00  0.00    -0.073 OA 
HETATM   15  N   UNL     1      -9.123   9.342  67.568  1.00  0.00    -0.124 N  
HETATM   16  H   UNL     1      -9.852   8.905  67.005  1.00  0.00     0.000 HD 
BRANCH  15  17
HETATM   17  C   UNL     1      -9.565  10.317  68.562  1.00  0.00    -0.161 C  
BRANCH  17  18
HETATM   18  C   UNL     1      -9.371  11.786  68.125  1.00  0.00    -0.190 C  
BRANCH  18  19
HETATM   19  C   UNL     1      -9.989  12.377  66.831  1.00  0.00    -0.215 C  
HETATM   20  O   UNL     1      -8.968  13.042  66.081  1.00  0.00    -0.446 OA 
HETATM   21  H   UNL     1      -9.347  13.404  65.288  1.00  0.00     0.000 HD 
BRANCH  19  22
HETATM   22  C   UNL     1     -11.105  13.440  67.172  1.00  0.00    -0.286 C  
BRANCH  22  23
HETATM   23  N   UNL     1     -11.775  14.028  65.956  1.00  0.00    -0.354 N  
HETATM   24  C   UNL     1     -11.556  15.055  65.062  1.00  0.00    -0.332 C  
HETATM   25  H   UNL     1     -12.632  13.525  65.732  1.00  0.00     0.000 HD 
HETATM   26  O   UNL     1     -12.213  15.067  64.017  1.00  0.00    -0.607 OA 
BRANCH  24  27
HETATM   27  C   UNL     1     -10.606  16.212  65.417  1.00  0.00    -0.380 C  
BRANCH  27  28
HETATM   28  O   UNL     1     -10.586  16.833  66.692  1.00  0.00    -0.286 OA 
BRANCH  28  29
HETATM   29  C   UNL     1      -9.601  17.775  66.954  1.00  0.00    -0.288 A  
HETATM   30  C   UNL     1     -10.547  19.921  65.716  1.00  0.00    -0.490 C  
HETATM   31  C   UNL     1      -9.581  19.143  66.575  1.00  0.00    -0.399 A  
HETATM   32  C   UNL     1      -8.536  19.968  67.056  1.00  0.00    -0.390 A  
HETATM   33  C   UNL     1      -7.519  19.486  67.866  1.00  0.00    -0.310 A  
HETATM   34  C   UNL     1      -7.510  18.145  68.205  1.00  0.00    -0.280 A  
HETATM   35  C   UNL     1      -8.526  17.279  67.753  1.00  0.00    -0.217 A  
HETATM   36  C   UNL     1      -8.406  15.829  68.153  1.00  0.00    -0.160 C  
ENDBRANCH  28  29
ENDBRANCH  27  28
ENDBRANCH  24  27
ENDBRANCH  22  23
BRANCH  22  37
HETATM   37  C   UNL     1     -12.012  13.007  68.355  1.00  0.00    -0.309 C  
BRANCH  37  38
HETATM   38  C   UNL     1     -12.032  13.975  69.506  1.00  0.00    -0.390 A  
HETATM   39  C   UNL     1     -11.844  15.680  71.720  1.00  0.00    -0.524 A  
HETATM   40  C   UNL     1     -12.617  13.619  70.723  1.00  0.00    -0.397 A  
HETATM   41  C   UNL     1     -11.324  16.071  70.492  1.00  0.00    -0.420 A  
HETATM   42  C   UNL     1     -11.463  15.242  69.383  1.00  0.00    -0.329 A  
HETATM   43  C   UNL     1     -12.523  14.468  71.824  1.00  0.00    -0.420 A  
ENDBRANCH  37  38
ENDBRANCH  22  37
ENDBRANCH  19  22
ENDBRANCH  18  19
ENDBRANCH  17  18
BRANCH  17  44
HETATM   44  C   UNL     1      -9.208   9.939  70.016  1.00  0.00    -0.224 C  
BRANCH  44  45
HETATM   45  C   UNL     1     -10.413   9.580  70.864  1.00  0.00    -0.382 A  
HETATM   46  C   UNL     1     -10.341   8.582  71.850  1.00  0.00    -0.378 A  
HETATM   47  C   UNL     1     -11.636  10.228  70.658  1.00  0.00    -0.435 A  
HETATM   48  C   UNL     1     -11.478   8.217  72.579  1.00  0.00    -0.470 A  
HETATM   49  C   UNL     1     -12.770   9.864  71.390  1.00  0.00    -0.503 A  
HETATM   50  C   UNL     1     -12.695   8.853  72.343  1.00  0.00    -0.436 A  
ENDBRANCH  44  45
ENDBRANCH  17  44
ENDBRANCH  15  17
ENDBRANCH   3  13
TORSDOF 14
ENDMDL
MODEL       19
REMARK 921   NORMALIZED FREE ENERGY PREDICTED BY IDOCK:   -6.37 KCAL/MOL
REMARK 922        TOTAL FREE ENERGY PREDICTED BY IDOCK:  -16.13 KCAL/MOL
REMARK 923 INTER-LIGAND FREE ENERGY PREDICTED BY IDOCK:  -13.56 KCAL/MOL
REMARK 924 INTRA-LIGAND FREE ENERGY PREDICTED BY IDOCK:   -2.57 KCAL/MOL
REMARK 927      BINDING AFFINITY PREDICTED BY RF-SCORE:    0.00 PKD
ROOT
HETATM    1  C   UNL     1     -11.052  16.133  64.756  1.00  0.00    -0.345 C  
HETATM    2  C   UNL     1     -10.731  14.931  65.658  1.00  0.00    -0.352 C  
HETATM    3  C   UNL     1     -10.587  15.370  67.148  1.00  0.00    -0.305 C  
HETATM    4  C   UNL     1     -11.795  13.855  65.430  1.00  0.00    -0.363 C  
ENDROOT
BRANCH   3   5
HETATM    5  N   UNL     1      -9.478  16.337  67.325  1.00  0.00    -0.225 N  
HETATM    6  H   UNL     1      -8.844  19.289  68.510  1.00  0.00     0.000 HD 
HETATM    7  O   UNL     1     -10.639  17.660  68.808  1.00  0.00    -0.315 OA 
HETATM    8  C   UNL     1      -8.146  16.038  66.812  1.00  0.00    -0.267 C  
HETATM    9  C   UNL     1      -9.664  17.469  68.088  1.00  0.00    -0.302 C  
HETATM   10  C   UNL     1      -7.600  17.264  66.106  1.00  0.00    -0.318 C  
HETATM   11  N   UNL     1      -8.710  18.440  67.962  1.00  0.00    -0.280 N  
HETATM   12  C   UNL     1      -7.529  18.381  67.127  1.00  0.00    -0.218 C  
ENDBRANCH   3   5
BRANCH   3  13
HETATM   13  C   UNL     1     -10.476  14.145  68.106  1.00  0.00    -0.244 C  
HETATM   14  O   UNL     1      -9.486  13.424  68.172  1.00  0.00    -0.208 OA 
HETATM   15  N   UNL     1     -11.623  13.871  68.824  1.00  0.00    -0.310 N  
HETATM   16  H   UNL     1     -12.391  14.534  68.722  1.00  0.00     0.000 HD 
BRANCH  15  17
HETATM   17  C   UNL     1     -11.857  12.736  69.713  1.00  0.00    -0.310 C  
BRANCH  17  18
HETATM   18  C   UNL     1     -11.894  11.372  68.989  1.00  0.00    -0.415 C  
BRANCH  18  19
HETATM   19  C   UNL     1     -10.766  10.315  69.108  1.00  0.00    -0.228 C  
HETATM   20  O   UNL     1      -9.584  10.942  69.613  1.00  0.00    -0.416 OA 
HETATM   21  H   UNL     1      -8.892  10.294  69.687  1.00  0.00     0.000 HD 
BRANCH  19  22
HETATM   22  C   UNL     1     -10.418   9.700  67.697  1.00  0.00    -0.261 C  
BRANCH  22  23
HETATM   23  N   UNL     1     -10.789   8.244  67.561  1.00  0.00    -0.503 N  
HETATM   24  C   UNL     1     -10.518   7.055  68.202  1.00  0.00    -0.201 C  
HETATM   25  H   UNL     1     -11.418   8.100  66.772  1.00  0.00     0.000 HD 
HETATM   26  O   UNL     1     -11.230   6.080  67.945  1.00  0.00    -0.245 OA 
BRANCH  24  27
HETATM   27  C   UNL     1      -9.290   6.921  69.118  1.00  0.00    -0.140 C  
BRANCH  27  28
HETATM   28  O   UNL     1      -8.965   7.870  70.121  1.00  0.00    -0.149 OA 
BRANCH  28  29
HETATM   29  C   UNL     1      -9.324   7.597  71.433  1.00  0.00    -0.140 A  
HETATM   30  C   UNL     1     -11.943   8.008  71.386  1.00  0.00    -0.328 C  
HETATM   31  C   UNL     1     -10.625   7.608  72.001  1.00  0.00    -0.264 A  
HETATM   32  C   UNL     1     -10.789   7.172  73.338  1.00  0.00    -0.360 A  
HETATM   33  C   UNL     1      -9.723   6.754  74.121  1.00  0.00    -0.325 A  
HETATM   34  C   UNL     1      -8.447   6.780  73.587  1.00  0.00    -0.138 A  
HETATM   35  C   UNL     1      -8.228   7.205  72.261  1.00  0.00    -0.108 A  
HETATM   36  C   UNL     1      -6.796   7.225  71.785  1.00  0.00    -0.058 C  
ENDBRANCH  28  29
ENDBRANCH  27  28
ENDBRANCH  24  27
ENDBRANCH  22  23
BRANCH  22  37
HETATM   37  C   UNL     1     -10.774  10.647  66.519  1.00  0.00    -0.218 C  
BRANCH  37  38
HETATM   38  C   UNL     1      -9.942  10.437  65.284  1.00  0.00    -0.376 A  
HETATM   39  C   UNL     1      -8.282  10.274  63.034  1.00  0.00    -0.162 A  
HETATM   40  C   UNL     1     -10.392  10.887  64.040  1.00  0.00    -0.417 A  
HETATM   41  C   UNL     1      -7.857   9.760  64.252  1.00  0.00    -0.134 A  
HETATM   42  C   UNL     1      -8.704   9.798  65.356  1.00  0.00    -0.176 A  
HETATM   43  C   UNL     1      -9.565  10.805  62.921  1.00  0.00    -0.366 A  
ENDBRANCH  37  38
ENDBRANCH  22  37
ENDBRANCH  19  22
ENDBRANCH  18  19
ENDBRANCH  17  18
BRANCH  17  44
HETATM   44  C   UNL     1     -12.910  13.004  70.810  1.00  0.00    -0.150 C  
BRANCH  44  45
HETATM   45  C   UNL     1     -12.571  14.181  71.705  1.00  0.00    -0.420 A  
HETATM   46  C   UNL     1     -12.911  14.186  73.068  1.00  0.00    -0.432 A  
HETATM   47  C   UNL     1     -11.930  15.306  71.173  1.00  0.00    -0.400 A  
HETATM   48  C   UNL     1     -12.651  15.307  73.864  1.00  0.00    -0.731 A  
HETATM   49  C   UNL     1     -11.667  16.423  71.970  1.00  0.00    -0.434 A  
HETATM   50  C   UNL     1     -12.035  16.428  73.313  1.00  0.00    -0.501 A  
ENDBRANCH  44  45
ENDBRANCH  17  44
ENDBRANCH  15  17
ENDBRANCH   3  13
TORSDOF 14
ENDMDL
MODEL       20
REMARK 921   NORMALIZED FREE ENERGY PREDICTED BY IDOCK:   -6.36 KCAL/MOL
REMARK 922        TOTAL FREE ENERGY PREDICTED BY IDOCK:  -16.13 KCAL/MOL
REMARK 923 INTER-LIGAND FREE ENERGY PREDICTED BY IDOCK:  -12.76 KCAL/MOL
REMARK 924 INTRA-LIGAND FREE ENERGY PREDICTED BY IDOCK:   -3.37 KCAL/MOL
REMARK 927      BINDING AFFINITY PREDICTED BY RF-SCORE:    0.00 PKD
ROOT
HETATM    1  C   UNL     1     -10.740   6.204  72.659  1.00  0.00    -0.261 C  
HETATM    2  C   UNL     1     -10.925   7.246  71.546  1.00  0.00    -0.259 C  
HETATM    3  C   UNL     1      -9.911   7.013  70.384  1.00  0.00    -0.179 C  
HETATM    4  C   UNL     1     -12.390   7.227  71.103  1.00  0.00    -0.381 C  
ENDROOT
BRANCH   3   5
HETATM    5  N   UNL     1      -8.511   7.142  70.851  1.00  0.00    -0.131 N  
HETATM    6  H   UNL     1      -5.643   5.631  70.730  1.00  0.00     0.000 HD 
HETATM    7  O   UNL     1      -7.707   5.518  69.430  1.00  0.00    -0.083 OA 
HETATM    8  C   UNL     1      -8.115   8.254  71.706  1.00  0.00    -0.141 C  
HETATM    9  C   UNL     1      -7.542   6.283  70.375  1.00  0.00    -0.096 C  
HETATM   10  C   UNL     1      -7.254   7.726  72.838  1.00  0.00    -0.102 C  
HETATM   11  N   UNL     1      -6.362   6.273  71.062  1.00  0.00    -0.046 N  
HETATM   12  C   UNL     1      -6.031   7.083  72.216  1.00  0.00    -0.038 C  
ENDBRANCH   3   5
BRANCH   3  13
HETATM   13  C   UNL     1     -10.221   7.919  69.152  1.00  0.00    -0.216 C  
HETATM   14  O   UNL     1     -10.638   7.488  68.083  1.00  0.00    -0.198 OA 
HETATM   15  N   UNL     1      -9.903   9.251  69.325  1.00  0.00    -0.167 N  
HETATM   16  H   UNL     1      -9.580   9.525  70.253  1.00  0.00     0.000 HD 
BRANCH  15  17
HETATM   17  C   UNL     1      -9.979  10.313  68.324  1.00  0.00    -0.147 C  
BRANCH  17  18
HETATM   18  C   UNL     1      -8.756  11.257  68.321  1.00  0.00    -0.158 C  
BRANCH  18  19
HETATM   19  C   UNL     1      -8.486  12.294  67.201  1.00  0.00    -0.184 C  
HETATM   20  O   UNL     1      -7.166  12.098  66.684  1.00  0.00    -0.375 OA 
HETATM   21  H   UNL     1      -7.000  12.734  65.997  1.00  0.00     0.000 HD 
BRANCH  19  22
HETATM   22  C   UNL     1      -8.567  13.767  67.764  1.00  0.00    -0.184 C  
BRANCH  22  23
HETATM   23  N   UNL     1      -7.359  14.177  68.568  1.00  0.00    -0.112 N  
HETATM   24  C   UNL     1      -6.740  15.343  68.964  1.00  0.00    -0.128 C  
HETATM   25  H   UNL     1      -6.858  13.361  68.918  1.00  0.00     0.000 HD 
HETATM   26  O   UNL     1      -5.889  15.277  69.856  1.00  0.00    -0.118 OA 
BRANCH  24  27
HETATM   27  C   UNL     1      -7.020  16.666  68.230  1.00  0.00    -0.155 C  
BRANCH  27  28
HETATM   28  O   UNL     1      -7.713  17.750  68.826  1.00  0.00    -0.278 OA 
BRANCH  28  29
HETATM   29  C   UNL     1      -8.552  18.518  68.031  1.00  0.00    -0.291 A  
HETATM   30  C   UNL     1      -6.842  20.178  66.868  1.00  0.00    -0.262 C  
HETATM   31  C   UNL     1      -8.191  19.557  67.134  1.00  0.00    -0.308 A  
HETATM   32  C   UNL     1      -9.196  20.132  66.317  1.00  0.00    -0.383 A  
HETATM   33  C   UNL     1     -10.522  19.733  66.377  1.00  0.00    -0.618 A  
HETATM   34  C   UNL     1     -10.888  18.749  67.279  1.00  0.00    -0.408 A  
HETATM   35  C   UNL     1      -9.928  18.144  68.115  1.00  0.00    -0.368 A  
HETATM   36  C   UNL     1     -10.435  17.105  69.085  1.00  0.00    -0.296 C  
ENDBRANCH  28  29
ENDBRANCH  27  28
ENDBRANCH  24  27
ENDBRANCH  22  23
BRANCH  22  37
HETATM   37  C   UNL     1      -9.119  14.781  66.727  1.00  0.00    -0.291 C  
BRANCH  37  38
HETATM   38  C   UNL     1     -10.370  14.329  66.025  1.00  0.00    -0.318 A  
HETATM   39  C   UNL     1     -12.659  13.253  64.822  1.00  0.00    -0.398 A  
HETATM   40  C   UNL     1     -10.308  13.805  64.731  1.00  0.00    -0.422 A  
HETATM   41  C   UNL     1     -12.742  13.838  66.079  1.00  0.00    -0.407 A  
HETATM   42  C   UNL     1     -11.612  14.415  66.652  1.00  0.00    -0.396 A  
HETATM   43  C   UNL     1     -11.448  13.271  64.133  1.00  0.00    -0.438 A  
ENDBRANCH  37  38
ENDBRANCH  22  37
ENDBRANCH  19  22
ENDBRANCH  18  19
ENDBRANCH  17  18
BRANCH  17  44
HETATM   44  C   UNL     1     -11.381  10.943  68.180  1.00  0.00    -0.383 C  
BRANCH  44  45
HETATM   45  C   UNL     1     -11.904  11.563  69.463  1.00  0.00    -0.419 A  
HETATM   46  C   UNL     1     -12.454  10.772  70.485  1.00  0.00    -0.447 A  
HETATM   47  C   UNL     1     -11.870  12.951  69.637  1.00  0.00    -0.387 A  
HETATM   48  C   UNL     1     -12.993  11.365  71.633  1.00  0.00    -0.523 A  
HETATM   49  C   UNL     1     -12.405  13.541  70.786  1.00  0.00    -0.440 A  
HETATM   50  C   UNL     1     -12.975  12.750  71.780  1.00  0.00    -0.416 A  
ENDBRANCH  44  45
ENDBRANCH  17  44
ENDBRANCH  15  17
ENDBRANCH   3  13
TORSDOF 14
ENDMDL
MODEL       21
REMARK 921   NORMALIZED FREE ENERGY PREDICTED BY IDOCK:   -6.36 KCAL/MOL
REMARK 922        TOTAL FREE ENERGY PREDICTED BY IDOCK:  -16.12 KCAL/MOL
REMARK 923 INTER-LIGAND FREE ENERGY PREDICTED BY IDOCK:  -11.44 KCAL/MOL
REMARK 924 INTRA-LIGAND FREE ENERGY PREDICTED BY IDOCK:   -4.68 KCAL/MOL
REMARK 927      BINDING AFFINITY PREDICTED BY RF-SCORE:    0.00 PKD
ROOT
HETATM    1  C   UNL     1      -7.259  12.521  67.254  1.00  0.00    -0.114 C  
HETATM    2  C   UNL     1      -8.413  12.109  68.180  1.00  0.00    -0.175 C  
HETATM    3  C   UNL     1      -9.699  11.775  67.362  1.00  0.00    -0.178 C  
HETATM    4  C   UNL     1      -7.933  10.963  69.074  1.00  0.00    -0.131 C  
ENDROOT
BRANCH   3   5
HETATM    5  N   UNL     1     -10.175  12.950  66.595  1.00  0.00    -0.244 N  
HETATM    6  H   UNL     1     -10.889  13.892  63.574  1.00  0.00     0.000 HD 
HETATM    7  O   UNL     1     -10.634  11.736  64.692  1.00  0.00    -0.278 OA 
HETATM    8  C   UNL     1     -10.421  14.221  67.264  1.00  0.00    -0.269 C  
HETATM    9  C   UNL     1     -10.512  12.815  65.265  1.00  0.00    -0.292 C  
HETATM   10  C   UNL     1      -9.821  15.341  66.435  1.00  0.00    -0.295 C  
HETATM   11  N   UNL     1     -10.654  13.978  64.563  1.00  0.00    -0.389 N  
HETATM   12  C   UNL     1     -10.504  15.321  65.084  1.00  0.00    -0.411 C  
ENDBRANCH   3   5
BRANCH   3  13
HETATM   13  C   UNL     1     -10.812  11.150  68.258  1.00  0.00    -0.212 C  
HETATM   14  O   UNL     1     -11.742  10.484  67.816  1.00  0.00    -0.438 OA 
HETATM   15  N   UNL     1     -10.723  11.477  69.596  1.00  0.00    -0.456 N  
HETATM   16  H   UNL     1      -9.906  12.018  69.878  1.00  0.00     0.000 HD 
BRANCH  15  17
HETATM   17  C   UNL     1     -11.672  11.133  70.653  1.00  0.00    -0.207 C  
BRANCH  17  18
HETATM   18  C   UNL     1     -11.740   9.622  70.964  1.00  0.00    -0.433 C  
BRANCH  18  19
HETATM   19  C   UNL     1     -10.728   8.899  71.891  1.00  0.00    -0.356 C  
HETATM   20  O   UNL     1      -9.427   9.464  71.703  1.00  0.00    -0.262 OA 
HETATM   21  H   UNL     1      -8.807   9.021  72.271  1.00  0.00     0.000 HD 
BRANCH  19  22
HETATM   22  C   UNL     1     -10.639   7.362  71.540  1.00  0.00    -0.206 C  
BRANCH  22  23
HETATM   23  N   UNL     1     -10.711   6.459  72.745  1.00  0.00    -0.228 N  
HETATM   24  C   UNL     1     -10.395   5.157  73.068  1.00  0.00    -0.193 C  
HETATM   25  H   UNL     1     -11.105   6.949  73.547  1.00  0.00     0.000 HD 
HETATM   26  O   UNL     1     -10.362   4.845  74.263  1.00  0.00    -0.229 OA 
BRANCH  24  27
HETATM   27  C   UNL     1     -10.206   4.100  71.967  1.00  0.00    -0.129 C  
BRANCH  27  28
HETATM   28  O   UNL     1      -8.940   3.565  71.616  1.00  0.00    -0.098 OA 
BRANCH  28  29
HETATM   29  C   UNL     1      -8.217   4.182  70.604  1.00  0.00    -0.066 A  
HETATM   30  C   UNL     1      -7.154   6.255  71.872  1.00  0.00    -0.085 C  
HETATM   31  C   UNL     1      -7.394   5.335  70.701  1.00  0.00    -0.070 A  
HETATM   32  C   UNL     1      -6.638   5.729  69.570  1.00  0.00    -0.051 A  
HETATM   33  C   UNL     1      -6.688   5.044  68.366  1.00  0.00    -0.054 A  
HETATM   34  C   UNL     1      -7.519   3.944  68.253  1.00  0.00    -0.059 A  
HETATM   35  C   UNL     1      -8.294   3.509  69.347  1.00  0.00    -0.085 A  
HETATM   36  C   UNL     1      -9.191   2.319  69.111  1.00  0.00    -0.194 C  
ENDBRANCH  28  29
ENDBRANCH  27  28
ENDBRANCH  24  27
ENDBRANCH  22  23
BRANCH  22  37
HETATM   37  C   UNL     1     -11.488   6.976  70.298  1.00  0.00    -0.333 C  
BRANCH  37  38
HETATM   38  C   UNL     1     -10.695   6.833  69.028  1.00  0.00    -0.280 A  
HETATM   39  C   UNL     1      -9.384   6.732  66.555  1.00  0.00    -0.197 A  
HETATM   40  C   UNL     1     -11.021   5.844  68.096  1.00  0.00    -0.258 A  
HETATM   41  C   UNL     1      -9.007   7.671  67.506  1.00  0.00    -0.128 A  
HETATM   42  C   UNL     1      -9.628   7.686  68.752  1.00  0.00    -0.153 A  
HETATM   43  C   UNL     1     -10.367   5.794  66.866  1.00  0.00    -0.306 A  
ENDBRANCH  37  38
ENDBRANCH  22  37
ENDBRANCH  19  22
ENDBRANCH  18  19
ENDBRANCH  17  18
BRANCH  17  44
HETATM   44  C   UNL     1     -12.998  11.921  70.588  1.00  0.00     0.077 C  
BRANCH  44  45
HETATM   45  C   UNL     1     -12.903  13.322  71.162  1.00  0.00    -0.363 A  
HETATM   46  C   UNL     1     -12.390  14.389  70.406  1.00  0.00    -0.406 A  
HETATM   47  C   UNL     1     -13.304  13.571  72.480  1.00  0.00    -0.617 A  
HETATM   48  C   UNL     1     -12.246  15.660  70.972  1.00  0.00    -0.462 A  
HETATM   49  C   UNL     1     -13.164  14.842  73.043  1.00  0.00    -0.596 A  
HETATM   50  C   UNL     1     -12.627  15.885  72.293  1.00  0.00    -0.531 A  
ENDBRANCH  44  45
ENDBRANCH  17  44
ENDBRANCH  15  17
ENDBRANCH   3  13
TORSDOF 14
ENDMDL
MODEL       22
REMARK 921   NORMALIZED FREE ENERGY PREDICTED BY IDOCK:   -6.32 KCAL/MOL
REMARK 922        TOTAL FREE ENERGY PREDICTED BY IDOCK:  -16.06 KCAL/MOL
REMARK 923 INTER-LIGAND FREE ENERGY PREDICTED BY IDOCK:  -12.83 KCAL/MOL
REMARK 924 INTRA-LIGAND FREE ENERGY PREDICTED BY IDOCK:   -3.22 KCAL/MOL
REMARK 927      BINDING AFFINITY PREDICTED BY RF-SCORE:    0.00 PKD
ROOT
HETATM    1  C   UNL     1      -7.167   5.523  65.404  1.00  0.00    -0.067 C  
HETATM    2  C   UNL     1      -8.358   6.485  65.534  1.00  0.00    -0.146 C  
HETATM    3  C   UNL     1      -8.669   6.795  67.031  1.00  0.00    -0.114 C  
HETATM    4  C   UNL     1      -8.071   7.729  64.691  1.00  0.00    -0.123 C  
ENDROOT
BRANCH   3   5
HETATM    5  N   UNL     1      -9.037   5.568  67.775  1.00  0.00    -0.108 N  
HETATM    6  H   UNL     1      -8.432   4.000  70.550  1.00  0.00     0.000 HD 
HETATM    7  O   UNL     1      -8.121   6.290  69.760  1.00  0.00    -0.115 OA 
HETATM    8  C   UNL     1      -9.947   4.591  67.188  1.00  0.00    -0.159 C  
HETATM    9  C   UNL     1      -8.625   5.401  69.080  1.00  0.00    -0.102 C  
HETATM   10  C   UNL     1      -9.387   3.199  67.407  1.00  0.00    -0.232 C  
HETATM   11  N   UNL     1      -8.748   4.140  69.590  1.00  0.00    -0.075 N  
HETATM   12  C   UNL     1      -9.282   2.983  68.903  1.00  0.00    -0.163 C  
ENDBRANCH   3   5
BRANCH   3  13
HETATM   13  C   UNL     1      -9.728   7.930  67.181  1.00  0.00    -0.191 C  
HETATM   14  O   UNL     1     -10.898   7.815  66.835  1.00  0.00    -0.311 OA 
HETATM   15  N   UNL     1      -9.226   9.124  67.658  1.00  0.00    -0.128 N  
HETATM   16  H   UNL     1      -8.246   9.125  67.940  1.00  0.00     0.000 HD 
BRANCH  15  17
HETATM   17  C   UNL     1      -9.944  10.388  67.804  1.00  0.00    -0.175 C  
BRANCH  17  18
HETATM   18  C   UNL     1      -9.754  11.356  66.614  1.00  0.00    -0.224 C  
BRANCH  18  19
HETATM   19  C   UNL     1     -10.930  12.092  65.922  1.00  0.00    -0.292 C  
HETATM   20  O   UNL     1     -10.598  12.326  64.550  1.00  0.00    -0.280 OA 
HETATM   21  H   UNL     1     -11.318  12.778  64.125  1.00  0.00     0.000 HD 
BRANCH  19  22
HETATM   22  C   UNL     1     -11.194  13.494  66.598  1.00  0.00    -0.312 C  
BRANCH  22  23
HETATM   23  N   UNL     1     -11.386  14.618  65.610  1.00  0.00    -0.334 N  
HETATM   24  C   UNL     1     -10.657  15.672  65.105  1.00  0.00    -0.424 C  
HETATM   25  H   UNL     1     -12.320  14.589  65.201  1.00  0.00     0.000 HD 
HETATM   26  O   UNL     1     -11.079  16.241  64.094  1.00  0.00    -0.733 OA 
BRANCH  24  27
HETATM   27  C   UNL     1      -9.418  16.196  65.851  1.00  0.00    -0.302 C  
BRANCH  27  28
HETATM   28  O   UNL     1      -8.967  17.538  65.756  1.00  0.00    -0.512 OA 
BRANCH  28  29
HETATM   29  C   UNL     1      -8.384  18.121  66.872  1.00  0.00    -0.245 A  
HETATM   30  C   UNL     1      -5.978  17.006  66.881  1.00  0.00    -0.226 C  
HETATM   31  C   UNL     1      -7.063  17.938  67.360  1.00  0.00    -0.201 A  
HETATM   32  C   UNL     1      -6.623  18.730  68.448  1.00  0.00    -0.249 A  
HETATM   33  C   UNL     1      -7.440  19.663  69.068  1.00  0.00    -0.345 A  
HETATM   34  C   UNL     1      -8.741  19.818  68.624  1.00  0.00    -0.237 A  
HETATM   35  C   UNL     1      -9.230  19.054  67.545  1.00  0.00    -0.325 A  
HETATM   36  C   UNL     1     -10.672  19.276  67.158  1.00  0.00    -0.584 C  
ENDBRANCH  28  29
ENDBRANCH  27  28
ENDBRANCH  24  27
ENDBRANCH  22  23
BRANCH  22  37
HETATM   37  C   UNL     1     -12.178  13.412  67.796  1.00  0.00    -0.171 C  
BRANCH  37  38
HETATM   38  C   UNL     1     -11.764  14.223  68.993  1.00  0.00    -0.352 A  
HETATM   39  C   UNL     1     -11.221  15.847  71.208  1.00  0.00    -0.325 A  
HETATM   40  C   UNL     1     -11.101  15.442  68.830  1.00  0.00    -0.284 A  
HETATM   41  C   UNL     1     -11.815  14.604  71.385  1.00  0.00    -0.362 A  
HETATM   42  C   UNL     1     -12.038  13.779  70.286  1.00  0.00    -0.425 A  
HETATM   43  C   UNL     1     -10.831  16.249  69.933  1.00  0.00    -0.352 A  
ENDBRANCH  37  38
ENDBRANCH  22  37
ENDBRANCH  19  22
ENDBRANCH  18  19
ENDBRANCH  17  18
BRANCH  17  44
HETATM   44  C   UNL     1      -9.900  10.976  69.231  1.00  0.00    -0.060 C  
BRANCH  44  45
HETATM   45  C   UNL     1     -10.741  10.205  70.232  1.00  0.00    -0.352 A  
HETATM   46  C   UNL     1     -12.127  10.410  70.334  1.00  0.00    -0.402 A  
HETATM   47  C   UNL     1     -10.136   9.286  71.098  1.00  0.00    -0.374 A  
HETATM   48  C   UNL     1     -12.877   9.741  71.307  1.00  0.00    -0.472 A  
HETATM   49  C   UNL     1     -10.888   8.615  72.067  1.00  0.00    -0.430 A  
HETATM   50  C   UNL     1     -12.256   8.849  72.178  1.00  0.00    -0.437 A  
ENDBRANCH  44  45
ENDBRANCH  17  44
ENDBRANCH  15  17
ENDBRANCH   3  13
TORSDOF 14
ENDMDL
MODEL       23
REMARK 921   NORMALIZED FREE ENERGY PREDICTED BY IDOCK:   -6.32 KCAL/MOL
REMARK 922        TOTAL FREE ENERGY PREDICTED BY IDOCK:  -16.05 KCAL/MOL
REMARK 923 INTER-LIGAND FREE ENERGY PREDICTED BY IDOCK:  -11.14 KCAL/MOL
REMARK 924 INTRA-LIGAND FREE ENERGY PREDICTED BY IDOCK:   -4.92 KCAL/MOL
REMARK 927      BINDING AFFINITY PREDICTED BY RF-SCORE:    0.00 PKD
ROOT
HETATM    1  C   UNL     1     -12.260  15.032  64.108  1.00  0.00    -0.234 C  
HETATM    2  C   UNL     1     -11.226  13.963  64.491  1.00  0.00    -0.372 C  
HETATM    3  C   UNL     1     -11.243  13.690  66.027  1.00  0.00    -0.296 C  
HETATM    4  C   UNL     1     -11.476  12.718  63.638  1.00  0.00    -0.544 C  
ENDROOT
BRANCH   3   5
HETATM    5  N   UNL     1     -10.896  14.907  66.799  1.00  0.00    -0.314 N  
HETATM    6  H   UNL     1     -11.839  16.635  69.377  1.00  0.00     0.000 HD 
HETATM    7  O   UNL     1     -12.227  14.354  68.595  1.00  0.00    -0.267 OA 
HETATM    8  C   UNL     1      -9.802  15.769  66.370  1.00  0.00    -0.276 C  
HETATM    9  C   UNL     1     -11.521  15.164  68.000  1.00  0.00    -0.342 C  
HETATM   10  C   UNL     1     -10.250  17.216  66.450  1.00  0.00    -0.331 C  
HETATM   11  N   UNL     1     -11.368  16.428  68.496  1.00  0.00    -0.348 N  
HETATM   12  C   UNL     1     -10.605  17.501  67.895  1.00  0.00    -0.390 C  
ENDBRANCH   3   5
BRANCH   3  13
HETATM   13  C   UNL     1     -10.359  12.463  66.409  1.00  0.00    -0.234 C  
HETATM   14  O   UNL     1      -9.136  12.505  66.476  1.00  0.00    -0.226 OA 
HETATM   15  N   UNL     1     -11.057  11.285  66.583  1.00  0.00    -0.273 N  
HETATM   16  H   UNL     1     -12.073  11.347  66.528  1.00  0.00     0.000 HD 
BRANCH  15  17
HETATM   17  C   UNL     1     -10.499   9.958  66.837  1.00  0.00    -0.215 C  
BRANCH  17  18
HETATM   18  C   UNL     1     -10.527   9.544  68.325  1.00  0.00    -0.265 C  
BRANCH  18  19
HETATM   19  C   UNL     1     -10.452  10.562  69.492  1.00  0.00    -0.235 C  
HETATM   20  O   UNL     1      -9.352  11.450  69.274  1.00  0.00    -0.399 OA 
HETATM   21  H   UNL     1      -9.305  12.074  69.989  1.00  0.00     0.000 HD 
BRANCH  19  22
HETATM   22  C   UNL     1     -10.208   9.826  70.868  1.00  0.00    -0.125 C  
BRANCH  22  23
HETATM   23  N   UNL     1     -11.464   9.621  71.677  1.00  0.00    -0.367 N  
HETATM   24  C   UNL     1     -12.307   8.584  72.014  1.00  0.00    -0.365 C  
HETATM   25  H   UNL     1     -11.778  10.497  72.093  1.00  0.00     0.000 HD 
HETATM   26  O   UNL     1     -13.113   8.763  72.931  1.00  0.00    -0.312 OA 
BRANCH  24  27
HETATM   27  C   UNL     1     -12.319   7.286  71.188  1.00  0.00    -0.345 C  
BRANCH  27  28
HETATM   28  O   UNL     1     -12.001   6.017  71.736  1.00  0.00    -0.238 OA 
BRANCH  28  29
HETATM   29  C   UNL     1     -10.755   5.469  71.461  1.00  0.00    -0.222 A  
HETATM   30  C   UNL     1     -10.640   5.664  68.819  1.00  0.00    -0.286 C  
HETATM   31  C   UNL     1     -10.120   5.343  70.198  1.00  0.00    -0.322 A  
HETATM   32  C   UNL     1      -8.786   4.869  70.151  1.00  0.00    -0.134 A  
HETATM   33  C   UNL     1      -8.086   4.503  71.290  1.00  0.00    -0.087 A  
HETATM   34  C   UNL     1      -8.714   4.585  72.520  1.00  0.00    -0.119 A  
HETATM   35  C   UNL     1     -10.040   5.050  72.624  1.00  0.00    -0.227 A  
HETATM   36  C   UNL     1     -10.643   5.071  74.007  1.00  0.00    -0.348 C  
ENDBRANCH  28  29
ENDBRANCH  27  28
ENDBRANCH  24  27
ENDBRANCH  22  23
BRANCH  22  37
HETATM   37  C   UNL     1      -9.225   8.630  70.748  1.00  0.00    -0.223 C  
BRANCH  37  38
HETATM   38  C   UNL     1      -8.332   8.443  71.944  1.00  0.00    -0.223 A  
HETATM   39  C   UNL     1      -6.663   7.843  74.112  1.00  0.00    -0.129 A  
HETATM   40  C   UNL     1      -8.877   8.179  73.203  1.00  0.00    -0.325 A  
HETATM   41  C   UNL     1      -6.114   8.175  72.880  1.00  0.00    -0.068 A  
HETATM   42  C   UNL     1      -6.945   8.520  71.819  1.00  0.00    -0.099 A  
HETATM   43  C   UNL     1      -8.046   7.882  74.281  1.00  0.00    -0.295 A  
ENDBRANCH  37  38
ENDBRANCH  22  37
ENDBRANCH  19  22
ENDBRANCH  18  19
ENDBRANCH  17  18
BRANCH  17  44
HETATM   44  C   UNL     1      -9.228   9.644  66.020  1.00  0.00    -0.232 C  
BRANCH  44  45
HETATM   45  C   UNL     1      -8.137   8.967  66.828  1.00  0.00    -0.111 A  
HETATM   46  C   UNL     1      -7.121   9.711  67.452  1.00  0.00    -0.085 A  
HETATM   47  C   UNL     1      -8.110   7.572  66.945  1.00  0.00    -0.116 A  
HETATM   48  C   UNL     1      -6.085   9.068  68.138  1.00  0.00    -0.050 A  
HETATM   49  C   UNL     1      -7.077   6.932  67.634  1.00  0.00    -0.085 A  
HETATM   50  C   UNL     1      -6.059   7.677  68.222  1.00  0.00    -0.036 A  
ENDBRANCH  44  45
ENDBRANCH  17  44
ENDBRANCH  15  17
ENDBRANCH   3  13
TORSDOF 14
ENDMDL
MODEL       24
REMARK 921   NORMALIZED FREE ENERGY PREDICTED BY IDOCK:   -6.31 KCAL/MOL
REMARK 922        TOTAL FREE ENERGY PREDICTED BY IDOCK:  -16.03 KCAL/MOL
REMARK 923 INTER-LIGAND FREE ENERGY PREDICTED BY IDOCK:  -12.44 KCAL/MOL
REMARK 924 INTRA-LIGAND FREE ENERGY PREDICTED BY IDOCK:   -3.59 KCAL/MOL
REMARK 927      BINDING AFFINITY PREDICTED BY RF-SCORE:    0.00 PKD
ROOT
HETATM    1  C   UNL     1     -11.968  15.537  68.902  1.00  0.00    -0.306 C  
HETATM    2  C   UNL     1     -12.153  14.029  69.134  1.00  0.00    -0.375 C  
HETATM    3  C   UNL     1     -11.061  13.207  68.383  1.00  0.00    -0.268 C  
HETATM    4  C   UNL     1     -12.194  13.772  70.641  1.00  0.00    -0.434 C  
ENDROOT
BRANCH   3   5
HETATM    5  N   UNL     1     -11.132  13.419  66.918  1.00  0.00    -0.287 N  
HETATM    6  H   UNL     1      -9.473  14.723  64.454  1.00  0.00     0.000 HD 
HETATM    7  O   UNL     1      -8.915  14.007  66.721  1.00  0.00    -0.240 OA 
HETATM    8  C   UNL     1     -12.304  12.990  66.164  1.00  0.00    -0.265 C  
HETATM    9  C   UNL     1     -10.038  13.906  66.236  1.00  0.00    -0.300 C  
HETATM   10  C   UNL     1     -12.708  14.095  65.206  1.00  0.00    -0.425 C  
HETATM   11  N   UNL     1     -10.272  14.346  64.964  1.00  0.00    -0.411 N  
HETATM   12  C   UNL     1     -11.542  14.331  64.269  1.00  0.00    -0.282 C  
ENDBRANCH   3   5
BRANCH   3  13
HETATM   13  C   UNL     1     -11.097  11.698  68.775  1.00  0.00    -0.230 C  
HETATM   14  O   UNL     1     -12.089  10.989  68.646  1.00  0.00    -0.551 OA 
HETATM   15  N   UNL     1      -9.942  11.231  69.370  1.00  0.00    -0.419 N  
HETATM   16  H   UNL     1      -9.161  11.884  69.419  1.00  0.00     0.000 HD 
BRANCH  15  17
HETATM   17  C   UNL     1      -9.716   9.903  69.937  1.00  0.00    -0.235 C  
BRANCH  17  18
HETATM   18  C   UNL     1      -9.202   8.867  68.914  1.00  0.00    -0.140 C  
BRANCH  18  19
HETATM   19  C   UNL     1      -9.717   8.785  67.454  1.00  0.00    -0.174 C  
HETATM   20  O   UNL     1     -11.057   8.282  67.454  1.00  0.00    -0.456 OA 
HETATM   21  H   UNL     1     -11.373   8.232  66.559  1.00  0.00     0.000 HD 
BRANCH  19  22
HETATM   22  C   UNL     1      -8.833   7.796  66.598  1.00  0.00    -0.148 C  
BRANCH  22  23
HETATM   23  N   UNL     1      -9.610   6.651  65.998  1.00  0.00    -0.393 N  
HETATM   24  C   UNL     1      -9.804   5.308  66.238  1.00  0.00    -0.182 C  
HETATM   25  H   UNL     1     -10.143   6.958  65.184  1.00  0.00     0.000 HD 
HETATM   26  O   UNL     1     -10.740   4.743  65.664  1.00  0.00    -0.274 OA 
BRANCH  24  27
HETATM   27  C   UNL     1      -8.809   4.516  67.104  1.00  0.00    -0.109 C  
BRANCH  27  28
HETATM   28  O   UNL     1      -8.113   5.086  68.200  1.00  0.00    -0.087 OA 
BRANCH  28  29
HETATM   29  C   UNL     1      -8.478   4.710  69.485  1.00  0.00    -0.078 A  
HETATM   30  C   UNL     1     -10.907   5.753  69.694  1.00  0.00    -0.418 C  
HETATM   31  C   UNL     1      -9.711   4.953  70.146  1.00  0.00    -0.283 A  
HETATM   32  C   UNL     1      -9.929   4.369  71.418  1.00  0.00    -0.248 A  
HETATM   33  C   UNL     1      -8.975   3.588  72.051  1.00  0.00    -0.142 A  
HETATM   34  C   UNL     1      -7.755   3.382  71.431  1.00  0.00    -0.055 A  
HETATM   35  C   UNL     1      -7.487   3.939  70.165  1.00  0.00    -0.045 A  
HETATM   36  C   UNL     1      -6.116   3.681  69.589  1.00  0.00    -0.024 C  
ENDBRANCH  28  29
ENDBRANCH  27  28
ENDBRANCH  24  27
ENDBRANCH  22  23
BRANCH  22  37
HETATM   37  C   UNL     1      -7.814   8.531  65.686  1.00  0.00    -0.102 C  
BRANCH  37  38
HETATM   38  C   UNL     1      -8.443   9.377  64.613  1.00  0.00    -0.179 A  
HETATM   39  C   UNL     1      -9.484  11.150  62.711  1.00  0.00    -0.357 A  
HETATM   40  C   UNL     1      -9.662  10.021  64.840  1.00  0.00    -0.377 A  
HETATM   41  C   UNL     1      -8.309  10.457  62.449  1.00  0.00    -0.214 A  
HETATM   42  C   UNL     1      -7.822   9.540  63.375  1.00  0.00    -0.132 A  
HETATM   43  C   UNL     1     -10.179  10.903  63.893  1.00  0.00    -0.418 A  
ENDBRANCH  37  38
ENDBRANCH  22  37
ENDBRANCH  19  22
ENDBRANCH  18  19
ENDBRANCH  17  18
BRANCH  17  44
HETATM   44  C   UNL     1     -10.801   9.456  70.941  1.00  0.00    -0.392 C  
BRANCH  44  45
HETATM   45  C   UNL     1     -10.279   8.541  72.032  1.00  0.00    -0.391 A  
HETATM   46  C   UNL     1     -11.146   7.725  72.779  1.00  0.00    -0.457 A  
HETATM   47  C   UNL     1      -8.912   8.514  72.334  1.00  0.00    -0.284 A  
HETATM   48  C   UNL     1     -10.657   6.936  73.826  1.00  0.00    -0.333 A  
HETATM   49  C   UNL     1      -8.426   7.722  73.378  1.00  0.00    -0.248 A  
HETATM   50  C   UNL     1      -9.298   6.941  74.130  1.00  0.00    -0.267 A  
ENDBRANCH  44  45
ENDBRANCH  17  44
ENDBRANCH  15  17
ENDBRANCH   3  13
TORSDOF 14
ENDMDL
MODEL       25
REMARK 921   NORMALIZED FREE ENERGY PREDICTED BY IDOCK:   -6.30 KCAL/MOL
REMARK 922        TOTAL FREE ENERGY PREDICTED BY IDOCK:  -16.00 KCAL/MOL
REMARK 923 INTER-LIGAND FREE ENERGY PREDICTED BY IDOCK:  -11.81 KCAL/MOL
REMARK 924 INTRA-LIGAND FREE ENERGY PREDICTED BY IDOCK:   -4.19 KCAL/MOL
REMARK 927      BINDING AFFINITY PREDICTED BY RF-SCORE:    0.00 PKD
ROOT
HETATM    1  C   UNL     1      -7.049  17.136  68.208  1.00  0.00    -0.197 C  
HETATM    2  C   UNL     1      -8.227  16.308  68.743  1.00  0.00    -0.227 C  
HETATM    3  C   UNL     1      -9.364  16.198  67.682  1.00  0.00    -0.214 C  
HETATM    4  C   UNL     1      -7.692  14.955  69.220  1.00  0.00    -0.166 C  
ENDROOT
BRANCH   3   5
HETATM    5  N   UNL     1      -9.912  17.530  67.332  1.00  0.00    -0.304 N  
HETATM    6  H   UNL     1     -10.854  19.301  64.783  1.00  0.00     0.000 HD 
HETATM    7  O   UNL     1     -10.487  16.921  65.188  1.00  0.00    -0.663 OA 
HETATM    8  C   UNL     1     -10.128  18.536  68.365  1.00  0.00    -0.388 C  
HETATM    9  C   UNL     1     -10.342  17.785  66.047  1.00  0.00    -0.304 C  
HETATM   10  C   UNL     1      -9.606  19.872  67.872  1.00  0.00    -0.490 C  
HETATM   11  N   UNL     1     -10.551  19.098  65.735  1.00  0.00    -0.438 N  
HETATM   12  C   UNL     1     -10.383  20.230  66.623  1.00  0.00    -0.288 C  
ENDBRANCH   3   5
BRANCH   3  13
HETATM   13  C   UNL     1     -10.470  15.189  68.118  1.00  0.00    -0.245 C  
HETATM   14  O   UNL     1     -11.165  15.336  69.117  1.00  0.00    -0.246 OA 
HETATM   15  N   UNL     1     -10.554  14.055  67.335  1.00  0.00    -0.277 N  
HETATM   16  H   UNL     1      -9.952  14.025  66.512  1.00  0.00     0.000 HD 
BRANCH  15  17
HETATM   17  C   UNL     1     -11.411  12.892  67.555  1.00  0.00    -0.308 C  
BRANCH  17  18
HETATM   18  C   UNL     1     -10.858  11.898  68.600  1.00  0.00    -0.273 C  
BRANCH  18  19
HETATM   19  C   UNL     1     -11.483  10.503  68.860  1.00  0.00    -0.226 C  
HETATM   20  O   UNL     1     -12.852  10.663  69.245  1.00  0.00    -0.630 OA 
HETATM   21  H   UNL     1     -13.235   9.808  69.405  1.00  0.00     0.000 HD 
BRANCH  19  22
HETATM   22  C   UNL     1     -10.737   9.761  70.037  1.00  0.00    -0.283 C  
BRANCH  22  23
HETATM   23  N   UNL     1     -11.416   8.489  70.479  1.00  0.00    -0.398 N  
HETATM   24  C   UNL     1     -11.406   7.650  71.573  1.00  0.00    -0.255 C  
HETATM   25  H   UNL     1     -12.065   8.155  69.768  1.00  0.00     0.000 HD 
HETATM   26  O   UNL     1     -12.314   6.821  71.679  1.00  0.00    -0.345 OA 
BRANCH  24  27
HETATM   27  C   UNL     1     -10.231   7.672  72.566  1.00  0.00    -0.243 C  
BRANCH  27  28
HETATM   28  O   UNL     1      -9.398   6.550  72.804  1.00  0.00    -0.141 OA 
BRANCH  28  29
HETATM   29  C   UNL     1      -8.533   6.141  71.798  1.00  0.00    -0.129 A  
HETATM   30  C   UNL     1     -10.009   4.367  70.492  1.00  0.00    -0.256 C  
HETATM   31  C   UNL     1      -8.792   5.220  70.749  1.00  0.00    -0.151 A  
HETATM   32  C   UNL     1      -7.809   5.037  69.745  1.00  0.00    -0.071 A  
HETATM   33  C   UNL     1      -6.596   5.709  69.760  1.00  0.00    -0.050 A  
HETATM   34  C   UNL     1      -6.322   6.577  70.801  1.00  0.00    -0.044 A  
HETATM   35  C   UNL     1      -7.264   6.795  71.826  1.00  0.00    -0.084 A  
HETATM   36  C   UNL     1      -6.855   7.737  72.932  1.00  0.00    -0.083 C  
ENDBRANCH  28  29
ENDBRANCH  27  28
ENDBRANCH  24  27
ENDBRANCH  22  23
BRANCH  22  37
HETATM   37  C   UNL     1      -9.196   9.727  69.850  1.00  0.00    -0.263 C  
BRANCH  37  38
HETATM   38  C   UNL     1      -8.727   8.819  68.748  1.00  0.00    -0.137 A  
HETATM   39  C   UNL     1      -7.939   7.303  66.528  1.00  0.00    -0.115 A  
HETATM   40  C   UNL     1      -9.580   7.849  68.216  1.00  0.00    -0.164 A  
HETATM   41  C   UNL     1      -7.059   8.215  67.097  1.00  0.00    -0.079 A  
HETATM   42  C   UNL     1      -7.437   8.930  68.230  1.00  0.00    -0.087 A  
HETATM   43  C   UNL     1      -9.187   7.095  67.112  1.00  0.00    -0.153 A  
ENDBRANCH  37  38
ENDBRANCH  22  37
ENDBRANCH  19  22
ENDBRANCH  18  19
ENDBRANCH  17  18
BRANCH  17  44
HETATM   44  C   UNL     1     -12.034  12.317  66.264  1.00  0.00    -0.307 C  
BRANCH  44  45
HETATM   45  C   UNL     1     -11.011  11.764  65.289  1.00  0.00    -0.350 A  
HETATM   46  C   UNL     1     -10.847  12.320  64.009  1.00  0.00    -0.439 A  
HETATM   47  C   UNL     1     -10.224  10.662  65.644  1.00  0.00    -0.319 A  
HETATM   48  C   UNL     1      -9.947  11.758  63.098  1.00  0.00    -0.373 A  
HETATM   49  C   UNL     1      -9.323  10.104  64.734  1.00  0.00    -0.324 A  
HETATM   50  C   UNL     1      -9.190  10.645  63.458  1.00  0.00    -0.283 A  
ENDBRANCH  44  45
ENDBRANCH  17  44
ENDBRANCH  15  17
ENDBRANCH   3  13
TORSDOF 14
ENDMDL
MODEL       26
REMARK 921   NORMALIZED FREE ENERGY PREDICTED BY IDOCK:   -6.29 KCAL/MOL
REMARK 922        TOTAL FREE ENERGY PREDICTED BY IDOCK:  -15.98 KCAL/MOL
REMARK 923 INTER-LIGAND FREE ENERGY PREDICTED BY IDOCK:  -12.90 KCAL/MOL
REMARK 924 INTRA-LIGAND FREE ENERGY PREDICTED BY IDOCK:   -3.09 KCAL/MOL
REMARK 927      BINDING AFFINITY PREDICTED BY RF-SCORE:    0.00 PKD
ROOT
HETATM    1  C   UNL     1      -8.898   5.406  71.660  1.00  0.00    -0.143 C  
HETATM    2  C   UNL     1      -8.872   6.439  70.522  1.00  0.00    -0.144 C  
HETATM    3  C   UNL     1      -9.537   7.779  70.965  1.00  0.00    -0.159 C  
HETATM    4  C   UNL     1      -7.428   6.594  70.040  1.00  0.00    -0.094 C  
ENDROOT
BRANCH   3   5
HETATM    5  N   UNL     1     -10.961   7.586  71.325  1.00  0.00    -0.240 N  
HETATM    6  H   UNL     1     -13.762   6.486  70.114  1.00  0.00     0.000 HD 
HETATM    7  O   UNL     1     -11.407   6.213  69.531  1.00  0.00    -0.418 OA 
HETATM    8  C   UNL     1     -11.462   8.020  72.624  1.00  0.00    -0.402 C  
HETATM    9  C   UNL     1     -11.796   6.877  70.488  1.00  0.00    -0.333 C  
HETATM   10  C   UNL     1     -12.780   8.746  72.428  1.00  0.00    -0.433 C  
HETATM   11  N   UNL     1     -13.134   6.994  70.736  1.00  0.00    -0.026 N  
HETATM   12  C   UNL     1     -13.747   7.767  71.796  1.00  0.00    -0.339 C  
ENDBRANCH   3   5
BRANCH   3  13
HETATM   13  C   UNL     1      -9.331   8.907  69.908  1.00  0.00    -0.166 C  
HETATM   14  O   UNL     1      -8.524   9.820  70.041  1.00  0.00    -0.190 OA 
HETATM   15  N   UNL     1     -10.197   8.853  68.834  1.00  0.00    -0.202 N  
HETATM   16  H   UNL     1     -10.821   8.047  68.794  1.00  0.00     0.000 HD 
BRANCH  15  17
HETATM   17  C   UNL     1     -10.317   9.822  67.748  1.00  0.00    -0.225 C  
BRANCH  17  18
HETATM   18  C   UNL     1     -11.381  10.914  68.000  1.00  0.00    -0.382 C  
BRANCH  18  19
HETATM   19  C   UNL     1     -11.064  12.265  68.691  1.00  0.00    -0.249 C  
HETATM   20  O   UNL     1     -11.118  12.095  70.110  1.00  0.00    -0.406 OA 
HETATM   21  H   UNL     1     -10.924  12.923  70.533  1.00  0.00     0.000 HD 
BRANCH  19  22
HETATM   22  C   UNL     1     -12.130  13.363  68.298  1.00  0.00    -0.236 C  
BRANCH  22  23
HETATM   23  N   UNL     1     -12.691  14.114  69.480  1.00  0.00    -0.394 N  
HETATM   24  C   UNL     1     -12.459  15.300  70.142  1.00  0.00    -0.334 C  
HETATM   25  H   UNL     1     -13.458  13.598  69.910  1.00  0.00     0.000 HD 
HETATM   26  O   UNL     1     -13.317  15.702  70.934  1.00  0.00    -0.556 OA 
BRANCH  24  27
HETATM   27  C   UNL     1     -11.118  16.036  69.984  1.00  0.00    -0.362 C  
BRANCH  27  28
HETATM   28  O   UNL     1     -10.764  16.757  68.815  1.00  0.00    -0.316 OA 
BRANCH  28  29
HETATM   29  C   UNL     1      -9.419  16.990  68.562  1.00  0.00    -0.269 A  
HETATM   30  C   UNL     1      -8.450  14.526  68.426  1.00  0.00    -0.163 C  
HETATM   31  C   UNL     1      -8.395  16.031  68.345  1.00  0.00    -0.178 A  
HETATM   32  C   UNL     1      -7.105  16.483  67.974  1.00  0.00    -0.152 A  
HETATM   33  C   UNL     1      -6.799  17.828  67.835  1.00  0.00    -0.193 A  
HETATM   34  C   UNL     1      -7.782  18.770  68.084  1.00  0.00    -0.310 A  
HETATM   35  C   UNL     1      -9.082  18.374  68.457  1.00  0.00    -0.345 A  
HETATM   36  C   UNL     1     -10.071  19.479  68.737  1.00  0.00    -0.519 C  
ENDBRANCH  28  29
ENDBRANCH  27  28
ENDBRANCH  24  27
ENDBRANCH  22  23
BRANCH  22  37
HETATM   37  C   UNL     1     -11.716  14.189  67.050  1.00  0.00    -0.430 C  
BRANCH  37  38
HETATM   38  C   UNL     1     -11.569  13.377  65.793  1.00  0.00    -0.358 A  
HETATM   39  C   UNL     1     -11.327  12.085  63.320  1.00  0.00    -0.396 A  
HETATM   40  C   UNL     1     -12.690  12.816  65.176  1.00  0.00    -0.402 A  
HETATM   41  C   UNL     1     -10.198  12.578  63.962  1.00  0.00    -0.390 A  
HETATM   42  C   UNL     1     -10.317  13.175  65.214  1.00  0.00    -0.319 A  
HETATM   43  C   UNL     1     -12.568  12.172  63.946  1.00  0.00    -0.545 A  
ENDBRANCH  37  38
ENDBRANCH  22  37
ENDBRANCH  19  22
ENDBRANCH  18  19
ENDBRANCH  17  18
BRANCH  17  44
HETATM   44  C   UNL     1     -10.236   9.199  66.337  1.00  0.00    -0.300 C  
BRANCH  44  45
HETATM   45  C   UNL     1      -8.940   9.506  65.610  1.00  0.00    -0.224 A  
HETATM   46  C   UNL     1      -7.843  10.072  66.280  1.00  0.00    -0.111 A  
HETATM   47  C   UNL     1      -8.826   9.250  64.239  1.00  0.00    -0.185 A  
HETATM   48  C   UNL     1      -6.678  10.410  65.581  1.00  0.00    -0.127 A  
HETATM   49  C   UNL     1      -7.661   9.584  63.543  1.00  0.00    -0.118 A  
HETATM   50  C   UNL     1      -6.591  10.173  64.212  1.00  0.00    -0.114 A  
ENDBRANCH  44  45
ENDBRANCH  17  44
ENDBRANCH  15  17
ENDBRANCH   3  13
TORSDOF 14
ENDMDL
MODEL       27
REMARK 921   NORMALIZED FREE ENERGY PREDICTED BY IDOCK:   -6.28 KCAL/MOL
REMARK 922        TOTAL FREE ENERGY PREDICTED BY IDOCK:  -15.98 KCAL/MOL
REMARK 923 INTER-LIGAND FREE ENERGY PREDICTED BY IDOCK:  -13.10 KCAL/MOL
REMARK 924 INTRA-LIGAND FREE ENERGY PREDICTED BY IDOCK:   -2.87 KCAL/MOL
REMARK 927      BINDING AFFINITY PREDICTED BY RF-SCORE:    0.00 PKD
ROOT
HETATM    1  C   UNL     1      -9.898  15.862  65.610  1.00  0.00    -0.337 C  
HETATM    2  C   UNL     1     -10.248  15.099  66.897  1.00  0.00    -0.259 C  
HETATM    3  C   UNL     1      -9.976  13.571  66.736  1.00  0.00    -0.269 C  
HETATM    4  C   UNL     1      -9.495  15.743  68.063  1.00  0.00    -0.202 C  
ENDROOT
BRANCH   3   5
HETATM    5  N   UNL     1     -10.805  12.982  65.660  1.00  0.00    -0.271 N  
HETATM    6  H   UNL     1     -10.662  10.844  63.223  1.00  0.00     0.000 HD 
HETATM    7  O   UNL     1      -9.328  11.270  65.224  1.00  0.00    -0.219 OA 
HETATM    8  C   UNL     1     -12.176  13.430  65.452  1.00  0.00    -0.452 C  
HETATM    9  C   UNL     1     -10.330  11.913  64.929  1.00  0.00    -0.286 C  
HETATM   10  C   UNL     1     -12.408  13.641  63.968  1.00  0.00    -0.382 C  
HETATM   11  N   UNL     1     -11.012  11.623  63.781  1.00  0.00    -0.394 N  
HETATM   12  C   UNL     1     -12.183  12.311  63.279  1.00  0.00    -0.423 C  
ENDBRANCH   3   5
BRANCH   3  13
HETATM   13  C   UNL     1     -10.118  12.811  68.091  1.00  0.00    -0.239 C  
HETATM   14  O   UNL     1      -9.216  12.148  68.593  1.00  0.00    -0.135 OA 
HETATM   15  N   UNL     1     -11.378  12.864  68.650  1.00  0.00    -0.267 N  
HETATM   16  H   UNL     1     -12.061  13.454  68.175  1.00  0.00     0.000 HD 
BRANCH  15  17
HETATM   17  C   UNL     1     -11.842  12.167  69.848  1.00  0.00    -0.319 C  
BRANCH  17  18
HETATM   18  C   UNL     1     -11.785  10.628  69.737  1.00  0.00    -0.385 C  
BRANCH  18  19
HETATM   19  C   UNL     1     -12.253   9.676  70.868  1.00  0.00    -0.285 C  
HETATM   20  O   UNL     1     -12.504  10.438  72.053  1.00  0.00    -0.290 OA 
HETATM   21  H   UNL     1     -12.791   9.855  72.746  1.00  0.00     0.000 HD 
BRANCH  19  22
HETATM   22  C   UNL     1     -11.137   8.613  71.209  1.00  0.00    -0.272 C  
BRANCH  22  23
HETATM   23  N   UNL     1      -9.759   9.206  71.362  1.00  0.00    -0.294 N  
HETATM   24  C   UNL     1      -8.518   9.079  70.775  1.00  0.00    -0.200 C  
HETATM   25  H   UNL     1      -9.739   9.897  72.111  1.00  0.00     0.000 HD 
HETATM   26  O   UNL     1      -7.670   9.944  71.012  1.00  0.00    -0.215 OA 
BRANCH  24  27
HETATM   27  C   UNL     1      -8.169   7.831  69.947  1.00  0.00    -0.125 C  
BRANCH  27  28
HETATM   28  O   UNL     1      -8.117   7.832  68.529  1.00  0.00    -0.120 OA 
BRANCH  28  29
HETATM   29  C   UNL     1      -8.732   6.795  67.842  1.00  0.00    -0.120 A  
HETATM   30  C   UNL     1      -6.945   4.848  68.069  1.00  0.00    -0.061 C  
HETATM   31  C   UNL     1      -8.260   5.468  67.664  1.00  0.00    -0.101 A  
HETATM   32  C   UNL     1      -9.106   4.523  67.034  1.00  0.00    -0.133 A  
HETATM   33  C   UNL     1     -10.369   4.849  66.567  1.00  0.00    -0.311 A  
HETATM   34  C   UNL     1     -10.820   6.151  66.701  1.00  0.00    -0.279 A  
HETATM   35  C   UNL     1     -10.018   7.131  67.319  1.00  0.00    -0.243 A  
HETATM   36  C   UNL     1     -10.588   8.526  67.388  1.00  0.00    -0.304 C  
ENDBRANCH  28  29
ENDBRANCH  27  28
ENDBRANCH  24  27
ENDBRANCH  22  23
BRANCH  22  37
HETATM   37  C   UNL     1     -11.595   7.574  72.269  1.00  0.00    -0.354 C  
BRANCH  37  38
HETATM   38  C   UNL     1     -11.019   6.198  72.074  1.00  0.00    -0.305 A  
HETATM   39  C   UNL     1      -9.715   3.744  71.734  1.00  0.00    -0.245 A  
HETATM   40  C   UNL     1     -10.722   5.728  70.793  1.00  0.00    -0.342 A  
HETATM   41  C   UNL     1     -10.072   4.172  73.006  1.00  0.00    -0.212 A  
HETATM   42  C   UNL     1     -10.764   5.370  73.166  1.00  0.00    -0.309 A  
HETATM   43  C   UNL     1     -10.074   4.506  70.625  1.00  0.00    -0.232 A  
ENDBRANCH  37  38
ENDBRANCH  22  37
ENDBRANCH  19  22
ENDBRANCH  18  19
ENDBRANCH  17  18
BRANCH  17  44
HETATM   44  C   UNL     1     -13.089  12.802  70.501  1.00  0.00     0.365 C  
BRANCH  44  45
HETATM   45  C   UNL     1     -12.780  14.028  71.339  1.00  0.00    -0.442 A  
HETATM   46  C   UNL     1     -12.068  15.117  70.807  1.00  0.00    -0.387 A  
HETATM   47  C   UNL     1     -13.180  14.083  72.679  1.00  0.00    -0.606 A  
HETATM   48  C   UNL     1     -11.733  16.211  71.612  1.00  0.00    -0.558 A  
HETATM   49  C   UNL     1     -12.848  15.179  73.481  1.00  0.00    -0.657 A  
HETATM   50  C   UNL     1     -12.117  16.239  72.951  1.00  0.00    -0.625 A  
ENDBRANCH  44  45
ENDBRANCH  17  44
ENDBRANCH  15  17
ENDBRANCH   3  13
TORSDOF 14
ENDMDL
MODEL       28
REMARK 921   NORMALIZED FREE ENERGY PREDICTED BY IDOCK:   -6.27 KCAL/MOL
REMARK 922        TOTAL FREE ENERGY PREDICTED BY IDOCK:  -15.96 KCAL/MOL
REMARK 923 INTER-LIGAND FREE ENERGY PREDICTED BY IDOCK:  -13.21 KCAL/MOL
REMARK 924 INTRA-LIGAND FREE ENERGY PREDICTED BY IDOCK:   -2.76 KCAL/MOL
REMARK 927      BINDING AFFINITY PREDICTED BY RF-SCORE:    0.00 PKD
ROOT
HETATM    1  C   UNL     1     -13.273   8.914  72.210  1.00  0.00    -0.498 C  
HETATM    2  C   UNL     1     -12.117   9.704  71.577  1.00  0.00    -0.482 C  
HETATM    3  C   UNL     1     -11.324   8.824  70.562  1.00  0.00    -0.227 C  
HETATM    4  C   UNL     1     -12.683  10.990  70.971  1.00  0.00    -0.485 C  
ENDROOT
BRANCH   3   5
HETATM    5  N   UNL     1     -10.715   7.646  71.224  1.00  0.00    -0.227 N  
HETATM    6  H   UNL     1     -10.797   4.403  71.217  1.00  0.00     0.000 HD 
HETATM    7  O   UNL     1     -11.496   6.148  69.659  1.00  0.00    -0.429 OA 
HETATM    8  C   UNL     1      -9.753   7.820  72.305  1.00  0.00    -0.186 C  
HETATM    9  C   UNL     1     -10.956   6.379  70.736  1.00  0.00    -0.290 C  
HETATM   10  C   UNL     1     -10.094   6.861  73.429  1.00  0.00    -0.289 C  
HETATM   11  N   UNL     1     -10.610   5.346  71.560  1.00  0.00    -0.233 N  
HETATM   12  C   UNL     1     -10.004   5.456  72.870  1.00  0.00    -0.169 C  
ENDBRANCH   3   5
BRANCH   3  13
HETATM   13  C   UNL     1     -10.288   9.662  69.752  1.00  0.00    -0.241 C  
HETATM   14  O   UNL     1      -9.173   9.949  70.173  1.00  0.00    -0.228 OA 
HETATM   15  N   UNL     1     -10.754  10.139  68.543  1.00  0.00    -0.218 N  
HETATM   16  H   UNL     1     -11.686   9.835  68.264  1.00  0.00     0.000 HD 
BRANCH  15  17
HETATM   17  C   UNL     1     -10.059  11.034  67.621  1.00  0.00    -0.182 C  
BRANCH  17  18
HETATM   18  C   UNL     1     -10.043  12.510  68.075  1.00  0.00    -0.220 C  
BRANCH  18  19
HETATM   19  C   UNL     1     -11.287  13.236  68.649  1.00  0.00    -0.288 C  
HETATM   20  O   UNL     1     -12.464  12.736  68.008  1.00  0.00    -0.006 OA 
HETATM   21  H   UNL     1     -13.226  13.181  68.359  1.00  0.00     0.000 HD 
BRANCH  19  22
HETATM   22  C   UNL     1     -11.212  14.789  68.372  1.00  0.00    -0.284 C  
BRANCH  22  23
HETATM   23  N   UNL     1     -10.825  15.135  66.956  1.00  0.00    -0.309 N  
HETATM   24  C   UNL     1     -10.243  16.187  66.283  1.00  0.00    -0.320 C  
HETATM   25  H   UNL     1     -11.059  14.376  66.317  1.00  0.00     0.000 HD 
HETATM   26  O   UNL     1      -9.847  15.993  65.129  1.00  0.00    -0.397 OA 
BRANCH  24  27
HETATM   27  C   UNL     1     -10.201  17.591  66.910  1.00  0.00    -0.329 C  
BRANCH  27  28
HETATM   28  O   UNL     1      -9.621  17.855  68.178  1.00  0.00    -0.283 OA 
BRANCH  28  29
HETATM   29  C   UNL     1      -8.248  18.043  68.253  1.00  0.00    -0.292 A  
HETATM   30  C   UNL     1      -7.952  20.410  67.094  1.00  0.00    -0.379 C  
HETATM   31  C   UNL     1      -7.499  19.170  67.825  1.00  0.00    -0.283 A  
HETATM   32  C   UNL     1      -6.113  19.215  68.111  1.00  0.00    -0.232 A  
HETATM   33  C   UNL     1      -5.455  18.191  68.774  1.00  0.00    -0.179 A  
HETATM   34  C   UNL     1      -6.172  17.071  69.158  1.00  0.00    -0.203 A  
HETATM   35  C   UNL     1      -7.553  16.974  68.897  1.00  0.00    -0.233 A  
HETATM   36  C   UNL     1      -8.235  15.699  69.328  1.00  0.00    -0.253 C  
ENDBRANCH  28  29
ENDBRANCH  27  28
ENDBRANCH  24  27
ENDBRANCH  22  23
BRANCH  22  37
HETATM   37  C   UNL     1     -12.391  15.574  69.009  1.00  0.00    -0.016 C  
BRANCH  37  38
HETATM   38  C   UNL     1     -12.469  15.465  70.506  1.00  0.00    -0.468 A  
HETATM   39  C   UNL     1     -12.498  15.033  73.273  1.00  0.00    -0.570 A  
HETATM   40  C   UNL     1     -13.579  14.877  71.118  1.00  0.00    -0.467 A  
HETATM   41  C   UNL     1     -11.423  15.683  72.681  1.00  0.00    -0.358 A  
HETATM   42  C   UNL     1     -11.436  15.939  71.313  1.00  0.00    -0.489 A  
HETATM   43  C   UNL     1     -13.593  14.663  72.495  1.00  0.00    -0.572 A  
ENDBRANCH  37  38
ENDBRANCH  22  37
ENDBRANCH  19  22
ENDBRANCH  18  19
ENDBRANCH  17  18
BRANCH  17  44
HETATM   44  C   UNL     1     -10.332  10.736  66.131  1.00  0.00    -0.300 C  
BRANCH  44  45
HETATM   45  C   UNL     1      -9.342   9.767  65.512  1.00  0.00    -0.299 A  
HETATM   46  C   UNL     1      -8.656   8.824  66.296  1.00  0.00    -0.144 A  
HETATM   47  C   UNL     1      -9.075   9.815  64.139  1.00  0.00    -0.289 A  
HETATM   48  C   UNL     1      -7.698   7.982  65.721  1.00  0.00    -0.093 A  
HETATM   49  C   UNL     1      -8.120   8.971  63.566  1.00  0.00    -0.164 A  
HETATM   50  C   UNL     1      -7.424   8.061  64.358  1.00  0.00    -0.104 A  
ENDBRANCH  44  45
ENDBRANCH  17  44
ENDBRANCH  15  17
ENDBRANCH   3  13
TORSDOF 14
ENDMDL
MODEL       29
REMARK 921   NORMALIZED FREE ENERGY PREDICTED BY IDOCK:   -6.27 KCAL/MOL
REMARK 922        TOTAL FREE ENERGY PREDICTED BY IDOCK:  -15.96 KCAL/MOL
REMARK 923 INTER-LIGAND FREE ENERGY PREDICTED BY IDOCK:  -13.01 KCAL/MOL
REMARK 924 INTRA-LIGAND FREE ENERGY PREDICTED BY IDOCK:   -2.95 KCAL/MOL
REMARK 927      BINDING AFFINITY PREDICTED BY RF-SCORE:    0.00 PKD
ROOT
HETATM    1  C   UNL     1      -6.082   8.871  66.197  1.00  0.00    -0.056 C  
HETATM    2  C   UNL     1      -7.575   9.228  66.261  1.00  0.00    -0.096 C  
HETATM    3  C   UNL     1      -8.301   8.409  67.372  1.00  0.00    -0.124 C  
HETATM    4  C   UNL     1      -7.704  10.744  66.425  1.00  0.00    -0.145 C  
ENDROOT
BRANCH   3   5
HETATM    5  N   UNL     1      -8.229   6.953  67.108  1.00  0.00    -0.117 N  
HETATM    6  H   UNL     1      -7.495   4.142  68.552  1.00  0.00     0.000 HD 
HETATM    7  O   UNL     1      -8.067   6.384  69.334  1.00  0.00    -0.114 OA 
HETATM    8  C   UNL     1      -8.516   6.426  65.780  1.00  0.00    -0.148 C  
HETATM    9  C   UNL     1      -8.015   6.072  68.148  1.00  0.00    -0.110 C  
HETATM   10  C   UNL     1      -7.459   5.400  65.415  1.00  0.00    -0.077 C  
HETATM   11  N   UNL     1      -7.670   4.799  67.792  1.00  0.00    -0.082 N  
HETATM   12  C   UNL     1      -7.529   4.291  66.444  1.00  0.00    -0.085 C  
ENDBRANCH   3   5
BRANCH   3  13
HETATM   13  C   UNL     1      -9.761   8.907  67.600  1.00  0.00    -0.161 C  
HETATM   14  O   UNL     1     -10.635   8.860  66.741  1.00  0.00    -0.243 OA 
HETATM   15  N   UNL     1      -9.982   9.496  68.829  1.00  0.00    -0.169 N  
HETATM   16  H   UNL     1      -9.205   9.474  69.489  1.00  0.00     0.000 HD 
BRANCH  15  17
HETATM   17  C   UNL     1     -11.207  10.147  69.288  1.00  0.00    -0.196 C  
BRANCH  17  18
HETATM   18  C   UNL     1     -11.549  11.444  68.523  1.00  0.00    -0.384 C  
BRANCH  18  19
HETATM   19  C   UNL     1     -10.510  12.557  68.228  1.00  0.00    -0.234 C  
HETATM   20  O   UNL     1      -9.325  12.309  68.990  1.00  0.00    -0.385 OA 
HETATM   21  H   UNL     1      -8.688  12.991  68.810  1.00  0.00     0.000 HD 
BRANCH  19  22
HETATM   22  C   UNL     1     -11.065  13.973  68.651  1.00  0.00    -0.264 C  
BRANCH  22  23
HETATM   23  N   UNL     1     -10.946  15.019  67.571  1.00  0.00    -0.298 N  
HETATM   24  C   UNL     1     -10.075  16.026  67.213  1.00  0.00    -0.266 C  
HETATM   25  H   UNL     1     -11.730  14.966  66.922  1.00  0.00     0.000 HD 
HETATM   26  O   UNL     1     -10.187  16.518  66.086  1.00  0.00    -0.316 OA 
BRANCH  24  27
HETATM   27  C   UNL     1      -9.076  16.597  68.234  1.00  0.00    -0.218 C  
BRANCH  27  28
HETATM   28  O   UNL     1      -9.188  17.901  68.780  1.00  0.00    -0.286 OA 
BRANCH  28  29
HETATM   29  C   UNL     1      -8.240  18.851  68.425  1.00  0.00    -0.342 A  
HETATM   30  C   UNL     1      -6.078  17.967  69.679  1.00  0.00    -0.237 C  
HETATM   31  C   UNL     1      -6.864  18.879  68.770  1.00  0.00    -0.311 A  
HETATM   32  C   UNL     1      -6.037  19.876  68.196  1.00  0.00    -0.271 A  
HETATM   33  C   UNL     1      -6.526  20.838  67.326  1.00  0.00    -0.360 A  
HETATM   34  C   UNL     1      -7.875  20.841  67.018  1.00  0.00    -0.250 A  
HETATM   35  C   UNL     1      -8.742  19.872  67.562  1.00  0.00    -0.401 A  
HETATM   36  C   UNL     1     -10.200  19.983  67.187  1.00  0.00    -0.580 C  
ENDBRANCH  28  29
ENDBRANCH  27  28
ENDBRANCH  24  27
ENDBRANCH  22  23
BRANCH  22  37
HETATM   37  C   UNL     1     -12.407  13.890  69.427  1.00  0.00    -0.240 C  
BRANCH  37  38
HETATM   38  C   UNL     1     -12.361  14.487  70.807  1.00  0.00    -0.410 A  
HETATM   39  C   UNL     1     -12.492  15.720  73.318  1.00  0.00    -0.619 A  
HETATM   40  C   UNL     1     -11.700  15.696  71.036  1.00  0.00    -0.444 A  
HETATM   41  C   UNL     1     -13.091  14.483  73.117  1.00  0.00    -0.553 A  
HETATM   42  C   UNL     1     -12.981  13.851  71.882  1.00  0.00    -0.440 A  
HETATM   43  C   UNL     1     -11.766  16.309  72.285  1.00  0.00    -0.530 A  
ENDBRANCH  37  38
ENDBRANCH  22  37
ENDBRANCH  19  22
ENDBRANCH  18  19
ENDBRANCH  17  18
BRANCH  17  44
HETATM   44  C   UNL     1     -11.385  10.141  70.822  1.00  0.00    -0.436 C  
BRANCH  44  45
HETATM   45  C   UNL     1     -11.305   8.757  71.438  1.00  0.00    -0.364 A  
HETATM   46  C   UNL     1     -12.232   7.755  71.106  1.00  0.00    -0.289 A  
HETATM   47  C   UNL     1     -10.311   8.462  72.379  1.00  0.00    -0.399 A  
HETATM   48  C   UNL     1     -12.185   6.504  71.733  1.00  0.00    -0.374 A  
HETATM   49  C   UNL     1     -10.263   7.211  73.001  1.00  0.00    -0.290 A  
HETATM   50  C   UNL     1     -11.205   6.236  72.686  1.00  0.00    -0.302 A  
ENDBRANCH  44  45
ENDBRANCH  17  44
ENDBRANCH  15  17
ENDBRANCH   3  13
TORSDOF 14
ENDMDL
MODEL       30
REMARK 921   NORMALIZED FREE ENERGY PREDICTED BY IDOCK:   -6.26 KCAL/MOL
REMARK 922        TOTAL FREE ENERGY PREDICTED BY IDOCK:  -15.94 KCAL/MOL
REMARK 923 INTER-LIGAND FREE ENERGY PREDICTED BY IDOCK:  -13.64 KCAL/MOL
REMARK 924 INTRA-LIGAND FREE ENERGY PREDICTED BY IDOCK:   -2.30 KCAL/MOL
REMARK 927      BINDING AFFINITY PREDICTED BY RF-SCORE:    0.00 PKD
ROOT
HETATM    1  C   UNL     1      -9.457   5.961  66.150  1.00  0.00    -0.131 C  
HETATM    2  C   UNL     1      -9.295   6.983  67.286  1.00  0.00    -0.153 C  
HETATM    3  C   UNL     1      -9.865   8.376  66.874  1.00  0.00    -0.245 C  
HETATM    4  C   UNL     1      -9.928   6.405  68.553  1.00  0.00    -0.155 C  
ENDROOT
BRANCH   3   5
HETATM    5  N   UNL     1      -9.148   8.932  65.703  1.00  0.00    -0.216 N  
HETATM    6  H   UNL     1      -9.512  11.046  63.269  1.00  0.00     0.000 HD 
HETATM    7  O   UNL     1     -10.623  10.676  65.413  1.00  0.00    -0.220 OA 
HETATM    8  C   UNL     1      -7.821   8.445  65.348  1.00  0.00    -0.108 C  
HETATM    9  C   UNL     1      -9.676  10.004  65.015  1.00  0.00    -0.317 C  
HETATM   10  C   UNL     1      -7.763   8.212  63.850  1.00  0.00    -0.138 C  
HETATM   11  N   UNL     1      -9.121  10.264  63.795  1.00  0.00    -0.233 N  
HETATM   12  C   UNL     1      -8.031   9.540  63.174  1.00  0.00    -0.141 C  
ENDBRANCH   3   5
BRANCH   3  13
HETATM   13  C   UNL     1      -9.908   9.365  68.079  1.00  0.00    -0.164 C  
HETATM   14  O   UNL     1      -8.928   9.643  68.761  1.00  0.00    -0.129 OA 
HETATM   15  N   UNL     1     -11.165   9.846  68.384  1.00  0.00    -0.505 N  
HETATM   16  H   UNL     1     -11.919   9.577  67.752  1.00  0.00     0.000 HD 
BRANCH  15  17
HETATM   17  C   UNL     1     -11.535  10.696  69.513  1.00  0.00    -0.291 C  
BRANCH  17  18
HETATM   18  C   UNL     1     -11.211  12.191  69.301  1.00  0.00    -0.288 C  
BRANCH  18  19
HETATM   19  C   UNL     1     -12.071  13.131  68.418  1.00  0.00    -0.181 C  
HETATM   20  O   UNL     1     -12.410  12.457  67.202  1.00  0.00    -0.380 OA 
HETATM   21  H   UNL     1     -12.938  13.033  66.660  1.00  0.00     0.000 HD 
BRANCH  19  22
HETATM   22  C   UNL     1     -11.270  14.437  68.036  1.00  0.00    -0.280 C  
BRANCH  22  23
HETATM   23  N   UNL     1     -10.947  14.543  66.566  1.00  0.00    -0.315 N  
HETATM   24  C   UNL     1      -9.990  15.133  65.769  1.00  0.00    -0.345 C  
HETATM   25  H   UNL     1     -11.630  14.035  66.004  1.00  0.00     0.000 HD 
HETATM   26  O   UNL     1      -9.913  14.773  64.590  1.00  0.00    -0.150 OA 
BRANCH  24  27
HETATM   27  C   UNL     1      -9.128  16.288  66.304  1.00  0.00    -0.331 C  
BRANCH  27  28
HETATM   28  O   UNL     1      -9.662  17.374  67.044  1.00  0.00    -0.259 OA 
BRANCH  28  29
HETATM   29  C   UNL     1      -8.818  18.421  67.388  1.00  0.00    -0.257 A  
HETATM   30  C   UNL     1      -7.066  17.219  68.973  1.00  0.00    -0.233 C  
HETATM   31  C   UNL     1      -7.652  18.371  68.195  1.00  0.00    -0.287 A  
HETATM   32  C   UNL     1      -6.857  19.537  68.317  1.00  0.00    -0.320 A  
HETATM   33  C   UNL     1      -7.187  20.731  67.696  1.00  0.00    -0.332 A  
HETATM   34  C   UNL     1      -8.345  20.798  66.941  1.00  0.00    -0.124 A  
HETATM   35  C   UNL     1      -9.172  19.668  66.787  1.00  0.00    -0.438 A  
HETATM   36  C   UNL     1     -10.427  19.854  65.970  1.00  0.00    -0.580 C  
ENDBRANCH  28  29
ENDBRANCH  27  28
ENDBRANCH  24  27
ENDBRANCH  22  23
BRANCH  22  37
HETATM   37  C   UNL     1     -11.808  15.707  68.748  1.00  0.00    -0.336 C  
BRANCH  37  38
HETATM   38  C   UNL     1     -12.208  15.489  70.182  1.00  0.00    -0.404 A  
HETATM   39  C   UNL     1     -13.011  15.333  72.860  1.00  0.00    -0.564 A  
HETATM   40  C   UNL     1     -11.273  15.639  71.209  1.00  0.00    -0.393 A  
HETATM   41  C   UNL     1     -13.931  15.111  71.842  1.00  0.00    -0.629 A  
HETATM   42  C   UNL     1     -13.517  15.141  70.514  1.00  0.00    -0.122 A  
HETATM   43  C   UNL     1     -11.674  15.560  72.541  1.00  0.00    -0.569 A  
ENDBRANCH  37  38
ENDBRANCH  22  37
ENDBRANCH  19  22
ENDBRANCH  18  19
ENDBRANCH  17  18
BRANCH  17  44
HETATM   44  C   UNL     1     -11.231  10.076  70.894  1.00  0.00    -0.415 C  
BRANCH  44  45
HETATM   45  C   UNL     1     -12.135   8.910  71.249  1.00  0.00    -0.360 A  
HETATM   46  C   UNL     1     -13.525   9.074  71.371  1.00  0.00    -0.331 A  
HETATM   47  C   UNL     1     -11.589   7.644  71.491  1.00  0.00    -0.304 A  
HETATM   48  C   UNL     1     -14.337   8.005  71.765  1.00  0.00    -0.583 A  
HETATM   49  C   UNL     1     -12.402   6.576  71.880  1.00  0.00    -0.339 A  
HETATM   50  C   UNL     1     -13.774   6.758  72.027  1.00  0.00    -0.049 A  
ENDBRANCH  44  45
ENDBRANCH  17  44
ENDBRANCH  15  17
ENDBRANCH   3  13
TORSDOF 14
ENDMDL
MODEL       31
REMARK 921   NORMALIZED FREE ENERGY PREDICTED BY IDOCK:   -6.25 KCAL/MOL
REMARK 922        TOTAL FREE ENERGY PREDICTED BY IDOCK:  -15.92 KCAL/MOL
REMARK 923 INTER-LIGAND FREE ENERGY PREDICTED BY IDOCK:  -10.05 KCAL/MOL
REMARK 924 INTRA-LIGAND FREE ENERGY PREDICTED BY IDOCK:   -5.86 KCAL/MOL
REMARK 927      BINDING AFFINITY PREDICTED BY RF-SCORE:    0.00 PKD
ROOT
HETATM    1  C   UNL     1     -11.910  15.570  69.588  1.00  0.00    -0.384 C  
HETATM    2  C   UNL     1     -12.281  14.079  69.621  1.00  0.00    -0.383 C  
HETATM    3  C   UNL     1     -11.191  13.214  68.917  1.00  0.00    -0.277 C  
HETATM    4  C   UNL     1     -12.550  13.677  71.072  1.00  0.00    -0.441 C  
ENDROOT
BRANCH   3   5
HETATM    5  N   UNL     1     -11.045  13.580  67.489  1.00  0.00    -0.267 N  
HETATM    6  H   UNL     1      -9.049  15.129  65.454  1.00  0.00     0.000 HD 
HETATM    7  O   UNL     1      -8.830  14.174  67.691  1.00  0.00    -0.175 OA 
HETATM    8  C   UNL     1     -12.086  13.239  66.527  1.00  0.00    -0.375 C  
HETATM    9  C   UNL     1      -9.866  14.131  67.034  1.00  0.00    -0.258 C  
HETATM   10  C   UNL     1     -12.354  14.441  65.641  1.00  0.00    -0.347 C  
HETATM   11  N   UNL     1      -9.911  14.705  65.795  1.00  0.00    -0.323 N  
HETATM   12  C   UNL     1     -11.063  14.769  64.920  1.00  0.00    -0.407 C  
ENDBRANCH   3   5
BRANCH   3  13
HETATM   13  C   UNL     1     -11.437  11.688  69.125  1.00  0.00    -0.300 C  
HETATM   14  O   UNL     1     -12.463  11.114  68.776  1.00  0.00    -0.468 OA 
HETATM   15  N   UNL     1     -10.440  11.034  69.820  1.00  0.00    -0.450 N  
HETATM   16  H   UNL     1      -9.614  11.585  70.054  1.00  0.00     0.000 HD 
BRANCH  15  17
HETATM   17  C   UNL     1     -10.437   9.640  70.258  1.00  0.00    -0.283 C  
BRANCH  17  18
HETATM   18  C   UNL     1     -10.510   8.622  69.100  1.00  0.00    -0.223 C  
BRANCH  18  19
HETATM   19  C   UNL     1      -9.550   8.649  67.882  1.00  0.00    -0.149 C  
HETATM   20  O   UNL     1     -10.270   8.274  66.704  1.00  0.00    -0.290 OA 
HETATM   21  H   UNL     1      -9.682   8.291  65.958  1.00  0.00     0.000 HD 
BRANCH  19  22
HETATM   22  C   UNL     1      -8.368   7.619  68.071  1.00  0.00    -0.124 C  
BRANCH  22  23
HETATM   23  N   UNL     1      -7.203   7.855  67.143  1.00  0.00    -0.088 N  
HETATM   24  C   UNL     1      -6.144   7.139  66.627  1.00  0.00    -0.038 C  
HETATM   25  H   UNL     1      -7.198   8.815  66.800  1.00  0.00     0.000 HD 
HETATM   26  O   UNL     1      -5.528   7.619  65.671  1.00  0.00    -0.028 OA 
BRANCH  24  27
HETATM   27  C   UNL     1      -5.674   5.840  67.304  1.00  0.00    -0.017 C  
BRANCH  27  28
HETATM   28  O   UNL     1      -5.762   4.568  66.682  1.00  0.00    -0.017 OA 
BRANCH  28  29
HETATM   29  C   UNL     1      -6.886   3.790  66.919  1.00  0.00    -0.051 A  
HETATM   30  C   UNL     1      -8.706   4.975  65.396  1.00  0.00    -0.146 C  
HETATM   31  C   UNL     1      -8.174   3.922  66.336  1.00  0.00    -0.104 A  
HETATM   32  C   UNL     1      -9.154   2.939  66.620  1.00  0.00    -0.161 A  
HETATM   33  C   UNL     1      -8.909   1.866  67.462  1.00  0.00    -0.149 A  
HETATM   34  C   UNL     1      -7.669   1.754  68.066  1.00  0.00    -0.054 A  
HETATM   35  C   UNL     1      -6.658   2.705  67.818  1.00  0.00    -0.036 A  
HETATM   36  C   UNL     1      -5.353   2.510  68.549  1.00  0.00    -0.013 C  
ENDBRANCH  28  29
ENDBRANCH  27  28
ENDBRANCH  24  27
ENDBRANCH  22  23
BRANCH  22  37
HETATM   37  C   UNL     1      -8.053   7.328  69.563  1.00  0.00    -0.129 C  
BRANCH  37  38
HETATM   38  C   UNL     1      -8.360   5.921  69.996  1.00  0.00    -0.122 A  
HETATM   39  C   UNL     1      -9.060   3.403  71.002  1.00  0.00    -0.182 A  
HETATM   40  C   UNL     1      -7.494   5.237  70.853  1.00  0.00    -0.082 A  
HETATM   41  C   UNL     1      -9.891   4.046  70.095  1.00  0.00    -0.207 A  
HETATM   42  C   UNL     1      -9.516   5.275  69.560  1.00  0.00    -0.192 A  
HETATM   43  C   UNL     1      -7.843   3.984  71.352  1.00  0.00    -0.071 A  
ENDBRANCH  37  38
ENDBRANCH  22  37
ENDBRANCH  19  22
ENDBRANCH  18  19
ENDBRANCH  17  18
BRANCH  17  44
HETATM   44  C   UNL     1     -11.296   9.374  71.514  1.00  0.00    -0.464 C  
BRANCH  44  45
HETATM   45  C   UNL     1     -10.932   8.093  72.240  1.00  0.00    -0.399 A  
HETATM   46  C   UNL     1      -9.737   7.981  72.971  1.00  0.00    -0.348 A  
HETATM   47  C   UNL     1     -11.778   6.980  72.169  1.00  0.00    -0.321 A  
HETATM   48  C   UNL     1      -9.384   6.772  73.579  1.00  0.00    -0.179 A  
HETATM   49  C   UNL     1     -11.425   5.774  72.781  1.00  0.00    -0.304 A  
HETATM   50  C   UNL     1     -10.225   5.666  73.477  1.00  0.00    -0.227 A  
ENDBRANCH  44  45
ENDBRANCH  17  44
ENDBRANCH  15  17
ENDBRANCH   3  13
TORSDOF 14
ENDMDL
MODEL       32
REMARK 921   NORMALIZED FREE ENERGY PREDICTED BY IDOCK:   -6.24 KCAL/MOL
REMARK 922        TOTAL FREE ENERGY PREDICTED BY IDOCK:  -15.91 KCAL/MOL
REMARK 923 INTER-LIGAND FREE ENERGY PREDICTED BY IDOCK:  -12.03 KCAL/MOL
REMARK 924 INTRA-LIGAND FREE ENERGY PREDICTED BY IDOCK:   -3.88 KCAL/MOL
REMARK 927      BINDING AFFINITY PREDICTED BY RF-SCORE:    0.00 PKD
ROOT
HETATM    1  C   UNL     1     -10.672  15.852  65.000  1.00  0.00    -0.426 C  
HETATM    2  C   UNL     1     -10.856  15.219  66.388  1.00  0.00    -0.317 C  
HETATM    3  C   UNL     1     -10.153  13.828  66.468  1.00  0.00    -0.286 C  
HETATM    4  C   UNL     1     -10.378  16.217  67.444  1.00  0.00    -0.294 C  
ENDROOT
BRANCH   3   5
HETATM    5  N   UNL     1     -10.725  12.873  65.490  1.00  0.00    -0.275 N  
HETATM    6  H   UNL     1      -9.907  10.338  63.638  1.00  0.00     0.000 HD 
HETATM    7  O   UNL     1      -8.932  11.431  65.592  1.00  0.00    -0.198 OA 
HETATM    8  C   UNL     1     -12.115  12.990  65.067  1.00  0.00    -0.427 C  
HETATM    9  C   UNL     1      -9.984  11.788  65.071  1.00  0.00    -0.254 C  
HETATM   10  C   UNL     1     -12.188  12.832  63.560  1.00  0.00    -0.613 C  
HETATM   11  N   UNL     1     -10.455  11.133  63.968  1.00  0.00    -0.362 N  
HETATM   12  C   UNL     1     -11.652  11.456  63.221  1.00  0.00     0.124 C  
ENDBRANCH   3   5
BRANCH   3  13
HETATM   13  C   UNL     1     -10.142  13.266  67.923  1.00  0.00    -0.235 C  
HETATM   14  O   UNL     1      -9.128  13.182  68.608  1.00  0.00    -0.100 OA 
HETATM   15  N   UNL     1     -11.358  12.782  68.361  1.00  0.00    -0.272 N  
HETATM   16  H   UNL     1     -12.151  12.911  67.733  1.00  0.00     0.000 HD 
BRANCH  15  17
HETATM   17  C   UNL     1     -11.633  12.103  69.625  1.00  0.00    -0.291 C  
BRANCH  17  18
HETATM   18  C   UNL     1     -11.375  10.581  69.586  1.00  0.00    -0.345 C  
BRANCH  18  19
HETATM   19  C   UNL     1     -11.940   9.596  70.641  1.00  0.00    -0.229 C  
HETATM   20  O   UNL     1     -12.098  10.278  71.889  1.00  0.00    -0.229 OA 
HETATM   21  H   UNL     1     -12.444   9.675  72.536  1.00  0.00     0.000 HD 
BRANCH  19  22
HETATM   22  C   UNL     1     -10.949   8.389  70.876  1.00  0.00    -0.243 C  
BRANCH  22  23
HETATM   23  N   UNL     1     -10.125   8.516  72.132  1.00  0.00    -0.305 N  
HETATM   24  C   UNL     1      -8.858   8.185  72.563  1.00  0.00    -0.208 C  
HETATM   25  H   UNL     1     -10.655   8.976  72.872  1.00  0.00     0.000 HD 
HETATM   26  O   UNL     1      -8.448   8.694  73.611  1.00  0.00    -0.353 OA 
BRANCH  24  27
HETATM   27  C   UNL     1      -8.032   7.122  71.821  1.00  0.00    -0.097 C  
BRANCH  27  28
HETATM   28  O   UNL     1      -6.918   7.439  71.002  1.00  0.00    -0.057 OA 
BRANCH  28  29
HETATM   29  C   UNL     1      -6.989   7.153  69.646  1.00  0.00    -0.051 A  
HETATM   30  C   UNL     1      -8.326   9.244  68.712  1.00  0.00    -0.117 C  
HETATM   31  C   UNL     1      -7.561   7.947  68.618  1.00  0.00    -0.101 A  
HETATM   32  C   UNL     1      -7.414   7.529  67.273  1.00  0.00    -0.100 A  
HETATM   33  C   UNL     1      -6.750   6.363  66.924  1.00  0.00    -0.060 A  
HETATM   34  C   UNL     1      -6.225   5.564  67.924  1.00  0.00    -0.037 A  
HETATM   35  C   UNL     1      -6.344   5.933  69.279  1.00  0.00    -0.041 A  
HETATM   36  C   UNL     1      -5.765   4.977  70.293  1.00  0.00    -0.016 C  
ENDBRANCH  28  29
ENDBRANCH  27  28
ENDBRANCH  24  27
ENDBRANCH  22  23
BRANCH  22  37
HETATM   37  C   UNL     1     -11.594   7.010  70.573  1.00  0.00    -0.364 C  
BRANCH  37  38
HETATM   38  C   UNL     1     -10.938   6.254  69.451  1.00  0.00    -0.440 A  
HETATM   39  C   UNL     1      -9.930   4.705  67.346  1.00  0.00    -0.190 A  
HETATM   40  C   UNL     1     -10.165   5.120  69.715  1.00  0.00    -0.357 A  
HETATM   41  C   UNL     1     -10.637   5.870  67.078  1.00  0.00    -0.376 A  
HETATM   42  C   UNL     1     -11.093   6.663  68.127  1.00  0.00    -0.287 A  
HETATM   43  C   UNL     1      -9.664   4.351  68.667  1.00  0.00    -0.190 A  
ENDBRANCH  37  38
ENDBRANCH  22  37
ENDBRANCH  19  22
ENDBRANCH  18  19
ENDBRANCH  17  18
BRANCH  17  44
HETATM   44  C   UNL     1     -12.904  12.606  70.344  1.00  0.00     0.163 C  
BRANCH  44  45
HETATM   45  C   UNL     1     -12.666  13.818  71.225  1.00  0.00    -0.450 A  
HETATM   46  C   UNL     1     -11.772  14.833  70.846  1.00  0.00    -0.360 A  
HETATM   47  C   UNL     1     -13.321  13.931  72.457  1.00  0.00    -0.656 A  
HETATM   48  C   UNL     1     -11.513  15.911  71.700  1.00  0.00    -0.473 A  
HETATM   49  C   UNL     1     -13.064  15.011  73.307  1.00  0.00    -0.607 A  
HETATM   50  C   UNL     1     -12.153  15.995  72.934  1.00  0.00    -0.626 A  
ENDBRANCH  44  45
ENDBRANCH  17  44
ENDBRANCH  15  17
ENDBRANCH   3  13
TORSDOF 14
ENDMDL
MODEL       33
REMARK 921   NORMALIZED FREE ENERGY PREDICTED BY IDOCK:   -6.24 KCAL/MOL
REMARK 922        TOTAL FREE ENERGY PREDICTED BY IDOCK:  -15.90 KCAL/MOL
REMARK 923 INTER-LIGAND FREE ENERGY PREDICTED BY IDOCK:  -12.83 KCAL/MOL
REMARK 924 INTRA-LIGAND FREE ENERGY PREDICTED BY IDOCK:   -3.07 KCAL/MOL
REMARK 927      BINDING AFFINITY PREDICTED BY RF-SCORE:    0.00 PKD
ROOT
HETATM    1  C   UNL     1      -7.065   5.597  69.544  1.00  0.00    -0.064 C  
HETATM    2  C   UNL     1      -8.428   6.247  69.831  1.00  0.00    -0.130 C  
HETATM    3  C   UNL     1      -8.810   7.266  68.714  1.00  0.00    -0.127 C  
HETATM    4  C   UNL     1      -9.460   5.136  70.037  1.00  0.00    -0.221 C  
ENDROOT
BRANCH   3   5
HETATM    5  N   UNL     1      -7.828   8.372  68.628  1.00  0.00    -0.113 N  
HETATM    6  H   UNL     1      -5.502   9.560  66.704  1.00  0.00     0.000 HD 
HETATM    7  O   UNL     1      -7.376   8.025  66.397  1.00  0.00    -0.080 OA 
HETATM    8  C   UNL     1      -7.696   9.332  69.717  1.00  0.00    -0.096 C  
HETATM    9  C   UNL     1      -7.121   8.578  67.462  1.00  0.00    -0.080 C  
HETATM   10  C   UNL     1      -6.224   9.553  70.006  1.00  0.00    -0.051 C  
HETATM   11  N   UNL     1      -6.042   9.411  67.556  1.00  0.00    -0.053 N  
HETATM   12  C   UNL     1      -5.591  10.103  68.745  1.00  0.00    -0.038 C  
ENDBRANCH   3   5
BRANCH   3  13
HETATM   13  C   UNL     1     -10.277   7.774  68.870  1.00  0.00    -0.211 C  
HETATM   14  O   UNL     1     -11.017   8.005  67.920  1.00  0.00    -0.036 OA 
HETATM   15  N   UNL     1     -10.660   8.034  70.170  1.00  0.00    -0.233 N  
HETATM   16  H   UNL     1      -9.988   7.794  70.898  1.00  0.00     0.000 HD 
BRANCH  15  17
HETATM   17  C   UNL     1     -11.923   8.615  70.618  1.00  0.00    -0.039 C  
BRANCH  17  18
HETATM   18  C   UNL     1     -11.861  10.141  70.851  1.00  0.00    -0.468 C  
BRANCH  18  19
HETATM   19  C   UNL     1     -12.358  11.180  69.812  1.00  0.00    -0.246 C  
HETATM   20  O   UNL     1     -12.295  10.606  68.503  1.00  0.00    -0.814 OA 
HETATM   21  H   UNL     1     -12.599  11.243  67.866  1.00  0.00     0.000 HD 
BRANCH  19  22
HETATM   22  C   UNL     1     -11.441  12.465  69.817  1.00  0.00    -0.149 C  
BRANCH  22  23
HETATM   23  N   UNL     1     -10.101  12.258  69.156  1.00  0.00    -0.403 N  
HETATM   24  C   UNL     1      -9.295  12.912  68.249  1.00  0.00    -0.194 C  
HETATM   25  H   UNL     1      -9.670  11.389  69.469  1.00  0.00     0.000 HD 
HETATM   26  O   UNL     1      -8.121  12.546  68.145  1.00  0.00    -0.150 OA 
BRANCH  24  27
HETATM   27  C   UNL     1      -9.879  13.984  67.314  1.00  0.00    -0.242 C  
BRANCH  27  28
HETATM   28  O   UNL     1      -9.560  14.065  65.934  1.00  0.00    -0.252 OA 
BRANCH  28  29
HETATM   29  C   UNL     1     -10.371  13.399  65.026  1.00  0.00    -0.347 A  
HETATM   30  C   UNL     1      -9.446  10.918  65.177  1.00  0.00    -0.268 C  
HETATM   31  C   UNL     1     -10.369  12.015  64.709  1.00  0.00    -0.318 A  
HETATM   32  C   UNL     1     -11.371  11.514  63.842  1.00  0.00    -0.400 A  
HETATM   33  C   UNL     1     -12.340  12.327  63.274  1.00  0.00    -0.518 A  
HETATM   34  C   UNL     1     -12.322  13.684  63.547  1.00  0.00    -0.265 A  
HETATM   35  C   UNL     1     -11.347  14.235  64.403  1.00  0.00    -0.284 A  
HETATM   36  C   UNL     1     -11.395  15.729  64.610  1.00  0.00    -0.343 C  
ENDBRANCH  28  29
ENDBRANCH  27  28
ENDBRANCH  24  27
ENDBRANCH  22  23
BRANCH  22  37
HETATM   37  C   UNL     1     -12.219  13.764  69.475  1.00  0.00    -0.344 C  
BRANCH  37  38
HETATM   38  C   UNL     1     -12.593  14.595  70.672  1.00  0.00    -0.419 A  
HETATM   39  C   UNL     1     -13.203  15.947  73.047  1.00  0.00    -0.648 A  
HETATM   40  C   UNL     1     -13.869  14.498  71.232  1.00  0.00    -0.381 A  
HETATM   41  C   UNL     1     -11.956  16.104  72.456  1.00  0.00    -0.660 A  
HETATM   42  C   UNL     1     -11.674  15.469  71.250  1.00  0.00    -0.457 A  
HETATM   43  C   UNL     1     -14.172  15.172  72.413  1.00  0.00    -0.540 A  
ENDBRANCH  37  38
ENDBRANCH  22  37
ENDBRANCH  19  22
ENDBRANCH  18  19
ENDBRANCH  17  18
BRANCH  17  44
HETATM   44  C   UNL     1     -12.680   7.753  71.652  1.00  0.00    -0.358 C  
BRANCH  44  45
HETATM   45  C   UNL     1     -11.772   6.872  72.490  1.00  0.00    -0.194 A  
HETATM   46  C   UNL     1     -11.903   5.473  72.483  1.00  0.00    -0.158 A  
HETATM   47  C   UNL     1     -10.796   7.447  73.312  1.00  0.00    -0.417 A  
HETATM   48  C   UNL     1     -11.103   4.678  73.312  1.00  0.00    -0.403 A  
HETATM   49  C   UNL     1      -9.995   6.651  74.135  1.00  0.00    -0.361 A  
HETATM   50  C   UNL     1     -10.154   5.268  74.143  1.00  0.00    -0.253 A  
ENDBRANCH  44  45
ENDBRANCH  17  44
ENDBRANCH  15  17
ENDBRANCH   3  13
TORSDOF 14
ENDMDL
MODEL       34
REMARK 921   NORMALIZED FREE ENERGY PREDICTED BY IDOCK:   -6.23 KCAL/MOL
REMARK 922        TOTAL FREE ENERGY PREDICTED BY IDOCK:  -15.88 KCAL/MOL
REMARK 923 INTER-LIGAND FREE ENERGY PREDICTED BY IDOCK:  -10.93 KCAL/MOL
REMARK 924 INTRA-LIGAND FREE ENERGY PREDICTED BY IDOCK:   -4.95 KCAL/MOL
REMARK 927      BINDING AFFINITY PREDICTED BY RF-SCORE:    0.00 PKD
ROOT
HETATM    1  C   UNL     1     -11.905  13.214  64.822  1.00  0.00    -0.413 C  
HETATM    2  C   UNL     1     -10.832  12.203  65.256  1.00  0.00    -0.336 C  
HETATM    3  C   UNL     1     -11.136  11.638  66.678  1.00  0.00    -0.307 C  
HETATM    4  C   UNL     1     -10.713  11.127  64.175  1.00  0.00    -0.415 C  
ENDROOT
BRANCH   3   5
HETATM    5  N   UNL     1     -11.141  12.712  67.700  1.00  0.00    -0.250 N  
HETATM    6  H   UNL     1     -12.710  13.670  70.372  1.00  0.00     0.000 HD 
HETATM    7  O   UNL     1     -12.523  11.568  69.143  1.00  0.00    -0.271 OA 
HETATM    8  C   UNL     1     -10.208  13.828  67.604  1.00  0.00    -0.242 C  
HETATM    9  C   UNL     1     -11.938  12.597  68.818  1.00  0.00    -0.237 C  
HETATM   10  C   UNL     1     -10.954  15.121  67.874  1.00  0.00    -0.302 C  
HETATM   11  N   UNL     1     -12.109  13.738  69.550  1.00  0.00    -0.338 N  
HETATM   12  C   UNL     1     -11.523  15.033  69.275  1.00  0.00    -0.307 C  
ENDBRANCH   3   5
BRANCH   3  13
HETATM   13  C   UNL     1     -10.187  10.458  67.050  1.00  0.00    -0.225 C  
HETATM   14  O   UNL     1      -8.964  10.535  67.011  1.00  0.00    -0.139 OA 
HETATM   15  N   UNL     1     -10.832   9.274  67.346  1.00  0.00    -0.412 N  
HETATM   16  H   UNL     1     -11.850   9.306  67.374  1.00  0.00     0.000 HD 
BRANCH  15  17
HETATM   17  C   UNL     1     -10.214   7.979  67.624  1.00  0.00    -0.228 C  
BRANCH  17  18
HETATM   18  C   UNL     1     -10.959   6.783  66.989  1.00  0.00    -0.439 C  
BRANCH  18  19
HETATM   19  C   UNL     1     -10.294   5.801  65.990  1.00  0.00     0.133 C  
HETATM   20  O   UNL     1     -11.182   4.708  65.741  1.00  0.00    -0.765 OA 
HETATM   21  H   UNL     1     -10.775   4.106  65.129  1.00  0.00     0.000 HD 
BRANCH  19  22
HETATM   22  C   UNL     1      -8.958   5.208  66.586  1.00  0.00    -0.115 C  
BRANCH  22  23
HETATM   23  N   UNL     1      -9.168   4.002  67.466  1.00  0.00    -0.151 N  
HETATM   24  C   UNL     1      -9.164   3.703  68.812  1.00  0.00    -0.160 C  
HETATM   25  H   UNL     1      -9.372   3.173  66.908  1.00  0.00     0.000 HD 
HETATM   26  O   UNL     1      -9.645   2.624  69.170  1.00  0.00    -0.123 OA 
BRANCH  24  27
HETATM   27  C   UNL     1      -8.470   4.637  69.818  1.00  0.00    -0.073 C  
BRANCH  27  28
HETATM   28  O   UNL     1      -8.213   4.270  71.164  1.00  0.00    -0.074 OA 
BRANCH  28  29
HETATM   29  C   UNL     1      -8.712   5.076  72.178  1.00  0.00    -0.129 A  
HETATM   30  C   UNL     1      -7.284   7.290  71.875  1.00  0.00    -0.075 C  
HETATM   31  C   UNL     1      -8.353   6.415  72.482  1.00  0.00    -0.116 A  
HETATM   32  C   UNL     1      -9.078   7.104  73.484  1.00  0.00    -0.206 A  
HETATM   33  C   UNL     1     -10.112   6.513  74.194  1.00  0.00    -0.374 A  
HETATM   34  C   UNL     1     -10.440   5.195  73.931  1.00  0.00    -0.316 A  
HETATM   35  C   UNL     1      -9.750   4.463  72.944  1.00  0.00    -0.176 A  
HETATM   36  C   UNL     1     -10.163   3.024  72.756  1.00  0.00    -0.236 C  
ENDBRANCH  28  29
ENDBRANCH  27  28
ENDBRANCH  24  27
ENDBRANCH  22  23
BRANCH  22  37
HETATM   37  C   UNL     1      -7.806   5.149  65.546  1.00  0.00    -0.092 C  
BRANCH  37  38
HETATM   38  C   UNL     1      -7.692   6.373  64.680  1.00  0.00    -0.107 A  
HETATM   39  C   UNL     1      -7.733   8.685  63.100  1.00  0.00    -0.127 A  
HETATM   40  C   UNL     1      -7.854   6.280  63.295  1.00  0.00    -0.099 A  
HETATM   41  C   UNL     1      -7.500   8.778  64.466  1.00  0.00    -0.106 A  
HETATM   42  C   UNL     1      -7.431   7.623  65.239  1.00  0.00    -0.083 A  
HETATM   43  C   UNL     1      -7.874   7.430  62.510  1.00  0.00    -0.131 A  
ENDBRANCH  37  38
ENDBRANCH  22  37
ENDBRANCH  19  22
ENDBRANCH  18  19
ENDBRANCH  17  18
BRANCH  17  44
HETATM   44  C   UNL     1      -9.697   7.826  69.070  1.00  0.00    -0.157 C  
BRANCH  44  45
HETATM   45  C   UNL     1     -10.784   7.949  70.122  1.00  0.00    -0.244 A  
HETATM   46  C   UNL     1     -11.027   9.165  70.783  1.00  0.00    -0.332 A  
HETATM   47  C   UNL     1     -11.552   6.833  70.472  1.00  0.00    -0.426 A  
HETATM   48  C   UNL     1     -11.988   9.245  71.797  1.00  0.00    -0.455 A  
HETATM   49  C   UNL     1     -12.514   6.916  71.482  1.00  0.00    -0.420 A  
HETATM   50  C   UNL     1     -12.726   8.118  72.151  1.00  0.00    -0.332 A  
ENDBRANCH  44  45
ENDBRANCH  17  44
ENDBRANCH  15  17
ENDBRANCH   3  13
TORSDOF 14
ENDMDL
MODEL       35
REMARK 921   NORMALIZED FREE ENERGY PREDICTED BY IDOCK:   -6.20 KCAL/MOL
REMARK 922        TOTAL FREE ENERGY PREDICTED BY IDOCK:  -15.83 KCAL/MOL
REMARK 923 INTER-LIGAND FREE ENERGY PREDICTED BY IDOCK:  -11.96 KCAL/MOL
REMARK 924 INTRA-LIGAND FREE ENERGY PREDICTED BY IDOCK:   -3.86 KCAL/MOL
REMARK 927      BINDING AFFINITY PREDICTED BY RF-SCORE:    0.00 PKD
ROOT
HETATM    1  C   UNL     1      -9.840   4.828  67.822  1.00  0.00    -0.194 C  
HETATM    2  C   UNL     1      -9.702   6.328  68.125  1.00  0.00    -0.123 C  
HETATM    3  C   UNL     1      -9.146   7.102  66.889  1.00  0.00    -0.141 C  
HETATM    4  C   UNL     1     -11.052   6.848  68.625  1.00  0.00    -0.152 C  
ENDROOT
BRANCH   3   5
HETATM    5  N   UNL     1      -7.796   6.623  66.511  1.00  0.00    -0.102 N  
HETATM    6  H   UNL     1      -6.088   5.596  63.952  1.00  0.00     0.000 HD 
HETATM    7  O   UNL     1      -8.160   6.853  64.249  1.00  0.00    -0.117 OA 
HETATM    8  C   UNL     1      -6.759   6.458  67.523  1.00  0.00    -0.070 C  
HETATM    9  C   UNL     1      -7.470   6.454  65.183  1.00  0.00    -0.083 C  
HETATM   10  C   UNL     1      -6.057   5.132  67.301  1.00  0.00    -0.030 C  
HETATM   11  N   UNL     1      -6.332   5.741  64.932  1.00  0.00    -0.036 N  
HETATM   12  C   UNL     1      -5.438   5.172  65.919  1.00  0.00    -0.013 C  
ENDBRANCH   3   5
BRANCH   3  13
HETATM   13  C   UNL     1      -9.201   8.646  67.098  1.00  0.00    -0.144 C  
HETATM   14  O   UNL     1      -8.607   9.229  67.998  1.00  0.00    -0.120 OA 
HETATM   15  N   UNL     1     -10.051   9.312  66.237  1.00  0.00    -0.276 N  
HETATM   16  H   UNL     1     -10.489   8.752  65.507  1.00  0.00     0.000 HD 
BRANCH  15  17
HETATM   17  C   UNL     1     -10.391  10.733  66.258  1.00  0.00    -0.244 C  
BRANCH  17  18
HETATM   18  C   UNL     1     -11.235  11.156  67.480  1.00  0.00    -0.369 C  
BRANCH  18  19
HETATM   19  C   UNL     1     -10.783  12.241  68.491  1.00  0.00    -0.237 C  
HETATM   20  O   UNL     1      -9.388  12.080  68.765  1.00  0.00    -0.378 OA 
HETATM   21  H   UNL     1      -9.111  12.745  69.385  1.00  0.00     0.000 HD 
BRANCH  19  22
HETATM   22  C   UNL     1     -11.561  12.098  69.858  1.00  0.00    -0.221 C  
BRANCH  22  23
HETATM   23  N   UNL     1     -12.231  13.371  70.311  1.00  0.00    -0.346 N  
HETATM   24  C   UNL     1     -11.976  14.725  70.292  1.00  0.00    -0.310 C  
HETATM   25  H   UNL     1     -13.126  13.174  70.757  1.00  0.00     0.000 HD 
HETATM   26  O   UNL     1     -12.907  15.497  70.539  1.00  0.00    -0.443 OA 
BRANCH  24  27
HETATM   27  C   UNL     1     -10.544  15.249  70.087  1.00  0.00    -0.257 C  
BRANCH  27  28
HETATM   28  O   UNL     1      -9.996  15.523  68.808  1.00  0.00    -0.200 OA 
BRANCH  28  29
HETATM   29  C   UNL     1      -8.925  16.402  68.720  1.00  0.00    -0.245 A  
HETATM   30  C   UNL     1      -6.963  14.991  69.812  1.00  0.00    -0.182 C  
HETATM   31  C   UNL     1      -7.580  16.177  69.113  1.00  0.00    -0.230 A  
HETATM   32  C   UNL     1      -6.610  17.166  68.818  1.00  0.00    -0.191 A  
HETATM   33  C   UNL     1      -6.929  18.355  68.179  1.00  0.00    -0.241 A  
HETATM   34  C   UNL     1      -8.245  18.598  67.831  1.00  0.00    -0.285 A  
HETATM   35  C   UNL     1      -9.250  17.647  68.101  1.00  0.00    -0.282 A  
HETATM   36  C   UNL     1     -10.659  18.022  67.710  1.00  0.00    -0.409 C  
ENDBRANCH  28  29
ENDBRANCH  27  28
ENDBRANCH  24  27
ENDBRANCH  22  23
BRANCH  22  37
HETATM   37  C   UNL     1     -12.376  10.780  69.955  1.00  0.00    -0.371 C  
BRANCH  37  38
HETATM   38  C   UNL     1     -11.756   9.734  70.839  1.00  0.00    -0.429 A  
HETATM   39  C   UNL     1     -10.595   7.962  72.671  1.00  0.00    -0.394 A  
HETATM   40  C   UNL     1     -10.368   9.582  70.893  1.00  0.00    -0.372 A  
HETATM   41  C   UNL     1     -11.977   8.055  72.572  1.00  0.00    -0.384 A  
HETATM   42  C   UNL     1     -12.550   8.901  71.626  1.00  0.00    -0.403 A  
HETATM   43  C   UNL     1      -9.792   8.699  71.804  1.00  0.00    -0.365 A  
ENDBRANCH  37  38
ENDBRANCH  22  37
ENDBRANCH  19  22
ENDBRANCH  18  19
ENDBRANCH  17  18
BRANCH  17  44
HETATM   44  C   UNL     1     -10.775  11.307  64.877  1.00  0.00    -0.337 C  
BRANCH  44  45
HETATM   45  C   UNL     1     -10.960  12.813  64.874  1.00  0.00    -0.324 A  
HETATM   46  C   UNL     1     -12.148  13.403  64.409  1.00  0.00    -0.468 A  
HETATM   47  C   UNL     1      -9.928  13.650  65.315  1.00  0.00    -0.229 A  
HETATM   48  C   UNL     1     -12.277  14.795  64.351  1.00  0.00    -0.447 A  
HETATM   49  C   UNL     1     -10.061  15.040  65.261  1.00  0.00    -0.378 A  
HETATM   50  C   UNL     1     -11.231  15.613  64.770  1.00  0.00    -0.391 A  
ENDBRANCH  44  45
ENDBRANCH  17  44
ENDBRANCH  15  17
ENDBRANCH   3  13
TORSDOF 14
ENDMDL
MODEL       36
REMARK 921   NORMALIZED FREE ENERGY PREDICTED BY IDOCK:   -6.19 KCAL/MOL
REMARK 922        TOTAL FREE ENERGY PREDICTED BY IDOCK:  -15.81 KCAL/MOL
REMARK 923 INTER-LIGAND FREE ENERGY PREDICTED BY IDOCK:  -11.97 KCAL/MOL
REMARK 924 INTRA-LIGAND FREE ENERGY PREDICTED BY IDOCK:   -3.83 KCAL/MOL
REMARK 927      BINDING AFFINITY PREDICTED BY RF-SCORE:    0.00 PKD
ROOT
HETATM    1  C   UNL     1      -9.557   3.134  69.858  1.00  0.00    -0.144 C  
HETATM    2  C   UNL     1      -8.880   4.513  69.877  1.00  0.00    -0.129 C  
HETATM    3  C   UNL     1      -9.148   5.288  68.549  1.00  0.00    -0.110 C  
HETATM    4  C   UNL     1      -9.335   5.260  71.132  1.00  0.00    -0.192 C  
ENDROOT
BRANCH   3   5
HETATM    5  N   UNL     1      -8.598   4.566  67.378  1.00  0.00    -0.104 N  
HETATM    6  H   UNL     1      -9.522   3.057  64.659  1.00  0.00     0.000 HD 
HETATM    7  O   UNL     1     -10.564   4.656  66.183  1.00  0.00    -0.295 OA 
HETATM    8  C   UNL     1      -7.165   4.323  67.264  1.00  0.00    -0.068 C  
HETATM    9  C   UNL     1      -9.421   4.232  66.324  1.00  0.00    -0.180 C  
HETATM   10  C   UNL     1      -6.939   2.886  66.834  1.00  0.00    -0.049 C  
HETATM   11  N   UNL     1      -8.917   3.325  65.435  1.00  0.00    -0.138 N  
HETATM   12  C   UNL     1      -7.608   2.706  65.487  1.00  0.00    -0.076 C  
ENDBRANCH   3   5
BRANCH   3  13
HETATM   13  C   UNL     1      -8.656   6.766  68.631  1.00  0.00    -0.122 C  
HETATM   14  O   UNL     1      -7.519   7.084  68.963  1.00  0.00    -0.090 OA 
HETATM   15  N   UNL     1      -9.632   7.710  68.384  1.00  0.00    -0.150 N  
HETATM   16  H   UNL     1     -10.544   7.356  68.096  1.00  0.00     0.000 HD 
BRANCH  15  17
HETATM   17  C   UNL     1      -9.502   9.162  68.490  1.00  0.00    -0.146 C  
BRANCH  17  18
HETATM   18  C   UNL     1      -8.528   9.779  67.462  1.00  0.00    -0.122 C  
BRANCH  18  19
HETATM   19  C   UNL     1      -8.823  11.093  66.695  1.00  0.00    -0.166 C  
HETATM   20  O   UNL     1      -7.876  11.242  65.632  1.00  0.00    -0.370 OA 
HETATM   21  H   UNL     1      -8.057  12.048  65.162  1.00  0.00     0.000 HD 
BRANCH  19  22
HETATM   22  C   UNL     1      -8.680  12.346  67.645  1.00  0.00    -0.178 C  
BRANCH  22  23
HETATM   23  N   UNL     1      -7.487  13.214  67.330  1.00  0.00    -0.337 N  
HETATM   24  C   UNL     1      -6.705  14.150  67.971  1.00  0.00    -0.148 C  
HETATM   25  H   UNL     1      -7.170  13.066  66.372  1.00  0.00     0.000 HD 
HETATM   26  O   UNL     1      -5.630  14.465  67.451  1.00  0.00    -0.341 OA 
BRANCH  24  27
HETATM   27  C   UNL     1      -7.215  14.865  69.233  1.00  0.00    -0.172 C  
BRANCH  27  28
HETATM   28  O   UNL     1      -7.436  16.265  69.294  1.00  0.00    -0.230 OA 
BRANCH  28  29
HETATM   29  C   UNL     1      -8.532  16.793  68.626  1.00  0.00    -0.259 A  
HETATM   30  C   UNL     1     -10.553  15.892  70.088  1.00  0.00    -0.302 C  
HETATM   31  C   UNL     1      -9.903  16.680  68.978  1.00  0.00    -0.267 A  
HETATM   32  C   UNL     1     -10.861  17.406  68.228  1.00  0.00    -0.256 A  
HETATM   33  C   UNL     1     -10.512  18.206  67.151  1.00  0.00    -0.392 A  
HETATM   34  C   UNL     1      -9.182  18.288  66.778  1.00  0.00    -0.288 A  
HETATM   35  C   UNL     1      -8.189  17.586  67.489  1.00  0.00    -0.213 A  
HETATM   36  C   UNL     1      -6.773  17.717  66.982  1.00  0.00    -0.200 C  
ENDBRANCH  28  29
ENDBRANCH  27  28
ENDBRANCH  24  27
ENDBRANCH  22  23
BRANCH  22  37
HETATM   37  C   UNL     1     -10.034  13.055  67.919  1.00  0.00    -0.230 C  
BRANCH  37  38
HETATM   38  C   UNL     1     -10.731  13.555  66.684  1.00  0.00    -0.282 A  
HETATM   39  C   UNL     1     -12.149  14.656  64.535  1.00  0.00    -0.490 A  
HETATM   40  C   UNL     1     -11.951  13.003  66.286  1.00  0.00    -0.477 A  
HETATM   41  C   UNL     1     -10.903  15.164  64.882  1.00  0.00    -0.437 A  
HETATM   42  C   UNL     1     -10.180  14.581  65.919  1.00  0.00    -0.339 A  
HETATM   43  C   UNL     1     -12.655  13.551  65.216  1.00  0.00    -0.517 A  
ENDBRANCH  37  38
ENDBRANCH  22  37
ENDBRANCH  19  22
ENDBRANCH  18  19
ENDBRANCH  17  18
BRANCH  17  44
HETATM   44  C   UNL     1      -9.451   9.683  69.943  1.00  0.00    -0.260 C  
BRANCH  44  45
HETATM   45  C   UNL     1     -10.786   9.614  70.661  1.00  0.00    -0.388 A  
HETATM   46  C   UNL     1     -11.744  10.632  70.522  1.00  0.00    -0.451 A  
HETATM   47  C   UNL     1     -11.075   8.535  71.505  1.00  0.00    -0.343 A  
HETATM   48  C   UNL     1     -12.942  10.586  71.244  1.00  0.00    -0.532 A  
HETATM   49  C   UNL     1     -12.274   8.489  72.221  1.00  0.00    -0.454 A  
HETATM   50  C   UNL     1     -13.204   9.518  72.099  1.00  0.00    -0.539 A  
ENDBRANCH  44  45
ENDBRANCH  17  44
ENDBRANCH  15  17
ENDBRANCH   3  13
TORSDOF 14
ENDMDL
MODEL       37
REMARK 921   NORMALIZED FREE ENERGY PREDICTED BY IDOCK:   -6.17 KCAL/MOL
REMARK 922        TOTAL FREE ENERGY PREDICTED BY IDOCK:  -15.77 KCAL/MOL
REMARK 923 INTER-LIGAND FREE ENERGY PREDICTED BY IDOCK:  -12.22 KCAL/MOL
REMARK 924 INTRA-LIGAND FREE ENERGY PREDICTED BY IDOCK:   -3.54 KCAL/MOL
REMARK 927      BINDING AFFINITY PREDICTED BY RF-SCORE:    0.00 PKD
ROOT
HETATM    1  C   UNL     1      -8.409   8.332  64.975  1.00  0.00    -0.158 C  
HETATM    2  C   UNL     1      -8.959   9.009  66.239  1.00  0.00    -0.199 C  
HETATM    3  C   UNL     1      -8.486   8.264  67.526  1.00  0.00    -0.130 C  
HETATM    4  C   UNL     1      -8.575  10.489  66.204  1.00  0.00    -0.155 C  
ENDROOT
BRANCH   3   5
HETATM    5  N   UNL     1      -8.971   6.864  67.553  1.00  0.00    -0.117 N  
HETATM    6  H   UNL     1      -7.930   3.821  67.977  1.00  0.00     0.000 HD 
HETATM    7  O   UNL     1      -7.048   6.035  68.510  1.00  0.00    -0.076 OA 
HETATM    8  C   UNL     1     -10.370   6.560  67.275  1.00  0.00    -0.222 C  
HETATM    9  C   UNL     1      -8.134   5.851  67.969  1.00  0.00    -0.105 C  
HETATM   10  C   UNL     1     -10.440   5.376  66.330  1.00  0.00    -0.324 C  
HETATM   11  N   UNL     1      -8.548   4.580  67.689  1.00  0.00    -0.103 N  
HETATM   12  C   UNL     1      -9.778   4.203  67.023  1.00  0.00    -0.197 C  
ENDBRANCH   3   5
BRANCH   3  13
HETATM   13  C   UNL     1      -8.851   9.053  68.821  1.00  0.00    -0.137 C  
HETATM   14  O   UNL     1      -8.059   9.772  69.421  1.00  0.00    -0.104 OA 
HETATM   15  N   UNL     1     -10.122   8.813  69.301  1.00  0.00    -0.198 N  
HETATM   16  H   UNL     1     -10.719   8.217  68.728  1.00  0.00     0.000 HD 
BRANCH  15  17
HETATM   17  C   UNL     1     -10.707   9.318  70.542  1.00  0.00    -0.257 C  
BRANCH  17  18
HETATM   18  C   UNL     1     -11.102  10.810  70.483  1.00  0.00    -0.067 C  
BRANCH  18  19
HETATM   19  C   UNL     1     -12.076  11.390  69.426  1.00  0.00    -0.291 C  
HETATM   20  O   UNL     1     -11.996  10.609  68.230  1.00  0.00    -0.793 OA 
HETATM   21  H   UNL     1     -12.593  10.964  67.582  1.00  0.00     0.000 HD 
BRANCH  19  22
HETATM   22  C   UNL     1     -11.688  12.875  69.056  1.00  0.00    -0.327 C  
BRANCH  22  23
HETATM   23  N   UNL     1     -11.599  13.794  70.248  1.00  0.00    -0.500 N  
HETATM   24  C   UNL     1     -11.650  15.148  70.503  1.00  0.00    -0.300 C  
HETATM   25  H   UNL     1     -11.461  13.265  71.108  1.00  0.00     0.000 HD 
HETATM   26  O   UNL     1     -11.797  15.515  71.673  1.00  0.00    -0.332 OA 
BRANCH  24  27
HETATM   27  C   UNL     1     -11.412  16.166  69.376  1.00  0.00    -0.296 C  
BRANCH  27  28
HETATM   28  O   UNL     1     -10.387  17.147  69.422  1.00  0.00    -0.290 OA 
BRANCH  28  29
HETATM   29  C   UNL     1      -9.584  17.319  68.304  1.00  0.00    -0.288 A  
HETATM   30  C   UNL     1     -10.900  19.189  66.962  1.00  0.00    -0.479 C  
HETATM   31  C   UNL     1      -9.763  18.236  67.235  1.00  0.00    -0.301 A  
HETATM   32  C   UNL     1      -8.752  18.339  66.249  1.00  0.00    -0.199 A  
HETATM   33  C   UNL     1      -7.603  17.564  66.276  1.00  0.00    -0.343 A  
HETATM   34  C   UNL     1      -7.441  16.639  67.293  1.00  0.00    -0.197 A  
HETATM   35  C   UNL     1      -8.417  16.495  68.299  1.00  0.00    -0.199 A  
HETATM   36  C   UNL     1      -8.160  15.437  69.344  1.00  0.00    -0.249 C  
ENDBRANCH  28  29
ENDBRANCH  27  28
ENDBRANCH  24  27
ENDBRANCH  22  23
BRANCH  22  37
HETATM   37  C   UNL     1     -10.557  12.958  67.996  1.00  0.00    -0.238 C  
BRANCH  37  38
HETATM   38  C   UNL     1     -10.988  13.537  66.676  1.00  0.00    -0.293 A  
HETATM   39  C   UNL     1     -11.915  14.796  64.353  1.00  0.00    -0.433 A  
HETATM   40  C   UNL     1     -12.171  13.113  66.067  1.00  0.00    -0.478 A  
HETATM   41  C   UNL     1     -10.702  15.174  64.913  1.00  0.00    -0.421 A  
HETATM   42  C   UNL     1     -10.221  14.513  66.040  1.00  0.00    -0.329 A  
HETATM   43  C   UNL     1     -12.631  13.739  64.911  1.00  0.00    -0.380 A  
ENDBRANCH  37  38
ENDBRANCH  22  37
ENDBRANCH  19  22
ENDBRANCH  18  19
ENDBRANCH  17  18
BRANCH  17  44
HETATM   44  C   UNL     1     -10.013   8.800  71.820  1.00  0.00    -0.396 C  
BRANCH  44  45
HETATM   45  C   UNL     1     -10.029   7.288  71.951  1.00  0.00    -0.184 A  
HETATM   46  C   UNL     1     -11.124   6.615  72.517  1.00  0.00    -0.296 A  
HETATM   47  C   UNL     1      -8.927   6.534  71.530  1.00  0.00    -0.140 A  
HETATM   48  C   UNL     1     -11.095   5.227  72.691  1.00  0.00    -0.319 A  
HETATM   49  C   UNL     1      -8.902   5.148  71.701  1.00  0.00    -0.145 A  
HETATM   50  C   UNL     1      -9.981   4.494  72.290  1.00  0.00    -0.239 A  
ENDBRANCH  44  45
ENDBRANCH  17  44
ENDBRANCH  15  17
ENDBRANCH   3  13
TORSDOF 14
ENDMDL
MODEL       38
REMARK 921   NORMALIZED FREE ENERGY PREDICTED BY IDOCK:   -6.16 KCAL/MOL
REMARK 922        TOTAL FREE ENERGY PREDICTED BY IDOCK:  -15.76 KCAL/MOL
REMARK 923 INTER-LIGAND FREE ENERGY PREDICTED BY IDOCK:  -13.67 KCAL/MOL
REMARK 924 INTRA-LIGAND FREE ENERGY PREDICTED BY IDOCK:   -2.09 KCAL/MOL
REMARK 927      BINDING AFFINITY PREDICTED BY RF-SCORE:    0.00 PKD
ROOT
HETATM    1  C   UNL     1      -6.686   7.598  67.724  1.00  0.00    -0.067 C  
HETATM    2  C   UNL     1      -7.798   8.648  67.576  1.00  0.00    -0.102 C  
HETATM    3  C   UNL     1      -9.197   8.031  67.886  1.00  0.00    -0.131 C  
HETATM    4  C   UNL     1      -7.446   9.854  68.449  1.00  0.00    -0.082 C  
ENDROOT
BRANCH   3   5
HETATM    5  N   UNL     1      -9.527   6.933  66.947  1.00  0.00    -0.152 N  
HETATM    6  H   UNL     1     -11.130   4.117  66.792  1.00  0.00     0.000 HD 
HETATM    7  O   UNL     1     -11.165   6.040  68.297  1.00  0.00    -0.273 OA 
HETATM    8  C   UNL     1      -8.999   6.937  65.589  1.00  0.00     0.056 C  
HETATM    9  C   UNL     1     -10.441   5.966  67.309  1.00  0.00    -0.262 C  
HETATM   10  C   UNL     1      -8.483   5.550  65.254  1.00  0.00    -0.147 C  
HETATM   11  N   UNL     1     -10.469   4.847  66.526  1.00  0.00    -0.277 N  
HETATM   12  C   UNL     1      -9.654   4.594  65.357  1.00  0.00    -0.168 C  
ENDBRANCH   3   5
BRANCH   3  13
HETATM   13  C   UNL     1     -10.311   9.121  67.953  1.00  0.00    -0.232 C  
HETATM   14  O   UNL     1     -10.651   9.801  66.991  1.00  0.00    -0.239 OA 
HETATM   15  N   UNL     1     -10.834   9.331  69.213  1.00  0.00    -0.357 N  
HETATM   16  H   UNL     1     -10.507   8.707  69.951  1.00  0.00     0.000 HD 
BRANCH  15  17
HETATM   17  C   UNL     1     -11.805  10.350  69.607  1.00  0.00    -0.180 C  
BRANCH  17  18
HETATM   18  C   UNL     1     -11.310  11.798  69.398  1.00  0.00    -0.337 C  
BRANCH  18  19
HETATM   19  C   UNL     1     -12.032  12.819  68.481  1.00  0.00    -0.225 C  
HETATM   20  O   UNL     1     -11.968  12.365  67.126  1.00  0.00    -0.528 OA 
HETATM   21  H   UNL     1     -12.411  12.991  66.564  1.00  0.00     0.000 HD 
BRANCH  19  22
HETATM   22  C   UNL     1     -11.332  14.232  68.549  1.00  0.00    -0.282 C  
BRANCH  22  23
HETATM   23  N   UNL     1     -10.514  14.563  67.326  1.00  0.00    -0.264 N  
HETATM   24  C   UNL     1      -9.859  15.655  66.797  1.00  0.00    -0.244 C  
HETATM   25  H   UNL     1     -10.418  13.750  66.719  1.00  0.00     0.000 HD 
HETATM   26  O   UNL     1      -9.063  15.465  65.873  1.00  0.00    -0.311 OA 
BRANCH  24  27
HETATM   27  C   UNL     1     -10.204  17.078  67.267  1.00  0.00    -0.310 C  
BRANCH  27  28
HETATM   28  O   UNL     1      -9.625  17.675  68.416  1.00  0.00    -0.285 OA 
BRANCH  28  29
HETATM   29  C   UNL     1      -8.520  18.498  68.250  1.00  0.00    -0.318 A  
HETATM   30  C   UNL     1      -9.604  20.664  67.170  1.00  0.00    -0.534 C  
HETATM   31  C   UNL     1      -8.491  19.826  67.747  1.00  0.00    -0.359 A  
HETATM   32  C   UNL     1      -7.268  20.539  67.779  1.00  0.00    -0.321 A  
HETATM   33  C   UNL     1      -6.094  19.983  68.263  1.00  0.00    -0.291 A  
HETATM   34  C   UNL     1      -6.107  18.675  68.716  1.00  0.00    -0.225 A  
HETATM   35  C   UNL     1      -7.296  17.920  68.706  1.00  0.00    -0.271 A  
HETATM   36  C   UNL     1      -7.197  16.495  69.192  1.00  0.00    -0.226 C  
ENDBRANCH  28  29
ENDBRANCH  27  28
ENDBRANCH  24  27
ENDBRANCH  22  23
BRANCH  22  37
HETATM   37  C   UNL     1     -12.259  15.340  69.116  1.00  0.00    -0.188 C  
BRANCH  37  38
HETATM   38  C   UNL     1     -12.483  15.258  70.601  1.00  0.00    -0.458 A  
HETATM   39  C   UNL     1     -12.753  14.895  73.365  1.00  0.00    -0.636 A  
HETATM   40  C   UNL     1     -13.565  14.540  71.117  1.00  0.00    -0.368 A  
HETATM   41  C   UNL     1     -11.716  15.670  72.862  1.00  0.00    -0.512 A  
HETATM   42  C   UNL     1     -11.614  15.889  71.491  1.00  0.00    -0.537 A  
HETATM   43  C   UNL     1     -13.699  14.360  72.492  1.00  0.00    -0.589 A  
ENDBRANCH  37  38
ENDBRANCH  22  37
ENDBRANCH  19  22
ENDBRANCH  18  19
ENDBRANCH  17  18
BRANCH  17  44
HETATM   44  C   UNL     1     -12.564  10.023  70.911  1.00  0.00    -0.424 C  
BRANCH  44  45
HETATM   45  C   UNL     1     -12.098   8.745  71.583  1.00  0.00    -0.401 A  
HETATM   46  C   UNL     1     -10.935   8.716  72.371  1.00  0.00    -0.323 A  
HETATM   47  C   UNL     1     -12.814   7.556  71.404  1.00  0.00    -0.381 A  
HETATM   48  C   UNL     1     -10.483   7.515  72.929  1.00  0.00    -0.372 A  
HETATM   49  C   UNL     1     -12.362   6.358  71.966  1.00  0.00    -0.268 A  
HETATM   50  C   UNL     1     -11.192   6.335  72.720  1.00  0.00    -0.272 A  
ENDBRANCH  44  45
ENDBRANCH  17  44
ENDBRANCH  15  17
ENDBRANCH   3  13
TORSDOF 14
ENDMDL
MODEL       39
REMARK 921   NORMALIZED FREE ENERGY PREDICTED BY IDOCK:   -6.09 KCAL/MOL
REMARK 922        TOTAL FREE ENERGY PREDICTED BY IDOCK:  -15.62 KCAL/MOL
REMARK 923 INTER-LIGAND FREE ENERGY PREDICTED BY IDOCK:  -12.23 KCAL/MOL
REMARK 924 INTRA-LIGAND FREE ENERGY PREDICTED BY IDOCK:   -3.39 KCAL/MOL
REMARK 927      BINDING AFFINITY PREDICTED BY RF-SCORE:    0.00 PKD
ROOT
HETATM    1  C   UNL     1     -11.305   5.295  72.843  1.00  0.00    -0.368 C  
HETATM    2  C   UNL     1     -11.188   6.422  71.806  1.00  0.00    -0.324 C  
HETATM    3  C   UNL     1     -10.664   5.878  70.442  1.00  0.00    -0.303 C  
HETATM    4  C   UNL     1     -12.539   7.135  71.710  1.00  0.00    -0.381 C  
ENDROOT
BRANCH   3   5
HETATM    5  N   UNL     1      -9.311   5.289  70.576  1.00  0.00    -0.152 N  
HETATM    6  H   UNL     1      -7.703   2.501  70.173  1.00  0.00     0.000 HD 
HETATM    7  O   UNL     1      -9.830   3.394  69.375  1.00  0.00    -0.043 OA 
HETATM    8  C   UNL     1      -8.204   6.085  71.091  1.00  0.00    -0.123 C  
HETATM    9  C   UNL     1      -9.059   4.022  70.093  1.00  0.00    -0.117 C  
HETATM   10  C   UNL     1      -7.432   5.262  72.104  1.00  0.00    -0.094 C  
HETATM   11  N   UNL     1      -7.894   3.444  70.511  1.00  0.00    -0.043 N  
HETATM   12  C   UNL     1      -6.904   4.037  71.386  1.00  0.00    -0.031 C  
ENDBRANCH   3   5
BRANCH   3  13
HETATM   13  C   UNL     1     -10.742   6.957  69.317  1.00  0.00    -0.238 C  
HETATM   14  O   UNL     1     -10.977   6.694  68.143  1.00  0.00    -0.260 OA 
HETATM   15  N   UNL     1     -10.437   8.238  69.729  1.00  0.00    -0.218 N  
HETATM   16  H   UNL     1     -10.273   8.368  70.727  1.00  0.00     0.000 HD 
BRANCH  15  17
HETATM   17  C   UNL     1     -10.321   9.430  68.891  1.00  0.00    -0.213 C  
BRANCH  17  18
HETATM   18  C   UNL     1      -9.122  10.334  69.253  1.00  0.00    -0.206 C  
BRANCH  18  19
HETATM   19  C   UNL     1      -7.875  10.495  68.346  1.00  0.00    -0.110 C  
HETATM   20  O   UNL     1      -6.755  10.881  69.147  1.00  0.00    -0.062 OA 
HETATM   21  H   UNL     1      -5.990  10.980  68.591  1.00  0.00     0.000 HD 
BRANCH  19  22
HETATM   22  C   UNL     1      -8.105  11.624  67.266  1.00  0.00    -0.160 C  
BRANCH  22  23
HETATM   23  N   UNL     1      -6.988  12.635  67.197  1.00  0.00    -0.349 N  
HETATM   24  C   UNL     1      -6.817  13.987  67.404  1.00  0.00    -0.001 C  
HETATM   25  H   UNL     1      -6.112  12.194  66.920  1.00  0.00     0.000 HD 
HETATM   26  O   UNL     1      -5.665  14.420  67.499  1.00  0.00    -0.345 OA 
BRANCH  24  27
HETATM   27  C   UNL     1      -8.026  14.938  67.396  1.00  0.00    -0.199 C  
BRANCH  27  28
HETATM   28  O   UNL     1      -8.119  16.063  66.537  1.00  0.00    -0.269 OA 
BRANCH  28  29
HETATM   29  C   UNL     1      -8.645  17.243  67.045  1.00  0.00    -0.227 A  
HETATM   30  C   UNL     1      -6.744  18.013  68.727  1.00  0.00    -0.248 C  
HETATM   31  C   UNL     1      -8.044  18.136  67.971  1.00  0.00    -0.264 A  
HETATM   32  C   UNL     1      -8.700  19.357  68.264  1.00  0.00    -0.376 A  
HETATM   33  C   UNL     1      -9.916  19.704  67.696  1.00  0.00    -0.510 A  
HETATM   34  C   UNL     1     -10.526  18.820  66.823  1.00  0.00    -0.478 A  
HETATM   35  C   UNL     1      -9.917  17.591  66.498  1.00  0.00    -0.323 A  
HETATM   36  C   UNL     1     -10.680  16.686  65.562  1.00  0.00    -0.234 C  
ENDBRANCH  28  29
ENDBRANCH  27  28
ENDBRANCH  24  27
ENDBRANCH  22  23
BRANCH  22  37
HETATM   37  C   UNL     1      -8.661  11.073  65.924  1.00  0.00    -0.165 C  
BRANCH  37  38
HETATM   38  C   UNL     1     -10.003  11.630  65.537  1.00  0.00    -0.277 A  
HETATM   39  C   UNL     1     -12.375  12.849  64.684  1.00  0.00    -0.501 A  
HETATM   40  C   UNL     1     -10.632  12.586  66.337  1.00  0.00    -0.271 A  
HETATM   41  C   UNL     1     -11.793  11.848  63.919  1.00  0.00    -0.509 A  
HETATM   42  C   UNL     1     -10.640  11.210  64.370  1.00  0.00    -0.411 A  
HETATM   43  C   UNL     1     -11.813  13.192  65.912  1.00  0.00    -0.453 A  
ENDBRANCH  37  38
ENDBRANCH  22  37
ENDBRANCH  19  22
ENDBRANCH  18  19
ENDBRANCH  17  18
BRANCH  17  44
HETATM   44  C   UNL     1     -11.672  10.108  68.573  1.00  0.00     0.166 C  
BRANCH  44  45
HETATM   45  C   UNL     1     -12.146  11.057  69.657  1.00  0.00    -0.411 A  
HETATM   46  C   UNL     1     -12.001  12.448  69.526  1.00  0.00    -0.324 A  
HETATM   47  C   UNL     1     -12.719  10.554  70.832  1.00  0.00    -0.495 A  
HETATM   48  C   UNL     1     -12.382  13.307  70.563  1.00  0.00    -0.389 A  
HETATM   49  C   UNL     1     -13.103  11.413  71.865  1.00  0.00    -0.505 A  
HETATM   50  C   UNL     1     -12.927  12.788  71.736  1.00  0.00    -0.416 A  
ENDBRANCH  44  45
ENDBRANCH  17  44
ENDBRANCH  15  17
ENDBRANCH   3  13
TORSDOF 14
ENDMDL
MODEL       40
REMARK 921   NORMALIZED FREE ENERGY PREDICTED BY IDOCK:   -6.08 KCAL/MOL
REMARK 922        TOTAL FREE ENERGY PREDICTED BY IDOCK:  -15.61 KCAL/MOL
REMARK 923 INTER-LIGAND FREE ENERGY PREDICTED BY IDOCK:  -12.11 KCAL/MOL
REMARK 924 INTRA-LIGAND FREE ENERGY PREDICTED BY IDOCK:   -3.50 KCAL/MOL
REMARK 927      BINDING AFFINITY PREDICTED BY RF-SCORE:    0.00 PKD
ROOT
HETATM    1  C   UNL     1     -11.531  16.073  64.494  1.00  0.00    -0.274 C  
HETATM    2  C   UNL     1     -10.454  15.258  65.226  1.00  0.00    -0.436 C  
HETATM    3  C   UNL     1     -10.487  15.535  66.761  1.00  0.00    -0.295 C  
HETATM    4  C   UNL     1     -10.629  13.783  64.859  1.00  0.00    -0.427 C  
ENDROOT
BRANCH   3   5
HETATM    5  N   UNL     1     -10.213  16.960  67.062  1.00  0.00    -0.292 N  
HETATM    6  H   UNL     1     -10.833  19.255  69.269  1.00  0.00     0.000 HD 
HETATM    7  O   UNL     1     -10.937  16.815  69.243  1.00  0.00    -0.294 OA 
HETATM    8  C   UNL     1      -9.447  17.779  66.131  1.00  0.00    -0.159 C  
HETATM    9  C   UNL     1     -10.570  17.488  68.285  1.00  0.00    -0.354 C  
HETATM   10  C   UNL     1     -10.141  19.118  65.963  1.00  0.00    -0.437 C  
HETATM   11  N   UNL     1     -10.556  18.851  68.374  1.00  0.00    -0.180 N  
HETATM   12  C   UNL     1     -10.188  19.779  67.325  1.00  0.00    -0.438 C  
ENDBRANCH   3   5
BRANCH   3  13
HETATM   13  C   UNL     1      -9.553  14.564  67.546  1.00  0.00    -0.210 C  
HETATM   14  O   UNL     1      -9.835  14.094  68.644  1.00  0.00    -0.225 OA 
HETATM   15  N   UNL     1      -8.330  14.335  66.950  1.00  0.00    -0.400 N  
HETATM   16  H   UNL     1      -8.189  14.750  66.029  1.00  0.00     0.000 HD 
BRANCH  15  17
HETATM   17  C   UNL     1      -7.214  13.564  67.493  1.00  0.00    -0.154 C  
BRANCH  17  18
HETATM   18  C   UNL     1      -7.570  12.098  67.824  1.00  0.00    -0.131 C  
BRANCH  18  19
HETATM   19  C   UNL     1      -7.805  11.015  66.740  1.00  0.00    -0.149 C  
HETATM   20  O   UNL     1      -8.110  11.651  65.495  1.00  0.00    -0.231 OA 
HETATM   21  H   UNL     1      -8.255  10.987  64.830  1.00  0.00     0.000 HD 
BRANCH  19  22
HETATM   22  C   UNL     1      -9.029  10.092  67.119  1.00  0.00    -0.135 C  
BRANCH  22  23
HETATM   23  N   UNL     1     -10.359  10.802  67.086  1.00  0.00    -0.213 N  
HETATM   24  C   UNL     1     -11.265  11.321  67.985  1.00  0.00    -0.287 C  
HETATM   25  H   UNL     1     -10.677  10.937  66.127  1.00  0.00     0.000 HD 
HETATM   26  O   UNL     1     -12.143  12.076  67.557  1.00  0.00    -0.555 OA 
BRANCH  24  27
HETATM   27  C   UNL     1     -11.250  10.876  69.457  1.00  0.00    -0.277 C  
BRANCH  27  28
HETATM   28  O   UNL     1     -11.676   9.591  69.881  1.00  0.00    -0.078 OA 
BRANCH  28  29
HETATM   29  C   UNL     1     -11.001   8.981  70.929  1.00  0.00    -0.268 A  
HETATM   30  C   UNL     1      -8.474   9.548  70.360  1.00  0.00    -0.238 C  
HETATM   31  C   UNL     1      -9.604   8.984  71.184  1.00  0.00    -0.356 A  
HETATM   32  C   UNL     1      -9.130   8.404  72.386  1.00  0.00    -0.326 A  
HETATM   33  C   UNL     1      -9.976   7.815  73.313  1.00  0.00    -0.370 A  
HETATM   34  C   UNL     1     -11.334   7.772  73.051  1.00  0.00    -0.331 A  
HETATM   35  C   UNL     1     -11.858   8.334  71.870  1.00  0.00    -0.380 A  
HETATM   36  C   UNL     1     -13.348   8.207  71.665  1.00  0.00    -0.358 C  
ENDBRANCH  28  29
ENDBRANCH  27  28
ENDBRANCH  24  27
ENDBRANCH  22  23
BRANCH  22  37
HETATM   37  C   UNL     1      -8.948   8.683  66.471  1.00  0.00    -0.187 C  
BRANCH  37  38
HETATM   38  C   UNL     1      -9.367   7.560  67.379  1.00  0.00    -0.164 A  
HETATM   39  C   UNL     1     -10.161   5.642  69.259  1.00  0.00    -0.309 A  
HETATM   40  C   UNL     1      -8.412   6.822  68.082  1.00  0.00    -0.121 A  
HETATM   41  C   UNL     1     -11.114   6.322  68.511  1.00  0.00    -0.397 A  
HETATM   42  C   UNL     1     -10.714   7.238  67.543  1.00  0.00    -0.326 A  
HETATM   43  C   UNL     1      -8.808   5.868  69.017  1.00  0.00    -0.119 A  
ENDBRANCH  37  38
ENDBRANCH  22  37
ENDBRANCH  19  22
ENDBRANCH  18  19
ENDBRANCH  17  18
BRANCH  17  44
HETATM   44  C   UNL     1      -6.342  14.344  68.501  1.00  0.00    -0.088 C  
BRANCH  44  45
HETATM   45  C   UNL     1      -6.338  15.844  68.268  1.00  0.00    -0.121 A  
HETATM   46  C   UNL     1      -6.970  16.723  69.163  1.00  0.00    -0.231 A  
HETATM   47  C   UNL     1      -5.721  16.378  67.131  1.00  0.00    -0.127 A  
HETATM   48  C   UNL     1      -7.015  18.097  68.900  1.00  0.00    -0.274 A  
HETATM   49  C   UNL     1      -5.763  17.750  66.873  1.00  0.00    -0.177 A  
HETATM   50  C   UNL     1      -6.418  18.609  67.751  1.00  0.00    -0.213 A  
ENDBRANCH  44  45
ENDBRANCH  17  44
ENDBRANCH  15  17
ENDBRANCH   3  13
TORSDOF 14
ENDMDL
MODEL       41
REMARK 921   NORMALIZED FREE ENERGY PREDICTED BY IDOCK:   -6.06 KCAL/MOL
REMARK 922        TOTAL FREE ENERGY PREDICTED BY IDOCK:  -15.58 KCAL/MOL
REMARK 923 INTER-LIGAND FREE ENERGY PREDICTED BY IDOCK:  -12.93 KCAL/MOL
REMARK 924 INTRA-LIGAND FREE ENERGY PREDICTED BY IDOCK:   -2.65 KCAL/MOL
REMARK 927      BINDING AFFINITY PREDICTED BY RF-SCORE:    0.00 PKD
ROOT
HETATM    1  C   UNL     1      -7.196   5.963  69.437  1.00  0.00    -0.067 C  
HETATM    2  C   UNL     1      -8.463   6.817  69.603  1.00  0.00    -0.133 C  
HETATM    3  C   UNL     1      -8.458   8.025  68.617  1.00  0.00    -0.128 C  
HETATM    4  C   UNL     1      -9.684   5.906  69.461  1.00  0.00    -0.190 C  
ENDROOT
BRANCH   3   5
HETATM    5  N   UNL     1      -7.309   8.926  68.867  1.00  0.00    -0.074 N  
HETATM    6  H   UNL     1      -6.249  11.179  70.947  1.00  0.00     0.000 HD 
HETATM    7  O   UNL     1      -7.945   9.423  71.023  1.00  0.00    -0.303 OA 
HETATM    8  C   UNL     1      -6.192   8.978  67.931  1.00  0.00    -0.051 C  
HETATM    9  C   UNL     1      -7.225   9.627  70.051  1.00  0.00    -0.119 C  
HETATM   10  C   UNL     1      -5.824  10.427  67.679  1.00  0.00    -0.044 C  
HETATM   11  N   UNL     1      -6.311  10.642  70.082  1.00  0.00    -0.125 N  
HETATM   12  C   UNL     1      -5.420  11.031  69.008  1.00  0.00    -0.040 C  
ENDBRANCH   3   5
BRANCH   3  13
HETATM   13  C   UNL     1      -9.824   8.779  68.616  1.00  0.00    -0.168 C  
HETATM   14  O   UNL     1     -10.306   9.305  67.619  1.00  0.00    -0.222 OA 
HETATM   15  N   UNL     1     -10.420   8.889  69.856  1.00  0.00    -0.209 N  
HETATM   16  H   UNL     1      -9.960   8.404  70.626  1.00  0.00     0.000 HD 
BRANCH  15  17
HETATM   17  C   UNL     1     -11.639   9.624  70.187  1.00  0.00    -0.141 C  
BRANCH  17  18
HETATM   18  C   UNL     1     -11.429  11.147  70.335  1.00  0.00    -0.265 C  
BRANCH  18  19
HETATM   19  C   UNL     1     -11.905  12.178  69.279  1.00  0.00    -0.313 C  
HETATM   20  O   UNL     1     -11.783  11.606  67.973  1.00  0.00    -0.433 OA 
HETATM   21  H   UNL     1     -12.075  12.237  67.326  1.00  0.00     0.000 HD 
BRANCH  19  22
HETATM   22  C   UNL     1     -11.013  13.480  69.318  1.00  0.00    -0.122 C  
BRANCH  22  23
HETATM   23  N   UNL     1      -9.757  13.380  68.490  1.00  0.00    -0.346 N  
HETATM   24  C   UNL     1      -8.587  14.089  68.315  1.00  0.00    -0.180 C  
HETATM   25  H   UNL     1      -9.778  12.556  67.891  1.00  0.00     0.000 HD 
HETATM   26  O   UNL     1      -7.658  13.539  67.715  1.00  0.00    -0.130 OA 
BRANCH  24  27
HETATM   27  C   UNL     1      -8.492  15.561  68.749  1.00  0.00    -0.190 C  
BRANCH  27  28
HETATM   28  O   UNL     1      -7.880  16.564  67.955  1.00  0.00    -0.152 OA 
BRANCH  28  29
HETATM   29  C   UNL     1      -8.672  17.586  67.451  1.00  0.00    -0.228 A  
HETATM   30  C   UNL     1     -10.204  16.288  65.718  1.00  0.00    -0.390 C  
HETATM   31  C   UNL     1      -9.725  17.483  66.503  1.00  0.00    -0.302 A  
HETATM   32  C   UNL     1     -10.497  18.635  66.217  1.00  0.00    -0.468 A  
HETATM   33  C   UNL     1     -10.252  19.864  66.811  1.00  0.00    -0.603 A  
HETATM   34  C   UNL     1      -9.202  19.979  67.705  1.00  0.00    -0.457 A  
HETATM   35  C   UNL     1      -8.401  18.865  68.025  1.00  0.00    -0.325 A  
HETATM   36  C   UNL     1      -7.262  19.104  68.986  1.00  0.00    -0.370 C  
ENDBRANCH  28  29
ENDBRANCH  27  28
ENDBRANCH  24  27
ENDBRANCH  22  23
BRANCH  22  37
HETATM   37  C   UNL     1     -11.845  14.786  69.210  1.00  0.00    -0.352 C  
BRANCH  37  38
HETATM   38  C   UNL     1     -12.470  15.230  70.504  1.00  0.00    -0.454 A  
HETATM   39  C   UNL     1     -13.552  15.834  73.015  1.00  0.00    -0.638 A  
HETATM   40  C   UNL     1     -13.800  14.916  70.794  1.00  0.00    -0.067 A  
HETATM   41  C   UNL     1     -12.252  16.212  72.708  1.00  0.00    -0.628 A  
HETATM   42  C   UNL     1     -11.735  15.954  71.442  1.00  0.00    -0.530 A  
HETATM   43  C   UNL     1     -14.338  15.218  72.043  1.00  0.00    -0.689 A  
ENDBRANCH  37  38
ENDBRANCH  22  37
ENDBRANCH  19  22
ENDBRANCH  18  19
ENDBRANCH  17  18
BRANCH  17  44
HETATM   44  C   UNL     1     -12.542   8.913  71.218  1.00  0.00    -0.309 C  
BRANCH  44  45
HETATM   45  C   UNL     1     -11.817   7.863  72.040  1.00  0.00    -0.364 A  
HETATM   46  C   UNL     1     -10.718   8.198  72.848  1.00  0.00    -0.317 A  
HETATM   47  C   UNL     1     -12.221   6.524  71.985  1.00  0.00    -0.343 A  
HETATM   48  C   UNL     1     -10.019   7.208  73.548  1.00  0.00    -0.344 A  
HETATM   49  C   UNL     1     -11.525   5.537  72.688  1.00  0.00    -0.331 A  
HETATM   50  C   UNL     1     -10.418   5.877  73.461  1.00  0.00    -0.274 A  
ENDBRANCH  44  45
ENDBRANCH  17  44
ENDBRANCH  15  17
ENDBRANCH   3  13
TORSDOF 14
ENDMDL
MODEL       42
REMARK 921   NORMALIZED FREE ENERGY PREDICTED BY IDOCK:   -6.06 KCAL/MOL
REMARK 922        TOTAL FREE ENERGY PREDICTED BY IDOCK:  -15.57 KCAL/MOL
REMARK 923 INTER-LIGAND FREE ENERGY PREDICTED BY IDOCK:  -12.10 KCAL/MOL
REMARK 924 INTRA-LIGAND FREE ENERGY PREDICTED BY IDOCK:   -3.47 KCAL/MOL
REMARK 927      BINDING AFFINITY PREDICTED BY RF-SCORE:    0.00 PKD
ROOT
HETATM    1  C   UNL     1      -6.842   7.576  66.825  1.00  0.00    -0.070 C  
HETATM    2  C   UNL     1      -8.325   7.631  67.225  1.00  0.00    -0.115 C  
HETATM    3  C   UNL     1      -8.494   7.496  68.770  1.00  0.00    -0.129 C  
HETATM    4  C   UNL     1      -8.938   8.906  66.644  1.00  0.00    -0.165 C  
ENDROOT
BRANCH   3   5
HETATM    5  N   UNL     1      -7.973   6.199  69.263  1.00  0.00    -0.107 N  
HETATM    6  H   UNL     1      -5.928   4.948  71.448  1.00  0.00     0.000 HD 
HETATM    7  O   UNL     1      -7.046   7.101  71.168  1.00  0.00    -0.070 OA 
HETATM    8  C   UNL     1      -8.385   4.949  68.636  1.00  0.00    -0.083 C  
HETATM    9  C   UNL     1      -7.195   6.155  70.400  1.00  0.00    -0.086 C  
HETATM   10  C   UNL     1      -7.164   4.075  68.425  1.00  0.00    -0.055 C  
HETATM   11  N   UNL     1      -6.519   4.988  70.618  1.00  0.00    -0.033 N  
HETATM   12  C   UNL     1      -6.560   3.803  69.787  1.00  0.00    -0.033 C  
ENDBRANCH   3   5
BRANCH   3  13
HETATM   13  C   UNL     1      -9.964   7.763  69.219  1.00  0.00    -0.182 C  
HETATM   14  O   UNL     1     -10.941   7.276  68.661  1.00  0.00    -0.116 OA 
HETATM   15  N   UNL     1     -10.094   8.672  70.250  1.00  0.00    -0.183 N  
HETATM   16  H   UNL     1      -9.228   9.012  70.667  1.00  0.00     0.000 HD 
BRANCH  15  17
HETATM   17  C   UNL     1     -11.336   9.200  70.809  1.00  0.00    -0.280 C  
BRANCH  17  18
HETATM   18  C   UNL     1     -11.556  10.704  70.530  1.00  0.00    -0.444 C  
BRANCH  18  19
HETATM   19  C   UNL     1     -12.250  11.238  69.251  1.00  0.00    -0.222 C  
HETATM   20  O   UNL     1     -11.953  10.369  68.154  1.00  0.00    -0.756 OA 
HETATM   21  H   UNL     1     -12.378  10.697  67.370  1.00  0.00     0.000 HD 
BRANCH  19  22
HETATM   22  C   UNL     1     -11.720  12.678  68.880  1.00  0.00    -0.325 C  
BRANCH  22  23
HETATM   23  N   UNL     1     -11.426  13.544  70.079  1.00  0.00    -0.497 N  
HETATM   24  C   UNL     1     -11.467  14.881  70.411  1.00  0.00    -0.266 C  
HETATM   25  H   UNL     1     -11.106  12.981  70.867  1.00  0.00     0.000 HD 
HETATM   26  O   UNL     1     -11.393  15.187  71.605  1.00  0.00    -0.381 OA 
BRANCH  24  27
HETATM   27  C   UNL     1     -11.485  15.960  69.315  1.00  0.00    -0.374 C  
BRANCH  27  28
HETATM   28  O   UNL     1     -10.559  17.033  69.269  1.00  0.00    -0.331 OA 
BRANCH  28  29
HETATM   29  C   UNL     1      -9.554  17.002  68.313  1.00  0.00    -0.273 A  
HETATM   30  C   UNL     1      -8.203  14.827  69.004  1.00  0.00    -0.141 C  
HETATM   31  C   UNL     1      -8.537  16.024  68.149  1.00  0.00    -0.171 A  
HETATM   32  C   UNL     1      -7.682  16.112  67.024  1.00  0.00    -0.256 A  
HETATM   33  C   UNL     1      -7.786  17.129  66.087  1.00  0.00    -0.303 A  
HETATM   34  C   UNL     1      -8.748  18.108  66.263  1.00  0.00    -0.195 A  
HETATM   35  C   UNL     1      -9.625  18.068  67.365  1.00  0.00    -0.272 A  
HETATM   36  C   UNL     1     -10.617  19.199  67.482  1.00  0.00    -0.567 C  
ENDBRANCH  28  29
ENDBRANCH  27  28
ENDBRANCH  24  27
ENDBRANCH  22  23
BRANCH  22  37
HETATM   37  C   UNL     1     -10.676  12.661  67.731  1.00  0.00    -0.239 C  
BRANCH  37  38
HETATM   38  C   UNL     1     -11.212  13.115  66.402  1.00  0.00    -0.328 A  
HETATM   39  C   UNL     1     -11.974  13.928  63.832  1.00  0.00    -0.372 A  
HETATM   40  C   UNL     1     -11.202  14.469  66.057  1.00  0.00    -0.337 A  
HETATM   41  C   UNL     1     -12.054  12.589  64.192  1.00  0.00    -0.530 A  
HETATM   42  C   UNL     1     -11.722  12.196  65.485  1.00  0.00    -0.384 A  
HETATM   43  C   UNL     1     -11.582  14.872  64.779  1.00  0.00    -0.410 A  
ENDBRANCH  37  38
ENDBRANCH  22  37
ENDBRANCH  19  22
ENDBRANCH  18  19
ENDBRANCH  17  18
BRANCH  17  44
HETATM   44  C   UNL     1     -11.667   8.667  72.220  1.00  0.00    -0.428 C  
BRANCH  44  45
HETATM   45  C   UNL     1     -10.841   7.461  72.623  1.00  0.00    -0.349 A  
HETATM   46  C   UNL     1     -11.121   6.181  72.116  1.00  0.00    -0.321 A  
HETATM   47  C   UNL     1      -9.791   7.601  73.539  1.00  0.00    -0.357 A  
HETATM   48  C   UNL     1     -10.392   5.067  72.549  1.00  0.00    -0.255 A  
HETATM   49  C   UNL     1      -9.062   6.489  73.967  1.00  0.00    -0.176 A  
HETATM   50  C   UNL     1      -9.367   5.221  73.481  1.00  0.00    -0.133 A  
ENDBRANCH  44  45
ENDBRANCH  17  44
ENDBRANCH  15  17
ENDBRANCH   3  13
TORSDOF 14
ENDMDL
MODEL       43
REMARK 921   NORMALIZED FREE ENERGY PREDICTED BY IDOCK:   -6.05 KCAL/MOL
REMARK 922        TOTAL FREE ENERGY PREDICTED BY IDOCK:  -15.56 KCAL/MOL
REMARK 923 INTER-LIGAND FREE ENERGY PREDICTED BY IDOCK:  -12.48 KCAL/MOL
REMARK 924 INTRA-LIGAND FREE ENERGY PREDICTED BY IDOCK:   -3.08 KCAL/MOL
REMARK 927      BINDING AFFINITY PREDICTED BY RF-SCORE:    0.00 PKD
ROOT
HETATM    1  C   UNL     1     -12.595   8.804  72.419  1.00  0.00    -0.430 C  
HETATM    2  C   UNL     1     -11.840   9.702  71.427  1.00  0.00    -0.484 C  
HETATM    3  C   UNL     1     -11.195   8.858  70.285  1.00  0.00    -0.197 C  
HETATM    4  C   UNL     1     -12.796  10.788  70.931  1.00  0.00    -0.443 C  
ENDROOT
BRANCH   3   5
HETATM    5  N   UNL     1     -10.205   7.892  70.815  1.00  0.00    -0.194 N  
HETATM    6  H   UNL     1      -9.518   4.721  70.856  1.00  0.00     0.000 HD 
HETATM    7  O   UNL     1     -10.908   6.166  69.463  1.00  0.00    -0.284 OA 
HETATM    8  C   UNL     1      -9.113   8.344  71.669  1.00  0.00    -0.205 C  
HETATM    9  C   UNL     1     -10.232   6.577  70.401  1.00  0.00    -0.193 C  
HETATM   10  C   UNL     1      -8.984   7.399  72.849  1.00  0.00    -0.182 C  
HETATM   11  N   UNL     1      -9.494   5.700  71.143  1.00  0.00    -0.156 N  
HETATM   12  C   UNL     1      -8.680   6.022  72.297  1.00  0.00    -0.131 C  
ENDBRANCH   3   5
BRANCH   3  13
HETATM   13  C   UNL     1     -10.610   9.761  69.156  1.00  0.00    -0.218 C  
HETATM   14  O   UNL     1     -10.895   9.632  67.970  1.00  0.00    -0.242 OA 
HETATM   15  N   UNL     1      -9.665  10.673  69.581  1.00  0.00    -0.433 N  
HETATM   16  H   UNL     1      -9.504  10.724  70.586  1.00  0.00     0.000 HD 
BRANCH  15  17
HETATM   17  C   UNL     1      -8.870  11.572  68.748  1.00  0.00    -0.042 C  
BRANCH  17  18
HETATM   18  C   UNL     1      -9.696  12.684  68.065  1.00  0.00    -0.215 C  
BRANCH  18  19
HETATM   19  C   UNL     1     -11.046  13.205  68.622  1.00  0.00    -0.269 C  
HETATM   20  O   UNL     1     -12.119  12.489  68.004  1.00  0.00    -0.351 OA 
HETATM   21  H   UNL     1     -12.947  12.808  68.345  1.00  0.00     0.000 HD 
BRANCH  19  22
HETATM   22  C   UNL     1     -11.239  14.737  68.294  1.00  0.00    -0.286 C  
BRANCH  22  23
HETATM   23  N   UNL     1     -11.071  15.071  66.834  1.00  0.00    -0.330 N  
HETATM   24  C   UNL     1     -10.083  15.549  66.000  1.00  0.00    -0.332 C  
HETATM   25  H   UNL     1     -11.931  14.894  66.317  1.00  0.00     0.000 HD 
HETATM   26  O   UNL     1     -10.250  15.447  64.781  1.00  0.00    -0.301 OA 
BRANCH  24  27
HETATM   27  C   UNL     1      -8.866  16.295  66.575  1.00  0.00    -0.283 C  
BRANCH  27  28
HETATM   28  O   UNL     1      -8.119  17.244  65.833  1.00  0.00    -0.529 OA 
BRANCH  28  29
HETATM   29  C   UNL     1      -7.958  18.519  66.358  1.00  0.00    -0.267 A  
HETATM   30  C   UNL     1     -10.417  19.497  66.194  1.00  0.00    -0.613 C  
HETATM   31  C   UNL     1      -8.956  19.507  66.566  1.00  0.00    -0.406 A  
HETATM   32  C   UNL     1      -8.600  20.703  67.237  1.00  0.00    -0.310 A  
HETATM   33  C   UNL     1      -7.311  20.953  67.680  1.00  0.00    -0.277 A  
HETATM   34  C   UNL     1      -6.325  20.012  67.444  1.00  0.00    -0.227 A  
HETATM   35  C   UNL     1      -6.624  18.805  66.780  1.00  0.00    -0.206 A  
HETATM   36  C   UNL     1      -5.472  17.859  66.545  1.00  0.00    -0.200 C  
ENDBRANCH  28  29
ENDBRANCH  27  28
ENDBRANCH  24  27
ENDBRANCH  22  23
BRANCH  22  37
HETATM   37  C   UNL     1     -12.443  15.369  69.044  1.00  0.00     0.099 C  
BRANCH  37  38
HETATM   38  C   UNL     1     -12.484  15.062  70.516  1.00  0.00    -0.425 A  
HETATM   39  C   UNL     1     -12.717  14.695  73.283  1.00  0.00    -0.552 A  
HETATM   40  C   UNL     1     -11.547  15.627  71.385  1.00  0.00    -0.499 A  
HETATM   41  C   UNL     1     -13.609  14.073  72.419  1.00  0.00    -0.658 A  
HETATM   42  C   UNL     1     -13.460  14.218  71.043  1.00  0.00    -0.274 A  
HETATM   43  C   UNL     1     -11.663  15.443  72.761  1.00  0.00    -0.535 A  
ENDBRANCH  37  38
ENDBRANCH  22  37
ENDBRANCH  19  22
ENDBRANCH  18  19
ENDBRANCH  17  18
BRANCH  17  44
HETATM   44  C   UNL     1      -7.781  10.860  67.915  1.00  0.00    -0.104 C  
BRANCH  44  45
HETATM   45  C   UNL     1      -7.045   9.775  68.677  1.00  0.00    -0.071 A  
HETATM   46  C   UNL     1      -7.271   8.414  68.411  1.00  0.00    -0.085 A  
HETATM   47  C   UNL     1      -6.139  10.116  69.688  1.00  0.00    -0.046 A  
HETATM   48  C   UNL     1      -6.634   7.424  69.168  1.00  0.00    -0.040 A  
HETATM   49  C   UNL     1      -5.500   9.126  70.440  1.00  0.00    -0.030 A  
HETATM   50  C   UNL     1      -5.754   7.781  70.188  1.00  0.00    -0.023 A  
ENDBRANCH  44  45
ENDBRANCH  17  44
ENDBRANCH  15  17
ENDBRANCH   3  13
TORSDOF 14
ENDMDL
MODEL       44
REMARK 921   NORMALIZED FREE ENERGY PREDICTED BY IDOCK:   -6.05 KCAL/MOL
REMARK 922        TOTAL FREE ENERGY PREDICTED BY IDOCK:  -15.56 KCAL/MOL
REMARK 923 INTER-LIGAND FREE ENERGY PREDICTED BY IDOCK:  -11.95 KCAL/MOL
REMARK 924 INTRA-LIGAND FREE ENERGY PREDICTED BY IDOCK:   -3.60 KCAL/MOL
REMARK 927      BINDING AFFINITY PREDICTED BY RF-SCORE:    0.00 PKD
ROOT
HETATM    1  C   UNL     1      -8.825   4.468  71.261  1.00  0.00    -0.154 C  
HETATM    2  C   UNL     1      -8.461   5.380  70.080  1.00  0.00    -0.119 C  
HETATM    3  C   UNL     1      -8.416   6.876  70.519  1.00  0.00    -0.137 C  
HETATM    4  C   UNL     1      -7.155   4.877  69.462  1.00  0.00    -0.055 C  
ENDROOT
BRANCH   3   5
HETATM    5  N   UNL     1      -9.734   7.337  71.016  1.00  0.00    -0.169 N  
HETATM    6  H   UNL     1     -11.108   8.903  73.503  1.00  0.00     0.000 HD 
HETATM    7  O   UNL     1      -8.838   8.724  72.620  1.00  0.00    -0.394 OA 
HETATM    8  C   UNL     1     -10.952   7.032  70.274  1.00  0.00    -0.271 C  
HETATM    9  C   UNL     1      -9.807   8.167  72.114  1.00  0.00    -0.246 C  
HETATM   10  C   UNL     1     -12.017   6.557  71.244  1.00  0.00    -0.364 C  
HETATM   11  N   UNL     1     -11.043   8.304  72.680  1.00  0.00    -0.367 N  
HETATM   12  C   UNL     1     -12.270   7.682  72.227  1.00  0.00    -0.221 C  
ENDBRANCH   3   5
BRANCH   3  13
HETATM   13  C   UNL     1      -7.842   7.794  69.397  1.00  0.00    -0.115 C  
HETATM   14  O   UNL     1      -6.876   8.534  69.555  1.00  0.00    -0.044 OA 
HETATM   15  N   UNL     1      -8.562   7.781  68.219  1.00  0.00    -0.124 N  
HETATM   16  H   UNL     1      -9.338   7.122  68.169  1.00  0.00     0.000 HD 
BRANCH  15  17
HETATM   17  C   UNL     1      -8.334   8.609  67.037  1.00  0.00    -0.106 C  
BRANCH  17  18
HETATM   18  C   UNL     1      -8.976  10.011  67.123  1.00  0.00    -0.146 C  
BRANCH  18  19
HETATM   19  C   UNL     1      -8.306  11.209  67.844  1.00  0.00    -0.129 C  
HETATM   20  O   UNL     1      -8.655  11.181  69.231  1.00  0.00    -0.375 OA 
HETATM   21  H   UNL     1      -8.245  11.915  69.673  1.00  0.00     0.000 HD 
BRANCH  19  22
HETATM   22  C   UNL     1      -8.813  12.581  67.249  1.00  0.00    -0.195 C  
BRANCH  22  23
HETATM   23  N   UNL     1     -10.183  12.503  66.624  1.00  0.00    -0.227 N  
HETATM   24  C   UNL     1     -11.497  12.470  67.039  1.00  0.00    -0.356 C  
HETATM   25  H   UNL     1     -10.119  12.462  65.607  1.00  0.00     0.000 HD 
HETATM   26  O   UNL     1     -12.378  12.666  66.196  1.00  0.00    -0.570 OA 
BRANCH  24  27
HETATM   27  C   UNL     1     -11.853  12.083  68.484  1.00  0.00    -0.311 C  
BRANCH  27  28
HETATM   28  O   UNL     1     -11.380  12.796  69.615  1.00  0.00    -0.204 OA 
BRANCH  28  29
HETATM   29  C   UNL     1     -12.308  13.371  70.472  1.00  0.00    -0.329 A  
HETATM   30  C   UNL     1     -13.176  11.268  71.835  1.00  0.00    -0.491 C  
HETATM   31  C   UNL     1     -13.075  12.731  71.481  1.00  0.00    -0.380 A  
HETATM   32  C   UNL     1     -13.876  13.527  72.335  1.00  0.00    -0.687 A  
HETATM   33  C   UNL     1     -13.956  14.905  72.210  1.00  0.00    -0.602 A  
HETATM   34  C   UNL     1     -13.243  15.531  71.203  1.00  0.00    -0.576 A  
HETATM   35  C   UNL     1     -12.431  14.786  70.325  1.00  0.00    -0.393 A  
HETATM   36  C   UNL     1     -11.719  15.559  69.241  1.00  0.00    -0.380 C  
ENDBRANCH  28  29
ENDBRANCH  27  28
ENDBRANCH  24  27
ENDBRANCH  22  23
BRANCH  22  37
HETATM   37  C   UNL     1      -8.513  13.790  68.177  1.00  0.00    -0.173 C  
BRANCH  37  38
HETATM   38  C   UNL     1      -8.069  15.030  67.451  1.00  0.00    -0.216 A  
HETATM   39  C   UNL     1      -7.310  17.472  66.310  1.00  0.00    -0.355 A  
HETATM   40  C   UNL     1      -8.968  15.751  66.661  1.00  0.00    -0.313 A  
HETATM   41  C   UNL     1      -6.389  16.726  67.034  1.00  0.00    -0.222 A  
HETATM   42  C   UNL     1      -6.757  15.489  67.558  1.00  0.00    -0.220 A  
HETATM   43  C   UNL     1      -8.589  16.965  66.093  1.00  0.00    -0.277 A  
ENDBRANCH  37  38
ENDBRANCH  22  37
ENDBRANCH  19  22
ENDBRANCH  18  19
ENDBRANCH  17  18
BRANCH  17  44
HETATM   44  C   UNL     1      -8.444   7.841  65.702  1.00  0.00    -0.153 C  
BRANCH  44  45
HETATM   45  C   UNL     1      -8.586   6.340  65.873  1.00  0.00    -0.150 A  
HETATM   46  C   UNL     1      -7.493   5.477  65.692  1.00  0.00    -0.077 A  
HETATM   47  C   UNL     1      -9.831   5.783  66.192  1.00  0.00    -0.087 A  
HETATM   48  C   UNL     1      -7.656   4.090  65.789  1.00  0.00    -0.085 A  
HETATM   49  C   UNL     1      -9.990   4.399  66.292  1.00  0.00    -0.255 A  
HETATM   50  C   UNL     1      -8.906   3.551  66.081  1.00  0.00    -0.130 A  
ENDBRANCH  44  45
ENDBRANCH  17  44
ENDBRANCH  15  17
ENDBRANCH   3  13
TORSDOF 14
ENDMDL
MODEL       45
REMARK 921   NORMALIZED FREE ENERGY PREDICTED BY IDOCK:   -6.05 KCAL/MOL
REMARK 922        TOTAL FREE ENERGY PREDICTED BY IDOCK:  -15.55 KCAL/MOL
REMARK 923 INTER-LIGAND FREE ENERGY PREDICTED BY IDOCK:  -12.41 KCAL/MOL
REMARK 924 INTRA-LIGAND FREE ENERGY PREDICTED BY IDOCK:   -3.13 KCAL/MOL
REMARK 927      BINDING AFFINITY PREDICTED BY RF-SCORE:    0.00 PKD
ROOT
HETATM    1  C   UNL     1      -8.195   4.646  67.759  1.00  0.00    -0.099 C  
HETATM    2  C   UNL     1      -8.212   5.769  68.807  1.00  0.00    -0.101 C  
HETATM    3  C   UNL     1      -9.024   7.000  68.297  1.00  0.00    -0.128 C  
HETATM    4  C   UNL     1      -8.725   5.193  70.128  1.00  0.00    -0.128 C  
ENDROOT
BRANCH   3   5
HETATM    5  N   UNL     1      -8.424   7.577  67.072  1.00  0.00    -0.120 N  
HETATM    6  H   UNL     1      -9.237   8.995  64.269  1.00  0.00     0.000 HD 
HETATM    7  O   UNL     1     -10.370   8.607  66.398  1.00  0.00    -0.262 OA 
HETATM    8  C   UNL     1      -6.981   7.547  66.869  1.00  0.00    -0.079 C  
HETATM    9  C   UNL     1      -9.214   8.263  66.173  1.00  0.00    -0.192 C  
HETATM   10  C   UNL     1      -6.690   7.110  65.446  1.00  0.00    -0.051 C  
HETATM   11  N   UNL     1      -8.658   8.502  64.949  1.00  0.00    -0.149 N  
HETATM   12  C   UNL     1      -7.327   8.125  64.520  1.00  0.00    -0.088 C  
ENDBRANCH   3   5
BRANCH   3  13
HETATM   13  C   UNL     1      -9.236   8.061  69.421  1.00  0.00    -0.152 C  
HETATM   14  O   UNL     1      -8.317   8.568  70.055  1.00  0.00    -0.116 OA 
HETATM   15  N   UNL     1     -10.558   8.329  69.716  1.00  0.00    -0.228 N  
HETATM   16  H   UNL     1     -11.256   7.877  69.125  1.00  0.00     0.000 HD 
BRANCH  15  17
HETATM   17  C   UNL     1     -11.067   9.188  70.783  1.00  0.00    -0.275 C  
BRANCH  17  18
HETATM   18  C   UNL     1     -11.222  10.669  70.371  1.00  0.00    -0.334 C  
BRANCH  18  19
HETATM   19  C   UNL     1     -12.000  11.123  69.109  1.00  0.00    -0.343 C  
HETATM   20  O   UNL     1     -11.779  10.183  68.054  1.00  0.00    -0.685 OA 
HETATM   21  H   UNL     1     -12.256  10.461  67.280  1.00  0.00     0.000 HD 
BRANCH  19  22
HETATM   22  C   UNL     1     -11.492  12.533  68.610  1.00  0.00    -0.306 C  
BRANCH  22  23
HETATM   23  N   UNL     1     -11.191  13.500  69.727  1.00  0.00    -0.473 N  
HETATM   24  C   UNL     1     -11.297  14.853  69.966  1.00  0.00    -0.274 C  
HETATM   25  H   UNL     1     -10.799  13.016  70.534  1.00  0.00     0.000 HD 
HETATM   26  O   UNL     1     -11.181  15.250  71.129  1.00  0.00    -0.339 OA 
BRANCH  24  27
HETATM   27  C   UNL     1     -11.435  15.845  68.798  1.00  0.00    -0.393 C  
BRANCH  27  28
HETATM   28  O   UNL     1     -10.510  15.912  67.725  1.00  0.00    -0.272 OA 
BRANCH  28  29
HETATM   29  C   UNL     1      -9.517  16.881  67.766  1.00  0.00    -0.237 A  
HETATM   30  C   UNL     1     -10.891  19.098  67.292  1.00  0.00    -0.529 C  
HETATM   31  C   UNL     1      -9.664  18.285  67.622  1.00  0.00    -0.306 A  
HETATM   32  C   UNL     1      -8.533  19.113  67.825  1.00  0.00    -0.334 A  
HETATM   33  C   UNL     1      -7.283  18.602  68.138  1.00  0.00    -0.269 A  
HETATM   34  C   UNL     1      -7.124  17.232  68.239  1.00  0.00    -0.197 A  
HETATM   35  C   UNL     1      -8.216  16.362  68.047  1.00  0.00    -0.169 A  
HETATM   36  C   UNL     1      -7.930  14.884  68.148  1.00  0.00    -0.130 C  
ENDBRANCH  28  29
ENDBRANCH  27  28
ENDBRANCH  24  27
ENDBRANCH  22  23
BRANCH  22  37
HETATM   37  C   UNL     1     -10.464  12.429  67.451  1.00  0.00    -0.229 C  
BRANCH  37  38
HETATM   38  C   UNL     1     -11.053  12.643  66.083  1.00  0.00    -0.327 A  
HETATM   39  C   UNL     1     -11.966  13.217  63.499  1.00  0.00    -0.537 A  
HETATM   40  C   UNL     1     -12.065  13.585  65.885  1.00  0.00    -0.477 A  
HETATM   41  C   UNL     1     -11.011  12.228  63.697  1.00  0.00    -0.532 A  
HETATM   42  C   UNL     1     -10.596  11.912  64.987  1.00  0.00    -0.335 A  
HETATM   43  C   UNL     1     -12.519  13.870  64.599  1.00  0.00    -0.361 A  
ENDBRANCH  37  38
ENDBRANCH  22  37
ENDBRANCH  19  22
ENDBRANCH  18  19
ENDBRANCH  17  18
BRANCH  17  44
HETATM   44  C   UNL     1     -10.475   8.879  72.175  1.00  0.00    -0.320 C  
BRANCH  44  45
HETATM   45  C   UNL     1     -10.629   7.429  72.594  1.00  0.00    -0.322 A  
HETATM   46  C   UNL     1     -11.676   6.633  72.100  1.00  0.00    -0.342 A  
HETATM   47  C   UNL     1      -9.735   6.863  73.510  1.00  0.00    -0.250 A  
HETATM   48  C   UNL     1     -11.843   5.318  72.547  1.00  0.00    -0.047 A  
HETATM   49  C   UNL     1      -9.901   5.548  73.952  1.00  0.00    -0.180 A  
HETATM   50  C   UNL     1     -10.960   4.778  73.479  1.00  0.00    -0.398 A  
ENDBRANCH  44  45
ENDBRANCH  17  44
ENDBRANCH  15  17
ENDBRANCH   3  13
TORSDOF 14
ENDMDL
MODEL       46
REMARK 921   NORMALIZED FREE ENERGY PREDICTED BY IDOCK:   -6.03 KCAL/MOL
REMARK 922        TOTAL FREE ENERGY PREDICTED BY IDOCK:  -15.52 KCAL/MOL
REMARK 923 INTER-LIGAND FREE ENERGY PREDICTED BY IDOCK:  -12.30 KCAL/MOL
REMARK 924 INTRA-LIGAND FREE ENERGY PREDICTED BY IDOCK:   -3.22 KCAL/MOL
REMARK 927      BINDING AFFINITY PREDICTED BY RF-SCORE:    0.00 PKD
ROOT
HETATM    1  C   UNL     1      -7.454   6.712  68.865  1.00  0.00    -0.096 C  
HETATM    2  C   UNL     1      -8.742   7.515  69.101  1.00  0.00    -0.136 C  
HETATM    3  C   UNL     1      -8.804   8.764  68.169  1.00  0.00    -0.141 C  
HETATM    4  C   UNL     1      -9.937   6.570  68.950  1.00  0.00    -0.165 C  
ENDROOT
BRANCH   3   5
HETATM    5  N   UNL     1      -7.678   9.692  68.429  1.00  0.00    -0.081 N  
HETATM    6  H   UNL     1      -5.099  11.025  66.982  1.00  0.00     0.000 HD 
HETATM    7  O   UNL     1      -7.141   9.935  66.203  1.00  0.00    -0.095 OA 
HETATM    8  C   UNL     1      -7.486  10.270  69.753  1.00  0.00    -0.165 C  
HETATM    9  C   UNL     1      -6.880  10.116  67.389  1.00  0.00    -0.077 C  
HETATM   10  C   UNL     1      -6.018  10.181  70.124  1.00  0.00    -0.066 C  
HETATM   11  N   UNL     1      -5.706  10.720  67.743  1.00  0.00    -0.043 N  
HETATM   12  C   UNL     1      -5.240  10.969  69.091  1.00  0.00    -0.041 C  
ENDBRANCH   3   5
BRANCH   3  13
HETATM   13  C   UNL     1     -10.193   9.470  68.236  1.00  0.00    -0.193 C  
HETATM   14  O   UNL     1     -10.895   9.678  67.253  1.00  0.00    -0.254 OA 
HETATM   15  N   UNL     1     -10.544   9.931  69.490  1.00  0.00    -0.226 N  
HETATM   16  H   UNL     1      -9.910   9.696  70.253  1.00  0.00     0.000 HD 
BRANCH  15  17
HETATM   17  C   UNL     1     -11.723  10.718  69.842  1.00  0.00    -0.333 C  
BRANCH  17  18
HETATM   18  C   UNL     1     -11.529  12.242  69.679  1.00  0.00    -0.285 C  
BRANCH  18  19
HETATM   19  C   UNL     1     -12.156  13.059  68.520  1.00  0.00    -0.149 C  
HETATM   20  O   UNL     1     -11.914  12.385  67.281  1.00  0.00    -0.516 OA 
HETATM   21  H   UNL     1     -12.298  12.886  66.571  1.00  0.00     0.000 HD 
BRANCH  19  22
HETATM   22  C   UNL     1     -11.504  14.493  68.422  1.00  0.00    -0.302 C  
BRANCH  22  23
HETATM   23  N   UNL     1     -10.920  14.803  67.067  1.00  0.00    -0.316 N  
HETATM   24  C   UNL     1     -10.327  15.871  66.428  1.00  0.00    -0.306 C  
HETATM   25  H   UNL     1     -10.980  13.995  66.449  1.00  0.00     0.000 HD 
HETATM   26  O   UNL     1      -9.732  15.658  65.368  1.00  0.00    -0.303 OA 
BRANCH  24  27
HETATM   27  C   UNL     1     -10.509  17.302  66.963  1.00  0.00    -0.287 C  
BRANCH  27  28
HETATM   28  O   UNL     1      -9.549  17.949  67.782  1.00  0.00    -0.267 OA 
BRANCH  28  29
HETATM   29  C   UNL     1      -8.217  17.578  67.664  1.00  0.00    -0.215 A  
HETATM   30  C   UNL     1      -8.070  15.519  69.329  1.00  0.00    -0.248 C  
HETATM   31  C   UNL     1      -7.557  16.492  68.297  1.00  0.00    -0.170 A  
HETATM   32  C   UNL     1      -6.216  16.209  67.939  1.00  0.00    -0.144 A  
HETATM   33  C   UNL     1      -5.518  16.964  67.010  1.00  0.00    -0.190 A  
HETATM   34  C   UNL     1      -6.143  18.048  66.419  1.00  0.00    -0.223 A  
HETATM   35  C   UNL     1      -7.475  18.375  66.740  1.00  0.00    -0.240 A  
HETATM   36  C   UNL     1      -8.054  19.594  66.065  1.00  0.00    -0.322 C  
ENDBRANCH  28  29
ENDBRANCH  27  28
ENDBRANCH  24  27
ENDBRANCH  22  23
BRANCH  22  37
HETATM   37  C   UNL     1     -12.357  15.594  69.108  1.00  0.00    -0.019 C  
BRANCH  37  38
HETATM   38  C   UNL     1     -12.496  15.431  70.597  1.00  0.00    -0.478 A  
HETATM   39  C   UNL     1     -12.803  15.380  73.380  1.00  0.00    -0.662 A  
HETATM   40  C   UNL     1     -11.386  15.576  71.433  1.00  0.00    -0.458 A  
HETATM   41  C   UNL     1     -13.899  15.163  72.553  1.00  0.00    -0.602 A  
HETATM   42  C   UNL     1     -13.732  15.140  71.172  1.00  0.00    -0.510 A  
HETATM   43  C   UNL     1     -11.540  15.550  72.817  1.00  0.00    -0.472 A  
ENDBRANCH  37  38
ENDBRANCH  22  37
ENDBRANCH  19  22
ENDBRANCH  18  19
ENDBRANCH  17  18
BRANCH  17  44
HETATM   44  C   UNL     1     -12.464  10.211  71.099  1.00  0.00    -0.490 C  
BRANCH  44  45
HETATM   45  C   UNL     1     -11.987   8.854  71.581  1.00  0.00    -0.415 A  
HETATM   46  C   UNL     1     -10.745   8.701  72.219  1.00  0.00    -0.383 A  
HETATM   47  C   UNL     1     -12.775   7.716  71.371  1.00  0.00    -0.357 A  
HETATM   48  C   UNL     1     -10.290   7.433  72.597  1.00  0.00    -0.292 A  
HETATM   49  C   UNL     1     -12.321   6.451  71.753  1.00  0.00    -0.259 A  
HETATM   50  C   UNL     1     -11.075   6.307  72.358  1.00  0.00    -0.307 A  
ENDBRANCH  44  45
ENDBRANCH  17  44
ENDBRANCH  15  17
ENDBRANCH   3  13
TORSDOF 14
ENDMDL
MODEL       47
REMARK 921   NORMALIZED FREE ENERGY PREDICTED BY IDOCK:   -6.02 KCAL/MOL
REMARK 922        TOTAL FREE ENERGY PREDICTED BY IDOCK:  -15.50 KCAL/MOL
REMARK 923 INTER-LIGAND FREE ENERGY PREDICTED BY IDOCK:  -11.80 KCAL/MOL
REMARK 924 INTRA-LIGAND FREE ENERGY PREDICTED BY IDOCK:   -3.70 KCAL/MOL
REMARK 927      BINDING AFFINITY PREDICTED BY RF-SCORE:    0.00 PKD
ROOT
HETATM    1  C   UNL     1     -10.738   7.585  73.230  1.00  0.00    -0.437 C  
HETATM    2  C   UNL     1     -10.723   8.219  71.830  1.00  0.00    -0.350 C  
HETATM    3  C   UNL     1     -10.493   7.139  70.728  1.00  0.00    -0.212 C  
HETATM    4  C   UNL     1     -12.010   9.025  71.648  1.00  0.00    -0.426 C  
ENDROOT
BRANCH   3   5
HETATM    5  N   UNL     1      -9.187   6.460  70.896  1.00  0.00    -0.157 N  
HETATM    6  H   UNL     1      -7.900   3.558  71.565  1.00  0.00     0.000 HD 
HETATM    7  O   UNL     1     -10.084   4.341  70.802  1.00  0.00    -0.190 OA 
HETATM    8  C   UNL     1      -7.943   7.213  70.802  1.00  0.00    -0.100 C  
HETATM    9  C   UNL     1      -9.133   5.087  71.016  1.00  0.00    -0.141 C  
HETATM   10  C   UNL     1      -7.027   6.803  71.939  1.00  0.00    -0.070 C  
HETATM   11  N   UNL     1      -7.948   4.571  71.457  1.00  0.00    -0.093 N  
HETATM   12  C   UNL     1      -6.754   5.321  71.789  1.00  0.00    -0.052 C  
ENDBRANCH   3   5
BRANCH   3  13
HETATM   13  C   UNL     1     -10.688   7.722  69.295  1.00  0.00    -0.147 C  
HETATM   14  O   UNL     1     -11.046   7.050  68.334  1.00  0.00    -0.117 OA 
HETATM   15  N   UNL     1     -10.339   9.051  69.162  1.00  0.00    -0.215 N  
HETATM   16  H   UNL     1     -10.071   9.537  70.018  1.00  0.00     0.000 HD 
BRANCH  15  17
HETATM   17  C   UNL     1     -10.311   9.838  67.931  1.00  0.00    -0.213 C  
BRANCH  17  18
HETATM   18  C   UNL     1     -11.309  11.016  67.921  1.00  0.00    -0.381 C  
BRANCH  18  19
HETATM   19  C   UNL     1     -11.068  12.341  68.689  1.00  0.00    -0.249 C  
HETATM   20  O   UNL     1     -11.244  12.114  70.091  1.00  0.00    -0.474 OA 
HETATM   21  H   UNL     1     -11.096  12.926  70.562  1.00  0.00     0.000 HD 
BRANCH  19  22
HETATM   22  C   UNL     1     -12.105  13.447  68.248  1.00  0.00    -0.236 C  
BRANCH  22  23
HETATM   23  N   UNL     1     -12.736  14.183  69.403  1.00  0.00    -0.363 N  
HETATM   24  C   UNL     1     -12.436  15.250  70.223  1.00  0.00    -0.363 C  
HETATM   25  H   UNL     1     -13.639  13.777  69.646  1.00  0.00     0.000 HD 
HETATM   26  O   UNL     1     -13.344  15.728  70.911  1.00  0.00    -0.576 OA 
BRANCH  24  27
HETATM   27  C   UNL     1     -10.988  15.747  70.363  1.00  0.00    -0.355 C  
BRANCH  27  28
HETATM   28  O   UNL     1     -10.495  16.893  69.688  1.00  0.00    -0.269 OA 
BRANCH  28  29
HETATM   29  C   UNL     1      -9.638  16.712  68.612  1.00  0.00    -0.248 A  
HETATM   30  C   UNL     1      -8.015  14.818  69.512  1.00  0.00    -0.014 C  
HETATM   31  C   UNL     1      -8.573  15.780  68.494  1.00  0.00    -0.183 A  
HETATM   32  C   UNL     1      -7.899  15.670  67.253  1.00  0.00    -0.230 A  
HETATM   33  C   UNL     1      -8.226  16.452  66.156  1.00  0.00    -0.250 A  
HETATM   34  C   UNL     1      -9.236  17.390  66.277  1.00  0.00    -0.234 A  
HETATM   35  C   UNL     1      -9.938  17.541  67.489  1.00  0.00    -0.315 A  
HETATM   36  C   UNL     1     -11.000  18.614  67.526  1.00  0.00    -0.238 C  
ENDBRANCH  28  29
ENDBRANCH  27  28
ENDBRANCH  24  27
ENDBRANCH  22  23
BRANCH  22  37
HETATM   37  C   UNL     1     -11.614  14.289  67.039  1.00  0.00    -0.406 C  
BRANCH  37  38
HETATM   38  C   UNL     1     -11.444  13.504  65.768  1.00  0.00    -0.331 A  
HETATM   39  C   UNL     1     -11.098  11.835  63.546  1.00  0.00    -0.503 A  
HETATM   40  C   UNL     1     -10.178  13.335  65.202  1.00  0.00    -0.301 A  
HETATM   41  C   UNL     1     -12.369  12.056  64.060  1.00  0.00    -0.504 A  
HETATM   42  C   UNL     1     -12.542  12.925  65.134  1.00  0.00    -0.536 A  
HETATM   43  C   UNL     1     -10.007  12.505  64.096  1.00  0.00    -0.226 A  
ENDBRANCH  37  38
ENDBRANCH  22  37
ENDBRANCH  19  22
ENDBRANCH  18  19
ENDBRANCH  17  18
BRANCH  17  44
HETATM   44  C   UNL     1     -10.174   8.991  66.647  1.00  0.00    -0.333 C  
BRANCH  44  45
HETATM   45  C   UNL     1      -8.985   9.378  65.788  1.00  0.00    -0.227 A  
HETATM   46  C   UNL     1      -8.844   8.895  64.476  1.00  0.00    -0.069 A  
HETATM   47  C   UNL     1      -7.985  10.210  66.305  1.00  0.00    -0.118 A  
HETATM   48  C   UNL     1      -7.708   9.207  63.720  1.00  0.00    -0.119 A  
HETATM   49  C   UNL     1      -6.853  10.524  65.546  1.00  0.00    -0.100 A  
HETATM   50  C   UNL     1      -6.710  10.016  64.258  1.00  0.00    -0.128 A  
ENDBRANCH  44  45
ENDBRANCH  17  44
ENDBRANCH  15  17
ENDBRANCH   3  13
TORSDOF 14
ENDMDL
MODEL       48
REMARK 921   NORMALIZED FREE ENERGY PREDICTED BY IDOCK:   -6.01 KCAL/MOL
REMARK 922        TOTAL FREE ENERGY PREDICTED BY IDOCK:  -15.48 KCAL/MOL
REMARK 923 INTER-LIGAND FREE ENERGY PREDICTED BY IDOCK:  -10.39 KCAL/MOL
REMARK 924 INTRA-LIGAND FREE ENERGY PREDICTED BY IDOCK:   -5.09 KCAL/MOL
REMARK 927      BINDING AFFINITY PREDICTED BY RF-SCORE:    0.00 PKD
ROOT
HETATM    1  C   UNL     1     -11.133  17.087  67.751  1.00  0.00    -0.090 C  
HETATM    2  C   UNL     1     -10.722  15.607  67.698  1.00  0.00    -0.302 C  
HETATM    3  C   UNL     1     -11.799  14.701  68.370  1.00  0.00    -0.295 C  
HETATM    4  C   UNL     1     -10.422  15.239  66.243  1.00  0.00    -0.313 C  
ENDROOT
BRANCH   3   5
HETATM    5  N   UNL     1     -11.975  15.036  69.802  1.00  0.00    -0.312 N  
HETATM    6  H   UNL     1     -10.294  15.401  72.552  1.00  0.00     0.000 HD 
HETATM    7  O   UNL     1      -9.728  15.371  70.177  1.00  0.00    -0.182 OA 
HETATM    8  C   UNL     1     -13.305  15.279  70.347  1.00  0.00    -0.044 C  
HETATM    9  C   UNL     1     -10.873  15.249  70.602  1.00  0.00    -0.242 C  
HETATM   10  C   UNL     1     -13.442  14.543  71.666  1.00  0.00    -0.452 C  
HETATM   11  N   UNL     1     -11.104  15.260  71.949  1.00  0.00    -0.284 N  
HETATM   12  C   UNL     1     -12.385  15.090  72.603  1.00  0.00    -0.353 C  
ENDBRANCH   3   5
BRANCH   3  13
HETATM   13  C   UNL     1     -11.509  13.186  68.138  1.00  0.00    -0.314 C  
HETATM   14  O   UNL     1     -12.272  12.434  67.541  1.00  0.00    -0.442 OA 
HETATM   15  N   UNL     1     -10.355  12.723  68.737  1.00  0.00    -0.398 N  
HETATM   16  H   UNL     1      -9.770  13.421  69.195  1.00  0.00     0.000 HD 
BRANCH  15  17
HETATM   17  C   UNL     1      -9.878  11.343  68.786  1.00  0.00    -0.164 C  
BRANCH  17  18
HETATM   18  C   UNL     1      -8.825  11.006  67.708  1.00  0.00    -0.133 C  
BRANCH  18  19
HETATM   19  C   UNL     1      -9.193  10.575  66.265  1.00  0.00    -0.168 C  
HETATM   20  O   UNL     1     -10.548  10.943  65.993  1.00  0.00    -0.246 OA 
HETATM   21  H   UNL     1     -10.774  10.679  65.109  1.00  0.00     0.000 HD 
BRANCH  19  22
HETATM   22  C   UNL     1      -9.078   9.009  66.097  1.00  0.00    -0.199 C  
BRANCH  22  23
HETATM   23  N   UNL     1      -8.756   8.572  64.691  1.00  0.00    -0.403 N  
HETATM   24  C   UNL     1      -8.093   7.536  64.067  1.00  0.00    -0.041 C  
HETATM   25  H   UNL     1      -9.134   9.227  64.008  1.00  0.00     0.000 HD 
HETATM   26  O   UNL     1      -8.265   7.382  62.854  1.00  0.00    -0.099 OA 
BRANCH  24  27
HETATM   27  C   UNL     1      -7.081   6.676  64.842  1.00  0.00    -0.057 C  
BRANCH  27  28
HETATM   28  O   UNL     1      -7.075   5.258  64.797  1.00  0.00    -0.055 OA 
BRANCH  28  29
HETATM   29  C   UNL     1      -7.608   4.559  65.872  1.00  0.00    -0.086 A  
HETATM   30  C   UNL     1     -10.114   4.179  65.093  1.00  0.00    -0.219 C  
HETATM   31  C   UNL     1      -8.922   4.039  66.006  1.00  0.00    -0.129 A  
HETATM   32  C   UNL     1      -9.225   3.241  67.136  1.00  0.00    -0.214 A  
HETATM   33  C   UNL     1      -8.294   2.966  68.126  1.00  0.00    -0.095 A  
HETATM   34  C   UNL     1      -7.024   3.503  68.021  1.00  0.00    -0.050 A  
HETATM   35  C   UNL     1      -6.669   4.305  66.917  1.00  0.00    -0.051 A  
HETATM   36  C   UNL     1      -5.269   4.868  66.913  1.00  0.00    -0.008 C  
ENDBRANCH  28  29
ENDBRANCH  27  28
ENDBRANCH  24  27
ENDBRANCH  22  23
BRANCH  22  37
HETATM   37  C   UNL     1      -8.301   8.332  67.258  1.00  0.00    -0.124 C  
BRANCH  37  38
HETATM   38  C   UNL     1      -9.098   7.311  68.023  1.00  0.00    -0.133 A  
HETATM   39  C   UNL     1     -10.655   5.601  69.602  1.00  0.00    -0.401 A  
HETATM   40  C   UNL     1      -8.524   6.617  69.091  1.00  0.00    -0.124 A  
HETATM   41  C   UNL     1     -11.214   6.232  68.498  1.00  0.00    -0.305 A  
HETATM   42  C   UNL     1     -10.424   7.042  67.687  1.00  0.00    -0.301 A  
HETATM   43  C   UNL     1      -9.299   5.766  69.875  1.00  0.00    -0.177 A  
ENDBRANCH  37  38
ENDBRANCH  22  37
ENDBRANCH  19  22
ENDBRANCH  18  19
ENDBRANCH  17  18
BRANCH  17  44
HETATM   44  C   UNL     1     -10.987  10.305  69.067  1.00  0.00    -0.274 C  
BRANCH  44  45
HETATM   45  C   UNL     1     -10.794   9.544  70.365  1.00  0.00    -0.338 A  
HETATM   46  C   UNL     1      -9.521   9.388  70.938  1.00  0.00    -0.279 A  
HETATM   47  C   UNL     1     -11.891   8.955  71.005  1.00  0.00    -0.324 A  
HETATM   48  C   UNL     1      -9.350   8.627  72.100  1.00  0.00    -0.343 A  
HETATM   49  C   UNL     1     -11.719   8.199  72.168  1.00  0.00    -0.418 A  
HETATM   50  C   UNL     1     -10.449   8.027  72.710  1.00  0.00    -0.415 A  
ENDBRANCH  44  45
ENDBRANCH  17  44
ENDBRANCH  15  17
ENDBRANCH   3  13
TORSDOF 14
ENDMDL
MODEL       49
REMARK 921   NORMALIZED FREE ENERGY PREDICTED BY IDOCK:   -5.97 KCAL/MOL
REMARK 922        TOTAL FREE ENERGY PREDICTED BY IDOCK:  -15.42 KCAL/MOL
REMARK 923 INTER-LIGAND FREE ENERGY PREDICTED BY IDOCK:  -12.82 KCAL/MOL
REMARK 924 INTRA-LIGAND FREE ENERGY PREDICTED BY IDOCK:   -2.60 KCAL/MOL
REMARK 927      BINDING AFFINITY PREDICTED BY RF-SCORE:    0.00 PKD
ROOT
HETATM    1  C   UNL     1      -6.081  17.571  66.719  1.00  0.00    -0.219 C  
HETATM    2  C   UNL     1      -6.819  16.632  67.685  1.00  0.00    -0.162 C  
HETATM    3  C   UNL     1      -8.280  16.368  67.206  1.00  0.00    -0.168 C  
HETATM    4  C   UNL     1      -5.986  15.361  67.859  1.00  0.00    -0.165 C  
ENDROOT
BRANCH   3   5
HETATM    5  N   UNL     1      -9.069  17.622  67.152  1.00  0.00    -0.240 N  
HETATM    6  H   UNL     1     -11.033  19.306  65.196  1.00  0.00     0.000 HD 
HETATM    7  O   UNL     1     -10.269  16.989  65.291  1.00  0.00    -0.601 OA 
HETATM    8  C   UNL     1      -9.036  18.565  68.263  1.00  0.00    -0.317 C  
HETATM    9  C   UNL     1      -9.941  17.845  66.108  1.00  0.00    -0.283 C  
HETATM   10  C   UNL     1      -8.879  19.970  67.714  1.00  0.00    -0.379 C  
HETATM   11  N   UNL     1     -10.400  19.124  65.974  1.00  0.00    -0.468 N  
HETATM   12  C   UNL     1     -10.075  20.248  66.827  1.00  0.00    -0.419 C  
ENDBRANCH   3   5
BRANCH   3  13
HETATM   13  C   UNL     1      -8.976  15.255  68.048  1.00  0.00    -0.171 C  
HETATM   14  O   UNL     1      -9.246  15.375  69.237  1.00  0.00    -0.230 OA 
HETATM   15  N   UNL     1      -9.190  14.071  67.370  1.00  0.00    -0.207 N  
HETATM   16  H   UNL     1      -8.952  14.067  66.378  1.00  0.00     0.000 HD 
BRANCH  15  17
HETATM   17  C   UNL     1      -9.719  12.824  67.917  1.00  0.00    -0.217 C  
BRANCH  17  18
HETATM   18  C   UNL     1      -8.761  11.621  67.768  1.00  0.00    -0.152 C  
BRANCH  18  19
HETATM   19  C   UNL     1      -8.329  10.727  68.959  1.00  0.00    -0.136 C  
HETATM   20  O   UNL     1      -7.359  11.424  69.746  1.00  0.00    -0.362 OA 
HETATM   21  H   UNL     1      -7.094  10.876  70.476  1.00  0.00     0.000 HD 
BRANCH  19  22
HETATM   22  C   UNL     1      -7.662   9.390  68.447  1.00  0.00    -0.086 C  
BRANCH  22  23
HETATM   23  N   UNL     1      -7.654   8.285  69.473  1.00  0.00    -0.093 N  
HETATM   24  C   UNL     1      -8.311   7.969  70.643  1.00  0.00    -0.123 C  
HETATM   25  H   UNL     1      -6.970   7.568  69.233  1.00  0.00     0.000 HD 
HETATM   26  O   UNL     1      -8.207   6.818  71.076  1.00  0.00    -0.117 OA 
BRANCH  24  27
HETATM   27  C   UNL     1      -9.051   9.055  71.442  1.00  0.00    -0.201 C  
BRANCH  27  28
HETATM   28  O   UNL     1      -9.938   8.761  72.509  1.00  0.00    -0.245 OA 
BRANCH  28  29
HETATM   29  C   UNL     1     -11.258   8.455  72.208  1.00  0.00    -0.376 A  
HETATM   30  C   UNL     1     -12.120  10.726  71.144  1.00  0.00    -0.415 C  
HETATM   31  C   UNL     1     -12.220   9.283  71.572  1.00  0.00    -0.439 A  
HETATM   32  C   UNL     1     -13.482   8.730  71.242  1.00  0.00    -0.192 A  
HETATM   33  C   UNL     1     -13.820   7.418  71.535  1.00  0.00    -0.483 A  
HETATM   34  C   UNL     1     -12.901   6.618  72.192  1.00  0.00    -0.078 A  
HETATM   35  C   UNL     1     -11.631   7.118  72.544  1.00  0.00    -0.265 A  
HETATM   36  C   UNL     1     -10.715   6.175  73.285  1.00  0.00    -0.282 C  
ENDBRANCH  28  29
ENDBRANCH  27  28
ENDBRANCH  24  27
ENDBRANCH  22  23
BRANCH  22  37
HETATM   37  C   UNL     1      -8.075   9.024  66.996  1.00  0.00    -0.106 C  
BRANCH  37  38
HETATM   38  C   UNL     1      -8.936   7.795  66.891  1.00  0.00    -0.153 A  
HETATM   39  C   UNL     1     -10.600   5.585  66.457  1.00  0.00    -0.343 A  
HETATM   40  C   UNL     1     -10.274   7.829  67.291  1.00  0.00    -0.343 A  
HETATM   41  C   UNL     1      -9.253   5.520  66.122  1.00  0.00    -0.166 A  
HETATM   42  C   UNL     1      -8.419   6.603  66.385  1.00  0.00    -0.125 A  
HETATM   43  C   UNL     1     -11.100   6.728  67.076  1.00  0.00    -0.369 A  
ENDBRANCH  37  38
ENDBRANCH  22  37
ENDBRANCH  19  22
ENDBRANCH  18  19
ENDBRANCH  17  18
BRANCH  17  44
HETATM   44  C   UNL     1     -11.219  12.598  67.630  1.00  0.00    -0.329 C  
BRANCH  44  45
HETATM   45  C   UNL     1     -11.603  12.833  66.182  1.00  0.00    -0.431 A  
HETATM   46  C   UNL     1     -11.337  11.874  65.190  1.00  0.00    -0.328 A  
HETATM   47  C   UNL     1     -12.212  14.035  65.802  1.00  0.00    -0.475 A  
HETATM   48  C   UNL     1     -11.637  12.134  63.848  1.00  0.00    -0.532 A  
HETATM   49  C   UNL     1     -12.515  14.291  64.461  1.00  0.00    -0.357 A  
HETATM   50  C   UNL     1     -12.220  13.346  63.483  1.00  0.00    -0.468 A  
ENDBRANCH  44  45
ENDBRANCH  17  44
ENDBRANCH  15  17
ENDBRANCH   3  13
TORSDOF 14
ENDMDL
MODEL       50
REMARK 921   NORMALIZED FREE ENERGY PREDICTED BY IDOCK:   -5.95 KCAL/MOL
REMARK 922        TOTAL FREE ENERGY PREDICTED BY IDOCK:  -15.37 KCAL/MOL
REMARK 923 INTER-LIGAND FREE ENERGY PREDICTED BY IDOCK:  -11.94 KCAL/MOL
REMARK 924 INTRA-LIGAND FREE ENERGY PREDICTED BY IDOCK:   -3.43 KCAL/MOL
REMARK 927      BINDING AFFINITY PREDICTED BY RF-SCORE:    0.00 PKD
ROOT
HETATM    1  C   UNL     1     -11.669   5.526  72.875  1.00  0.00    -0.216 C  
HETATM    2  C   UNL     1     -11.598   6.508  71.695  1.00  0.00    -0.357 C  
HETATM    3  C   UNL     1     -10.842   5.877  70.485  1.00  0.00    -0.296 C  
HETATM    4  C   UNL     1     -13.018   6.972  71.364  1.00  0.00    -0.395 C  
ENDROOT
BRANCH   3   5
HETATM    5  N   UNL     1      -9.442   5.539  70.836  1.00  0.00    -0.162 N  
HETATM    6  H   UNL     1      -7.346   3.063  70.820  1.00  0.00     0.000 HD 
HETATM    7  O   UNL     1      -9.457   3.542  69.689  1.00  0.00    -0.164 OA 
HETATM    8  C   UNL     1      -8.571   6.534  71.449  1.00  0.00    -0.126 C  
HETATM    9  C   UNL     1      -8.913   4.320  70.467  1.00  0.00    -0.094 C  
HETATM   10  C   UNL     1      -7.824   5.895  72.604  1.00  0.00    -0.101 C  
HETATM   11  N   UNL     1      -7.740   3.970  71.072  1.00  0.00    -0.054 N  
HETATM   12  C   UNL     1      -7.001   4.757  72.037  1.00  0.00    -0.060 C  
ENDBRANCH   3   5
BRANCH   3  13
HETATM   13  C   UNL     1     -10.944   6.767  69.209  1.00  0.00    -0.259 C  
HETATM   14  O   UNL     1     -11.369   6.360  68.132  1.00  0.00    -0.266 OA 
HETATM   15  N   UNL     1     -10.434   8.041  69.354  1.00  0.00    -0.222 N  
HETATM   16  H   UNL     1     -10.120   8.301  70.289  1.00  0.00     0.000 HD 
BRANCH  15  17
HETATM   17  C   UNL     1     -10.293   9.059  68.315  1.00  0.00    -0.209 C  
BRANCH  17  18
HETATM   18  C   UNL     1     -11.327  10.202  68.417  1.00  0.00    -0.179 C  
BRANCH  18  19
HETATM   19  C   UNL     1     -11.252  11.323  69.486  1.00  0.00    -0.272 C  
HETATM   20  O   UNL     1     -12.485  11.368  70.210  1.00  0.00    -0.282 OA 
HETATM   21  H   UNL     1     -12.439  12.055  70.866  1.00  0.00     0.000 HD 
BRANCH  19  22
HETATM   22  C   UNL     1     -11.040  12.734  68.811  1.00  0.00    -0.260 C  
BRANCH  22  23
HETATM   23  N   UNL     1     -10.952  13.872  69.797  1.00  0.00    -0.462 N  
HETATM   24  C   UNL     1     -11.186  15.230  69.816  1.00  0.00    -0.286 C  
HETATM   25  H   UNL     1     -10.627  13.544  70.706  1.00  0.00     0.000 HD 
HETATM   26  O   UNL     1     -11.245  15.795  70.913  1.00  0.00    -0.333 OA 
BRANCH  24  27
HETATM   27  C   UNL     1     -11.253  16.032  68.505  1.00  0.00    -0.374 C  
BRANCH  27  28
HETATM   28  O   UNL     1     -10.139  16.200  67.644  1.00  0.00    -0.239 OA 
BRANCH  28  29
HETATM   29  C   UNL     1      -9.226  17.206  67.929  1.00  0.00    -0.241 A  
HETATM   30  C   UNL     1     -10.665  19.392  67.504  1.00  0.00    -0.570 C  
HETATM   31  C   UNL     1      -9.444  18.609  67.917  1.00  0.00    -0.331 A  
HETATM   32  C   UNL     1      -8.408  19.463  68.366  1.00  0.00    -0.385 A  
HETATM   33  C   UNL     1      -7.181  18.982  68.798  1.00  0.00    -0.358 A  
HETATM   34  C   UNL     1      -6.948  17.619  68.773  1.00  0.00    -0.245 A  
HETATM   35  C   UNL     1      -7.945  16.724  68.335  1.00  0.00    -0.224 A  
HETATM   36  C   UNL     1      -7.579  15.260  68.317  1.00  0.00    -0.112 C  
ENDBRANCH  28  29
ENDBRANCH  27  28
ENDBRANCH  24  27
ENDBRANCH  22  23
BRANCH  22  37
HETATM   37  C   UNL     1     -10.004  12.702  67.654  1.00  0.00    -0.216 C  
BRANCH  37  38
HETATM   38  C   UNL     1     -10.612  12.737  66.279  1.00  0.00    -0.275 A  
HETATM   39  C   UNL     1     -11.796  12.552  63.748  1.00  0.00    -0.577 A  
HETATM   40  C   UNL     1      -9.830  12.477  65.151  1.00  0.00    -0.133 A  
HETATM   41  C   UNL     1     -12.567  12.882  64.856  1.00  0.00    -0.525 A  
HETATM   42  C   UNL     1     -11.965  13.022  66.103  1.00  0.00    -0.488 A  
HETATM   43  C   UNL     1     -10.421  12.386  63.892  1.00  0.00    -0.469 A  
ENDBRANCH  37  38
ENDBRANCH  22  37
ENDBRANCH  19  22
ENDBRANCH  18  19
ENDBRANCH  17  18
BRANCH  17  44
HETATM   44  C   UNL     1      -9.977   8.489  66.915  1.00  0.00    -0.335 C  
BRANCH  44  45
HETATM   45  C   UNL     1      -8.781   9.142  66.248  1.00  0.00    -0.159 A  
HETATM   46  C   UNL     1      -7.896   9.958  66.972  1.00  0.00    -0.102 A  
HETATM   47  C   UNL     1      -8.553   8.961  64.879  1.00  0.00    -0.198 A  
HETATM   48  C   UNL     1      -6.836  10.607  66.329  1.00  0.00    -0.133 A  
HETATM   49  C   UNL     1      -7.491   9.606  64.239  1.00  0.00    -0.125 A  
HETATM   50  C   UNL     1      -6.638  10.436  64.961  1.00  0.00    -0.075 A  
ENDBRANCH  44  45
ENDBRANCH  17  44
ENDBRANCH  15  17
ENDBRANCH   3  13
TORSDOF 14
ENDMDL
MODEL       51
REMARK 921   NORMALIZED FREE ENERGY PREDICTED BY IDOCK:   -5.92 KCAL/MOL
REMARK 922        TOTAL FREE ENERGY PREDICTED BY IDOCK:  -15.31 KCAL/MOL
REMARK 923 INTER-LIGAND FREE ENERGY PREDICTED BY IDOCK:  -11.87 KCAL/MOL
REMARK 924 INTRA-LIGAND FREE ENERGY PREDICTED BY IDOCK:   -3.45 KCAL/MOL
REMARK 927      BINDING AFFINITY PREDICTED BY RF-SCORE:    0.00 PKD
ROOT
HETATM    1  C   UNL     1     -10.059   9.853  64.883  1.00  0.00    -0.055 C  
HETATM    2  C   UNL     1      -9.711   9.997  66.372  1.00  0.00    -0.266 C  
HETATM    3  C   UNL     1     -10.746  10.906  67.105  1.00  0.00    -0.270 C  
HETATM    4  C   UNL     1      -9.578   8.598  66.977  1.00  0.00    -0.240 C  
ENDROOT
BRANCH   3   5
HETATM    5  N   UNL     1     -10.760  12.276  66.543  1.00  0.00    -0.240 N  
HETATM    6  H   UNL     1      -8.943  14.955  66.330  1.00  0.00     0.000 HD 
HETATM    7  O   UNL     1      -8.502  12.609  66.847  1.00  0.00    -0.184 OA 
HETATM    8  C   UNL     1     -11.936  12.777  65.843  1.00  0.00    -0.449 C  
HETATM    9  C   UNL     1      -9.614  13.043  66.563  1.00  0.00    -0.260 C  
HETATM   10  C   UNL     1     -12.234  14.186  66.320  1.00  0.00    -0.474 C  
HETATM   11  N   UNL     1      -9.780  14.374  66.303  1.00  0.00    -0.299 N  
HETATM   12  C   UNL     1     -11.028  15.040  65.992  1.00  0.00    -0.334 C  
ENDBRANCH   3   5
BRANCH   3  13
HETATM   13  C   UNL     1     -10.538  10.892  68.651  1.00  0.00    -0.195 C  
HETATM   14  O   UNL     1      -9.437  10.949  69.187  1.00  0.00    -0.176 OA 
HETATM   15  N   UNL     1     -11.695  10.719  69.384  1.00  0.00    -0.325 N  
HETATM   16  H   UNL     1     -12.568  10.700  68.858  1.00  0.00     0.000 HD 
BRANCH  15  17
HETATM   17  C   UNL     1     -11.806  10.559  70.833  1.00  0.00    -0.355 C  
BRANCH  17  18
HETATM   18  C   UNL     1     -11.390   9.160  71.340  1.00  0.00    -0.414 C  
BRANCH  18  19
HETATM   19  C   UNL     1     -11.377   7.898  70.440  1.00  0.00    -0.194 C  
HETATM   20  O   UNL     1     -12.561   7.133  70.682  1.00  0.00    -0.602 OA 
HETATM   21  H   UNL     1     -12.553   6.360  70.130  1.00  0.00     0.000 HD 
BRANCH  19  22
HETATM   22  C   UNL     1     -10.136   6.980  70.772  1.00  0.00    -0.194 C  
BRANCH  22  23
HETATM   23  N   UNL     1      -9.337   7.447  71.963  1.00  0.00    -0.132 N  
HETATM   24  C   UNL     1      -8.315   8.333  72.226  1.00  0.00    -0.169 C  
HETATM   25  H   UNL     1      -9.638   6.972  72.813  1.00  0.00     0.000 HD 
HETATM   26  O   UNL     1      -8.094   8.634  73.403  1.00  0.00    -0.411 OA 
BRANCH  24  27
HETATM   27  C   UNL     1      -7.404   8.837  71.093  1.00  0.00    -0.097 C  
BRANCH  27  28
HETATM   28  O   UNL     1      -6.299   8.096  70.601  1.00  0.00    -0.036 OA 
BRANCH  28  29
HETATM   29  C   UNL     1      -6.374   7.565  69.321  1.00  0.00    -0.035 A  
HETATM   30  C   UNL     1      -6.063   9.723  67.812  1.00  0.00    -0.051 C  
HETATM   31  C   UNL     1      -6.231   8.249  68.085  1.00  0.00    -0.051 A  
HETATM   32  C   UNL     1      -6.215   7.494  66.887  1.00  0.00    -0.048 A  
HETATM   33  C   UNL     1      -6.355   6.115  66.874  1.00  0.00    -0.044 A  
HETATM   34  C   UNL     1      -6.536   5.447  68.072  1.00  0.00    -0.049 A  
HETATM   35  C   UNL     1      -6.560   6.149  69.293  1.00  0.00    -0.047 A  
HETATM   36  C   UNL     1      -6.795   5.331  70.539  1.00  0.00    -0.051 C  
ENDBRANCH  28  29
ENDBRANCH  27  28
ENDBRANCH  24  27
ENDBRANCH  22  23
BRANCH  22  37
HETATM   37  C   UNL     1     -10.460   5.465  70.671  1.00  0.00    -0.329 C  
BRANCH  37  38
HETATM   38  C   UNL     1     -10.142   4.853  69.334  1.00  0.00    -0.270 A  
HETATM   39  C   UNL     1      -9.321   3.829  66.860  1.00  0.00    -0.214 A  
HETATM   40  C   UNL     1     -10.451   5.530  68.152  1.00  0.00    -0.231 A  
HETATM   41  C   UNL     1      -9.074   3.116  68.027  1.00  0.00    -0.218 A  
HETATM   42  C   UNL     1      -9.528   3.604  69.248  1.00  0.00    -0.244 A  
HETATM   43  C   UNL     1     -10.043   5.019  66.922  1.00  0.00    -0.261 A  
ENDBRANCH  37  38
ENDBRANCH  22  37
ENDBRANCH  19  22
ENDBRANCH  18  19
ENDBRANCH  17  18
BRANCH  17  44
HETATM   44  C   UNL     1     -13.069  11.205  71.441  1.00  0.00    -0.422 C  
BRANCH  44  45
HETATM   45  C   UNL     1     -13.033  12.722  71.447  1.00  0.00    -0.359 A  
HETATM   46  C   UNL     1     -12.169  13.436  70.601  1.00  0.00    -0.427 A  
HETATM   47  C   UNL     1     -13.853  13.441  72.325  1.00  0.00    -0.671 A  
HETATM   48  C   UNL     1     -12.100  14.832  70.666  1.00  0.00    -0.374 A  
HETATM   49  C   UNL     1     -13.786  14.836  72.386  1.00  0.00    -0.576 A  
HETATM   50  C   UNL     1     -12.903  15.531  71.564  1.00  0.00    -0.519 A  
ENDBRANCH  44  45
ENDBRANCH  17  44
ENDBRANCH  15  17
ENDBRANCH   3  13
TORSDOF 14
ENDMDL
MODEL       52
REMARK 921   NORMALIZED FREE ENERGY PREDICTED BY IDOCK:   -5.91 KCAL/MOL
REMARK 922        TOTAL FREE ENERGY PREDICTED BY IDOCK:  -15.30 KCAL/MOL
REMARK 923 INTER-LIGAND FREE ENERGY PREDICTED BY IDOCK:  -12.98 KCAL/MOL
REMARK 924 INTRA-LIGAND FREE ENERGY PREDICTED BY IDOCK:   -2.33 KCAL/MOL
REMARK 927      BINDING AFFINITY PREDICTED BY RF-SCORE:    0.00 PKD
ROOT
HETATM    1  C   UNL     1      -8.575   6.636  67.661  1.00  0.00    -0.120 C  
HETATM    2  C   UNL     1      -9.618   7.743  67.880  1.00  0.00    -0.167 C  
HETATM    3  C   UNL     1      -9.209   9.054  67.139  1.00  0.00    -0.134 C  
HETATM    4  C   UNL     1     -10.990   7.204  67.473  1.00  0.00    -0.261 C  
ENDROOT
BRANCH   3   5
HETATM    5  N   UNL     1      -7.921   9.585  67.643  1.00  0.00    -0.105 N  
HETATM    6  H   UNL     1      -4.946  10.407  66.646  1.00  0.00     0.000 HD 
HETATM    7  O   UNL     1      -7.098  10.059  65.546  1.00  0.00    -0.117 OA 
HETATM    8  C   UNL     1      -7.736   9.850  69.065  1.00  0.00    -0.089 C  
HETATM    9  C   UNL     1      -6.932   9.954  66.757  1.00  0.00    -0.089 C  
HETATM   10  C   UNL     1      -6.388   9.306  69.498  1.00  0.00    -0.043 C  
HETATM   11  N   UNL     1      -5.690  10.149  67.293  1.00  0.00    -0.045 N  
HETATM   12  C   UNL     1      -5.327  10.024  68.689  1.00  0.00    -0.039 C  
ENDBRANCH   3   5
BRANCH   3  13
HETATM   13  C   UNL     1     -10.351  10.117  67.167  1.00  0.00    -0.238 C  
HETATM   14  O   UNL     1     -10.767  10.689  66.166  1.00  0.00    -0.180 OA 
HETATM   15  N   UNL     1     -10.807  10.436  68.429  1.00  0.00    -0.227 N  
HETATM   16  H   UNL     1     -10.419   9.896  69.203  1.00  0.00     0.000 HD 
BRANCH  15  17
HETATM   17  C   UNL     1     -11.785  11.464  68.780  1.00  0.00    -0.339 C  
BRANCH  17  18
HETATM   18  C   UNL     1     -11.713  12.724  67.891  1.00  0.00    -0.408 C  
BRANCH  18  19
HETATM   19  C   UNL     1     -10.562  13.760  67.977  1.00  0.00    -0.252 C  
HETATM   20  O   UNL     1      -9.535  13.255  68.835  1.00  0.00    -0.403 OA 
HETATM   21  H   UNL     1      -8.830  13.890  68.888  1.00  0.00     0.000 HD 
BRANCH  19  22
HETATM   22  C   UNL     1     -11.073  15.122  68.590  1.00  0.00    -0.271 C  
BRANCH  22  23
HETATM   23  N   UNL     1     -10.682  16.335  67.783  1.00  0.00    -0.323 N  
HETATM   24  C   UNL     1      -9.545  17.072  67.529  1.00  0.00    -0.249 C  
HETATM   25  H   UNL     1     -11.485  16.718  67.286  1.00  0.00     0.000 HD 
HETATM   26  O   UNL     1      -9.568  17.870  66.587  1.00  0.00    -0.287 OA 
BRANCH  24  27
HETATM   27  C   UNL     1      -8.330  16.986  68.467  1.00  0.00    -0.260 C  
BRANCH  27  28
HETATM   28  O   UNL     1      -7.019  17.357  68.072  1.00  0.00    -0.177 OA 
BRANCH  28  29
HETATM   29  C   UNL     1      -6.477  18.525  68.590  1.00  0.00    -0.231 A  
HETATM   30  C   UNL     1      -7.478  20.364  66.962  1.00  0.00    -0.356 C  
HETATM   31  C   UNL     1      -6.696  19.857  68.148  1.00  0.00    -0.313 A  
HETATM   32  C   UNL     1      -6.143  20.923  68.899  1.00  0.00    -0.225 A  
HETATM   33  C   UNL     1      -5.378  20.714  70.036  1.00  0.00    -0.377 A  
HETATM   34  C   UNL     1      -5.127  19.417  70.448  1.00  0.00    -0.218 A  
HETATM   35  C   UNL     1      -5.652  18.320  69.738  1.00  0.00    -0.225 A  
HETATM   36  C   UNL     1      -5.293  16.947  70.251  1.00  0.00    -0.213 C  
ENDBRANCH  28  29
ENDBRANCH  27  28
ENDBRANCH  24  27
ENDBRANCH  22  23
BRANCH  22  37
HETATM   37  C   UNL     1     -12.535  15.042  69.107  1.00  0.00     0.023 C  
BRANCH  37  38
HETATM   38  C   UNL     1     -12.680  15.267  70.587  1.00  0.00    -0.470 A  
HETATM   39  C   UNL     1     -12.959  15.429  73.369  1.00  0.00    -0.662 A  
HETATM   40  C   UNL     1     -13.945  15.409  71.163  1.00  0.00    -0.410 A  
HETATM   41  C   UNL     1     -11.695  15.360  72.798  1.00  0.00    -0.535 A  
HETATM   42  C   UNL     1     -11.559  15.329  71.413  1.00  0.00    -0.446 A  
HETATM   43  C   UNL     1     -14.083  15.491  72.547  1.00  0.00    -0.595 A  
ENDBRANCH  37  38
ENDBRANCH  22  37
ENDBRANCH  19  22
ENDBRANCH  18  19
ENDBRANCH  17  18
BRANCH  17  44
HETATM   44  C   UNL     1     -11.975  11.657  70.300  1.00  0.00    -0.445 C  
BRANCH  44  45
HETATM   45  C   UNL     1     -12.103  10.355  71.068  1.00  0.00    -0.488 A  
HETATM   46  C   UNL     1     -10.987   9.536  71.308  1.00  0.00    -0.440 A  
HETATM   47  C   UNL     1     -13.354   9.932  71.532  1.00  0.00    -0.462 A  
HETATM   48  C   UNL     1     -11.132   8.306  71.960  1.00  0.00    -0.379 A  
HETATM   49  C   UNL     1     -13.496   8.705  72.186  1.00  0.00    -0.434 A  
HETATM   50  C   UNL     1     -12.388   7.888  72.392  1.00  0.00    -0.253 A  
ENDBRANCH  44  45
ENDBRANCH  17  44
ENDBRANCH  15  17
ENDBRANCH   3  13
TORSDOF 14
ENDMDL
MODEL       53
REMARK 921   NORMALIZED FREE ENERGY PREDICTED BY IDOCK:   -5.90 KCAL/MOL
REMARK 922        TOTAL FREE ENERGY PREDICTED BY IDOCK:  -15.29 KCAL/MOL
REMARK 923 INTER-LIGAND FREE ENERGY PREDICTED BY IDOCK:  -12.15 KCAL/MOL
REMARK 924 INTRA-LIGAND FREE ENERGY PREDICTED BY IDOCK:   -3.14 KCAL/MOL
REMARK 927      BINDING AFFINITY PREDICTED BY RF-SCORE:    0.00 PKD
ROOT
HETATM    1  C   UNL     1      -6.799   4.958  69.443  1.00  0.00    -0.053 C  
HETATM    2  C   UNL     1      -7.965   5.794  69.994  1.00  0.00    -0.099 C  
HETATM    3  C   UNL     1      -8.966   6.178  68.860  1.00  0.00    -0.124 C  
HETATM    4  C   UNL     1      -8.606   5.028  71.153  1.00  0.00    -0.131 C  
ENDROOT
BRANCH   3   5
HETATM    5  N   UNL     1      -8.314   7.002  67.816  1.00  0.00    -0.117 N  
HETATM    6  H   UNL     1      -7.744   7.074  64.623  1.00  0.00     0.000 HD 
HETATM    7  O   UNL     1      -9.313   5.884  66.068  1.00  0.00    -0.158 OA 
HETATM    8  C   UNL     1      -7.598   8.220  68.174  1.00  0.00    -0.098 C  
HETATM    9  C   UNL     1      -8.489   6.694  66.484  1.00  0.00    -0.121 C  
HETATM   10  C   UNL     1      -6.276   8.254  67.430  1.00  0.00    -0.056 C  
HETATM   11  N   UNL     1      -7.635   7.305  65.610  1.00  0.00    -0.084 N  
HETATM   12  C   UNL     1      -6.589   8.248  65.948  1.00  0.00    -0.053 C  
ENDBRANCH   3   5
BRANCH   3  13
HETATM   13  C   UNL     1     -10.260   6.837  69.428  1.00  0.00    -0.187 C  
HETATM   14  O   UNL     1     -11.387   6.399  69.226  1.00  0.00    -0.379 OA 
HETATM   15  N   UNL     1     -10.051   8.018  70.111  1.00  0.00    -0.192 N  
HETATM   16  H   UNL     1      -9.080   8.298  70.248  1.00  0.00     0.000 HD 
BRANCH  15  17
HETATM   17  C   UNL     1     -11.068   8.912  70.659  1.00  0.00    -0.262 C  
BRANCH  17  18
HETATM   18  C   UNL     1     -10.822  10.405  70.346  1.00  0.00    -0.257 C  
BRANCH  18  19
HETATM   19  C   UNL     1     -11.842  11.293  69.588  1.00  0.00    -0.360 C  
HETATM   20  O   UNL     1     -12.244  10.631  68.385  1.00  0.00    -0.822 OA 
HETATM   21  H   UNL     1     -12.868  11.175  67.920  1.00  0.00     0.000 HD 
BRANCH  19  22
HETATM   22  C   UNL     1     -11.194  12.675  69.181  1.00  0.00    -0.243 C  
BRANCH  22  23
HETATM   23  N   UNL     1     -11.287  13.728  70.256  1.00  0.00    -0.494 N  
HETATM   24  C   UNL     1     -11.462  15.093  70.340  1.00  0.00    -0.286 C  
HETATM   25  H   UNL     1     -11.195  13.314  71.183  1.00  0.00     0.000 HD 
HETATM   26  O   UNL     1     -11.747  15.577  71.439  1.00  0.00    -0.329 OA 
BRANCH  24  27
HETATM   27  C   UNL     1     -11.191  15.993  69.122  1.00  0.00    -0.342 C  
BRANCH  27  28
HETATM   28  O   UNL     1     -10.440  17.194  69.199  1.00  0.00    -0.323 OA 
BRANCH  28  29
HETATM   29  C   UNL     1      -9.321  17.329  68.389  1.00  0.00    -0.275 A  
HETATM   30  C   UNL     1      -7.859  15.240  69.118  1.00  0.00    -0.204 C  
HETATM   31  C   UNL     1      -8.198  16.464  68.304  1.00  0.00    -0.177 A  
HETATM   32  C   UNL     1      -7.217  16.717  67.315  1.00  0.00    -0.204 A  
HETATM   33  C   UNL     1      -7.300  17.790  66.441  1.00  0.00    -0.310 A  
HETATM   34  C   UNL     1      -8.371  18.660  66.545  1.00  0.00    -0.304 A  
HETATM   35  C   UNL     1      -9.375  18.455  67.512  1.00  0.00    -0.270 A  
HETATM   36  C   UNL     1     -10.483  19.478  67.564  1.00  0.00    -0.596 C  
ENDBRANCH  28  29
ENDBRANCH  27  28
ENDBRANCH  24  27
ENDBRANCH  22  23
BRANCH  22  37
HETATM   37  C   UNL     1      -9.836  12.513  68.447  1.00  0.00    -0.202 C  
BRANCH  37  38
HETATM   38  C   UNL     1      -9.920  12.660  66.952  1.00  0.00    -0.232 A  
HETATM   39  C   UNL     1     -10.331  12.900  64.193  1.00  0.00    -0.385 A  
HETATM   40  C   UNL     1      -9.810  11.542  66.122  1.00  0.00    -0.250 A  
HETATM   41  C   UNL     1     -10.371  14.027  65.003  1.00  0.00    -0.432 A  
HETATM   42  C   UNL     1     -10.117  13.910  66.367  1.00  0.00    -0.298 A  
HETATM   43  C   UNL     1     -10.014  11.662  64.749  1.00  0.00    -0.292 A  
ENDBRANCH  37  38
ENDBRANCH  22  37
ENDBRANCH  19  22
ENDBRANCH  18  19
ENDBRANCH  17  18
BRANCH  17  44
HETATM   44  C   UNL     1     -11.535   8.537  72.082  1.00  0.00    -0.446 C  
BRANCH  44  45
HETATM   45  C   UNL     1     -10.456   7.878  72.922  1.00  0.00    -0.422 A  
HETATM   46  C   UNL     1     -10.726   6.736  73.694  1.00  0.00    -0.280 A  
HETATM   47  C   UNL     1      -9.166   8.421  72.961  1.00  0.00    -0.256 A  
HETATM   48  C   UNL     1      -9.738   6.180  74.514  1.00  0.00    -0.287 A  
HETATM   49  C   UNL     1      -8.179   7.862  73.778  1.00  0.00    -0.277 A  
HETATM   50  C   UNL     1      -8.467   6.748  74.562  1.00  0.00    -0.183 A  
ENDBRANCH  44  45
ENDBRANCH  17  44
ENDBRANCH  15  17
ENDBRANCH   3  13
TORSDOF 14
ENDMDL
MODEL       54
REMARK 921   NORMALIZED FREE ENERGY PREDICTED BY IDOCK:   -5.90 KCAL/MOL
REMARK 922        TOTAL FREE ENERGY PREDICTED BY IDOCK:  -15.28 KCAL/MOL
REMARK 923 INTER-LIGAND FREE ENERGY PREDICTED BY IDOCK:  -10.53 KCAL/MOL
REMARK 924 INTRA-LIGAND FREE ENERGY PREDICTED BY IDOCK:   -4.75 KCAL/MOL
REMARK 927      BINDING AFFINITY PREDICTED BY RF-SCORE:    0.00 PKD
ROOT
HETATM    1  C   UNL     1     -13.311  12.616  72.099  1.00  0.00    -0.570 C  
HETATM    2  C   UNL     1     -12.288  12.518  70.957  1.00  0.00    -0.307 C  
HETATM    3  C   UNL     1     -12.520  11.234  70.103  1.00  0.00    -0.221 C  
HETATM    4  C   UNL     1     -12.338  13.817  70.149  1.00  0.00    -0.390 C  
ENDROOT
BRANCH   3   5
HETATM    5  N   UNL     1     -12.361  10.005  70.915  1.00  0.00    -0.325 N  
HETATM    6  H   UNL     1     -10.170   7.748  71.708  1.00  0.00     0.000 HD 
HETATM    7  O   UNL     1     -10.063  10.001  70.772  1.00  0.00    -0.125 OA 
HETATM    8  C   UNL     1     -13.493   9.451  71.649  1.00  0.00    -0.394 C  
HETATM    9  C   UNL     1     -11.112   9.448  71.088  1.00  0.00    -0.362 C  
HETATM   10  C   UNL     1     -13.534   7.950  71.437  1.00  0.00    -0.290 C  
HETATM   11  N   UNL     1     -11.088   8.177  71.590  1.00  0.00    -0.245 N  
HETATM   12  C   UNL     1     -12.236   7.381  71.970  1.00  0.00    -0.280 C  
ENDBRANCH   3   5
BRANCH   3  13
HETATM   13  C   UNL     1     -11.637  11.224  68.817  1.00  0.00    -0.316 C  
HETATM   14  O   UNL     1     -11.856  10.501  67.851  1.00  0.00    -0.400 OA 
HETATM   15  N   UNL     1     -10.523  12.036  68.879  1.00  0.00    -0.370 N  
HETATM   16  H   UNL     1     -10.430  12.617  69.712  1.00  0.00     0.000 HD 
BRANCH  15  17
HETATM   17  C   UNL     1      -9.461  12.155  67.883  1.00  0.00    -0.195 C  
BRANCH  17  18
HETATM   18  C   UNL     1      -8.044  11.918  68.449  1.00  0.00    -0.155 C  
BRANCH  18  19
HETATM   19  C   UNL     1      -6.988  11.021  67.752  1.00  0.00    -0.080 C  
HETATM   20  O   UNL     1      -6.942  11.343  66.359  1.00  0.00    -0.299 OA 
HETATM   21  H   UNL     1      -6.295  10.793  65.931  1.00  0.00     0.000 HD 
BRANCH  19  22
HETATM   22  C   UNL     1      -7.371   9.495  67.880  1.00  0.00    -0.083 C  
BRANCH  22  23
HETATM   23  N   UNL     1      -7.619   9.048  69.299  1.00  0.00    -0.077 N  
HETATM   24  C   UNL     1      -7.450   7.910  70.058  1.00  0.00    -0.079 C  
HETATM   25  H   UNL     1      -8.026   9.800  69.853  1.00  0.00     0.000 HD 
HETATM   26  O   UNL     1      -7.539   8.010  71.285  1.00  0.00    -0.072 OA 
BRANCH  24  27
HETATM   27  C   UNL     1      -7.277   6.538  69.384  1.00  0.00    -0.086 C  
BRANCH  27  28
HETATM   28  O   UNL     1      -8.332   5.600  69.255  1.00  0.00    -0.104 OA 
BRANCH  28  29
HETATM   29  C   UNL     1      -8.710   5.197  67.982  1.00  0.00    -0.102 A  
HETATM   30  C   UNL     1      -6.688   3.632  67.278  1.00  0.00    -0.046 C  
HETATM   31  C   UNL     1      -8.029   4.303  67.114  1.00  0.00    -0.097 A  
HETATM   32  C   UNL     1      -8.653   3.924  65.901  1.00  0.00    -0.111 A  
HETATM   33  C   UNL     1      -9.895   4.409  65.519  1.00  0.00    -0.225 A  
HETATM   34  C   UNL     1     -10.545   5.312  66.341  1.00  0.00    -0.338 A  
HETATM   35  C   UNL     1      -9.968   5.723  67.559  1.00  0.00    -0.171 A  
HETATM   36  C   UNL     1     -10.744   6.735  68.367  1.00  0.00    -0.284 C  
ENDBRANCH  28  29
ENDBRANCH  27  28
ENDBRANCH  24  27
ENDBRANCH  22  23
BRANCH  22  37
HETATM   37  C   UNL     1      -8.377   9.030  66.792  1.00  0.00    -0.115 C  
BRANCH  37  38
HETATM   38  C   UNL     1      -7.770   8.179  65.712  1.00  0.00    -0.092 A  
HETATM   39  C   UNL     1      -6.790   6.402  63.781  1.00  0.00    -0.041 A  
HETATM   40  C   UNL     1      -6.623   7.421  65.965  1.00  0.00    -0.049 A  
HETATM   41  C   UNL     1      -7.887   7.205  63.497  1.00  0.00    -0.103 A  
HETATM   42  C   UNL     1      -8.341   8.122  64.441  1.00  0.00    -0.050 A  
HETATM   43  C   UNL     1      -6.136   6.539  65.004  1.00  0.00    -0.037 A  
ENDBRANCH  37  38
ENDBRANCH  22  37
ENDBRANCH  19  22
ENDBRANCH  18  19
ENDBRANCH  17  18
BRANCH  17  44
HETATM   44  C   UNL     1      -9.660  13.319  66.888  1.00  0.00    -0.249 C  
BRANCH  44  45
HETATM   45  C   UNL     1     -10.560  12.971  65.717  1.00  0.00    -0.291 A  
HETATM   46  C   UNL     1     -11.929  13.287  65.728  1.00  0.00    -0.463 A  
HETATM   47  C   UNL     1     -10.039  12.298  64.605  1.00  0.00    -0.275 A  
HETATM   48  C   UNL     1     -12.759  12.900  64.670  1.00  0.00    -0.403 A  
HETATM   49  C   UNL     1     -10.869  11.916  63.547  1.00  0.00    -0.502 A  
HETATM   50  C   UNL     1     -12.230  12.208  63.583  1.00  0.00    -0.663 A  
ENDBRANCH  44  45
ENDBRANCH  17  44
ENDBRANCH  15  17
ENDBRANCH   3  13
TORSDOF 14
ENDMDL
MODEL       55
REMARK 921   NORMALIZED FREE ENERGY PREDICTED BY IDOCK:   -5.88 KCAL/MOL
REMARK 922        TOTAL FREE ENERGY PREDICTED BY IDOCK:  -15.24 KCAL/MOL
REMARK 923 INTER-LIGAND FREE ENERGY PREDICTED BY IDOCK:  -12.47 KCAL/MOL
REMARK 924 INTRA-LIGAND FREE ENERGY PREDICTED BY IDOCK:   -2.77 KCAL/MOL
REMARK 927      BINDING AFFINITY PREDICTED BY RF-SCORE:    0.00 PKD
ROOT
HETATM    1  C   UNL     1     -12.578   7.051  71.133  1.00  0.00    -0.387 C  
HETATM    2  C   UNL     1     -11.371   7.998  71.220  1.00  0.00    -0.295 C  
HETATM    3  C   UNL     1     -10.629   8.089  69.851  1.00  0.00    -0.242 C  
HETATM    4  C   UNL     1     -11.851   9.349  71.755  1.00  0.00    -0.452 C  
ENDROOT
BRANCH   3   5
HETATM    5  N   UNL     1     -10.099   6.770  69.432  1.00  0.00    -0.167 N  
HETATM    6  H   UNL     1     -10.038   4.746  66.898  1.00  0.00     0.000 HD 
HETATM    7  O   UNL     1     -10.519   7.121  67.195  1.00  0.00    -0.252 OA 
HETATM    8  C   UNL     1      -9.356   5.938  70.370  1.00  0.00    -0.159 C  
HETATM    9  C   UNL     1     -10.193   6.376  68.114  1.00  0.00    -0.167 C  
HETATM   10  C   UNL     1      -9.853   4.509  70.265  1.00  0.00    -0.299 C  
HETATM   11  N   UNL     1      -9.957   5.053  67.867  1.00  0.00    -0.153 N  
HETATM   12  C   UNL     1      -9.604   4.045  68.845  1.00  0.00    -0.143 C  
ENDBRANCH   3   5
BRANCH   3  13
HETATM   13  C   UNL     1      -9.537   9.202  69.856  1.00  0.00    -0.192 C  
HETATM   14  O   UNL     1      -8.853   9.476  70.836  1.00  0.00    -0.229 OA 
HETATM   15  N   UNL     1      -9.453   9.929  68.685  1.00  0.00    -0.149 N  
HETATM   16  H   UNL     1     -10.045   9.620  67.915  1.00  0.00     0.000 HD 
BRANCH  15  17
HETATM   17  C   UNL     1      -8.608  11.094  68.428  1.00  0.00    -0.152 C  
BRANCH  17  18
HETATM   18  C   UNL     1      -9.400  12.382  68.115  1.00  0.00    -0.209 C  
BRANCH  18  19
HETATM   19  C   UNL     1     -10.793  12.693  68.722  1.00  0.00    -0.231 C  
HETATM   20  O   UNL     1     -11.806  12.078  67.921  1.00  0.00    -0.457 OA 
HETATM   21  H   UNL     1     -12.659  12.268  68.292  1.00  0.00     0.000 HD 
BRANCH  19  22
HETATM   22  C   UNL     1     -11.069  14.247  68.736  1.00  0.00    -0.256 C  
BRANCH  22  23
HETATM   23  N   UNL     1     -10.486  14.978  67.552  1.00  0.00    -0.252 N  
HETATM   24  C   UNL     1      -9.977  16.227  67.270  1.00  0.00    -0.250 C  
HETATM   25  H   UNL     1     -10.461  14.378  66.728  1.00  0.00     0.000 HD 
HETATM   26  O   UNL     1      -9.342  16.374  66.222  1.00  0.00    -0.272 OA 
BRANCH  24  27
HETATM   27  C   UNL     1     -10.295  17.426  68.180  1.00  0.00    -0.366 C  
BRANCH  27  28
HETATM   28  O   UNL     1      -9.311  18.094  68.954  1.00  0.00    -0.268 OA 
BRANCH  28  29
HETATM   29  C   UNL     1      -8.333  18.824  68.294  1.00  0.00    -0.330 A  
HETATM   30  C   UNL     1      -9.773  20.655  67.027  1.00  0.00    -0.485 C  
HETATM   31  C   UNL     1      -8.506  19.975  67.480  1.00  0.00    -0.393 A  
HETATM   32  C   UNL     1      -7.356  20.649  67.001  1.00  0.00    -0.370 A  
HETATM   33  C   UNL     1      -6.069  20.217  67.280  1.00  0.00    -0.209 A  
HETATM   34  C   UNL     1      -5.894  19.073  68.038  1.00  0.00    -0.205 A  
HETATM   35  C   UNL     1      -7.004  18.363  68.539  1.00  0.00    -0.273 A  
HETATM   36  C   UNL     1      -6.706  17.112  69.329  1.00  0.00    -0.228 C  
ENDBRANCH  28  29
ENDBRANCH  27  28
ENDBRANCH  24  27
ENDBRANCH  22  23
BRANCH  22  37
HETATM   37  C   UNL     1     -12.522  14.600  69.155  1.00  0.00    -0.013 C  
BRANCH  37  38
HETATM   38  C   UNL     1     -12.679  14.943  70.611  1.00  0.00    -0.422 A  
HETATM   39  C   UNL     1     -12.993  15.829  73.249  1.00  0.00    -0.675 A  
HETATM   40  C   UNL     1     -11.561  15.236  71.396  1.00  0.00    -0.446 A  
HETATM   41  C   UNL     1     -14.105  15.471  72.497  1.00  0.00    -0.595 A  
HETATM   42  C   UNL     1     -13.941  14.984  71.203  1.00  0.00    -0.451 A  
HETATM   43  C   UNL     1     -11.718  15.675  72.708  1.00  0.00    -0.537 A  
ENDBRANCH  37  38
ENDBRANCH  22  37
ENDBRANCH  19  22
ENDBRANCH  18  19
ENDBRANCH  17  18
BRANCH  17  44
HETATM   44  C   UNL     1      -7.356  10.787  67.579  1.00  0.00    -0.092 C  
BRANCH  44  45
HETATM   45  C   UNL     1      -7.634   9.893  66.386  1.00  0.00    -0.101 A  
HETATM   46  C   UNL     1      -8.293  10.380  65.245  1.00  0.00    -0.166 A  
HETATM   47  C   UNL     1      -7.257   8.545  66.415  1.00  0.00    -0.079 A  
HETATM   48  C   UNL     1      -8.601   9.526  64.180  1.00  0.00    -0.217 A  
HETATM   49  C   UNL     1      -7.562   7.694  65.348  1.00  0.00    -0.094 A  
HETATM   50  C   UNL     1      -8.242   8.181  64.236  1.00  0.00    -0.095 A  
ENDBRANCH  44  45
ENDBRANCH  17  44
ENDBRANCH  15  17
ENDBRANCH   3  13
TORSDOF 14
ENDMDL
MODEL       56
REMARK 921   NORMALIZED FREE ENERGY PREDICTED BY IDOCK:   -5.86 KCAL/MOL
REMARK 922        TOTAL FREE ENERGY PREDICTED BY IDOCK:  -15.21 KCAL/MOL
REMARK 923 INTER-LIGAND FREE ENERGY PREDICTED BY IDOCK:  -11.88 KCAL/MOL
REMARK 924 INTRA-LIGAND FREE ENERGY PREDICTED BY IDOCK:   -3.33 KCAL/MOL
REMARK 927      BINDING AFFINITY PREDICTED BY RF-SCORE:    0.00 PKD
ROOT
HETATM    1  C   UNL     1     -12.034  15.179  69.733  1.00  0.00    -0.367 C  
HETATM    2  C   UNL     1     -12.209  13.731  69.250  1.00  0.00    -0.307 C  
HETATM    3  C   UNL     1     -11.176  13.383  68.135  1.00  0.00    -0.273 C  
HETATM    4  C   UNL     1     -12.145  12.803  70.466  1.00  0.00    -0.369 C  
ENDROOT
BRANCH   3   5
HETATM    5  N   UNL     1     -11.351  14.247  66.944  1.00  0.00    -0.329 N  
HETATM    6  H   UNL     1     -12.611  14.230  63.954  1.00  0.00     0.000 HD 
HETATM    7  O   UNL     1     -12.910  12.868  65.959  1.00  0.00    -0.249 OA 
HETATM    8  C   UNL     1     -10.790  15.592  66.916  1.00  0.00    -0.301 C  
HETATM    9  C   UNL     1     -12.155  13.834  65.903  1.00  0.00    -0.433 C  
HETATM   10  C   UNL     1     -10.107  15.816  65.580  1.00  0.00    -0.401 C  
HETATM   11  N   UNL     1     -12.032  14.535  64.737  1.00  0.00    -0.424 N  
HETATM   12  C   UNL     1     -11.161  15.667  64.502  1.00  0.00    -0.286 C  
ENDBRANCH   3   5
BRANCH   3  13
HETATM   13  C   UNL     1     -11.191  11.863  67.783  1.00  0.00    -0.267 C  
HETATM   14  O   UNL     1     -12.015  11.073  68.232  1.00  0.00    -0.593 OA 
HETATM   15  N   UNL     1     -10.143  11.447  66.989  1.00  0.00    -0.204 N  
HETATM   16  H   UNL     1      -9.516  12.174  66.645  1.00  0.00     0.000 HD 
BRANCH  15  17
HETATM   17  C   UNL     1      -9.831  10.077  66.585  1.00  0.00    -0.203 C  
BRANCH  17  18
HETATM   18  C   UNL     1     -10.653   9.004  67.332  1.00  0.00    -0.309 C  
BRANCH  18  19
HETATM   19  C   UNL     1     -10.330   7.489  67.267  1.00  0.00    -0.296 C  
HETATM   20  O   UNL     1     -11.460   6.786  66.742  1.00  0.00    -0.733 OA 
HETATM   21  H   UNL     1     -11.262   5.858  66.703  1.00  0.00     0.000 HD 
BRANCH  19  22
HETATM   22  C   UNL     1     -10.033   6.913  68.708  1.00  0.00    -0.153 C  
BRANCH  22  23
HETATM   23  N   UNL     1      -8.949   5.865  68.731  1.00  0.00    -0.117 N  
HETATM   24  C   UNL     1      -8.758   4.602  69.248  1.00  0.00    -0.086 C  
HETATM   25  H   UNL     1      -8.125   6.180  68.221  1.00  0.00     0.000 HD 
HETATM   26  O   UNL     1      -7.804   3.940  68.830  1.00  0.00    -0.063 OA 
BRANCH  24  27
HETATM   27  C   UNL     1      -9.640   4.085  70.397  1.00  0.00    -0.195 C  
BRANCH  27  28
HETATM   28  O   UNL     1      -9.214   4.061  71.750  1.00  0.00    -0.117 OA 
BRANCH  28  29
HETATM   29  C   UNL     1      -9.063   5.268  72.419  1.00  0.00    -0.134 A  
HETATM   30  C   UNL     1      -6.651   6.037  71.631  1.00  0.00    -0.054 C  
HETATM   31  C   UNL     1      -7.970   6.171  72.350  1.00  0.00    -0.105 A  
HETATM   32  C   UNL     1      -8.072   7.416  73.018  1.00  0.00    -0.128 A  
HETATM   33  C   UNL     1      -9.190   7.777  73.753  1.00  0.00    -0.316 A  
HETATM   34  C   UNL     1     -10.242   6.884  73.858  1.00  0.00    -0.401 A  
HETATM   35  C   UNL     1     -10.192   5.632  73.214  1.00  0.00    -0.217 A  
HETATM   36  C   UNL     1     -11.377   4.719  73.417  1.00  0.00    -0.397 C  
ENDBRANCH  28  29
ENDBRANCH  27  28
ENDBRANCH  24  27
ENDBRANCH  22  23
BRANCH  22  37
HETATM   37  C   UNL     1      -9.995   8.014  69.803  1.00  0.00    -0.191 C  
BRANCH  37  38
HETATM   38  C   UNL     1     -11.256   8.121  70.615  1.00  0.00    -0.268 A  
HETATM   39  C   UNL     1     -13.720   8.412  71.915  1.00  0.00    -0.433 A  
HETATM   40  C   UNL     1     -11.550   9.292  71.317  1.00  0.00    -0.419 A  
HETATM   41  C   UNL     1     -13.404   7.218  71.279  1.00  0.00    -0.338 A  
HETATM   42  C   UNL     1     -12.159   7.060  70.676  1.00  0.00    -0.332 A  
HETATM   43  C   UNL     1     -12.776   9.436  71.965  1.00  0.00    -0.483 A  
ENDBRANCH  37  38
ENDBRANCH  22  37
ENDBRANCH  19  22
ENDBRANCH  18  19
ENDBRANCH  17  18
BRANCH  17  44
HETATM   44  C   UNL     1      -8.325   9.815  66.364  1.00  0.00    -0.120 C  
BRANCH  44  45
HETATM   45  C   UNL     1      -7.548   9.606  67.650  1.00  0.00    -0.091 A  
HETATM   46  C   UNL     1      -7.647  10.512  68.719  1.00  0.00    -0.101 A  
HETATM   47  C   UNL     1      -6.691   8.507  67.783  1.00  0.00    -0.066 A  
HETATM   48  C   UNL     1      -6.873  10.341  69.872  1.00  0.00    -0.134 A  
HETATM   49  C   UNL     1      -5.922   8.336  68.937  1.00  0.00    -0.043 A  
HETATM   50  C   UNL     1      -6.005   9.256  69.978  1.00  0.00    -0.035 A  
ENDBRANCH  44  45
ENDBRANCH  17  44
ENDBRANCH  15  17
ENDBRANCH   3  13
TORSDOF 14
ENDMDL
MODEL       57
REMARK 921   NORMALIZED FREE ENERGY PREDICTED BY IDOCK:   -5.85 KCAL/MOL
REMARK 922        TOTAL FREE ENERGY PREDICTED BY IDOCK:  -15.19 KCAL/MOL
REMARK 923 INTER-LIGAND FREE ENERGY PREDICTED BY IDOCK:  -12.68 KCAL/MOL
REMARK 924 INTRA-LIGAND FREE ENERGY PREDICTED BY IDOCK:   -2.51 KCAL/MOL
REMARK 927      BINDING AFFINITY PREDICTED BY RF-SCORE:    0.00 PKD
ROOT
HETATM    1  C   UNL     1      -8.219   7.444  64.552  1.00  0.00    -0.023 C  
HETATM    2  C   UNL     1      -8.230   7.976  65.994  1.00  0.00    -0.120 C  
HETATM    3  C   UNL     1      -9.537   8.773  66.289  1.00  0.00    -0.259 C  
HETATM    4  C   UNL     1      -7.993   6.801  66.946  1.00  0.00    -0.109 C  
ENDROOT
BRANCH   3   5
HETATM    5  N   UNL     1      -9.664   9.955  65.405  1.00  0.00    -0.290 N  
HETATM    6  H   UNL     1     -11.700  12.370  64.666  1.00  0.00     0.000 HD 
HETATM    7  O   UNL     1     -11.459  10.833  66.548  1.00  0.00    -0.104 OA 
HETATM    8  C   UNL     1      -8.620  10.271  64.437  1.00  0.00    -0.187 C  
HETATM    9  C   UNL     1     -10.708  10.839  65.578  1.00  0.00    -0.075 C  
HETATM   10  C   UNL     1      -9.264  10.618  63.109  1.00  0.00    -0.308 C  
HETATM   11  N   UNL     1     -10.921  11.721  64.557  1.00  0.00    -0.313 N  
HETATM   12  C   UNL     1     -10.150  11.826  63.336  1.00  0.00    -0.446 C  
ENDBRANCH   3   5
BRANCH   3  13
HETATM   13  C   UNL     1      -9.668   9.135  67.800  1.00  0.00    -0.154 C  
HETATM   14  O   UNL     1      -8.822   9.769  68.420  1.00  0.00    -0.119 OA 
HETATM   15  N   UNL     1     -10.782   8.607  68.423  1.00  0.00    -0.427 N  
HETATM   16  H   UNL     1     -11.443   8.110  67.826  1.00  0.00     0.000 HD 
BRANCH  15  17
HETATM   17  C   UNL     1     -11.117   8.683  69.843  1.00  0.00    -0.116 C  
BRANCH  17  18
HETATM   18  C   UNL     1     -10.976  10.099  70.444  1.00  0.00    -0.386 C  
BRANCH  18  19
HETATM   19  C   UNL     1     -11.988  11.242  70.173  1.00  0.00    -0.369 C  
HETATM   20  O   UNL     1     -12.809  10.891  69.055  1.00  0.00    -0.493 OA 
HETATM   21  H   UNL     1     -13.429  11.592  68.889  1.00  0.00     0.000 HD 
BRANCH  19  22
HETATM   22  C   UNL     1     -11.240  12.586  69.817  1.00  0.00     0.061 C  
BRANCH  22  23
HETATM   23  N   UNL     1     -10.102  12.408  68.843  1.00  0.00    -0.428 N  
HETATM   24  C   UNL     1      -9.305  13.199  68.045  1.00  0.00    -0.219 C  
HETATM   25  H   UNL     1      -9.853  11.424  68.748  1.00  0.00     0.000 HD 
HETATM   26  O   UNL     1      -8.282  12.700  67.566  1.00  0.00    -0.156 OA 
BRANCH  24  27
HETATM   27  C   UNL     1      -9.743  14.625  67.669  1.00  0.00    -0.214 C  
BRANCH  27  28
HETATM   28  O   UNL     1      -8.849  15.601  67.159  1.00  0.00    -0.187 OA 
BRANCH  28  29
HETATM   29  C   UNL     1      -9.324  16.887  66.943  1.00  0.00    -0.241 A  
HETATM   30  C   UNL     1     -11.021  16.517  64.939  1.00  0.00    -0.223 C  
HETATM   31  C   UNL     1     -10.305  17.306  66.007  1.00  0.00    -0.312 A  
HETATM   32  C   UNL     1     -10.742  18.654  66.035  1.00  0.00    -0.295 A  
HETATM   33  C   UNL     1     -10.231  19.583  66.929  1.00  0.00    -0.537 A  
HETATM   34  C   UNL     1      -9.245  19.190  67.816  1.00  0.00    -0.347 A  
HETATM   35  C   UNL     1      -8.774  17.862  67.830  1.00  0.00    -0.250 A  
HETATM   36  C   UNL     1      -7.676  17.544  68.814  1.00  0.00    -0.252 C  
ENDBRANCH  28  29
ENDBRANCH  27  28
ENDBRANCH  24  27
ENDBRANCH  22  23
BRANCH  22  37
HETATM   37  C   UNL     1     -12.211  13.774  69.581  1.00  0.00    -0.359 C  
BRANCH  37  38
HETATM   38  C   UNL     1     -12.577  14.530  70.828  1.00  0.00    -0.418 A  
HETATM   39  C   UNL     1     -13.232  15.717  73.279  1.00  0.00    -0.687 A  
HETATM   40  C   UNL     1     -13.912  14.642  71.225  1.00  0.00    -0.400 A  
HETATM   41  C   UNL     1     -11.909  15.674  72.857  1.00  0.00    -0.564 A  
HETATM   42  C   UNL     1     -11.594  15.128  71.616  1.00  0.00    -0.463 A  
HETATM   43  C   UNL     1     -14.237  15.233  72.444  1.00  0.00    -0.579 A  
ENDBRANCH  37  38
ENDBRANCH  22  37
ENDBRANCH  19  22
ENDBRANCH  18  19
ENDBRANCH  17  18
BRANCH  17  44
HETATM   44  C   UNL     1     -10.605   7.487  70.674  1.00  0.00    -0.231 C  
BRANCH  44  45
HETATM   45  C   UNL     1      -9.380   7.807  71.510  1.00  0.00    -0.165 A  
HETATM   46  C   UNL     1      -8.092   7.809  70.949  1.00  0.00    -0.102 A  
HETATM   47  C   UNL     1      -9.513   8.084  72.876  1.00  0.00    -0.346 A  
HETATM   48  C   UNL     1      -6.967   8.041  71.748  1.00  0.00    -0.069 A  
HETATM   49  C   UNL     1      -8.389   8.320  73.671  1.00  0.00    -0.259 A  
HETATM   50  C   UNL     1      -7.115   8.289  73.110  1.00  0.00    -0.141 A  
ENDBRANCH  44  45
ENDBRANCH  17  44
ENDBRANCH  15  17
ENDBRANCH   3  13
TORSDOF 14
ENDMDL
MODEL       58
REMARK 921   NORMALIZED FREE ENERGY PREDICTED BY IDOCK:   -5.85 KCAL/MOL
REMARK 922        TOTAL FREE ENERGY PREDICTED BY IDOCK:  -15.19 KCAL/MOL
REMARK 923 INTER-LIGAND FREE ENERGY PREDICTED BY IDOCK:  -11.14 KCAL/MOL
REMARK 924 INTRA-LIGAND FREE ENERGY PREDICTED BY IDOCK:   -4.06 KCAL/MOL
REMARK 927      BINDING AFFINITY PREDICTED BY RF-SCORE:    0.00 PKD
ROOT
HETATM    1  C   UNL     1      -7.280  12.604  67.206  1.00  0.00    -0.106 C  
HETATM    2  C   UNL     1      -8.398  12.083  68.121  1.00  0.00    -0.165 C  
HETATM    3  C   UNL     1      -9.666  11.702  67.297  1.00  0.00    -0.180 C  
HETATM    4  C   UNL     1      -7.839  10.934  68.964  1.00  0.00    -0.138 C  
ENDROOT
BRANCH   3   5
HETATM    5  N   UNL     1     -10.222  12.874  66.581  1.00  0.00    -0.244 N  
HETATM    6  H   UNL     1     -11.048  13.881  63.610  1.00  0.00     0.000 HD 
HETATM    7  O   UNL     1     -10.651  11.704  64.645  1.00  0.00    -0.280 OA 
HETATM    8  C   UNL     1     -10.525  14.105  67.301  1.00  0.00    -0.272 C  
HETATM    9  C   UNL     1     -10.578  12.768  65.254  1.00  0.00    -0.290 C  
HETATM   10  C   UNL     1     -10.005  15.286  66.503  1.00  0.00    -0.278 C  
HETATM   11  N   UNL     1     -10.798  13.945  64.597  1.00  0.00    -0.409 N  
HETATM   12  C   UNL     1     -10.712  15.275  65.163  1.00  0.00    -0.436 C  
ENDBRANCH   3   5
BRANCH   3  13
HETATM   13  C   UNL     1     -10.730  10.971  68.173  1.00  0.00    -0.205 C  
HETATM   14  O   UNL     1     -11.626  10.274  67.709  1.00  0.00    -0.331 OA 
HETATM   15  N   UNL     1     -10.645  11.241  69.524  1.00  0.00    -0.439 N  
HETATM   16  H   UNL     1      -9.857  11.815  69.824  1.00  0.00     0.000 HD 
BRANCH  15  17
HETATM   17  C   UNL     1     -11.559  10.793  70.573  1.00  0.00    -0.330 C  
BRANCH  17  18
HETATM   18  C   UNL     1     -11.550   9.265  70.799  1.00  0.00    -0.345 C  
BRANCH  18  19
HETATM   19  C   UNL     1     -10.372   8.513  71.470  1.00  0.00    -0.250 C  
HETATM   20  O   UNL     1      -9.332   9.445  71.781  1.00  0.00    -0.238 OA 
HETATM   21  H   UNL     1      -8.610   8.983  72.192  1.00  0.00     0.000 HD 
BRANCH  19  22
HETATM   22  C   UNL     1      -9.768   7.427  70.495  1.00  0.00    -0.175 C  
BRANCH  22  23
HETATM   23  N   UNL     1      -8.422   6.904  70.929  1.00  0.00    -0.134 N  
HETATM   24  C   UNL     1      -7.106   7.010  70.532  1.00  0.00    -0.064 C  
HETATM   25  H   UNL     1      -8.510   6.302  71.747  1.00  0.00     0.000 HD 
HETATM   26  O   UNL     1      -6.230   6.628  71.313  1.00  0.00    -0.039 OA 
BRANCH  24  27
HETATM   27  C   UNL     1      -6.753   7.478  69.110  1.00  0.00    -0.048 C  
BRANCH  27  28
HETATM   28  O   UNL     1      -7.688   7.490  68.044  1.00  0.00    -0.111 OA 
BRANCH  28  29
HETATM   29  C   UNL     1      -7.348   6.858  66.856  1.00  0.00    -0.082 A  
HETATM   30  C   UNL     1      -5.832   4.858  67.712  1.00  0.00    -0.022 C  
HETATM   31  C   UNL     1      -6.573   5.681  66.688  1.00  0.00    -0.056 A  
HETATM   32  C   UNL     1      -6.450   5.127  65.390  1.00  0.00    -0.036 A  
HETATM   33  C   UNL     1      -7.040   5.702  64.275  1.00  0.00    -0.053 A  
HETATM   34  C   UNL     1      -7.762   6.873  64.427  1.00  0.00    -0.113 A  
HETATM   35  C   UNL     1      -7.916   7.466  65.696  1.00  0.00    -0.118 A  
HETATM   36  C   UNL     1      -8.696   8.758  65.748  1.00  0.00    -0.209 C  
ENDBRANCH  28  29
ENDBRANCH  27  28
ENDBRANCH  24  27
ENDBRANCH  22  23
BRANCH  22  37
HETATM   37  C   UNL     1     -10.822   6.393  70.014  1.00  0.00    -0.366 C  
BRANCH  37  38
HETATM   38  C   UNL     1     -10.466   5.701  68.727  1.00  0.00    -0.289 A  
HETATM   39  C   UNL     1     -10.013   4.268  66.365  1.00  0.00    -0.223 A  
HETATM   40  C   UNL     1      -9.637   4.577  68.731  1.00  0.00    -0.227 A  
HETATM   41  C   UNL     1     -10.780   5.426  66.341  1.00  0.00    -0.284 A  
HETATM   42  C   UNL     1     -10.961   6.162  67.508  1.00  0.00    -0.404 A  
HETATM   43  C   UNL     1      -9.412   3.865  67.555  1.00  0.00    -0.236 A  
ENDBRANCH  37  38
ENDBRANCH  22  37
ENDBRANCH  19  22
ENDBRANCH  18  19
ENDBRANCH  17  18
BRANCH  17  44
HETATM   44  C   UNL     1     -12.922  11.519  70.569  1.00  0.00     0.041 C  
BRANCH  44  45
HETATM   45  C   UNL     1     -12.855  12.943  71.088  1.00  0.00    -0.326 A  
HETATM   46  C   UNL     1     -13.416  13.297  72.326  1.00  0.00    -0.679 A  
HETATM   47  C   UNL     1     -12.249  13.943  70.319  1.00  0.00    -0.428 A  
HETATM   48  C   UNL     1     -13.404  14.627  72.760  1.00  0.00    -0.593 A  
HETATM   49  C   UNL     1     -12.235  15.271  70.755  1.00  0.00    -0.411 A  
HETATM   50  C   UNL     1     -12.820  15.615  71.971  1.00  0.00    -0.518 A  
ENDBRANCH  44  45
ENDBRANCH  17  44
ENDBRANCH  15  17
ENDBRANCH   3  13
TORSDOF 14
ENDMDL
MODEL       59
REMARK 921   NORMALIZED FREE ENERGY PREDICTED BY IDOCK:   -5.85 KCAL/MOL
REMARK 922        TOTAL FREE ENERGY PREDICTED BY IDOCK:  -15.18 KCAL/MOL
REMARK 923 INTER-LIGAND FREE ENERGY PREDICTED BY IDOCK:  -12.32 KCAL/MOL
REMARK 924 INTRA-LIGAND FREE ENERGY PREDICTED BY IDOCK:   -2.86 KCAL/MOL
REMARK 927      BINDING AFFINITY PREDICTED BY RF-SCORE:    0.00 PKD
ROOT
HETATM    1  C   UNL     1      -8.626   5.133  69.725  1.00  0.00    -0.104 C  
HETATM    2  C   UNL     1      -9.349   5.861  68.582  1.00  0.00    -0.126 C  
HETATM    3  C   UNL     1      -9.554   7.370  68.918  1.00  0.00    -0.148 C  
HETATM    4  C   UNL     1      -8.577   5.614  67.284  1.00  0.00    -0.109 C  
ENDROOT
BRANCH   3   5
HETATM    5  N   UNL     1     -10.393   7.549  70.126  1.00  0.00    -0.211 N  
HETATM    6  H   UNL     1     -10.618   9.343  72.819  1.00  0.00     0.000 HD 
HETATM    7  O   UNL     1      -9.458   9.578  70.684  1.00  0.00    -0.257 OA 
HETATM    8  C   UNL     1     -11.532   6.674  70.373  1.00  0.00    -0.386 C  
HETATM    9  C   UNL     1     -10.180   8.625  70.961  1.00  0.00    -0.220 C  
HETATM   10  C   UNL     1     -11.517   6.240  71.826  1.00  0.00    -0.355 C  
HETATM   11  N   UNL     1     -10.781   8.561  72.186  1.00  0.00    -0.337 N  
HETATM   12  C   UNL     1     -11.624   7.490  72.674  1.00  0.00    -0.282 C  
ENDBRANCH   3   5
BRANCH   3  13
HETATM   13  C   UNL     1     -10.089   8.171  67.690  1.00  0.00    -0.207 C  
HETATM   14  O   UNL     1     -10.995   7.774  66.966  1.00  0.00    -0.247 OA 
HETATM   15  N   UNL     1      -9.400   9.336  67.420  1.00  0.00    -0.126 N  
HETATM   16  H   UNL     1      -8.673   9.599  68.086  1.00  0.00     0.000 HD 
BRANCH  15  17
HETATM   17  C   UNL     1      -9.596  10.234  66.284  1.00  0.00    -0.189 C  
BRANCH  17  18
HETATM   18  C   UNL     1     -10.692  11.299  66.512  1.00  0.00    -0.323 C  
BRANCH  18  19
HETATM   19  C   UNL     1     -10.383  12.799  66.748  1.00  0.00    -0.240 C  
HETATM   20  O   UNL     1      -9.213  13.163  66.009  1.00  0.00    -0.464 OA 
HETATM   21  H   UNL     1      -9.024  14.083  66.154  1.00  0.00     0.000 HD 
BRANCH  19  22
HETATM   22  C   UNL     1     -10.093  13.083  68.274  1.00  0.00    -0.239 C  
BRANCH  22  23
HETATM   23  N   UNL     1      -8.630  13.265  68.591  1.00  0.00    -0.358 N  
HETATM   24  C   UNL     1      -7.713  14.293  68.635  1.00  0.00    -0.135 C  
HETATM   25  H   UNL     1      -8.197  12.378  68.843  1.00  0.00     0.000 HD 
HETATM   26  O   UNL     1      -6.635  14.088  69.202  1.00  0.00    -0.102 OA 
BRANCH  24  27
HETATM   27  C   UNL     1      -7.982  15.615  67.896  1.00  0.00    -0.142 C  
BRANCH  27  28
HETATM   28  O   UNL     1      -8.712  16.688  68.470  1.00  0.00    -0.222 OA 
BRANCH  28  29
HETATM   29  C   UNL     1      -9.181  17.692  67.634  1.00  0.00    -0.245 A  
HETATM   30  C   UNL     1     -10.642  16.323  65.895  1.00  0.00    -0.307 C  
HETATM   31  C   UNL     1     -10.060  17.563  66.527  1.00  0.00    -0.331 A  
HETATM   32  C   UNL     1     -10.519  18.737  65.881  1.00  0.00    -0.424 A  
HETATM   33  C   UNL     1     -10.124  20.006  66.276  1.00  0.00    -0.603 A  
HETATM   34  C   UNL     1      -9.235  20.137  67.328  1.00  0.00    -0.504 A  
HETATM   35  C   UNL     1      -8.747  19.001  68.005  1.00  0.00    -0.341 A  
HETATM   36  C   UNL     1      -7.758  19.250  69.117  1.00  0.00    -0.272 C  
ENDBRANCH  28  29
ENDBRANCH  27  28
ENDBRANCH  24  27
ENDBRANCH  22  23
BRANCH  22  37
HETATM   37  C   UNL     1     -11.097  14.086  68.904  1.00  0.00    -0.296 C  
BRANCH  37  38
HETATM   38  C   UNL     1     -11.948  13.504  69.999  1.00  0.00    -0.410 A  
HETATM   39  C   UNL     1     -13.323  12.423  72.186  1.00  0.00    -0.508 A  
HETATM   40  C   UNL     1     -12.068  12.119  70.144  1.00  0.00    -0.368 A  
HETATM   41  C   UNL     1     -13.269  13.800  72.008  1.00  0.00    -0.520 A  
HETATM   42  C   UNL     1     -12.627  14.331  70.893  1.00  0.00    -0.426 A  
HETATM   43  C   UNL     1     -12.753  11.583  71.232  1.00  0.00    -0.469 A  
ENDBRANCH  37  38
ENDBRANCH  22  37
ENDBRANCH  19  22
ENDBRANCH  18  19
ENDBRANCH  17  18
BRANCH  17  44
HETATM   44  C   UNL     1      -9.541   9.531  64.910  1.00  0.00    -0.158 C  
BRANCH  44  45
HETATM   45  C   UNL     1      -8.145   9.101  64.503  1.00  0.00    -0.139 A  
HETATM   46  C   UNL     1      -7.094  10.028  64.403  1.00  0.00    -0.135 A  
HETATM   47  C   UNL     1      -7.885   7.761  64.191  1.00  0.00    -0.133 A  
HETATM   48  C   UNL     1      -5.828   9.626  63.961  1.00  0.00    -0.093 A  
HETATM   49  C   UNL     1      -6.619   7.361  63.755  1.00  0.00    -0.052 A  
HETATM   50  C   UNL     1      -5.593   8.293  63.630  1.00  0.00    -0.062 A  
ENDBRANCH  44  45
ENDBRANCH  17  44
ENDBRANCH  15  17
ENDBRANCH   3  13
TORSDOF 14
ENDMDL
MODEL       60
REMARK 921   NORMALIZED FREE ENERGY PREDICTED BY IDOCK:   -5.84 KCAL/MOL
REMARK 922        TOTAL FREE ENERGY PREDICTED BY IDOCK:  -15.17 KCAL/MOL
REMARK 923 INTER-LIGAND FREE ENERGY PREDICTED BY IDOCK:  -12.28 KCAL/MOL
REMARK 924 INTRA-LIGAND FREE ENERGY PREDICTED BY IDOCK:   -2.89 KCAL/MOL
REMARK 927      BINDING AFFINITY PREDICTED BY RF-SCORE:    0.00 PKD
ROOT
HETATM    1  C   UNL     1      -8.522   4.865  69.903  1.00  0.00    -0.088 C  
HETATM    2  C   UNL     1      -8.207   6.232  69.274  1.00  0.00    -0.114 C  
HETATM    3  C   UNL     1      -9.128   6.510  68.046  1.00  0.00    -0.114 C  
HETATM    4  C   UNL     1      -8.292   7.300  70.367  1.00  0.00    -0.130 C  
ENDROOT
BRANCH   3   5
HETATM    5  N   UNL     1      -8.931   5.501  66.979  1.00  0.00    -0.113 N  
HETATM    6  H   UNL     1     -10.588   3.498  65.039  1.00  0.00     0.000 HD 
HETATM    7  O   UNL     1     -11.147   5.477  66.356  1.00  0.00    -0.167 OA 
HETATM    8  C   UNL     1      -7.588   5.125  66.555  1.00  0.00    -0.088 C  
HETATM    9  C   UNL     1     -10.016   5.005  66.289  1.00  0.00    -0.224 C  
HETATM   10  C   UNL     1      -7.512   3.614  66.436  1.00  0.00    -0.077 C  
HETATM   11  N   UNL     1      -9.789   3.884  65.542  1.00  0.00    -0.178 N  
HETATM   12  C   UNL     1      -8.527   3.190  65.396  1.00  0.00    -0.102 C  
ENDBRANCH   3   5
BRANCH   3  13
HETATM   13  C   UNL     1      -8.976   7.973  67.527  1.00  0.00    -0.138 C  
HETATM   14  O   UNL     1      -7.900   8.473  67.217  1.00  0.00    -0.096 OA 
HETATM   15  N   UNL     1     -10.146   8.706  67.523  1.00  0.00    -0.199 N  
HETATM   16  H   UNL     1     -10.997   8.204  67.778  1.00  0.00     0.000 HD 
BRANCH  15  17
HETATM   17  C   UNL     1     -10.300  10.121  67.196  1.00  0.00    -0.238 C  
BRANCH  17  18
HETATM   18  C   UNL     1     -11.356  10.850  68.056  1.00  0.00    -0.382 C  
BRANCH  18  19
HETATM   19  C   UNL     1     -11.189  11.098  69.577  1.00  0.00    -0.277 C  
HETATM   20  O   UNL     1     -10.000  10.448  70.034  1.00  0.00    -0.418 OA 
HETATM   21  H   UNL     1      -9.897  10.600  70.967  1.00  0.00     0.000 HD 
BRANCH  19  22
HETATM   22  C   UNL     1     -12.406  10.497  70.384  1.00  0.00    -0.324 C  
BRANCH  22  23
HETATM   23  N   UNL     1     -12.435   8.989  70.403  1.00  0.00    -0.302 N  
HETATM   24  C   UNL     1     -12.108   7.970  71.271  1.00  0.00    -0.291 C  
HETATM   25  H   UNL     1     -12.800   8.619  69.525  1.00  0.00     0.000 HD 
HETATM   26  O   UNL     1     -12.524   6.835  71.019  1.00  0.00    -0.367 OA 
BRANCH  24  27
HETATM   27  C   UNL     1     -11.154   8.222  72.450  1.00  0.00    -0.377 C  
BRANCH  27  28
HETATM   28  O   UNL     1     -11.032   7.336  73.551  1.00  0.00    -0.345 OA 
BRANCH  28  29
HETATM   29  C   UNL     1      -9.899   6.539  73.638  1.00  0.00    -0.213 A  
HETATM   30  C   UNL     1      -7.984   8.341  73.981  1.00  0.00    -0.270 C  
HETATM   31  C   UNL     1      -8.561   6.952  73.869  1.00  0.00    -0.168 A  
HETATM   32  C   UNL     1      -7.564   5.961  74.051  1.00  0.00    -0.092 A  
HETATM   33  C   UNL     1      -7.843   4.605  73.992  1.00  0.00    -0.100 A  
HETATM   34  C   UNL     1      -9.138   4.196  73.726  1.00  0.00    -0.094 A  
HETATM   35  C   UNL     1     -10.168   5.140  73.537  1.00  0.00    -0.229 A  
HETATM   36  C   UNL     1     -11.538   4.592  73.221  1.00  0.00    -0.254 C  
ENDBRANCH  28  29
ENDBRANCH  27  28
ENDBRANCH  24  27
ENDBRANCH  22  23
BRANCH  22  37
HETATM   37  C   UNL     1     -12.670  11.239  71.722  1.00  0.00    -0.379 C  
BRANCH  37  38
HETATM   38  C   UNL     1     -12.956  12.707  71.567  1.00  0.00    -0.380 A  
HETATM   39  C   UNL     1     -13.663  15.377  71.102  1.00  0.00    -0.497 A  
HETATM   40  C   UNL     1     -12.243  13.476  70.645  1.00  0.00    -0.434 A  
HETATM   41  C   UNL     1     -14.329  14.639  72.072  1.00  0.00    -0.642 A  
HETATM   42  C   UNL     1     -13.942  13.328  72.334  1.00  0.00    -0.557 A  
HETATM   43  C   UNL     1     -12.595  14.805  70.415  1.00  0.00    -0.399 A  
ENDBRANCH  37  38
ENDBRANCH  22  37
ENDBRANCH  19  22
ENDBRANCH  18  19
ENDBRANCH  17  18
BRANCH  17  44
HETATM   44  C   UNL     1     -10.261  10.424  65.682  1.00  0.00    -0.308 C  
BRANCH  44  45
HETATM   45  C   UNL     1     -10.763  11.811  65.326  1.00  0.00    -0.338 A  
HETATM   46  C   UNL     1     -11.981  11.996  64.651  1.00  0.00    -0.326 A  
HETATM   47  C   UNL     1      -9.999  12.939  65.645  1.00  0.00    -0.245 A  
HETATM   48  C   UNL     1     -12.398  13.276  64.270  1.00  0.00    -0.406 A  
HETATM   49  C   UNL     1     -10.419  14.218  65.269  1.00  0.00    -0.408 A  
HETATM   50  C   UNL     1     -11.613  14.386  64.573  1.00  0.00    -0.393 A  
ENDBRANCH  44  45
ENDBRANCH  17  44
ENDBRANCH  15  17
ENDBRANCH   3  13
TORSDOF 14
ENDMDL
MODEL       61
REMARK 921   NORMALIZED FREE ENERGY PREDICTED BY IDOCK:   -5.83 KCAL/MOL
REMARK 922        TOTAL FREE ENERGY PREDICTED BY IDOCK:  -15.15 KCAL/MOL
REMARK 923 INTER-LIGAND FREE ENERGY PREDICTED BY IDOCK:  -12.02 KCAL/MOL
REMARK 924 INTRA-LIGAND FREE ENERGY PREDICTED BY IDOCK:   -3.13 KCAL/MOL
REMARK 927      BINDING AFFINITY PREDICTED BY RF-SCORE:    0.00 PKD
ROOT
HETATM    1  C   UNL     1     -10.566  16.589  65.146  1.00  0.00    -0.237 C  
HETATM    2  C   UNL     1     -10.708  15.807  66.461  1.00  0.00    -0.283 C  
HETATM    3  C   UNL     1     -10.196  14.342  66.301  1.00  0.00    -0.299 C  
HETATM    4  C   UNL     1     -10.005  16.592  67.571  1.00  0.00    -0.255 C  
ENDROOT
BRANCH   3   5
HETATM    5  N   UNL     1     -10.978  13.601  65.285  1.00  0.00    -0.300 N  
HETATM    6  H   UNL     1     -13.976  12.520  64.676  1.00  0.00     0.000 HD 
HETATM    7  O   UNL     1     -13.018  14.197  66.171  1.00  0.00    -0.280 OA 
HETATM    8  C   UNL     1     -10.327  13.061  64.098  1.00  0.00    -0.321 C  
HETATM    9  C   UNL     1     -12.351  13.527  65.389  1.00  0.00    -0.478 C  
HETATM   10  C   UNL     1     -10.813  11.643  63.868  1.00  0.00    -0.471 C  
HETATM   11  N   UNL     1     -12.962  12.596  64.597  1.00  0.00    -0.300 N  
HETATM   12  C   UNL     1     -12.312  11.706  63.658  1.00  0.00    -0.230 C  
ENDBRANCH   3   5
BRANCH   3  13
HETATM   13  C   UNL     1     -10.129  13.598  67.670  1.00  0.00    -0.242 C  
HETATM   14  O   UNL     1      -9.124  13.030  68.084  1.00  0.00    -0.196 OA 
HETATM   15  N   UNL     1     -11.326  13.547  68.356  1.00  0.00    -0.272 N  
HETATM   16  H   UNL     1     -12.105  14.063  67.948  1.00  0.00     0.000 HD 
BRANCH  15  17
HETATM   17  C   UNL     1     -11.600  12.835  69.602  1.00  0.00    -0.252 C  
BRANCH  17  18
HETATM   18  C   UNL     1     -11.289  11.323  69.538  1.00  0.00    -0.362 C  
BRANCH  18  19
HETATM   19  C   UNL     1     -12.092  10.257  70.327  1.00  0.00    -0.249 C  
HETATM   20  O   UNL     1     -12.159  10.639  71.704  1.00  0.00    -0.255 OA 
HETATM   21  H   UNL     1     -12.651   9.986  72.188  1.00  0.00     0.000 HD 
BRANCH  19  22
HETATM   22  C   UNL     1     -11.382   8.848  70.255  1.00  0.00    -0.159 C  
BRANCH  22  23
HETATM   23  N   UNL     1     -11.204   8.330  68.850  1.00  0.00    -0.257 N  
HETATM   24  C   UNL     1     -10.168   7.955  68.021  1.00  0.00    -0.208 C  
HETATM   25  H   UNL     1     -12.103   8.227  68.381  1.00  0.00     0.000 HD 
HETATM   26  O   UNL     1     -10.443   7.325  66.995  1.00  0.00    -0.278 OA 
BRANCH  24  27
HETATM   27  C   UNL     1      -8.729   8.416  68.308  1.00  0.00    -0.143 C  
BRANCH  27  28
HETATM   28  O   UNL     1      -7.632   7.521  68.389  1.00  0.00    -0.108 OA 
BRANCH  28  29
HETATM   29  C   UNL     1      -7.219   7.090  69.643  1.00  0.00    -0.080 A  
HETATM   30  C   UNL     1      -6.203   9.309  70.681  1.00  0.00    -0.060 C  
HETATM   31  C   UNL     1      -6.631   7.862  70.679  1.00  0.00    -0.037 A  
HETATM   32  C   UNL     1      -6.400   7.252  71.935  1.00  0.00    -0.040 A  
HETATM   33  C   UNL     1      -6.706   5.923  72.186  1.00  0.00    -0.071 A  
HETATM   34  C   UNL     1      -7.242   5.154  71.167  1.00  0.00    -0.068 A  
HETATM   35  C   UNL     1      -7.492   5.712  69.898  1.00  0.00    -0.071 A  
HETATM   36  C   UNL     1      -8.048   4.781  68.848  1.00  0.00    -0.082 C  
ENDBRANCH  28  29
ENDBRANCH  27  28
ENDBRANCH  24  27
ENDBRANCH  22  23
BRANCH  22  37
HETATM   37  C   UNL     1     -10.176   8.728  71.225  1.00  0.00    -0.332 C  
BRANCH  37  38
HETATM   38  C   UNL     1     -10.277   7.585  72.198  1.00  0.00    -0.238 A  
HETATM   39  C   UNL     1     -10.232   5.384  73.929  1.00  0.00    -0.260 A  
HETATM   40  C   UNL     1     -10.838   6.367  71.806  1.00  0.00    -0.283 A  
HETATM   41  C   UNL     1      -9.738   6.612  74.350  1.00  0.00    -0.329 A  
HETATM   42  C   UNL     1      -9.807   7.715  73.504  1.00  0.00    -0.357 A  
HETATM   43  C   UNL     1     -10.816   5.273  72.668  1.00  0.00    -0.307 A  
ENDBRANCH  37  38
ENDBRANCH  22  37
ENDBRANCH  19  22
ENDBRANCH  18  19
ENDBRANCH  17  18
BRANCH  17  44
HETATM   44  C   UNL     1     -12.899  13.280  70.308  1.00  0.00     0.087 C  
BRANCH  44  45
HETATM   45  C   UNL     1     -12.681  14.340  71.371  1.00  0.00    -0.424 A  
HETATM   46  C   UNL     1     -11.916  15.489  71.111  1.00  0.00    -0.432 A  
HETATM   47  C   UNL     1     -13.224  14.175  72.651  1.00  0.00    -0.612 A  
HETATM   48  C   UNL     1     -11.668  16.425  72.122  1.00  0.00    -0.453 A  
HETATM   49  C   UNL     1     -12.979  15.112  73.658  1.00  0.00    -0.520 A  
HETATM   50  C   UNL     1     -12.194  16.232  73.397  1.00  0.00    -0.614 A  
ENDBRANCH  44  45
ENDBRANCH  17  44
ENDBRANCH  15  17
ENDBRANCH   3  13
TORSDOF 14
ENDMDL
MODEL       62
REMARK 921   NORMALIZED FREE ENERGY PREDICTED BY IDOCK:   -5.81 KCAL/MOL
REMARK 922        TOTAL FREE ENERGY PREDICTED BY IDOCK:  -15.12 KCAL/MOL
REMARK 923 INTER-LIGAND FREE ENERGY PREDICTED BY IDOCK:  -12.20 KCAL/MOL
REMARK 924 INTRA-LIGAND FREE ENERGY PREDICTED BY IDOCK:   -2.92 KCAL/MOL
REMARK 927      BINDING AFFINITY PREDICTED BY RF-SCORE:    0.00 PKD
ROOT
HETATM    1  C   UNL     1      -5.972  18.431  66.621  1.00  0.00    -0.180 C  
HETATM    2  C   UNL     1      -6.450  17.190  67.389  1.00  0.00    -0.173 C  
HETATM    3  C   UNL     1      -7.802  16.662  66.817  1.00  0.00    -0.255 C  
HETATM    4  C   UNL     1      -5.327  16.151  67.381  1.00  0.00    -0.109 C  
ENDROOT
BRANCH   3   5
HETATM    5  N   UNL     1      -8.877  17.674  66.942  1.00  0.00    -0.239 N  
HETATM    6  H   UNL     1     -11.491  18.809  65.393  1.00  0.00     0.000 HD 
HETATM    7  O   UNL     1     -10.166  16.762  65.266  1.00  0.00    -0.607 OA 
HETATM    8  C   UNL     1      -8.902  18.592  68.074  1.00  0.00    -0.306 C  
HETATM    9  C   UNL     1      -9.935  17.671  66.058  1.00  0.00    -0.209 C  
HETATM   10  C   UNL     1      -9.192  19.993  67.570  1.00  0.00    -0.475 C  
HETATM   11  N   UNL     1     -10.714  18.793  66.053  1.00  0.00    -0.366 N  
HETATM   12  C   UNL     1     -10.547  19.960  66.894  1.00  0.00    -0.409 C  
ENDBRANCH   3   5
BRANCH   3  13
HETATM   13  C   UNL     1      -8.196  15.285  67.436  1.00  0.00    -0.184 C  
HETATM   14  O   UNL     1      -8.322  15.096  68.641  1.00  0.00    -0.143 OA 
HETATM   15  N   UNL     1      -8.311  14.257  66.522  1.00  0.00    -0.327 N  
HETATM   16  H   UNL     1      -8.210  14.509  65.539  1.00  0.00     0.000 HD 
BRANCH  15  17
HETATM   17  C   UNL     1      -8.560  12.846  66.809  1.00  0.00    -0.063 C  
BRANCH  17  18
HETATM   18  C   UNL     1      -9.977  12.561  67.354  1.00  0.00    -0.207 C  
BRANCH  18  19
HETATM   19  C   UNL     1     -10.912  11.475  66.762  1.00  0.00    -0.294 C  
HETATM   20  O   UNL     1     -12.217  12.029  66.569  1.00  0.00    -0.548 OA 
HETATM   21  H   UNL     1     -12.791  11.364  66.206  1.00  0.00     0.000 HD 
BRANCH  19  22
HETATM   22  C   UNL     1     -11.052  10.251  67.749  1.00  0.00    -0.269 C  
BRANCH  22  23
HETATM   23  N   UNL     1     -10.658   8.930  67.138  1.00  0.00    -0.317 N  
HETATM   24  C   UNL     1     -10.622   7.602  67.506  1.00  0.00    -0.252 C  
HETATM   25  H   UNL     1     -10.324   9.054  66.183  1.00  0.00     0.000 HD 
HETATM   26  O   UNL     1     -10.472   6.756  66.619  1.00  0.00    -0.214 OA 
BRANCH  24  27
HETATM   27  C   UNL     1     -10.647   7.200  68.990  1.00  0.00    -0.210 C  
BRANCH  27  28
HETATM   28  O   UNL     1     -11.144   5.952  69.446  1.00  0.00    -0.363 OA 
BRANCH  28  29
HETATM   29  C   UNL     1     -10.748   5.497  70.696  1.00  0.00    -0.233 A  
HETATM   30  C   UNL     1     -12.041   7.147  72.319  1.00  0.00    -0.219 C  
HETATM   31  C   UNL     1     -11.159   5.975  71.967  1.00  0.00    -0.325 A  
HETATM   32  C   UNL     1     -10.730   5.283  73.126  1.00  0.00    -0.314 A  
HETATM   33  C   UNL     1      -9.907   4.169  73.067  1.00  0.00    -0.178 A  
HETATM   34  C   UNL     1      -9.470   3.723  71.833  1.00  0.00    -0.207 A  
HETATM   35  C   UNL     1      -9.866   4.374  70.648  1.00  0.00    -0.280 A  
HETATM   36  C   UNL     1      -9.308   3.828  69.356  1.00  0.00    -0.245 C  
ENDBRANCH  28  29
ENDBRANCH  27  28
ENDBRANCH  24  27
ENDBRANCH  22  23
BRANCH  22  37
HETATM   37  C   UNL     1     -10.536  10.565  69.179  1.00  0.00    -0.250 C  
BRANCH  37  38
HETATM   38  C   UNL     1     -11.598  11.051  70.127  1.00  0.00    -0.421 A  
HETATM   39  C   UNL     1     -13.386  12.008  72.058  1.00  0.00    -0.447 A  
HETATM   40  C   UNL     1     -12.198  10.171  71.032  1.00  0.00    -0.474 A  
HETATM   41  C   UNL     1     -12.848  12.875  71.116  1.00  0.00    -0.326 A  
HETATM   42  C   UNL     1     -11.999  12.386  70.128  1.00  0.00    -0.376 A  
HETATM   43  C   UNL     1     -13.088  10.648  71.991  1.00  0.00    -0.501 A  
ENDBRANCH  37  38
ENDBRANCH  22  37
ENDBRANCH  19  22
ENDBRANCH  18  19
ENDBRANCH  17  18
BRANCH  17  44
HETATM   44  C   UNL     1      -7.369  12.118  67.468  1.00  0.00    -0.135 C  
BRANCH  44  45
HETATM   45  C   UNL     1      -7.311  10.636  67.151  1.00  0.00    -0.098 A  
HETATM   46  C   UNL     1      -7.161   9.677  68.167  1.00  0.00    -0.079 A  
HETATM   47  C   UNL     1      -7.379  10.197  65.824  1.00  0.00    -0.128 A  
HETATM   48  C   UNL     1      -7.042   8.318  67.853  1.00  0.00    -0.083 A  
HETATM   49  C   UNL     1      -7.265   8.840  65.512  1.00  0.00    -0.084 A  
HETATM   50  C   UNL     1      -7.086   7.901  66.524  1.00  0.00    -0.075 A  
ENDBRANCH  44  45
ENDBRANCH  17  44
ENDBRANCH  15  17
ENDBRANCH   3  13
TORSDOF 14
ENDMDL
MODEL       63
REMARK 921   NORMALIZED FREE ENERGY PREDICTED BY IDOCK:   -5.80 KCAL/MOL
REMARK 922        TOTAL FREE ENERGY PREDICTED BY IDOCK:  -15.11 KCAL/MOL
REMARK 923 INTER-LIGAND FREE ENERGY PREDICTED BY IDOCK:  -11.89 KCAL/MOL
REMARK 924 INTRA-LIGAND FREE ENERGY PREDICTED BY IDOCK:   -3.22 KCAL/MOL
REMARK 927      BINDING AFFINITY PREDICTED BY RF-SCORE:    0.00 PKD
ROOT
HETATM    1  C   UNL     1     -10.878  16.322  65.078  1.00  0.00    -0.337 C  
HETATM    2  C   UNL     1     -10.916  15.630  66.449  1.00  0.00    -0.197 C  
HETATM    3  C   UNL     1     -10.252  14.220  66.385  1.00  0.00    -0.291 C  
HETATM    4  C   UNL     1     -10.285  16.566  67.482  1.00  0.00    -0.283 C  
ENDROOT
BRANCH   3   5
HETATM    5  N   UNL     1     -10.965  13.326  65.443  1.00  0.00    -0.281 N  
HETATM    6  H   UNL     1     -10.459  10.835  63.428  1.00  0.00     0.000 HD 
HETATM    7  O   UNL     1      -9.235  11.814  65.300  1.00  0.00    -0.115 OA 
HETATM    8  C   UNL     1     -12.386  13.512  65.178  1.00  0.00    -0.449 C  
HETATM    9  C   UNL     1     -10.321  12.231  64.909  1.00  0.00    -0.290 C  
HETATM   10  C   UNL     1     -12.628  13.415  63.683  1.00  0.00    -0.166 C  
HETATM   11  N   UNL     1     -10.934  11.637  63.842  1.00  0.00    -0.381 N  
HETATM   12  C   UNL     1     -12.190  12.035  63.242  1.00  0.00    -0.421 C  
ENDBRANCH   3   5
BRANCH   3  13
HETATM   13  C   UNL     1     -10.086  13.592  67.803  1.00  0.00    -0.236 C  
HETATM   14  O   UNL     1      -9.019  13.554  68.405  1.00  0.00    -0.184 OA 
HETATM   15  N   UNL     1     -11.224  12.993  68.303  1.00  0.00    -0.258 N  
HETATM   16  H   UNL     1     -12.071  13.089  67.743  1.00  0.00     0.000 HD 
BRANCH  15  17
HETATM   17  C   UNL     1     -11.349  12.235  69.546  1.00  0.00    -0.187 C  
BRANCH  17  18
HETATM   18  C   UNL     1     -10.880  10.768  69.433  1.00  0.00    -0.289 C  
BRANCH  18  19
HETATM   19  C   UNL     1     -10.392  10.132  68.106  1.00  0.00    -0.185 C  
HETATM   20  O   UNL     1     -11.519   9.873  67.263  1.00  0.00    -0.304 OA 
HETATM   21  H   UNL     1     -11.220   9.483  66.450  1.00  0.00     0.000 HD 
BRANCH  19  22
HETATM   22  C   UNL     1      -9.666   8.755  68.373  1.00  0.00    -0.162 C  
BRANCH  22  23
HETATM   23  N   UNL     1      -8.310   8.899  69.016  1.00  0.00    -0.123 N  
HETATM   24  C   UNL     1      -7.773   8.887  70.285  1.00  0.00    -0.090 C  
HETATM   25  H   UNL     1      -7.586   9.047  68.313  1.00  0.00     0.000 HD 
HETATM   26  O   UNL     1      -6.548   8.780  70.398  1.00  0.00    -0.038 OA 
BRANCH  24  27
HETATM   27  C   UNL     1      -8.666   9.119  71.515  1.00  0.00     0.058 C  
BRANCH  27  28
HETATM   28  O   UNL     1      -8.701   8.236  72.625  1.00  0.00    -0.193 OA 
BRANCH  28  29
HETATM   29  C   UNL     1      -9.706   7.280  72.679  1.00  0.00    -0.159 A  
HETATM   30  C   UNL     1     -11.883   8.749  72.311  1.00  0.00    -0.403 C  
HETATM   31  C   UNL     1     -11.101   7.473  72.502  1.00  0.00    -0.371 A  
HETATM   32  C   UNL     1     -11.947   6.337  72.470  1.00  0.00    -0.146 A  
HETATM   33  C   UNL     1     -11.466   5.047  72.626  1.00  0.00    -0.167 A  
HETATM   34  C   UNL     1     -10.113   4.855  72.840  1.00  0.00    -0.208 A  
HETATM   35  C   UNL     1      -9.227   5.950  72.882  1.00  0.00    -0.138 A  
HETATM   36  C   UNL     1      -7.776   5.636  73.152  1.00  0.00    -0.100 C  
ENDBRANCH  28  29
ENDBRANCH  27  28
ENDBRANCH  24  27
ENDBRANCH  22  23
BRANCH  22  37
HETATM   37  C   UNL     1     -10.620   7.668  68.938  1.00  0.00    -0.176 C  
BRANCH  37  38
HETATM   38  C   UNL     1     -10.335   6.277  68.443  1.00  0.00    -0.237 A  
HETATM   39  C   UNL     1      -9.557   3.757  67.501  1.00  0.00    -0.205 A  
HETATM   40  C   UNL     1     -10.394   5.984  67.078  1.00  0.00    -0.296 A  
HETATM   41  C   UNL     1      -9.564   4.020  68.865  1.00  0.00    -0.213 A  
HETATM   42  C   UNL     1      -9.998   5.257  69.332  1.00  0.00    -0.288 A  
HETATM   43  C   UNL     1     -10.008   4.729  66.611  1.00  0.00    -0.259 A  
ENDBRANCH  37  38
ENDBRANCH  22  37
ENDBRANCH  19  22
ENDBRANCH  18  19
ENDBRANCH  17  18
BRANCH  17  44
HETATM   44  C   UNL     1     -12.648  12.524  70.330  1.00  0.00    -0.099 C  
BRANCH  44  45
HETATM   45  C   UNL     1     -12.586  13.790  71.164  1.00  0.00    -0.452 A  
HETATM   46  C   UNL     1     -13.529  14.047  72.173  1.00  0.00    -0.567 A  
HETATM   47  C   UNL     1     -11.593  14.746  70.918  1.00  0.00    -0.316 A  
HETATM   48  C   UNL     1     -13.498  15.249  72.888  1.00  0.00    -0.611 A  
HETATM   49  C   UNL     1     -11.562  15.944  71.636  1.00  0.00    -0.541 A  
HETATM   50  C   UNL     1     -12.519  16.201  72.614  1.00  0.00    -0.535 A  
ENDBRANCH  44  45
ENDBRANCH  17  44
ENDBRANCH  15  17
ENDBRANCH   3  13
TORSDOF 14
ENDMDL
MODEL       64
REMARK 921   NORMALIZED FREE ENERGY PREDICTED BY IDOCK:   -5.80 KCAL/MOL
REMARK 922        TOTAL FREE ENERGY PREDICTED BY IDOCK:  -15.10 KCAL/MOL
REMARK 923 INTER-LIGAND FREE ENERGY PREDICTED BY IDOCK:  -10.30 KCAL/MOL
REMARK 924 INTRA-LIGAND FREE ENERGY PREDICTED BY IDOCK:   -4.79 KCAL/MOL
REMARK 927      BINDING AFFINITY PREDICTED BY RF-SCORE:    0.00 PKD
ROOT
HETATM    1  C   UNL     1     -13.276  15.303  70.521  1.00  0.00    -0.278 C  
HETATM    2  C   UNL     1     -11.976  15.006  69.756  1.00  0.00    -0.366 C  
HETATM    3  C   UNL     1     -12.060  13.634  69.018  1.00  0.00    -0.309 C  
HETATM    4  C   UNL     1     -11.675  16.189  68.834  1.00  0.00    -0.250 C  
ENDROOT
BRANCH   3   5
HETATM    5  N   UNL     1     -12.252  12.515  69.970  1.00  0.00    -0.240 N  
HETATM    6  H   UNL     1     -12.766   9.314  70.057  1.00  0.00     0.000 HD 
HETATM    7  O   UNL     1     -11.937  10.881  68.378  1.00  0.00    -0.543 OA 
HETATM    8  C   UNL     1     -12.292  12.763  71.405  1.00  0.00     0.037 C  
HETATM    9  C   UNL     1     -12.266  11.215  69.513  1.00  0.00    -0.277 C  
HETATM   10  C   UNL     1     -13.447  11.988  72.010  1.00  0.00    -0.364 C  
HETATM   11  N   UNL     1     -12.736  10.278  70.388  1.00  0.00    -0.236 N  
HETATM   12  C   UNL     1     -13.197  10.518  71.740  1.00  0.00    -0.417 C  
ENDBRANCH   3   5
BRANCH   3  13
HETATM   13  C   UNL     1     -10.844  13.413  68.066  1.00  0.00    -0.247 C  
HETATM   14  O   UNL     1     -10.942  13.360  66.845  1.00  0.00    -0.278 OA 
HETATM   15  N   UNL     1      -9.644  13.189  68.709  1.00  0.00    -0.411 N  
HETATM   16  H   UNL     1      -9.651  13.271  69.726  1.00  0.00     0.000 HD 
BRANCH  15  17
HETATM   17  C   UNL     1      -8.363  12.847  68.095  1.00  0.00    -0.168 C  
BRANCH  17  18
HETATM   18  C   UNL     1      -7.954  11.369  68.283  1.00  0.00    -0.136 C  
BRANCH  18  19
HETATM   19  C   UNL     1      -8.469  10.223  67.376  1.00  0.00    -0.125 C  
HETATM   20  O   UNL     1      -9.660  10.647  66.707  1.00  0.00    -0.164 OA 
HETATM   21  H   UNL     1      -9.976   9.944  66.151  1.00  0.00     0.000 HD 
BRANCH  19  22
HETATM   22  C   UNL     1      -8.827   8.944  68.229  1.00  0.00    -0.134 C  
BRANCH  22  23
HETATM   23  N   UNL     1      -9.629   7.914  67.474  1.00  0.00    -0.147 N  
HETATM   24  C   UNL     1     -10.637   7.011  67.732  1.00  0.00    -0.233 C  
HETATM   25  H   UNL     1      -9.344   7.875  66.495  1.00  0.00     0.000 HD 
HETATM   26  O   UNL     1     -11.225   6.504  66.771  1.00  0.00    -0.334 OA 
BRANCH  24  27
HETATM   27  C   UNL     1     -10.935   6.561  69.172  1.00  0.00    -0.323 C  
BRANCH  27  28
HETATM   28  O   UNL     1     -10.738   5.231  69.624  1.00  0.00    -0.273 OA 
BRANCH  28  29
HETATM   29  C   UNL     1      -9.855   5.012  70.673  1.00  0.00    -0.212 A  
HETATM   30  C   UNL     1     -11.390   5.458  72.788  1.00  0.00    -0.358 C  
HETATM   31  C   UNL     1     -10.127   5.063  72.065  1.00  0.00    -0.255 A  
HETATM   32  C   UNL     1      -9.109   4.678  72.972  1.00  0.00    -0.128 A  
HETATM   33  C   UNL     1      -7.851   4.275  72.553  1.00  0.00    -0.084 A  
HETATM   34  C   UNL     1      -7.567   4.262  71.199  1.00  0.00    -0.066 A  
HETATM   35  C   UNL     1      -8.543   4.635  70.253  1.00  0.00    -0.105 A  
HETATM   36  C   UNL     1      -8.122   4.617  68.804  1.00  0.00    -0.082 C  
ENDBRANCH  28  29
ENDBRANCH  27  28
ENDBRANCH  24  27
ENDBRANCH  22  23
BRANCH  22  37
HETATM   37  C   UNL     1      -7.638   8.440  69.092  1.00  0.00    -0.087 C  
BRANCH  37  38
HETATM   38  C   UNL     1      -7.955   8.292  70.555  1.00  0.00    -0.099 A  
HETATM   39  C   UNL     1      -8.479   8.263  73.305  1.00  0.00    -0.267 A  
HETATM   40  C   UNL     1      -6.965   7.896  71.458  1.00  0.00    -0.060 A  
HETATM   41  C   UNL     1      -9.487   8.588  72.407  1.00  0.00    -0.350 A  
HETATM   42  C   UNL     1      -9.236   8.553  71.038  1.00  0.00    -0.227 A  
HETATM   43  C   UNL     1      -7.228   7.881  72.826  1.00  0.00    -0.109 A  
ENDBRANCH  37  38
ENDBRANCH  22  37
ENDBRANCH  19  22
ENDBRANCH  18  19
ENDBRANCH  17  18
BRANCH  17  44
HETATM   44  C   UNL     1      -7.275  13.929  68.266  1.00  0.00    -0.112 C  
BRANCH  44  45
HETATM   45  C   UNL     1      -7.752  15.330  67.934  1.00  0.00    -0.147 A  
HETATM   46  C   UNL     1      -7.728  16.357  68.893  1.00  0.00    -0.230 A  
HETATM   47  C   UNL     1      -8.255  15.618  66.660  1.00  0.00    -0.284 A  
HETATM   48  C   UNL     1      -8.234  17.626  68.591  1.00  0.00    -0.264 A  
HETATM   49  C   UNL     1      -8.756  16.888  66.359  1.00  0.00    -0.321 A  
HETATM   50  C   UNL     1      -8.755  17.889  67.326  1.00  0.00    -0.240 A  
ENDBRANCH  44  45
ENDBRANCH  17  44
ENDBRANCH  15  17
ENDBRANCH   3  13
TORSDOF 14
ENDMDL
MODEL       65
REMARK 921   NORMALIZED FREE ENERGY PREDICTED BY IDOCK:   -5.77 KCAL/MOL
REMARK 922        TOTAL FREE ENERGY PREDICTED BY IDOCK:  -15.05 KCAL/MOL
REMARK 923 INTER-LIGAND FREE ENERGY PREDICTED BY IDOCK:  -11.38 KCAL/MOL
REMARK 924 INTRA-LIGAND FREE ENERGY PREDICTED BY IDOCK:   -3.67 KCAL/MOL
REMARK 927      BINDING AFFINITY PREDICTED BY RF-SCORE:    0.00 PKD
ROOT
HETATM    1  C   UNL     1     -10.644   4.716  72.604  1.00  0.00    -0.259 C  
HETATM    2  C   UNL     1      -9.910   4.948  71.274  1.00  0.00    -0.253 C  
HETATM    3  C   UNL     1      -9.524   6.449  71.100  1.00  0.00    -0.167 C  
HETATM    4  C   UNL     1      -8.720   3.990  71.203  1.00  0.00    -0.123 C  
ENDROOT
BRANCH   3   5
HETATM    5  N   UNL     1     -10.722   7.320  71.077  1.00  0.00    -0.229 N  
HETATM    6  H   UNL     1     -11.772  10.227  72.063  1.00  0.00     0.000 HD 
HETATM    7  O   UNL     1      -9.578   9.205  71.739  1.00  0.00    -0.283 OA 
HETATM    8  C   UNL     1     -11.966   6.852  70.477  1.00  0.00    -0.305 C  
HETATM    9  C   UNL     1     -10.635   8.627  71.506  1.00  0.00    -0.282 C  
HETATM   10  C   UNL     1     -13.121   7.200  71.396  1.00  0.00    -0.408 C  
HETATM   11  N   UNL     1     -11.823   9.264  71.730  1.00  0.00    -0.374 N  
HETATM   12  C   UNL     1     -13.146   8.707  71.542  1.00  0.00    -0.305 C  
ENDBRANCH   3   5
BRANCH   3  13
HETATM   13  C   UNL     1      -8.594   6.671  69.868  1.00  0.00    -0.140 C  
HETATM   14  O   UNL     1      -7.407   6.963  69.959  1.00  0.00    -0.077 OA 
HETATM   15  N   UNL     1      -9.233   6.599  68.646  1.00  0.00    -0.129 N  
HETATM   16  H   UNL     1     -10.217   6.331  68.663  1.00  0.00     0.000 HD 
BRANCH  15  17
HETATM   17  C   UNL     1      -8.655   6.866  67.331  1.00  0.00    -0.121 C  
BRANCH  17  18
HETATM   18  C   UNL     1      -9.006   8.260  66.765  1.00  0.00    -0.174 C  
BRANCH  18  19
HETATM   19  C   UNL     1      -9.726   9.356  67.592  1.00  0.00    -0.155 C  
HETATM   20  O   UNL     1     -11.068   8.939  67.863  1.00  0.00    -0.497 OA 
HETATM   21  H   UNL     1     -11.509   9.611  68.370  1.00  0.00     0.000 HD 
BRANCH  19  22
HETATM   22  C   UNL     1      -9.799  10.713  66.789  1.00  0.00    -0.198 C  
BRANCH  22  23
HETATM   23  N   UNL     1      -8.477  11.433  66.693  1.00  0.00    -0.168 N  
HETATM   24  C   UNL     1      -7.790  12.408  67.384  1.00  0.00    -0.174 C  
HETATM   25  H   UNL     1      -7.940  11.106  65.891  1.00  0.00     0.000 HD 
HETATM   26  O   UNL     1      -6.589  12.558  67.140  1.00  0.00    -0.150 OA 
BRANCH  24  27
HETATM   27  C   UNL     1      -8.530  13.357  68.342  1.00  0.00    -0.135 C  
BRANCH  27  28
HETATM   28  O   UNL     1      -9.724  14.037  67.989  1.00  0.00    -0.208 OA 
BRANCH  28  29
HETATM   29  C   UNL     1     -10.624  14.361  68.994  1.00  0.00    -0.237 A  
HETATM   30  C   UNL     1     -11.725  12.008  69.526  1.00  0.00    -0.408 C  
HETATM   31  C   UNL     1     -11.480  13.485  69.712  1.00  0.00    -0.246 A  
HETATM   32  C   UNL     1     -12.233  14.003  70.793  1.00  0.00    -0.438 A  
HETATM   33  C   UNL     1     -12.183  15.338  71.163  1.00  0.00    -0.409 A  
HETATM   34  C   UNL     1     -11.383  16.206  70.442  1.00  0.00    -0.377 A  
HETATM   35  C   UNL     1     -10.612  15.742  69.356  1.00  0.00    -0.255 A  
HETATM   36  C   UNL     1      -9.797  16.775  68.616  1.00  0.00    -0.261 C  
ENDBRANCH  28  29
ENDBRANCH  27  28
ENDBRANCH  24  27
ENDBRANCH  22  23
BRANCH  22  37
HETATM   37  C   UNL     1     -10.656  10.607  65.498  1.00  0.00    -0.180 C  
BRANCH  37  38
HETATM   38  C   UNL     1     -11.270  11.907  65.056  1.00  0.00    -0.350 A  
HETATM   39  C   UNL     1     -12.643  14.210  64.248  1.00  0.00    -0.162 A  
HETATM   40  C   UNL     1     -11.458  12.178  63.699  1.00  0.00    -0.566 A  
HETATM   41  C   UNL     1     -12.396  13.983  65.596  1.00  0.00    -0.502 A  
HETATM   42  C   UNL     1     -11.671  12.862  65.990  1.00  0.00    -0.456 A  
HETATM   43  C   UNL     1     -12.140  13.324  63.298  1.00  0.00    -0.407 A  
ENDBRANCH  37  38
ENDBRANCH  22  37
ENDBRANCH  19  22
ENDBRANCH  18  19
ENDBRANCH  17  18
BRANCH  17  44
HETATM   44  C   UNL     1      -8.699   5.659  66.369  1.00  0.00    -0.126 C  
BRANCH  44  45
HETATM   45  C   UNL     1      -8.486   4.324  67.057  1.00  0.00    -0.104 A  
HETATM   46  C   UNL     1      -7.198   3.862  67.373  1.00  0.00    -0.067 A  
HETATM   47  C   UNL     1      -9.582   3.511  67.368  1.00  0.00    -0.172 A  
HETATM   48  C   UNL     1      -7.014   2.599  67.947  1.00  0.00    -0.048 A  
HETATM   49  C   UNL     1      -9.397   2.251  67.946  1.00  0.00    -0.232 A  
HETATM   50  C   UNL     1      -8.114   1.791  68.227  1.00  0.00    -0.067 A  
ENDBRANCH  44  45
ENDBRANCH  17  44
ENDBRANCH  15  17
ENDBRANCH   3  13
TORSDOF 14
ENDMDL
MODEL       66
REMARK 921   NORMALIZED FREE ENERGY PREDICTED BY IDOCK:   -5.75 KCAL/MOL
REMARK 922        TOTAL FREE ENERGY PREDICTED BY IDOCK:  -15.01 KCAL/MOL
REMARK 923 INTER-LIGAND FREE ENERGY PREDICTED BY IDOCK:  -11.98 KCAL/MOL
REMARK 924 INTRA-LIGAND FREE ENERGY PREDICTED BY IDOCK:   -3.03 KCAL/MOL
REMARK 927      BINDING AFFINITY PREDICTED BY RF-SCORE:    0.00 PKD
ROOT
HETATM    1  C   UNL     1      -7.447   5.002  68.595  1.00  0.00    -0.070 C  
HETATM    2  C   UNL     1      -8.686   5.771  69.080  1.00  0.00    -0.113 C  
HETATM    3  C   UNL     1      -8.871   7.098  68.281  1.00  0.00    -0.127 C  
HETATM    4  C   UNL     1      -9.895   4.835  69.016  1.00  0.00    -0.239 C  
ENDROOT
BRANCH   3   5
HETATM    5  N   UNL     1      -7.715   8.006  68.460  1.00  0.00    -0.104 N  
HETATM    6  H   UNL     1      -5.509   9.677  66.767  1.00  0.00     0.000 HD 
HETATM    7  O   UNL     1      -7.672   8.666  66.254  1.00  0.00    -0.095 OA 
HETATM    8  C   UNL     1      -7.239   8.345  69.796  1.00  0.00    -0.056 C  
HETATM    9  C   UNL     1      -7.160   8.642  67.369  1.00  0.00    -0.080 C  
HETATM   10  C   UNL     1      -5.726   8.247  69.822  1.00  0.00    -0.026 C  
HETATM   11  N   UNL     1      -5.937   9.217  67.570  1.00  0.00    -0.049 N  
HETATM   12  C   UNL     1      -5.190   9.238  68.810  1.00  0.00    -0.037 C  
ENDBRANCH   3   5
BRANCH   3  13
HETATM   13  C   UNL     1     -10.233   7.785  68.604  1.00  0.00    -0.201 C  
HETATM   14  O   UNL     1     -10.998   8.211  67.745  1.00  0.00    -0.057 OA 
HETATM   15  N   UNL     1     -10.481   7.963  69.950  1.00  0.00    -0.225 N  
HETATM   16  H   UNL     1      -9.801   7.561  70.595  1.00  0.00     0.000 HD 
BRANCH  15  17
HETATM   17  C   UNL     1     -11.612   8.665  70.554  1.00  0.00    -0.139 C  
BRANCH  17  18
HETATM   18  C   UNL     1     -11.396  10.188  70.698  1.00  0.00    -0.433 C  
BRANCH  18  19
HETATM   19  C   UNL     1     -11.957  11.225  69.690  1.00  0.00    -0.353 C  
HETATM   20  O   UNL     1     -12.068  10.617  68.400  1.00  0.00    -0.813 OA 
HETATM   21  H   UNL     1     -12.411  11.252  67.782  1.00  0.00     0.000 HD 
BRANCH  19  22
HETATM   22  C   UNL     1     -10.987  12.463  69.556  1.00  0.00     0.077 C  
BRANCH  22  23
HETATM   23  N   UNL     1      -9.850  12.242  68.589  1.00  0.00    -0.381 N  
HETATM   24  C   UNL     1      -8.650  12.838  68.268  1.00  0.00    -0.166 C  
HETATM   25  H   UNL     1     -10.018  11.420  68.010  1.00  0.00     0.000 HD 
HETATM   26  O   UNL     1      -7.851  12.201  67.574  1.00  0.00    -0.141 OA 
BRANCH  24  27
HETATM   27  C   UNL     1      -8.369  14.297  68.665  1.00  0.00    -0.135 C  
BRANCH  27  28
HETATM   28  O   UNL     1      -8.053  15.308  67.722  1.00  0.00    -0.132 OA 
BRANCH  28  29
HETATM   29  C   UNL     1      -8.541  16.590  67.935  1.00  0.00    -0.183 A  
HETATM   30  C   UNL     1      -6.619  17.673  69.407  1.00  0.00    -0.206 C  
HETATM   31  C   UNL     1      -7.913  17.656  68.632  1.00  0.00    -0.275 A  
HETATM   32  C   UNL     1      -8.530  18.930  68.625  1.00  0.00    -0.381 A  
HETATM   33  C   UNL     1      -9.734  19.172  67.982  1.00  0.00    -0.414 A  
HETATM   34  C   UNL     1     -10.371  18.127  67.335  1.00  0.00    -0.402 A  
HETATM   35  C   UNL     1      -9.801  16.839  67.312  1.00  0.00    -0.260 A  
HETATM   36  C   UNL     1     -10.591  15.763  66.607  1.00  0.00    -0.307 C  
ENDBRANCH  28  29
ENDBRANCH  27  28
ENDBRANCH  24  27
ENDBRANCH  22  23
BRANCH  22  37
HETATM   37  C   UNL     1     -11.742  13.818  69.482  1.00  0.00    -0.380 C  
BRANCH  37  38
HETATM   38  C   UNL     1     -12.146  14.374  70.819  1.00  0.00    -0.408 A  
HETATM   39  C   UNL     1     -13.038  15.583  73.182  1.00  0.00    -0.656 A  
HETATM   40  C   UNL     1     -11.393  15.384  71.424  1.00  0.00    -0.449 A  
HETATM   41  C   UNL     1     -13.754  14.531  72.624  1.00  0.00    -0.543 A  
HETATM   42  C   UNL     1     -13.280  13.901  71.477  1.00  0.00    -0.425 A  
HETATM   43  C   UNL     1     -11.838  15.984  72.600  1.00  0.00    -0.611 A  
ENDBRANCH  37  38
ENDBRANCH  22  37
ENDBRANCH  19  22
ENDBRANCH  18  19
ENDBRANCH  17  18
BRANCH  17  44
HETATM   44  C   UNL     1     -12.264   7.910  71.732  1.00  0.00    -0.344 C  
BRANCH  44  45
HETATM   45  C   UNL     1     -11.297   7.028  72.500  1.00  0.00    -0.301 A  
HETATM   46  C   UNL     1     -10.269   7.579  73.282  1.00  0.00    -0.398 A  
HETATM   47  C   UNL     1     -11.400   5.634  72.418  1.00  0.00    -0.327 A  
HETATM   48  C   UNL     1      -9.344   6.752  73.930  1.00  0.00    -0.220 A  
HETATM   49  C   UNL     1     -10.478   4.810  73.069  1.00  0.00    -0.258 A  
HETATM   50  C   UNL     1      -9.445   5.368  73.817  1.00  0.00    -0.138 A  
ENDBRANCH  44  45
ENDBRANCH  17  44
ENDBRANCH  15  17
ENDBRANCH   3  13
TORSDOF 14
ENDMDL
MODEL       67
REMARK 921   NORMALIZED FREE ENERGY PREDICTED BY IDOCK:   -5.73 KCAL/MOL
REMARK 922        TOTAL FREE ENERGY PREDICTED BY IDOCK:  -14.98 KCAL/MOL
REMARK 923 INTER-LIGAND FREE ENERGY PREDICTED BY IDOCK:  -12.15 KCAL/MOL
REMARK 924 INTRA-LIGAND FREE ENERGY PREDICTED BY IDOCK:   -2.83 KCAL/MOL
REMARK 927      BINDING AFFINITY PREDICTED BY RF-SCORE:    0.00 PKD
ROOT
HETATM    1  C   UNL     1     -10.998  14.134  64.627  1.00  0.00    -0.393 C  
HETATM    2  C   UNL     1     -10.576  13.266  65.822  1.00  0.00    -0.291 C  
HETATM    3  C   UNL     1     -10.993  13.928  67.172  1.00  0.00    -0.291 C  
HETATM    4  C   UNL     1     -11.142  11.858  65.623  1.00  0.00    -0.362 C  
ENDROOT
BRANCH   3   5
HETATM    5  N   UNL     1     -10.337  15.244  67.357  1.00  0.00    -0.252 N  
HETATM    6  H   UNL     1     -10.938  18.259  68.392  1.00  0.00     0.000 HD 
HETATM    7  O   UNL     1     -12.022  16.089  68.679  1.00  0.00    -0.306 OA 
HETATM    8  C   UNL     1      -8.952  15.445  66.948  1.00  0.00    -0.247 C  
HETATM    9  C   UNL     1     -10.990  16.251  68.035  1.00  0.00    -0.328 C  
HETATM   10  C   UNL     1      -8.843  16.761  66.202  1.00  0.00    -0.298 C  
HETATM   11  N   UNL     1     -10.456  17.502  67.908  1.00  0.00    -0.371 N  
HETATM   12  C   UNL     1      -9.272  17.859  67.153  1.00  0.00    -0.258 C  
ENDBRANCH   3   5
BRANCH   3  13
HETATM   13  C   UNL     1     -10.770  12.969  68.382  1.00  0.00    -0.256 C  
HETATM   14  O   UNL     1      -9.684  12.473  68.662  1.00  0.00    -0.163 OA 
HETATM   15  N   UNL     1     -11.918  12.643  69.076  1.00  0.00    -0.273 N  
HETATM   16  H   UNL     1     -12.773  13.117  68.787  1.00  0.00     0.000 HD 
BRANCH  15  17
HETATM   17  C   UNL     1     -12.042  11.693  70.179  1.00  0.00    -0.333 C  
BRANCH  17  18
HETATM   18  C   UNL     1     -11.997  10.213  69.737  1.00  0.00    -0.106 C  
BRANCH  18  19
HETATM   19  C   UNL     1     -10.688   9.486  69.333  1.00  0.00    -0.225 C  
HETATM   20  O   UNL     1     -11.006   8.376  68.489  1.00  0.00    -0.436 OA 
HETATM   21  H   UNL     1     -10.204   7.930  68.241  1.00  0.00     0.000 HD 
BRANCH  19  22
HETATM   22  C   UNL     1      -9.939   8.925  70.604  1.00  0.00    -0.216 C  
BRANCH  22  23
HETATM   23  N   UNL     1      -8.603   9.577  70.859  1.00  0.00    -0.152 N  
HETATM   24  C   UNL     1      -7.393   9.718  70.213  1.00  0.00    -0.158 C  
HETATM   25  H   UNL     1      -8.592  10.047  71.763  1.00  0.00     0.000 HD 
HETATM   26  O   UNL     1      -6.601  10.563  70.641  1.00  0.00    -0.313 OA 
BRANCH  24  27
HETATM   27  C   UNL     1      -7.000   8.767  69.071  1.00  0.00    -0.064 C  
BRANCH  27  28
HETATM   28  O   UNL     1      -7.944   8.199  68.177  1.00  0.00    -0.122 OA 
BRANCH  28  29
HETATM   29  C   UNL     1      -7.928   6.825  67.980  1.00  0.00    -0.114 A  
HETATM   30  C   UNL     1      -8.089   5.912  70.464  1.00  0.00    -0.111 C  
HETATM   31  C   UNL     1      -8.033   5.804  68.961  1.00  0.00    -0.098 A  
HETATM   32  C   UNL     1      -8.124   4.457  68.534  1.00  0.00    -0.081 A  
HETATM   33  C   UNL     1      -8.093   4.096  67.196  1.00  0.00    -0.100 A  
HETATM   34  C   UNL     1      -7.949   5.083  66.237  1.00  0.00    -0.107 A  
HETATM   35  C   UNL     1      -7.853   6.440  66.607  1.00  0.00    -0.104 A  
HETATM   36  C   UNL     1      -7.667   7.435  65.488  1.00  0.00    -0.107 C  
ENDBRANCH  28  29
ENDBRANCH  27  28
ENDBRANCH  24  27
ENDBRANCH  22  23
BRANCH  22  37
HETATM   37  C   UNL     1     -10.882   8.717  71.820  1.00  0.00    -0.416 C  
BRANCH  37  38
HETATM   38  C   UNL     1     -10.745   7.376  72.486  1.00  0.00    -0.315 A  
HETATM   39  C   UNL     1     -10.709   4.930  73.850  1.00  0.00    -0.363 A  
HETATM   40  C   UNL     1     -10.052   7.250  73.692  1.00  0.00    -0.387 A  
HETATM   41  C   UNL     1     -11.339   5.031  72.616  1.00  0.00    -0.209 A  
HETATM   42  C   UNL     1     -11.312   6.235  71.919  1.00  0.00    -0.348 A  
HETATM   43  C   UNL     1     -10.034   6.033  74.370  1.00  0.00    -0.300 A  
ENDBRANCH  37  38
ENDBRANCH  22  37
ENDBRANCH  19  22
ENDBRANCH  18  19
ENDBRANCH  17  18
BRANCH  17  44
HETATM   44  C   UNL     1     -13.082  12.100  71.245  1.00  0.00    -0.210 C  
BRANCH  44  45
HETATM   45  C   UNL     1     -12.974  13.550  71.678  1.00  0.00    -0.447 A  
HETATM   46  C   UNL     1     -11.746  14.233  71.644  1.00  0.00     0.143 A  
HETATM   47  C   UNL     1     -14.103  14.230  72.148  1.00  0.00    -0.634 A  
HETATM   48  C   UNL     1     -11.650  15.549  72.109  1.00  0.00    -0.552 A  
HETATM   49  C   UNL     1     -14.006  15.547  72.608  1.00  0.00    -0.617 A  
HETATM   50  C   UNL     1     -12.778  16.203  72.598  1.00  0.00    -0.457 A  
ENDBRANCH  44  45
ENDBRANCH  17  44
ENDBRANCH  15  17
ENDBRANCH   3  13
TORSDOF 14
ENDMDL
MODEL       68
REMARK 921   NORMALIZED FREE ENERGY PREDICTED BY IDOCK:   -5.73 KCAL/MOL
REMARK 922        TOTAL FREE ENERGY PREDICTED BY IDOCK:  -14.98 KCAL/MOL
REMARK 923 INTER-LIGAND FREE ENERGY PREDICTED BY IDOCK:  -10.38 KCAL/MOL
REMARK 924 INTRA-LIGAND FREE ENERGY PREDICTED BY IDOCK:   -4.60 KCAL/MOL
REMARK 927      BINDING AFFINITY PREDICTED BY RF-SCORE:    0.00 PKD
ROOT
HETATM    1  C   UNL     1     -11.652  14.862  69.284  1.00  0.00    -0.330 C  
HETATM    2  C   UNL     1     -12.028  13.397  69.015  1.00  0.00    -0.357 C  
HETATM    3  C   UNL     1     -11.074  12.756  67.960  1.00  0.00    -0.250 C  
HETATM    4  C   UNL     1     -12.065  12.652  70.351  1.00  0.00    -0.381 C  
ENDROOT
BRANCH   3   5
HETATM    5  N   UNL     1     -11.154  13.457  66.657  1.00  0.00    -0.291 N  
HETATM    6  H   UNL     1      -9.635  15.710  64.886  1.00  0.00     0.000 HD 
HETATM    7  O   UNL     1      -9.020  14.312  66.791  1.00  0.00    -0.251 OA 
HETATM    8  C   UNL     1     -12.259  13.195  65.743  1.00  0.00    -0.456 C  
HETATM    9  C   UNL     1     -10.118  14.266  66.243  1.00  0.00    -0.298 C  
HETATM   10  C   UNL     1     -12.781  14.514  65.206  1.00  0.00    -0.176 C  
HETATM   11  N   UNL     1     -10.389  15.095  65.192  1.00  0.00    -0.390 N  
HETATM   12  C   UNL     1     -11.641  15.187  64.470  1.00  0.00    -0.329 C  
ENDBRANCH   3   5
BRANCH   3  13
HETATM   13  C   UNL     1     -11.299  11.218  67.832  1.00  0.00    -0.299 C  
HETATM   14  O   UNL     1     -12.234  10.625  68.358  1.00  0.00    -0.372 OA 
HETATM   15  N   UNL     1     -10.307  10.548  67.145  1.00  0.00    -0.222 N  
HETATM   16  H   UNL     1      -9.578  11.123  66.724  1.00  0.00     0.000 HD 
BRANCH  15  17
HETATM   17  C   UNL     1     -10.187   9.104  66.955  1.00  0.00    -0.263 C  
BRANCH  17  18
HETATM   18  C   UNL     1     -10.153   8.301  68.275  1.00  0.00    -0.231 C  
BRANCH  18  19
HETATM   19  C   UNL     1     -10.495   6.791  68.360  1.00  0.00    -0.205 C  
HETATM   20  O   UNL     1     -11.782   6.564  67.777  1.00  0.00    -0.552 OA 
HETATM   21  H   UNL     1     -11.991   5.639  67.830  1.00  0.00     0.000 HD 
BRANCH  19  22
HETATM   22  C   UNL     1     -10.556   6.310  69.862  1.00  0.00    -0.249 C  
BRANCH  22  23
HETATM   23  N   UNL     1     -11.849   6.653  70.558  1.00  0.00    -0.447 N  
HETATM   24  C   UNL     1     -12.275   7.475  71.579  1.00  0.00    -0.331 C  
HETATM   25  H   UNL     1     -12.628   6.131  70.160  1.00  0.00     0.000 HD 
HETATM   26  O   UNL     1     -13.487   7.678  71.696  1.00  0.00    -0.354 OA 
BRANCH  24  27
HETATM   27  C   UNL     1     -11.275   8.022  72.612  1.00  0.00    -0.397 C  
BRANCH  27  28
HETATM   28  O   UNL     1     -10.952   7.340  73.814  1.00  0.00    -0.255 OA 
BRANCH  28  29
HETATM   29  C   UNL     1      -9.815   6.544  73.840  1.00  0.00    -0.252 A  
HETATM   30  C   UNL     1      -7.885   8.350  74.052  1.00  0.00    -0.215 C  
HETATM   31  C   UNL     1      -8.466   6.959  73.987  1.00  0.00    -0.165 A  
HETATM   32  C   UNL     1      -7.460   5.971  74.117  1.00  0.00    -0.087 A  
HETATM   33  C   UNL     1      -7.741   4.614  74.086  1.00  0.00    -0.089 A  
HETATM   34  C   UNL     1      -9.049   4.203  73.902  1.00  0.00    -0.093 A  
HETATM   35  C   UNL     1     -10.089   5.145  73.767  1.00  0.00    -0.223 A  
HETATM   36  C   UNL     1     -11.475   4.593  73.539  1.00  0.00    -0.277 C  
ENDBRANCH  28  29
ENDBRANCH  27  28
ENDBRANCH  24  27
ENDBRANCH  22  23
BRANCH  22  37
HETATM   37  C   UNL     1      -9.989   4.878  70.062  1.00  0.00    -0.323 C  
BRANCH  37  38
HETATM   38  C   UNL     1      -8.519   4.834  70.376  1.00  0.00    -0.102 A  
HETATM   39  C   UNL     1      -5.739   4.770  70.707  1.00  0.00    -0.016 A  
HETATM   40  C   UNL     1      -7.842   3.613  70.435  1.00  0.00    -0.047 A  
HETATM   41  C   UNL     1      -6.415   5.983  70.722  1.00  0.00    -0.040 A  
HETATM   42  C   UNL     1      -7.801   6.007  70.606  1.00  0.00    -0.106 A  
HETATM   43  C   UNL     1      -6.459   3.582  70.601  1.00  0.00    -0.031 A  
ENDBRANCH  37  38
ENDBRANCH  22  37
ENDBRANCH  19  22
ENDBRANCH  18  19
ENDBRANCH  17  18
BRANCH  17  44
HETATM   44  C   UNL     1      -9.208   8.697  65.833  1.00  0.00    -0.264 C  
BRANCH  44  45
HETATM   45  C   UNL     1      -7.871   8.193  66.344  1.00  0.00    -0.093 A  
HETATM   46  C   UNL     1      -7.523   6.835  66.264  1.00  0.00    -0.077 A  
HETATM   47  C   UNL     1      -6.964   9.081  66.936  1.00  0.00    -0.078 A  
HETATM   48  C   UNL     1      -6.315   6.376  66.801  1.00  0.00    -0.041 A  
HETATM   49  C   UNL     1      -5.756   8.622  67.467  1.00  0.00    -0.039 A  
HETATM   50  C   UNL     1      -5.435   7.268  67.409  1.00  0.00    -0.028 A  
ENDBRANCH  44  45
ENDBRANCH  17  44
ENDBRANCH  15  17
ENDBRANCH   3  13
TORSDOF 14
ENDMDL
MODEL       69
REMARK 921   NORMALIZED FREE ENERGY PREDICTED BY IDOCK:   -5.73 KCAL/MOL
REMARK 922        TOTAL FREE ENERGY PREDICTED BY IDOCK:  -14.97 KCAL/MOL
REMARK 923 INTER-LIGAND FREE ENERGY PREDICTED BY IDOCK:  -11.33 KCAL/MOL
REMARK 924 INTRA-LIGAND FREE ENERGY PREDICTED BY IDOCK:   -3.64 KCAL/MOL
REMARK 927      BINDING AFFINITY PREDICTED BY RF-SCORE:    0.00 PKD
ROOT
HETATM    1  C   UNL     1      -7.961   5.723  64.039  1.00  0.00    -0.121 C  
HETATM    2  C   UNL     1      -8.158   7.199  64.416  1.00  0.00    -0.056 C  
HETATM    3  C   UNL     1      -7.698   7.471  65.882  1.00  0.00    -0.099 C  
HETATM    4  C   UNL     1      -7.449   8.065  63.373  1.00  0.00    -0.122 C  
ENDROOT
BRANCH   3   5
HETATM    5  N   UNL     1      -8.486   6.680  66.855  1.00  0.00    -0.113 N  
HETATM    6  H   UNL     1      -8.148   4.861  69.519  1.00  0.00     0.000 HD 
HETATM    7  O   UNL     1      -6.768   6.523  68.380  1.00  0.00    -0.062 OA 
HETATM    8  C   UNL     1      -9.926   6.524  66.688  1.00  0.00    -0.143 C  
HETATM    9  C   UNL     1      -7.886   6.192  67.996  1.00  0.00    -0.106 C  
HETATM   10  C   UNL     1     -10.297   5.071  66.919  1.00  0.00    -0.267 C  
HETATM   11  N   UNL     1      -8.587   5.241  68.681  1.00  0.00    -0.088 N  
HETATM   12  C   UNL     1      -9.893   4.719  68.335  1.00  0.00    -0.121 C  
ENDBRANCH   3   5
BRANCH   3  13
HETATM   13  C   UNL     1      -7.686   8.995  66.214  1.00  0.00    -0.095 C  
HETATM   14  O   UNL     1      -6.658   9.648  66.358  1.00  0.00    -0.069 OA 
HETATM   15  N   UNL     1      -8.933   9.547  66.423  1.00  0.00    -0.149 N  
HETATM   16  H   UNL     1      -9.733   8.936  66.262  1.00  0.00     0.000 HD 
BRANCH  15  17
HETATM   17  C   UNL     1      -9.234  10.911  66.850  1.00  0.00    -0.161 C  
BRANCH  17  18
HETATM   18  C   UNL     1      -9.172  11.951  65.710  1.00  0.00    -0.110 C  
BRANCH  18  19
HETATM   19  C   UNL     1     -10.433  12.579  65.063  1.00  0.00    -0.297 C  
HETATM   20  O   UNL     1     -10.068  13.209  63.831  1.00  0.00    -0.733 OA 
HETATM   21  H   UNL     1     -10.841  13.594  63.434  1.00  0.00     0.000 HD 
BRANCH  19  22
HETATM   22  C   UNL     1     -11.058  13.685  66.001  1.00  0.00    -0.293 C  
BRANCH  22  23
HETATM   23  N   UNL     1     -11.387  14.972  65.287  1.00  0.00    -0.358 N  
HETATM   24  C   UNL     1     -10.804  16.202  65.072  1.00  0.00    -0.363 C  
HETATM   25  H   UNL     1     -12.299  14.916  64.835  1.00  0.00     0.000 HD 
HETATM   26  O   UNL     1     -11.283  16.929  64.197  1.00  0.00    -1.176 OA 
BRANCH  24  27
HETATM   27  C   UNL     1      -9.665  16.697  65.981  1.00  0.00    -0.278 C  
BRANCH  27  28
HETATM   28  O   UNL     1      -8.964  17.908  65.752  1.00  0.00    -0.492 OA 
BRANCH  28  29
HETATM   29  C   UNL     1      -8.276  18.486  66.810  1.00  0.00    -0.257 A  
HETATM   30  C   UNL     1     -10.184  18.737  68.634  1.00  0.00    -0.366 C  
HETATM   31  C   UNL     1      -8.777  18.819  68.096  1.00  0.00    -0.335 A  
HETATM   32  C   UNL     1      -7.872  19.286  69.079  1.00  0.00    -0.314 A  
HETATM   33  C   UNL     1      -6.518  19.451  68.828  1.00  0.00    -0.296 A  
HETATM   34  C   UNL     1      -6.031  19.167  67.564  1.00  0.00    -0.193 A  
HETATM   35  C   UNL     1      -6.888  18.700  66.548  1.00  0.00    -0.231 A  
HETATM   36  C   UNL     1      -6.263  18.450  65.198  1.00  0.00    -0.191 C  
ENDBRANCH  28  29
ENDBRANCH  27  28
ENDBRANCH  24  27
ENDBRANCH  22  23
BRANCH  22  37
HETATM   37  C   UNL     1     -12.116  13.116  66.985  1.00  0.00    -0.366 C  
BRANCH  37  38
HETATM   38  C   UNL     1     -12.054  13.705  68.367  1.00  0.00    -0.312 A  
HETATM   39  C   UNL     1     -12.195  14.829  70.928  1.00  0.00    -0.384 A  
HETATM   40  C   UNL     1     -11.885  15.081  68.545  1.00  0.00    -0.319 A  
HETATM   41  C   UNL     1     -12.293  13.454  70.764  1.00  0.00    -0.433 A  
HETATM   42  C   UNL     1     -12.173  12.895  69.495  1.00  0.00    -0.177 A  
HETATM   43  C   UNL     1     -11.954  15.639  69.820  1.00  0.00    -0.371 A  
ENDBRANCH  37  38
ENDBRANCH  22  37
ENDBRANCH  19  22
ENDBRANCH  18  19
ENDBRANCH  17  18
BRANCH  17  44
HETATM   44  C   UNL     1      -8.619  11.292  68.215  1.00  0.00    -0.153 C  
BRANCH  44  45
HETATM   45  C   UNL     1      -7.972  12.665  68.228  1.00  0.00    -0.153 A  
HETATM   46  C   UNL     1      -8.673  13.799  68.670  1.00  0.00    -0.051 A  
HETATM   47  C   UNL     1      -6.659  12.828  67.770  1.00  0.00    -0.134 A  
HETATM   48  C   UNL     1      -8.085  15.067  68.614  1.00  0.00    -0.153 A  
HETATM   49  C   UNL     1      -6.072  14.095  67.718  1.00  0.00    -0.134 A  
HETATM   50  C   UNL     1      -6.787  15.216  68.131  1.00  0.00    -0.135 A  
ENDBRANCH  44  45
ENDBRANCH  17  44
ENDBRANCH  15  17
ENDBRANCH   3  13
TORSDOF 14
ENDMDL
MODEL       70
REMARK 921   NORMALIZED FREE ENERGY PREDICTED BY IDOCK:   -5.73 KCAL/MOL
REMARK 922        TOTAL FREE ENERGY PREDICTED BY IDOCK:  -14.97 KCAL/MOL
REMARK 923 INTER-LIGAND FREE ENERGY PREDICTED BY IDOCK:  -10.20 KCAL/MOL
REMARK 924 INTRA-LIGAND FREE ENERGY PREDICTED BY IDOCK:   -4.77 KCAL/MOL
REMARK 927      BINDING AFFINITY PREDICTED BY RF-SCORE:    0.00 PKD
ROOT
HETATM    1  C   UNL     1     -13.286  12.392  72.184  1.00  0.00    -0.508 C  
HETATM    2  C   UNL     1     -12.297  12.474  71.011  1.00  0.00    -0.307 C  
HETATM    3  C   UNL     1     -12.447  11.244  70.063  1.00  0.00    -0.182 C  
HETATM    4  C   UNL     1     -12.485  13.822  70.311  1.00  0.00    -0.357 C  
ENDROOT
BRANCH   3   5
HETATM    5  N   UNL     1     -12.157   9.975  70.770  1.00  0.00    -0.309 N  
HETATM    6  H   UNL     1     -13.560   7.735  72.651  1.00  0.00     0.000 HD 
HETATM    7  O   UNL     1     -14.373   9.478  71.146  1.00  0.00     0.039 OA 
HETATM    8  C   UNL     1     -10.813   9.410  70.755  1.00  0.00    -0.305 C  
HETATM    9  C   UNL     1     -13.183   9.251  71.339  1.00  0.00    -0.325 C  
HETATM   10  C   UNL     1     -10.448   8.962  72.158  1.00  0.00    -0.320 C  
HETATM   11  N   UNL     1     -12.809   8.268  72.211  1.00  0.00    -0.307 N  
HETATM   12  C   UNL     1     -11.454   7.908  72.573  1.00  0.00    -0.398 C  
ENDBRANCH   3   5
BRANCH   3  13
HETATM   13  C   UNL     1     -11.610  11.412  68.758  1.00  0.00    -0.313 C  
HETATM   14  O   UNL     1     -12.098  11.385  67.633  1.00  0.00    -0.630 OA 
HETATM   15  N   UNL     1     -10.248  11.506  68.957  1.00  0.00    -0.384 N  
HETATM   16  H   UNL     1      -9.932  11.540  69.926  1.00  0.00     0.000 HD 
BRANCH  15  17
HETATM   17  C   UNL     1      -9.208  11.563  67.933  1.00  0.00    -0.168 C  
BRANCH  17  18
HETATM   18  C   UNL     1      -8.551  10.197  67.633  1.00  0.00    -0.118 C  
BRANCH  18  19
HETATM   19  C   UNL     1      -9.224   9.103  66.763  1.00  0.00    -0.155 C  
HETATM   20  O   UNL     1     -10.623   9.059  67.059  1.00  0.00    -0.261 OA 
HETATM   21  H   UNL     1     -11.035   8.389  66.526  1.00  0.00     0.000 HD 
BRANCH  19  22
HETATM   22  C   UNL     1      -8.620   7.679  67.081  1.00  0.00    -0.121 C  
BRANCH  22  23
HETATM   23  N   UNL     1      -8.942   6.638  66.039  1.00  0.00    -0.244 N  
HETATM   24  C   UNL     1      -9.156   5.277  65.983  1.00  0.00    -0.152 C  
HETATM   25  H   UNL     1      -9.024   7.059  65.114  1.00  0.00     0.000 HD 
HETATM   26  O   UNL     1      -9.660   4.809  64.958  1.00  0.00    -0.139 OA 
BRANCH  24  27
HETATM   27  C   UNL     1      -8.670   4.362  67.119  1.00  0.00    -0.105 C  
BRANCH  27  28
HETATM   28  O   UNL     1      -9.553   3.687  68.001  1.00  0.00    -0.176 OA 
BRANCH  28  29
HETATM   29  C   UNL     1      -9.575   4.067  69.336  1.00  0.00    -0.187 A  
HETATM   30  C   UNL     1     -11.179   6.178  69.281  1.00  0.00    -0.438 C  
HETATM   31  C   UNL     1     -10.312   5.126  69.928  1.00  0.00    -0.347 A  
HETATM   32  C   UNL     1     -10.293   5.265  71.337  1.00  0.00    -0.290 A  
HETATM   33  C   UNL     1      -9.564   4.420  72.159  1.00  0.00    -0.206 A  
HETATM   34  C   UNL     1      -8.811   3.411  71.585  1.00  0.00    -0.136 A  
HETATM   35  C   UNL     1      -8.794   3.228  70.188  1.00  0.00    -0.149 A  
HETATM   36  C   UNL     1      -7.916   2.119  69.661  1.00  0.00    -0.053 C  
ENDBRANCH  28  29
ENDBRANCH  27  28
ENDBRANCH  24  27
ENDBRANCH  22  23
BRANCH  22  37
HETATM   37  C   UNL     1      -7.161   7.744  67.607  1.00  0.00    -0.091 C  
BRANCH  37  38
HETATM   38  C   UNL     1      -6.958   7.091  68.947  1.00  0.00    -0.079 A  
HETATM   39  C   UNL     1      -6.376   6.028  71.471  1.00  0.00    -0.048 A  
HETATM   40  C   UNL     1      -6.155   5.953  69.066  1.00  0.00    -0.031 A  
HETATM   41  C   UNL     1      -7.232   7.115  71.353  1.00  0.00    -0.077 A  
HETATM   42  C   UNL     1      -7.558   7.609  70.093  1.00  0.00    -0.086 A  
HETATM   43  C   UNL     1      -5.867   5.425  70.323  1.00  0.00    -0.020 A  
ENDBRANCH  37  38
ENDBRANCH  22  37
ENDBRANCH  19  22
ENDBRANCH  18  19
ENDBRANCH  17  18
BRANCH  17  44
HETATM   44  C   UNL     1      -8.291  12.802  68.034  1.00  0.00    -0.173 C  
BRANCH  44  45
HETATM   45  C   UNL     1      -9.001  14.109  67.735  1.00  0.00    -0.187 A  
HETATM   46  C   UNL     1      -9.346  15.004  68.761  1.00  0.00    -0.200 A  
HETATM   47  C   UNL     1      -9.350  14.435  66.419  1.00  0.00    -0.284 A  
HETATM   48  C   UNL     1     -10.059  16.174  68.477  1.00  0.00    -0.241 A  
HETATM   49  C   UNL     1     -10.059  15.606  66.136  1.00  0.00    -0.333 A  
HETATM   50  C   UNL     1     -10.422  16.471  67.165  1.00  0.00    -0.300 A  
ENDBRANCH  44  45
ENDBRANCH  17  44
ENDBRANCH  15  17
ENDBRANCH   3  13
TORSDOF 14
ENDMDL
MODEL       71
REMARK 921   NORMALIZED FREE ENERGY PREDICTED BY IDOCK:   -5.70 KCAL/MOL
REMARK 922        TOTAL FREE ENERGY PREDICTED BY IDOCK:  -14.92 KCAL/MOL
REMARK 923 INTER-LIGAND FREE ENERGY PREDICTED BY IDOCK:  -12.24 KCAL/MOL
REMARK 924 INTRA-LIGAND FREE ENERGY PREDICTED BY IDOCK:   -2.68 KCAL/MOL
REMARK 927      BINDING AFFINITY PREDICTED BY RF-SCORE:    0.00 PKD
ROOT
HETATM    1  C   UNL     1     -11.118  15.907  64.856  1.00  0.00    -0.400 C  
HETATM    2  C   UNL     1     -10.704  14.774  65.808  1.00  0.00    -0.333 C  
HETATM    3  C   UNL     1     -10.569  15.294  67.273  1.00  0.00    -0.290 C  
HETATM    4  C   UNL     1     -11.696  13.620  65.650  1.00  0.00    -0.360 C  
ENDROOT
BRANCH   3   5
HETATM    5  N   UNL     1      -9.525  16.339  67.384  1.00  0.00    -0.226 N  
HETATM    6  H   UNL     1      -8.973  19.248  68.709  1.00  0.00     0.000 HD 
HETATM    7  O   UNL     1     -10.580  17.452  69.101  1.00  0.00    -0.321 OA 
HETATM    8  C   UNL     1      -8.253  16.193  66.687  1.00  0.00    -0.286 C  
HETATM    9  C   UNL     1      -9.696  17.397  68.252  1.00  0.00    -0.299 C  
HETATM   10  C   UNL     1      -7.902  17.507  66.017  1.00  0.00    -0.213 C  
HETATM   11  N   UNL     1      -8.846  18.453  68.084  1.00  0.00    -0.294 N  
HETATM   12  C   UNL     1      -7.784  18.554  67.105  1.00  0.00    -0.225 C  
ENDBRANCH   3   5
BRANCH   3  13
HETATM   13  C   UNL     1     -10.362  14.126  68.286  1.00  0.00    -0.245 C  
HETATM   14  O   UNL     1      -9.266  13.642  68.547  1.00  0.00    -0.190 OA 
HETATM   15  N   UNL     1     -11.529  13.609  68.812  1.00  0.00    -0.285 N  
HETATM   16  H   UNL     1     -12.393  14.086  68.556  1.00  0.00     0.000 HD 
BRANCH  15  17
HETATM   17  C   UNL     1     -11.662  12.453  69.696  1.00  0.00    -0.307 C  
BRANCH  17  18
HETATM   18  C   UNL     1     -11.447  11.097  68.988  1.00  0.00    -0.364 C  
BRANCH  18  19
HETATM   19  C   UNL     1     -10.184  10.221  69.194  1.00  0.00    -0.218 C  
HETATM   20  O   UNL     1      -9.157  10.654  68.298  1.00  0.00    -0.142 OA 
HETATM   21  H   UNL     1      -8.383  10.117  68.424  1.00  0.00     0.000 HD 
BRANCH  19  22
HETATM   22  C   UNL     1     -10.491   8.705  68.878  1.00  0.00    -0.192 C  
BRANCH  22  23
HETATM   23  N   UNL     1     -11.447   8.063  69.851  1.00  0.00    -0.448 N  
HETATM   24  C   UNL     1     -11.498   6.937  70.644  1.00  0.00    -0.336 C  
HETATM   25  H   UNL     1     -12.296   8.619  69.951  1.00  0.00     0.000 HD 
HETATM   26  O   UNL     1     -12.364   6.881  71.522  1.00  0.00    -0.343 OA 
BRANCH  24  27
HETATM   27  C   UNL     1     -10.577   5.737  70.360  1.00  0.00    -0.294 C  
BRANCH  27  28
HETATM   28  O   UNL     1      -9.403   5.469  71.108  1.00  0.00    -0.146 OA 
BRANCH  28  29
HETATM   29  C   UNL     1      -8.894   6.469  71.925  1.00  0.00    -0.134 A  
HETATM   30  C   UNL     1     -10.354   6.185  74.120  1.00  0.00    -0.308 C  
HETATM   31  C   UNL     1      -9.263   6.774  73.261  1.00  0.00    -0.154 A  
HETATM   32  C   UNL     1      -8.526   7.759  73.963  1.00  0.00    -0.304 A  
HETATM   33  C   UNL     1      -7.471   8.450  73.388  1.00  0.00    -0.118 A  
HETATM   34  C   UNL     1      -7.132   8.186  72.073  1.00  0.00    -0.091 A  
HETATM   35  C   UNL     1      -7.833   7.217  71.328  1.00  0.00    -0.098 A  
HETATM   36  C   UNL     1      -7.406   7.027  69.893  1.00  0.00    -0.085 C  
ENDBRANCH  28  29
ENDBRANCH  27  28
ENDBRANCH  24  27
ENDBRANCH  22  23
BRANCH  22  37
HETATM   37  C   UNL     1     -10.715   8.437  67.365  1.00  0.00    -0.225 C  
BRANCH  37  38
HETATM   38  C   UNL     1     -10.095   7.161  66.865  1.00  0.00    -0.308 A  
HETATM   39  C   UNL     1      -8.863   4.742  66.176  1.00  0.00    -0.120 A  
HETATM   40  C   UNL     1      -8.777   7.146  66.403  1.00  0.00    -0.146 A  
HETATM   41  C   UNL     1     -10.196   4.759  66.567  1.00  0.00    -0.294 A  
HETATM   42  C   UNL     1     -10.818   5.969  66.861  1.00  0.00    -0.396 A  
HETATM   43  C   UNL     1      -8.165   5.942  66.059  1.00  0.00    -0.123 A  
ENDBRANCH  37  38
ENDBRANCH  22  37
ENDBRANCH  19  22
ENDBRANCH  18  19
ENDBRANCH  17  18
BRANCH  17  44
HETATM   44  C   UNL     1     -12.822  12.566  70.709  1.00  0.00    -0.099 C  
BRANCH  44  45
HETATM   45  C   UNL     1     -12.847  13.885  71.459  1.00  0.00    -0.441 A  
HETATM   46  C   UNL     1     -11.662  14.505  71.889  1.00  0.00    -0.036 A  
HETATM   47  C   UNL     1     -14.069  14.499  71.761  1.00  0.00    -0.578 A  
HETATM   48  C   UNL     1     -11.706  15.686  72.637  1.00  0.00    -0.555 A  
HETATM   49  C   UNL     1     -14.110  15.681  72.505  1.00  0.00    -0.562 A  
HETATM   50  C   UNL     1     -12.931  16.270  72.952  1.00  0.00    -0.304 A  
ENDBRANCH  44  45
ENDBRANCH  17  44
ENDBRANCH  15  17
ENDBRANCH   3  13
TORSDOF 14
ENDMDL
MODEL       72
REMARK 921   NORMALIZED FREE ENERGY PREDICTED BY IDOCK:   -5.69 KCAL/MOL
REMARK 922        TOTAL FREE ENERGY PREDICTED BY IDOCK:  -14.91 KCAL/MOL
REMARK 923 INTER-LIGAND FREE ENERGY PREDICTED BY IDOCK:  -12.18 KCAL/MOL
REMARK 924 INTRA-LIGAND FREE ENERGY PREDICTED BY IDOCK:   -2.73 KCAL/MOL
REMARK 927      BINDING AFFINITY PREDICTED BY RF-SCORE:    0.00 PKD
ROOT
HETATM    1  C   UNL     1      -8.989   3.972  67.250  1.00  0.00    -0.148 C  
HETATM    2  C   UNL     1     -10.088   4.852  67.865  1.00  0.00    -0.146 C  
HETATM    3  C   UNL     1      -9.517   5.745  69.010  1.00  0.00    -0.124 C  
HETATM    4  C   UNL     1     -10.763   5.642  66.741  1.00  0.00    -0.358 C  
ENDROOT
BRANCH   3   5
HETATM    5  N   UNL     1      -8.967   4.925  70.115  1.00  0.00    -0.104 N  
HETATM    6  H   UNL     1      -6.191   4.290  71.669  1.00  0.00     0.000 HD 
HETATM    7  O   UNL     1      -6.982   6.087  70.217  1.00  0.00    -0.058 OA 
HETATM    8  C   UNL     1      -9.820   3.994  70.842  1.00  0.00    -0.159 C  
HETATM    9  C   UNL     1      -7.675   5.131  70.550  1.00  0.00    -0.071 C  
HETATM   10  C   UNL     1      -9.087   2.676  71.007  1.00  0.00    -0.181 C  
HETATM   11  N   UNL     1      -7.152   4.157  71.353  1.00  0.00    -0.038 N  
HETATM   12  C   UNL     1      -7.826   2.956  71.798  1.00  0.00    -0.053 C  
ENDBRANCH   3   5
BRANCH   3  13
HETATM   13  C   UNL     1     -10.559   6.796  69.501  1.00  0.00    -0.232 C  
HETATM   14  O   UNL     1     -11.752   6.551  69.643  1.00  0.00    -0.357 OA 
HETATM   15  N   UNL     1     -10.052   8.066  69.683  1.00  0.00    -0.194 N  
HETATM   16  H   UNL     1      -9.045   8.175  69.561  1.00  0.00     0.000 HD 
BRANCH  15  17
HETATM   17  C   UNL     1     -10.798   9.273  70.031  1.00  0.00    -0.238 C  
BRANCH  17  18
HETATM   18  C   UNL     1     -10.343  10.533  69.261  1.00  0.00    -0.248 C  
BRANCH  18  19
HETATM   19  C   UNL     1      -8.942  10.673  68.614  1.00  0.00    -0.170 C  
HETATM   20  O   UNL     1      -8.031  11.219  69.572  1.00  0.00    -0.369 OA 
HETATM   21  H   UNL     1      -7.172  11.305  69.175  1.00  0.00     0.000 HD 
BRANCH  19  22
HETATM   22  C   UNL     1      -8.986  11.656  67.379  1.00  0.00    -0.166 C  
BRANCH  22  23
HETATM   23  N   UNL     1      -7.716  12.446  67.186  1.00  0.00    -0.285 N  
HETATM   24  C   UNL     1      -7.226  13.691  67.516  1.00  0.00    -0.156 C  
HETATM   25  H   UNL     1      -7.026  11.907  66.665  1.00  0.00     0.000 HD 
HETATM   26  O   UNL     1      -6.012  13.888  67.401  1.00  0.00    -0.351 OA 
BRANCH  24  27
HETATM   27  C   UNL     1      -8.182  14.833  67.901  1.00  0.00    -0.150 C  
BRANCH  27  28
HETATM   28  O   UNL     1      -9.007  15.502  66.961  1.00  0.00    -0.200 OA 
BRANCH  28  29
HETATM   29  C   UNL     1      -9.185  16.872  67.092  1.00  0.00    -0.229 A  
HETATM   30  C   UNL     1      -6.935  17.822  66.060  1.00  0.00    -0.335 C  
HETATM   31  C   UNL     1      -8.313  17.908  66.667  1.00  0.00    -0.286 A  
HETATM   32  C   UNL     1      -8.745  19.252  66.783  1.00  0.00    -0.334 A  
HETATM   33  C   UNL     1      -9.979  19.595  67.315  1.00  0.00    -0.518 A  
HETATM   34  C   UNL     1     -10.816  18.591  67.768  1.00  0.00    -0.289 A  
HETATM   35  C   UNL     1     -10.435  17.237  67.677  1.00  0.00    -0.363 A  
HETATM   36  C   UNL     1     -11.407  16.223  68.229  1.00  0.00    -0.280 C  
ENDBRANCH  28  29
ENDBRANCH  27  28
ENDBRANCH  24  27
ENDBRANCH  22  23
BRANCH  22  37
HETATM   37  C   UNL     1      -9.635  11.018  66.121  1.00  0.00    -0.240 C  
BRANCH  37  38
HETATM   38  C   UNL     1     -10.644  11.896  65.433  1.00  0.00    -0.315 A  
HETATM   39  C   UNL     1     -12.329  13.694  64.102  1.00  0.00    -0.385 A  
HETATM   40  C   UNL     1     -11.333  12.880  66.147  1.00  0.00    -0.356 A  
HETATM   41  C   UNL     1     -11.703  12.674  63.398  1.00  0.00    -0.571 A  
HETATM   42  C   UNL     1     -10.906  11.753  64.071  1.00  0.00    -0.446 A  
HETATM   43  C   UNL     1     -12.171  13.773  65.484  1.00  0.00    -0.470 A  
ENDBRANCH  37  38
ENDBRANCH  22  37
ENDBRANCH  19  22
ENDBRANCH  18  19
ENDBRANCH  17  18
BRANCH  17  44
HETATM   44  C   UNL     1     -11.099   9.413  71.540  1.00  0.00    -0.446 C  
BRANCH  44  45
HETATM   45  C   UNL     1     -10.313   8.449  72.408  1.00  0.00    -0.399 A  
HETATM   46  C   UNL     1      -8.918   8.554  72.539  1.00  0.00    -0.270 A  
HETATM   47  C   UNL     1     -10.971   7.412  73.081  1.00  0.00    -0.408 A  
HETATM   48  C   UNL     1      -8.200   7.617  73.290  1.00  0.00    -0.183 A  
HETATM   49  C   UNL     1     -10.252   6.480  73.835  1.00  0.00    -0.353 A  
HETATM   50  C   UNL     1      -8.867   6.576  73.932  1.00  0.00    -0.148 A  
ENDBRANCH  44  45
ENDBRANCH  17  44
ENDBRANCH  15  17
ENDBRANCH   3  13
TORSDOF 14
ENDMDL
MODEL       73
REMARK 921   NORMALIZED FREE ENERGY PREDICTED BY IDOCK:   -5.69 KCAL/MOL
REMARK 922        TOTAL FREE ENERGY PREDICTED BY IDOCK:  -14.90 KCAL/MOL
REMARK 923 INTER-LIGAND FREE ENERGY PREDICTED BY IDOCK:  -11.43 KCAL/MOL
REMARK 924 INTRA-LIGAND FREE ENERGY PREDICTED BY IDOCK:   -3.47 KCAL/MOL
REMARK 927      BINDING AFFINITY PREDICTED BY RF-SCORE:    0.00 PKD
ROOT
HETATM    1  C   UNL     1      -6.140   6.194  67.299  1.00  0.00    -0.018 C  
HETATM    2  C   UNL     1      -7.433   6.643  67.997  1.00  0.00    -0.098 C  
HETATM    3  C   UNL     1      -8.344   7.455  67.025  1.00  0.00    -0.121 C  
HETATM    4  C   UNL     1      -8.113   5.410  68.598  1.00  0.00    -0.091 C  
ENDROOT
BRANCH   3   5
HETATM    5  N   UNL     1      -7.671   8.688  66.553  1.00  0.00    -0.094 N  
HETATM    6  H   UNL     1      -7.053  10.370  63.849  1.00  0.00     0.000 HD 
HETATM    7  O   UNL     1      -8.651   8.631  64.470  1.00  0.00    -0.159 OA 
HETATM    8  C   UNL     1      -6.953   9.544  67.489  1.00  0.00    -0.084 C  
HETATM    9  C   UNL     1      -7.829   9.105  65.248  1.00  0.00    -0.105 C  
HETATM   10  C   UNL     1      -5.620   9.935  66.879  1.00  0.00    -0.046 C  
HETATM   11  N   UNL     1      -6.957  10.064  64.817  1.00  0.00    -0.133 N  
HETATM   12  C   UNL     1      -5.911  10.690  65.599  1.00  0.00    -0.128 C  
ENDBRANCH   3   5
BRANCH   3  13
HETATM   13  C   UNL     1      -9.749   7.734  67.642  1.00  0.00    -0.155 C  
HETATM   14  O   UNL     1     -10.802   7.517  67.052  1.00  0.00    -0.348 OA 
HETATM   15  N   UNL     1      -9.722   8.333  68.885  1.00  0.00    -0.161 N  
HETATM   16  H   UNL     1      -8.803   8.458  69.309  1.00  0.00     0.000 HD 
BRANCH  15  17
HETATM   17  C   UNL     1     -10.865   8.808  69.661  1.00  0.00    -0.169 C  
BRANCH  17  18
HETATM   18  C   UNL     1     -10.779  10.301  70.048  1.00  0.00    -0.345 C  
BRANCH  18  19
HETATM   19  C   UNL     1     -12.027  11.200  70.250  1.00  0.00    -0.373 C  
HETATM   20  O   UNL     1     -13.138  10.629  69.553  1.00  0.00    -0.500 OA 
HETATM   21  H   UNL     1     -13.902  11.180  69.676  1.00  0.00     0.000 HD 
BRANCH  19  22
HETATM   22  C   UNL     1     -11.782  12.645  69.662  1.00  0.00    -0.303 C  
BRANCH  22  23
HETATM   23  N   UNL     1     -11.829  13.738  70.699  1.00  0.00    -0.509 N  
HETATM   24  C   UNL     1     -11.827  15.116  70.735  1.00  0.00    -0.324 C  
HETATM   25  H   UNL     1     -11.876  13.348  71.640  1.00  0.00     0.000 HD 
HETATM   26  O   UNL     1     -12.142  15.671  71.792  1.00  0.00    -0.347 OA 
BRANCH  24  27
HETATM   27  C   UNL     1     -11.330  15.929  69.528  1.00  0.00    -0.335 C  
BRANCH  27  28
HETATM   28  O   UNL     1     -10.213  16.801  69.589  1.00  0.00    -0.210 OA 
BRANCH  28  29
HETATM   29  C   UNL     1      -9.456  16.990  68.441  1.00  0.00    -0.269 A  
HETATM   30  C   UNL     1     -10.839  18.861  67.170  1.00  0.00    -0.425 C  
HETATM   31  C   UNL     1      -9.685  17.915  67.389  1.00  0.00    -0.288 A  
HETATM   32  C   UNL     1      -8.715  18.035  66.364  1.00  0.00    -0.249 A  
HETATM   33  C   UNL     1      -7.560  17.268  66.339  1.00  0.00    -0.349 A  
HETATM   34  C   UNL     1      -7.351  16.336  67.339  1.00  0.00    -0.193 A  
HETATM   35  C   UNL     1      -8.284  16.175  68.383  1.00  0.00    -0.172 A  
HETATM   36  C   UNL     1      -7.977  15.110  69.407  1.00  0.00    -0.205 C  
ENDBRANCH  28  29
ENDBRANCH  27  28
ENDBRANCH  24  27
ENDBRANCH  22  23
BRANCH  22  37
HETATM   37  C   UNL     1     -10.629  12.688  68.622  1.00  0.00    -0.245 C  
BRANCH  37  38
HETATM   38  C   UNL     1     -10.996  13.344  67.320  1.00  0.00    -0.286 A  
HETATM   39  C   UNL     1     -11.673  14.333  64.789  1.00  0.00    -0.420 A  
HETATM   40  C   UNL     1     -10.002  13.799  66.450  1.00  0.00    -0.301 A  
HETATM   41  C   UNL     1     -12.670  13.949  65.677  1.00  0.00    -0.534 A  
HETATM   42  C   UNL     1     -12.331  13.505  66.952  1.00  0.00    -0.289 A  
HETATM   43  C   UNL     1     -10.340  14.292  65.191  1.00  0.00    -0.440 A  
ENDBRANCH  37  38
ENDBRANCH  22  37
ENDBRANCH  19  22
ENDBRANCH  18  19
ENDBRANCH  17  18
BRANCH  17  44
HETATM   44  C   UNL     1     -11.361   7.808  70.728  1.00  0.00    -0.291 C  
BRANCH  44  45
HETATM   45  C   UNL     1     -10.291   7.403  71.725  1.00  0.00    -0.215 A  
HETATM   46  C   UNL     1      -9.626   8.358  72.512  1.00  0.00    -0.358 A  
HETATM   47  C   UNL     1      -9.928   6.058  71.858  1.00  0.00    -0.195 A  
HETATM   48  C   UNL     1      -8.596   7.976  73.378  1.00  0.00    -0.308 A  
HETATM   49  C   UNL     1      -8.901   5.677  72.727  1.00  0.00    -0.122 A  
HETATM   50  C   UNL     1      -8.229   6.636  73.480  1.00  0.00    -0.121 A  
ENDBRANCH  44  45
ENDBRANCH  17  44
ENDBRANCH  15  17
ENDBRANCH   3  13
TORSDOF 14
ENDMDL
MODEL       74
REMARK 921   NORMALIZED FREE ENERGY PREDICTED BY IDOCK:   -5.69 KCAL/MOL
REMARK 922        TOTAL FREE ENERGY PREDICTED BY IDOCK:  -14.89 KCAL/MOL
REMARK 923 INTER-LIGAND FREE ENERGY PREDICTED BY IDOCK:  -10.89 KCAL/MOL
REMARK 924 INTRA-LIGAND FREE ENERGY PREDICTED BY IDOCK:   -4.00 KCAL/MOL
REMARK 927      BINDING AFFINITY PREDICTED BY RF-SCORE:    0.00 PKD
ROOT
HETATM    1  C   UNL     1     -12.314  14.842  64.232  1.00  0.00    -0.345 C  
HETATM    2  C   UNL     1     -11.632  13.613  64.853  1.00  0.00    -0.360 C  
HETATM    3  C   UNL     1     -11.811  13.596  66.403  1.00  0.00    -0.398 C  
HETATM    4  C   UNL     1     -12.162  12.359  64.155  1.00  0.00    -0.558 C  
ENDROOT
BRANCH   3   5
HETATM    5  N   UNL     1     -11.192  14.785  67.034  1.00  0.00    -0.338 N  
HETATM    6  H   UNL     1     -11.509  16.762  69.587  1.00  0.00     0.000 HD 
HETATM    7  O   UNL     1     -12.319  14.527  69.025  1.00  0.00    -0.225 OA 
HETATM    8  C   UNL     1     -10.059  15.452  66.405  1.00  0.00    -0.279 C  
HETATM    9  C   UNL     1     -11.599  15.192  68.287  1.00  0.00    -0.339 C  
HETATM   10  C   UNL     1     -10.285  16.952  66.442  1.00  0.00    -0.326 C  
HETATM   11  N   UNL     1     -11.202  16.442  68.668  1.00  0.00    -0.353 N  
HETATM   12  C   UNL     1     -10.389  17.359  67.897  1.00  0.00    -0.369 C  
ENDBRANCH   3   5
BRANCH   3  13
HETATM   13  C   UNL     1     -11.317  12.256  67.029  1.00  0.00    -0.334 C  
HETATM   14  O   UNL     1     -12.071  11.408  67.496  1.00  0.00    -0.592 OA 
HETATM   15  N   UNL     1      -9.945  12.127  67.103  1.00  0.00    -0.199 N  
HETATM   16  H   UNL     1      -9.395  12.870  66.673  1.00  0.00     0.000 HD 
BRANCH  15  17
HETATM   17  C   UNL     1      -9.193  11.042  67.730  1.00  0.00    -0.155 C  
BRANCH  17  18
HETATM   18  C   UNL     1      -9.510  10.847  69.229  1.00  0.00    -0.048 C  
BRANCH  18  19
HETATM   19  C   UNL     1      -9.289   9.507  69.977  1.00  0.00    -0.234 C  
HETATM   20  O   UNL     1      -7.979   9.013  69.683  1.00  0.00    -0.085 OA 
HETATM   21  H   UNL     1      -7.843   8.191  70.141  1.00  0.00     0.000 HD 
BRANCH  19  22
HETATM   22  C   UNL     1     -10.330   8.419  69.505  1.00  0.00    -0.219 C  
BRANCH  22  23
HETATM   23  N   UNL     1     -11.621   8.436  70.284  1.00  0.00    -0.468 N  
HETATM   24  C   UNL     1     -12.021   8.485  71.602  1.00  0.00    -0.316 C  
HETATM   25  H   UNL     1     -12.426   8.402  69.659  1.00  0.00     0.000 HD 
HETATM   26  O   UNL     1     -13.203   8.746  71.843  1.00  0.00    -0.335 OA 
BRANCH  24  27
HETATM   27  C   UNL     1     -11.046   8.105  72.730  1.00  0.00    -0.337 C  
BRANCH  27  28
HETATM   28  O   UNL     1     -10.604   6.777  72.957  1.00  0.00    -0.229 OA 
BRANCH  28  29
HETATM   29  C   UNL     1      -9.434   6.354  72.341  1.00  0.00    -0.143 A  
HETATM   30  C   UNL     1     -10.365   4.850  70.365  1.00  0.00    -0.248 C  
HETATM   31  C   UNL     1      -9.304   5.546  71.181  1.00  0.00    -0.181 A  
HETATM   32  C   UNL     1      -8.012   5.334  70.640  1.00  0.00    -0.103 A  
HETATM   33  C   UNL     1      -6.868   5.869  71.213  1.00  0.00    -0.066 A  
HETATM   34  C   UNL     1      -6.984   6.623  72.367  1.00  0.00    -0.068 A  
HETATM   35  C   UNL     1      -8.246   6.864  72.947  1.00  0.00    -0.117 A  
HETATM   36  C   UNL     1      -8.261   7.672  74.222  1.00  0.00    -0.264 C  
ENDBRANCH  28  29
ENDBRANCH  27  28
ENDBRANCH  24  27
ENDBRANCH  22  23
BRANCH  22  37
HETATM   37  C   UNL     1     -10.423   8.300  67.960  1.00  0.00    -0.239 C  
BRANCH  37  38
HETATM   38  C   UNL     1      -9.974   6.973  67.414  1.00  0.00    -0.217 A  
HETATM   39  C   UNL     1      -9.111   4.617  66.170  1.00  0.00    -0.128 A  
HETATM   40  C   UNL     1     -10.902   6.075  66.880  1.00  0.00    -0.396 A  
HETATM   41  C   UNL     1      -8.189   5.470  66.762  1.00  0.00    -0.105 A  
HETATM   42  C   UNL     1      -8.626   6.615  67.422  1.00  0.00    -0.119 A  
HETATM   43  C   UNL     1     -10.471   4.903  66.262  1.00  0.00    -0.349 A  
ENDBRANCH  37  38
ENDBRANCH  22  37
ENDBRANCH  19  22
ENDBRANCH  18  19
ENDBRANCH  17  18
BRANCH  17  44
HETATM   44  C   UNL     1      -7.717  10.961  67.283  1.00  0.00    -0.112 C  
BRANCH  44  45
HETATM   45  C   UNL     1      -7.464   9.926  66.203  1.00  0.00    -0.104 A  
HETATM   46  C   UNL     1      -8.442   9.618  65.243  1.00  0.00    -0.155 A  
HETATM   47  C   UNL     1      -6.247   9.235  66.163  1.00  0.00    -0.064 A  
HETATM   48  C   UNL     1      -8.218   8.613  64.295  1.00  0.00    -0.160 A  
HETATM   49  C   UNL     1      -6.023   8.235  65.212  1.00  0.00    -0.045 A  
HETATM   50  C   UNL     1      -7.011   7.917  64.284  1.00  0.00    -0.068 A  
ENDBRANCH  44  45
ENDBRANCH  17  44
ENDBRANCH  15  17
ENDBRANCH   3  13
TORSDOF 14
ENDMDL
MODEL       75
REMARK 921   NORMALIZED FREE ENERGY PREDICTED BY IDOCK:   -5.67 KCAL/MOL
REMARK 922        TOTAL FREE ENERGY PREDICTED BY IDOCK:  -14.86 KCAL/MOL
REMARK 923 INTER-LIGAND FREE ENERGY PREDICTED BY IDOCK:  -11.22 KCAL/MOL
REMARK 924 INTRA-LIGAND FREE ENERGY PREDICTED BY IDOCK:   -3.64 KCAL/MOL
REMARK 927      BINDING AFFINITY PREDICTED BY RF-SCORE:    0.00 PKD
ROOT
HETATM    1  C   UNL     1      -8.761   5.594  65.694  1.00  0.00    -0.151 C  
HETATM    2  C   UNL     1      -8.647   7.119  65.841  1.00  0.00    -0.157 C  
HETATM    3  C   UNL     1      -8.073   7.506  67.239  1.00  0.00    -0.115 C  
HETATM    4  C   UNL     1      -7.832   7.660  64.665  1.00  0.00    -0.126 C  
ENDROOT
BRANCH   3   5
HETATM    5  N   UNL     1      -8.954   7.043  68.336  1.00  0.00    -0.123 N  
HETATM    6  H   UNL     1      -8.969   5.104  70.937  1.00  0.00     0.000 HD 
HETATM    7  O   UNL     1      -7.231   6.140  69.569  1.00  0.00    -0.073 OA 
HETATM    8  C   UNL     1     -10.343   7.478  68.404  1.00  0.00    -0.195 C  
HETATM    9  C   UNL     1      -8.433   6.299  69.373  1.00  0.00    -0.125 C  
HETATM   10  C   UNL     1     -11.223   6.281  68.710  1.00  0.00    -0.357 C  
HETATM   11  N   UNL     1      -9.342   5.670  70.175  1.00  0.00    -0.151 N  
HETATM   12  C   UNL     1     -10.784   5.726  70.049  1.00  0.00    -0.330 C  
ENDBRANCH   3   5
BRANCH   3  13
HETATM   13  C   UNL     1      -7.747   9.029  67.331  1.00  0.00    -0.092 C  
HETATM   14  O   UNL     1      -6.635   9.467  67.605  1.00  0.00    -0.062 OA 
HETATM   15  N   UNL     1      -8.835   9.861  67.164  1.00  0.00    -0.138 N  
HETATM   16  H   UNL     1      -9.717   9.411  66.920  1.00  0.00     0.000 HD 
BRANCH  15  17
HETATM   17  C   UNL     1      -8.864  11.315  67.301  1.00  0.00    -0.150 C  
BRANCH  17  18
HETATM   18  C   UNL     1      -9.840  11.821  68.386  1.00  0.00    -0.199 C  
BRANCH  18  19
HETATM   19  C   UNL     1     -11.140  11.071  68.776  1.00  0.00    -0.239 C  
HETATM   20  O   UNL     1     -12.204  11.492  67.918  1.00  0.00    -0.586 OA 
HETATM   21  H   UNL     1     -13.001  11.032  68.157  1.00  0.00     0.000 HD 
BRANCH  19  22
HETATM   22  C   UNL     1     -11.560  11.406  70.261  1.00  0.00    -0.243 C  
BRANCH  22  23
HETATM   23  N   UNL     1     -12.104  12.801  70.438  1.00  0.00    -0.472 N  
HETATM   24  C   UNL     1     -11.711  14.095  70.169  1.00  0.00    -0.280 C  
HETATM   25  H   UNL     1     -13.021  12.782  70.883  1.00  0.00     0.000 HD 
HETATM   26  O   UNL     1     -12.563  14.986  70.232  1.00  0.00    -0.342 OA 
BRANCH  24  27
HETATM   27  C   UNL     1     -10.231  14.427  69.917  1.00  0.00     0.417 C  
BRANCH  27  28
HETATM   28  O   UNL     1      -9.746  15.754  69.794  1.00  0.00    -0.275 OA 
BRANCH  28  29
HETATM   29  C   UNL     1      -8.853  16.041  68.772  1.00  0.00    -0.227 A  
HETATM   30  C   UNL     1      -6.803  14.470  69.373  1.00  0.00    -0.149 C  
HETATM   31  C   UNL     1      -7.577  15.462  68.541  1.00  0.00    -0.122 A  
HETATM   32  C   UNL     1      -6.876  15.807  67.360  1.00  0.00    -0.235 A  
HETATM   33  C   UNL     1      -7.379  16.705  66.431  1.00  0.00    -0.216 A  
HETATM   34  C   UNL     1      -8.603  17.304  66.670  1.00  0.00    -0.286 A  
HETATM   35  C   UNL     1      -9.342  16.997  67.830  1.00  0.00    -0.237 A  
HETATM   36  C   UNL     1     -10.650  17.728  68.012  1.00  0.00    -0.372 C  
ENDBRANCH  28  29
ENDBRANCH  27  28
ENDBRANCH  24  27
ENDBRANCH  22  23
BRANCH  22  37
HETATM   37  C   UNL     1     -12.323  10.242  70.950  1.00  0.00    -0.471 C  
BRANCH  37  38
HETATM   38  C   UNL     1     -11.435   9.246  71.644  1.00  0.00    -0.468 A  
HETATM   39  C   UNL     1      -9.765   7.560  73.131  1.00  0.00    -0.301 A  
HETATM   40  C   UNL     1     -10.052   9.273  71.450  1.00  0.00    -0.348 A  
HETATM   41  C   UNL     1     -11.144   7.479  73.275  1.00  0.00    -0.294 A  
HETATM   42  C   UNL     1     -11.972   8.284  72.499  1.00  0.00    -0.420 A  
HETATM   43  C   UNL     1      -9.222   8.433  72.190  1.00  0.00    -0.313 A  
ENDBRANCH  37  38
ENDBRANCH  22  37
ENDBRANCH  19  22
ENDBRANCH  18  19
ENDBRANCH  17  18
BRANCH  17  44
HETATM   44  C   UNL     1      -8.814  12.074  65.957  1.00  0.00     0.045 C  
BRANCH  44  45
HETATM   45  C   UNL     1     -10.125  12.743  65.588  1.00  0.00    -0.281 A  
HETATM   46  C   UNL     1     -10.416  14.055  65.995  1.00  0.00    -0.307 A  
HETATM   47  C   UNL     1     -11.087  12.045  64.848  1.00  0.00    -0.368 A  
HETATM   48  C   UNL     1     -11.656  14.634  65.703  1.00  0.00    -0.328 A  
HETATM   49  C   UNL     1     -12.323  12.626  64.554  1.00  0.00    -0.537 A  
HETATM   50  C   UNL     1     -12.612  13.916  64.989  1.00  0.00    -0.422 A  
ENDBRANCH  44  45
ENDBRANCH  17  44
ENDBRANCH  15  17
ENDBRANCH   3  13
TORSDOF 14
ENDMDL
MODEL       76
REMARK 921   NORMALIZED FREE ENERGY PREDICTED BY IDOCK:   -5.64 KCAL/MOL
REMARK 922        TOTAL FREE ENERGY PREDICTED BY IDOCK:  -14.80 KCAL/MOL
REMARK 923 INTER-LIGAND FREE ENERGY PREDICTED BY IDOCK:  -13.09 KCAL/MOL
REMARK 924 INTRA-LIGAND FREE ENERGY PREDICTED BY IDOCK:   -1.71 KCAL/MOL
REMARK 927      BINDING AFFINITY PREDICTED BY RF-SCORE:    0.00 PKD
ROOT
HETATM    1  C   UNL     1      -6.000   5.923  67.168  1.00  0.00    -0.018 C  
HETATM    2  C   UNL     1      -7.135   6.728  67.819  1.00  0.00    -0.085 C  
HETATM    3  C   UNL     1      -8.212   7.133  66.766  1.00  0.00    -0.114 C  
HETATM    4  C   UNL     1      -7.690   5.921  68.994  1.00  0.00    -0.091 C  
ENDROOT
BRANCH   3   5
HETATM    5  N   UNL     1      -7.640   7.996  65.706  1.00  0.00    -0.080 N  
HETATM    6  H   UNL     1      -6.160  10.850  65.277  1.00  0.00     0.000 HD 
HETATM    7  O   UNL     1      -6.538   9.374  67.185  1.00  0.00    -0.069 OA 
HETATM    8  C   UNL     1      -7.714   7.597  64.306  1.00  0.00    -0.131 C  
HETATM    9  C   UNL     1      -6.917   9.119  66.046  1.00  0.00    -0.085 C  
HETATM   10  C   UNL     1      -8.143   8.791  63.474  1.00  0.00    -0.170 C  
HETATM   11  N   UNL     1      -6.680  10.007  65.035  1.00  0.00    -0.122 N  
HETATM   12  C   UNL     1      -7.095   9.870  63.655  1.00  0.00    -0.121 C  
ENDBRANCH   3   5
BRANCH   3  13
HETATM   13  C   UNL     1      -9.474   7.760  67.436  1.00  0.00    -0.144 C  
HETATM   14  O   UNL     1     -10.608   7.642  66.986  1.00  0.00    -0.329 OA 
HETATM   15  N   UNL     1      -9.207   8.542  68.542  1.00  0.00    -0.136 N  
HETATM   16  H   UNL     1      -8.238   8.567  68.858  1.00  0.00     0.000 HD 
BRANCH  15  17
HETATM   17  C   UNL     1     -10.162   9.338  69.310  1.00  0.00    -0.206 C  
BRANCH  17  18
HETATM   18  C   UNL     1     -10.085  10.854  69.022  1.00  0.00    -0.212 C  
BRANCH  18  19
HETATM   19  C   UNL     1     -11.306  11.803  69.131  1.00  0.00    -0.279 C  
HETATM   20  O   UNL     1     -12.434  11.197  68.493  1.00  0.00    -0.632 OA 
HETATM   21  H   UNL     1     -13.183  11.779  68.560  1.00  0.00     0.000 HD 
BRANCH  19  22
HETATM   22  C   UNL     1     -11.023  13.175  68.404  1.00  0.00    -0.262 C  
BRANCH  22  23
HETATM   23  N   UNL     1     -10.850  14.338  69.348  1.00  0.00    -0.375 N  
HETATM   24  C   UNL     1     -10.877  15.715  69.291  1.00  0.00    -0.250 C  
HETATM   25  H   UNL     1     -10.660  14.015  70.296  1.00  0.00     0.000 HD 
HETATM   26  O   UNL     1     -10.945  16.340  70.354  1.00  0.00    -0.337 OA 
BRANCH  24  27
HETATM   27  C   UNL     1     -10.706  16.447  67.949  1.00  0.00    -0.332 C  
BRANCH  27  28
HETATM   28  O   UNL     1     -10.293  17.800  67.852  1.00  0.00    -0.350 OA 
BRANCH  28  29
HETATM   29  C   UNL     1      -9.108  18.086  67.189  1.00  0.00    -0.256 A  
HETATM   30  C   UNL     1      -7.910  15.720  67.158  1.00  0.00    -0.247 C  
HETATM   31  C   UNL     1      -8.069  17.185  66.835  1.00  0.00    -0.247 A  
HETATM   32  C   UNL     1      -6.996  17.661  66.043  1.00  0.00    -0.318 A  
HETATM   33  C   UNL     1      -6.910  18.978  65.618  1.00  0.00    -0.305 A  
HETATM   34  C   UNL     1      -7.899  19.870  65.994  1.00  0.00    -0.335 A  
HETATM   35  C   UNL     1      -8.989  19.450  66.782  1.00  0.00    -0.373 A  
HETATM   36  C   UNL     1      -9.995  20.507  67.163  1.00  0.00    -0.512 C  
ENDBRANCH  28  29
ENDBRANCH  27  28
ENDBRANCH  24  27
ENDBRANCH  22  23
BRANCH  22  37
HETATM   37  C   UNL     1     -10.011  13.041  67.234  1.00  0.00    -0.232 C  
BRANCH  37  38
HETATM   38  C   UNL     1     -10.632  12.645  65.922  1.00  0.00    -0.297 A  
HETATM   39  C   UNL     1     -11.682  12.119  63.380  1.00  0.00    -0.533 A  
HETATM   40  C   UNL     1     -11.915  13.083  65.583  1.00  0.00    -0.479 A  
HETATM   41  C   UNL     1     -10.436  11.619  63.736  1.00  0.00    -0.454 A  
HETATM   42  C   UNL     1      -9.940  11.841  65.018  1.00  0.00    -0.287 A  
HETATM   43  C   UNL     1     -12.436  12.820  64.319  1.00  0.00    -0.461 A  
ENDBRANCH  37  38
ENDBRANCH  22  37
ENDBRANCH  19  22
ENDBRANCH  18  19
ENDBRANCH  17  18
BRANCH  17  44
HETATM   44  C   UNL     1     -10.321   8.885  70.777  1.00  0.00    -0.283 C  
BRANCH  44  45
HETATM   45  C   UNL     1     -11.762   8.640  71.185  1.00  0.00    -0.334 A  
HETATM   46  C   UNL     1     -12.567   9.676  71.686  1.00  0.00    -0.493 A  
HETATM   47  C   UNL     1     -12.310   7.355  71.092  1.00  0.00    -0.349 A  
HETATM   48  C   UNL     1     -13.872   9.419  72.120  1.00  0.00    -0.433 A  
HETATM   49  C   UNL     1     -13.615   7.101  71.522  1.00  0.00    -0.408 A  
HETATM   50  C   UNL     1     -14.393   8.130  72.045  1.00  0.00    -0.524 A  
ENDBRANCH  44  45
ENDBRANCH  17  44
ENDBRANCH  15  17
ENDBRANCH   3  13
TORSDOF 14
ENDMDL
MODEL       77
REMARK 921   NORMALIZED FREE ENERGY PREDICTED BY IDOCK:   -5.63 KCAL/MOL
REMARK 922        TOTAL FREE ENERGY PREDICTED BY IDOCK:  -14.80 KCAL/MOL
REMARK 923 INTER-LIGAND FREE ENERGY PREDICTED BY IDOCK:  -13.48 KCAL/MOL
REMARK 924 INTRA-LIGAND FREE ENERGY PREDICTED BY IDOCK:   -1.32 KCAL/MOL
REMARK 927      BINDING AFFINITY PREDICTED BY RF-SCORE:    0.00 PKD
ROOT
HETATM    1  C   UNL     1      -9.814  20.356  66.618  1.00  0.00    -0.496 C  
HETATM    2  C   UNL     1      -9.856  18.903  67.116  1.00  0.00    -0.368 C  
HETATM    3  C   UNL     1      -8.677  18.612  68.096  1.00  0.00    -0.311 C  
HETATM    4  C   UNL     1     -11.238  18.635  67.714  1.00  0.00     0.256 C  
ENDROOT
BRANCH   3   5
HETATM    5  N   UNL     1      -7.363  18.791  67.434  1.00  0.00    -0.221 N  
HETATM    6  H   UNL     1      -4.771  20.741  67.419  1.00  0.00     0.000 HD 
HETATM    7  O   UNL     1      -6.600  20.317  68.980  1.00  0.00    -0.302 OA 
HETATM    8  C   UNL     1      -6.944  17.893  66.365  1.00  0.00    -0.249 C  
HETATM    9  C   UNL     1      -6.472  19.729  67.910  1.00  0.00    -0.233 C  
HETATM   10  C   UNL     1      -6.359  18.713  65.230  1.00  0.00    -0.296 C  
HETATM   11  N   UNL     1      -5.429  20.037  67.085  1.00  0.00    -0.165 N  
HETATM   12  C   UNL     1      -5.165  19.463  65.782  1.00  0.00    -0.154 C  
ENDBRANCH   3   5
BRANCH   3  13
HETATM   13  C   UNL     1      -8.821  17.217  68.779  1.00  0.00    -0.233 C  
HETATM   14  O   UNL     1      -7.912  16.665  69.389  1.00  0.00    -0.144 OA 
HETATM   15  N   UNL     1     -10.037  16.598  68.571  1.00  0.00    -0.252 N  
HETATM   16  H   UNL     1     -10.742  17.139  68.069  1.00  0.00     0.000 HD 
BRANCH  15  17
HETATM   17  C   UNL     1     -10.426  15.254  68.990  1.00  0.00    -0.248 C  
BRANCH  17  18
HETATM   18  C   UNL     1      -9.657  14.127  68.266  1.00  0.00    -0.226 C  
BRANCH  18  19
HETATM   19  C   UNL     1      -9.946  13.705  66.803  1.00  0.00    -0.270 C  
HETATM   20  O   UNL     1     -10.799  14.676  66.190  1.00  0.00    -0.307 OA 
HETATM   21  H   UNL     1     -10.976  14.418  65.293  1.00  0.00     0.000 HD 
BRANCH  19  22
HETATM   22  C   UNL     1     -10.689  12.313  66.752  1.00  0.00    -0.240 C  
BRANCH  22  23
HETATM   23  N   UNL     1     -11.578  12.056  67.942  1.00  0.00    -0.330 N  
HETATM   24  C   UNL     1     -11.501  11.410  69.157  1.00  0.00    -0.299 C  
HETATM   25  H   UNL     1     -12.496  12.481  67.811  1.00  0.00     0.000 HD 
HETATM   26  O   UNL     1     -12.377  11.641  69.996  1.00  0.00    -0.255 OA 
BRANCH  24  27
HETATM   27  C   UNL     1     -10.422  10.344  69.410  1.00  0.00    -0.238 C  
BRANCH  27  28
HETATM   28  O   UNL     1     -10.678   8.951  69.342  1.00  0.00    -0.228 OA 
BRANCH  28  29
HETATM   29  C   UNL     1     -10.633   8.210  70.515  1.00  0.00    -0.220 A  
HETATM   30  C   UNL     1     -12.820   9.031  71.769  1.00  0.00    -0.437 C  
HETATM   31  C   UNL     1     -11.580   8.196  71.573  1.00  0.00    -0.315 A  
HETATM   32  C   UNL     1     -11.407   7.267  72.628  1.00  0.00    -0.333 A  
HETATM   33  C   UNL     1     -10.338   6.387  72.678  1.00  0.00    -0.216 A  
HETATM   34  C   UNL     1      -9.389   6.424  71.671  1.00  0.00    -0.147 A  
HETATM   35  C   UNL     1      -9.512   7.329  70.598  1.00  0.00    -0.164 A  
HETATM   36  C   UNL     1      -8.409   7.311  69.569  1.00  0.00    -0.133 C  
ENDBRANCH  28  29
ENDBRANCH  27  28
ENDBRANCH  24  27
ENDBRANCH  22  23
BRANCH  22  37
HETATM   37  C   UNL     1     -11.254  11.980  65.345  1.00  0.00    -0.374 C  
BRANCH  37  38
HETATM   38  C   UNL     1     -10.277  11.291  64.433  1.00  0.00    -0.377 A  
HETATM   39  C   UNL     1      -8.277  10.168  62.826  1.00  0.00    -0.159 A  
HETATM   40  C   UNL     1     -10.076  11.753  63.130  1.00  0.00    -0.386 A  
HETATM   41  C   UNL     1      -8.520   9.658  64.094  1.00  0.00    -0.186 A  
HETATM   42  C   UNL     1      -9.548  10.186  64.871  1.00  0.00    -0.369 A  
HETATM   43  C   UNL     1      -9.081  11.193  62.331  1.00  0.00    -0.292 A  
ENDBRANCH  37  38
ENDBRANCH  22  37
ENDBRANCH  19  22
ENDBRANCH  18  19
ENDBRANCH  17  18
BRANCH  17  44
HETATM   44  C   UNL     1     -11.946  15.076  69.201  1.00  0.00    -0.308 C  
BRANCH  44  45
HETATM   45  C   UNL     1     -12.388  15.281  70.637  1.00  0.00    -0.427 A  
HETATM   46  C   UNL     1     -13.749  15.313  70.985  1.00  0.00    -0.452 A  
HETATM   47  C   UNL     1     -11.437  15.470  71.647  1.00  0.00    -0.496 A  
HETATM   48  C   UNL     1     -14.142  15.569  72.304  1.00  0.00    -0.637 A  
HETATM   49  C   UNL     1     -11.831  15.722  72.964  1.00  0.00    -0.551 A  
HETATM   50  C   UNL     1     -13.183  15.781  73.291  1.00  0.00    -0.687 A  
ENDBRANCH  44  45
ENDBRANCH  17  44
ENDBRANCH  15  17
ENDBRANCH   3  13
TORSDOF 14
ENDMDL
MODEL       78
REMARK 921   NORMALIZED FREE ENERGY PREDICTED BY IDOCK:   -5.63 KCAL/MOL
REMARK 922        TOTAL FREE ENERGY PREDICTED BY IDOCK:  -14.79 KCAL/MOL
REMARK 923 INTER-LIGAND FREE ENERGY PREDICTED BY IDOCK:  -12.77 KCAL/MOL
REMARK 924 INTRA-LIGAND FREE ENERGY PREDICTED BY IDOCK:   -2.02 KCAL/MOL
REMARK 927      BINDING AFFINITY PREDICTED BY RF-SCORE:    0.00 PKD
ROOT
HETATM    1  C   UNL     1     -13.094   9.807  72.146  1.00  0.00    -0.513 C  
HETATM    2  C   UNL     1     -11.884  10.269  71.319  1.00  0.00    -0.425 C  
HETATM    3  C   UNL     1     -11.382   9.133  70.376  1.00  0.00    -0.224 C  
HETATM    4  C   UNL     1     -12.259  11.560  70.589  1.00  0.00    -0.473 C  
ENDROOT
BRANCH   3   5
HETATM    5  N   UNL     1     -10.939   7.946  71.143  1.00  0.00    -0.236 N  
HETATM    6  H   UNL     1     -11.234   4.716  71.222  1.00  0.00     0.000 HD 
HETATM    7  O   UNL     1     -11.619   6.441  69.537  1.00  0.00    -0.404 OA 
HETATM    8  C   UNL     1     -10.107   8.099  72.330  1.00  0.00    -0.285 C  
HETATM    9  C   UNL     1     -11.201   6.678  70.667  1.00  0.00    -0.317 C  
HETATM   10  C   UNL     1     -10.647   7.206  73.431  1.00  0.00    -0.424 C  
HETATM   11  N   UNL     1     -11.028   5.657  71.557  1.00  0.00    -0.234 N  
HETATM   12  C   UNL     1     -10.583   5.779  72.930  1.00  0.00    -0.232 C  
ENDBRANCH   3   5
BRANCH   3  13
HETATM   13  C   UNL     1     -10.298   9.644  69.377  1.00  0.00    -0.213 C  
HETATM   14  O   UNL     1     -10.422   9.591  68.159  1.00  0.00    -0.202 OA 
HETATM   15  N   UNL     1      -9.133  10.086  69.971  1.00  0.00    -0.375 N  
HETATM   16  H   UNL     1      -9.125  10.114  70.991  1.00  0.00     0.000 HD 
BRANCH  15  17
HETATM   17  C   UNL     1      -7.910  10.520  69.300  1.00  0.00    -0.144 C  
BRANCH  17  18
HETATM   18  C   UNL     1      -8.160  11.368  68.033  1.00  0.00    -0.134 C  
BRANCH  18  19
HETATM   19  C   UNL     1      -8.211  12.918  68.045  1.00  0.00    -0.168 C  
HETATM   20  O   UNL     1      -7.773  13.395  69.321  1.00  0.00    -0.318 OA 
HETATM   21  H   UNL     1      -7.805  14.345  69.328  1.00  0.00     0.000 HD 
BRANCH  19  22
HETATM   22  C   UNL     1      -9.685  13.436  67.819  1.00  0.00    -0.216 C  
BRANCH  22  23
HETATM   23  N   UNL     1     -10.281  14.117  69.026  1.00  0.00    -0.390 N  
HETATM   24  C   UNL     1     -10.482  15.402  69.480  1.00  0.00    -0.261 C  
HETATM   25  H   UNL     1     -10.636  13.433  69.693  1.00  0.00     0.000 HD 
HETATM   26  O   UNL     1     -11.255  15.571  70.428  1.00  0.00    -0.279 OA 
BRANCH  24  27
HETATM   27  C   UNL     1      -9.671  16.573  68.899  1.00  0.00    -0.257 C  
BRANCH  27  28
HETATM   28  O   UNL     1      -9.349  16.684  67.522  1.00  0.00    -0.217 OA 
BRANCH  28  29
HETATM   29  C   UNL     1      -8.619  17.785  67.099  1.00  0.00    -0.233 A  
HETATM   30  C   UNL     1     -10.535  19.496  66.440  1.00  0.00    -0.597 C  
HETATM   31  C   UNL     1      -9.113  19.042  66.662  1.00  0.00    -0.346 A  
HETATM   32  C   UNL     1      -8.189  20.081  66.393  1.00  0.00    -0.338 A  
HETATM   33  C   UNL     1      -6.819  19.911  66.520  1.00  0.00    -0.235 A  
HETATM   34  C   UNL     1      -6.329  18.677  66.906  1.00  0.00    -0.194 A  
HETATM   35  C   UNL     1      -7.204  17.608  67.186  1.00  0.00    -0.206 A  
HETATM   36  C   UNL     1      -6.567  16.295  67.568  1.00  0.00    -0.193 C  
ENDBRANCH  28  29
ENDBRANCH  27  28
ENDBRANCH  24  27
ENDBRANCH  22  23
BRANCH  22  37
HETATM   37  C   UNL     1      -9.882  14.116  66.438  1.00  0.00    -0.308 C  
BRANCH  37  38
HETATM   38  C   UNL     1     -10.756  13.344  65.487  1.00  0.00    -0.301 A  
HETATM   39  C   UNL     1     -12.379  12.114  63.566  1.00  0.00    -0.682 A  
HETATM   40  C   UNL     1     -12.147  13.398  65.599  1.00  0.00    -0.476 A  
HETATM   41  C   UNL     1     -10.998  11.996  63.489  1.00  0.00    -0.514 A  
HETATM   42  C   UNL     1     -10.196  12.567  64.474  1.00  0.00    -0.332 A  
HETATM   43  C   UNL     1     -12.954  12.785  64.643  1.00  0.00    -0.231 A  
ENDBRANCH  37  38
ENDBRANCH  22  37
ENDBRANCH  19  22
ENDBRANCH  18  19
ENDBRANCH  17  18
BRANCH  17  44
HETATM   44  C   UNL     1      -6.807   9.440  69.244  1.00  0.00    -0.049 C  
BRANCH  44  45
HETATM   45  C   UNL     1      -7.290   8.104  68.713  1.00  0.00    -0.088 A  
HETATM   46  C   UNL     1      -7.554   7.913  67.346  1.00  0.00    -0.097 A  
HETATM   47  C   UNL     1      -7.509   7.035  69.590  1.00  0.00    -0.098 A  
HETATM   48  C   UNL     1      -8.063   6.695  66.881  1.00  0.00    -0.113 A  
HETATM   49  C   UNL     1      -8.012   5.818  69.123  1.00  0.00    -0.097 A  
HETATM   50  C   UNL     1      -8.299   5.650  67.771  1.00  0.00    -0.100 A  
ENDBRANCH  44  45
ENDBRANCH  17  44
ENDBRANCH  15  17
ENDBRANCH   3  13
TORSDOF 14
ENDMDL
MODEL       79
REMARK 921   NORMALIZED FREE ENERGY PREDICTED BY IDOCK:   -5.62 KCAL/MOL
REMARK 922        TOTAL FREE ENERGY PREDICTED BY IDOCK:  -14.78 KCAL/MOL
REMARK 923 INTER-LIGAND FREE ENERGY PREDICTED BY IDOCK:  -11.80 KCAL/MOL
REMARK 924 INTRA-LIGAND FREE ENERGY PREDICTED BY IDOCK:   -2.98 KCAL/MOL
REMARK 927      BINDING AFFINITY PREDICTED BY RF-SCORE:    0.00 PKD
ROOT
HETATM    1  C   UNL     1      -7.385   4.153  69.208  1.00  0.00    -0.054 C  
HETATM    2  C   UNL     1      -8.298   5.287  69.697  1.00  0.00    -0.098 C  
HETATM    3  C   UNL     1      -9.453   5.554  68.684  1.00  0.00    -0.129 C  
HETATM    4  C   UNL     1      -8.779   4.947  71.110  1.00  0.00    -0.143 C  
ENDROOT
BRANCH   3   5
HETATM    5  N   UNL     1      -8.931   5.976  67.363  1.00  0.00    -0.109 N  
HETATM    6  H   UNL     1      -9.133   5.263  64.205  1.00  0.00     0.000 HD 
HETATM    7  O   UNL     1     -10.502   4.787  66.171  1.00  0.00    -0.289 OA 
HETATM    8  C   UNL     1      -7.942   7.042  67.264  1.00  0.00    -0.111 C  
HETATM    9  C   UNL     1      -9.471   5.452  66.208  1.00  0.00    -0.157 C  
HETATM   10  C   UNL     1      -6.852   6.618  66.299  1.00  0.00    -0.061 C  
HETATM   11  N   UNL     1      -8.753   5.659  65.064  1.00  0.00    -0.112 N  
HETATM   12  C   UNL     1      -7.504   6.383  64.952  1.00  0.00    -0.085 C  
ENDBRANCH   3   5
BRANCH   3  13
HETATM   13  C   UNL     1     -10.511   6.547  69.258  1.00  0.00    -0.219 C  
HETATM   14  O   UNL     1     -11.699   6.270  69.386  1.00  0.00    -0.319 OA 
HETATM   15  N   UNL     1     -10.025   7.809  69.533  1.00  0.00    -0.184 N  
HETATM   16  H   UNL     1      -9.021   7.944  69.415  1.00  0.00     0.000 HD 
BRANCH  15  17
HETATM   17  C   UNL     1     -10.790   8.973  69.974  1.00  0.00    -0.231 C  
BRANCH  17  18
HETATM   18  C   UNL     1     -10.205  10.321  69.501  1.00  0.00    -0.261 C  
BRANCH  18  19
HETATM   19  C   UNL     1      -8.777  10.469  68.914  1.00  0.00    -0.154 C  
HETATM   20  O   UNL     1      -7.894  10.945  69.934  1.00  0.00    -0.346 OA 
HETATM   21  H   UNL     1      -7.019  11.036  69.575  1.00  0.00     0.000 HD 
BRANCH  19  22
HETATM   22  C   UNL     1      -8.757  11.518  67.734  1.00  0.00    -0.142 C  
BRANCH  22  23
HETATM   23  N   UNL     1      -7.613  12.497  67.812  1.00  0.00    -0.125 N  
HETATM   24  C   UNL     1      -7.429  13.862  67.767  1.00  0.00    -0.167 C  
HETATM   25  H   UNL     1      -6.724  12.012  67.930  1.00  0.00     0.000 HD 
HETATM   26  O   UNL     1      -6.340  14.315  68.130  1.00  0.00    -0.104 OA 
BRANCH  24  27
HETATM   27  C   UNL     1      -8.511  14.779  67.170  1.00  0.00    -0.223 C  
BRANCH  27  28
HETATM   28  O   UNL     1      -8.212  15.985  66.487  1.00  0.00    -0.272 OA 
BRANCH  28  29
HETATM   29  C   UNL     1      -8.792  17.163  66.937  1.00  0.00    -0.235 A  
HETATM   30  C   UNL     1      -7.068  17.952  68.791  1.00  0.00    -0.268 C  
HETATM   31  C   UNL     1      -8.289  18.063  67.913  1.00  0.00    -0.249 A  
HETATM   32  C   UNL     1      -8.979  19.280  68.136  1.00  0.00    -0.371 A  
HETATM   33  C   UNL     1     -10.137  19.616  67.453  1.00  0.00    -0.536 A  
HETATM   34  C   UNL     1     -10.654  18.725  66.529  1.00  0.00    -0.436 A  
HETATM   35  C   UNL     1     -10.009  17.500  66.269  1.00  0.00    -0.316 A  
HETATM   36  C   UNL     1     -10.671  16.585  65.268  1.00  0.00    -0.269 C  
ENDBRANCH  28  29
ENDBRANCH  27  28
ENDBRANCH  24  27
ENDBRANCH  22  23
BRANCH  22  37
HETATM   37  C   UNL     1      -9.067  10.880  66.353  1.00  0.00    -0.188 C  
BRANCH  37  38
HETATM   38  C   UNL     1     -10.235  11.499  65.635  1.00  0.00    -0.292 A  
HETATM   39  C   UNL     1     -12.252  12.842  64.230  1.00  0.00    -0.499 A  
HETATM   40  C   UNL     1     -11.086  12.388  66.297  1.00  0.00    -0.344 A  
HETATM   41  C   UNL     1     -11.456  11.906  63.582  1.00  0.00    -0.551 A  
HETATM   42  C   UNL     1     -10.488  11.205  64.296  1.00  0.00    -0.427 A  
HETATM   43  C   UNL     1     -12.089  13.055  65.598  1.00  0.00    -0.507 A  
ENDBRANCH  37  38
ENDBRANCH  22  37
ENDBRANCH  19  22
ENDBRANCH  18  19
ENDBRANCH  17  18
BRANCH  17  44
HETATM   44  C   UNL     1     -11.302   8.874  71.428  1.00  0.00    -0.380 C  
BRANCH  44  45
HETATM   45  C   UNL     1     -10.304   8.246  72.383  1.00  0.00    -0.402 A  
HETATM   46  C   UNL     1      -8.935   8.551  72.313  1.00  0.00    -0.299 A  
HETATM   47  C   UNL     1     -10.735   7.323  73.343  1.00  0.00    -0.415 A  
HETATM   48  C   UNL     1      -8.019   7.914  73.157  1.00  0.00    -0.198 A  
HETATM   49  C   UNL     1      -9.819   6.690  74.188  1.00  0.00    -0.335 A  
HETATM   50  C   UNL     1      -8.460   6.978  74.090  1.00  0.00    -0.185 A  
ENDBRANCH  44  45
ENDBRANCH  17  44
ENDBRANCH  15  17
ENDBRANCH   3  13
TORSDOF 14
ENDMDL
MODEL       80
REMARK 921   NORMALIZED FREE ENERGY PREDICTED BY IDOCK:   -5.62 KCAL/MOL
REMARK 922        TOTAL FREE ENERGY PREDICTED BY IDOCK:  -14.77 KCAL/MOL
REMARK 923 INTER-LIGAND FREE ENERGY PREDICTED BY IDOCK:  -11.11 KCAL/MOL
REMARK 924 INTRA-LIGAND FREE ENERGY PREDICTED BY IDOCK:   -3.67 KCAL/MOL
REMARK 927      BINDING AFFINITY PREDICTED BY RF-SCORE:    0.00 PKD
ROOT
HETATM    1  C   UNL     1      -8.546   4.781  70.839  1.00  0.00    -0.126 C  
HETATM    2  C   UNL     1      -8.357   5.771  69.679  1.00  0.00    -0.112 C  
HETATM    3  C   UNL     1      -8.478   7.245  70.173  1.00  0.00    -0.138 C  
HETATM    4  C   UNL     1      -7.029   5.457  68.985  1.00  0.00    -0.056 C  
ENDROOT
BRANCH   3   5
HETATM    5  N   UNL     1      -9.817   7.519  70.745  1.00  0.00    -0.178 N  
HETATM    6  H   UNL     1     -11.252   8.746  73.382  1.00  0.00     0.000 HD 
HETATM    7  O   UNL     1      -9.014   8.886  72.415  1.00  0.00    -0.383 OA 
HETATM    8  C   UNL     1     -11.023   7.131  70.023  1.00  0.00    -0.262 C  
HETATM    9  C   UNL     1      -9.936   8.258  71.902  1.00  0.00    -0.231 C  
HETATM   10  C   UNL     1     -11.988   6.473  70.991  1.00  0.00    -0.358 C  
HETATM   11  N   UNL     1     -11.156   8.216  72.516  1.00  0.00    -0.361 N  
HETATM   12  C   UNL     1     -12.324   7.492  72.060  1.00  0.00    -0.271 C  
ENDBRANCH   3   5
BRANCH   3  13
HETATM   13  C   UNL     1      -8.077   8.265  69.063  1.00  0.00    -0.117 C  
HETATM   14  O   UNL     1      -7.127   9.034  69.161  1.00  0.00    -0.061 OA 
HETATM   15  N   UNL     1      -8.934   8.302  67.981  1.00  0.00    -0.138 N  
HETATM   16  H   UNL     1      -9.686   7.613  67.973  1.00  0.00     0.000 HD 
BRANCH  15  17
HETATM   17  C   UNL     1      -8.881   9.220  66.845  1.00  0.00    -0.127 C  
BRANCH  17  18
HETATM   18  C   UNL     1      -9.763  10.477  67.017  1.00  0.00    -0.212 C  
BRANCH  18  19
HETATM   19  C   UNL     1     -10.658  10.724  68.258  1.00  0.00    -0.200 C  
HETATM   20  O   UNL     1     -12.032  10.718  67.858  1.00  0.00    -0.753 OA 
HETATM   21  H   UNL     1     -12.581  10.870  68.618  1.00  0.00     0.000 HD 
BRANCH  19  22
HETATM   22  C   UNL     1     -10.352  12.131  68.904  1.00  0.00    -0.073 C  
BRANCH  22  23
HETATM   23  N   UNL     1      -8.902  12.536  68.818  1.00  0.00    -0.385 N  
HETATM   24  C   UNL     1      -8.152  13.539  68.243  1.00  0.00    -0.155 C  
HETATM   25  H   UNL     1      -8.309  11.884  69.330  1.00  0.00     0.000 HD 
HETATM   26  O   UNL     1      -6.984  13.681  68.617  1.00  0.00    -0.091 OA 
BRANCH  24  27
HETATM   27  C   UNL     1      -8.722  14.376  67.085  1.00  0.00    -0.226 C  
BRANCH  27  28
HETATM   28  O   UNL     1      -8.171  15.621  66.685  1.00  0.00    -0.257 OA 
BRANCH  28  29
HETATM   29  C   UNL     1      -8.912  16.774  66.901  1.00  0.00    -0.223 A  
HETATM   30  C   UNL     1     -10.834  16.539  65.089  1.00  0.00    -0.247 C  
HETATM   31  C   UNL     1     -10.105  17.177  66.245  1.00  0.00    -0.329 A  
HETATM   32  C   UNL     1     -10.778  18.335  66.707  1.00  0.00    -0.247 A  
HETATM   33  C   UNL     1     -10.305  19.101  67.761  1.00  0.00    -0.513 A  
HETATM   34  C   UNL     1      -9.121  18.736  68.377  1.00  0.00    -0.372 A  
HETATM   35  C   UNL     1      -8.411  17.594  67.957  1.00  0.00    -0.244 A  
HETATM   36  C   UNL     1      -7.116  17.301  68.674  1.00  0.00    -0.227 C  
ENDBRANCH  28  29
ENDBRANCH  27  28
ENDBRANCH  24  27
ENDBRANCH  22  23
BRANCH  22  37
HETATM   37  C   UNL     1     -11.421  13.202  68.556  1.00  0.00    -0.338 C  
BRANCH  37  38
HETATM   38  C   UNL     1     -11.718  14.165  69.673  1.00  0.00    -0.372 A  
HETATM   39  C   UNL     1     -12.050  15.882  71.860  1.00  0.00    -0.578 A  
HETATM   40  C   UNL     1     -12.453  13.755  70.787  1.00  0.00    -0.441 A  
HETATM   41  C   UNL     1     -11.379  16.320  70.726  1.00  0.00    -0.327 A  
HETATM   42  C   UNL     1     -11.259  15.481  69.622  1.00  0.00    -0.301 A  
HETATM   43  C   UNL     1     -12.618  14.610  71.875  1.00  0.00    -0.409 A  
ENDBRANCH  37  38
ENDBRANCH  22  37
ENDBRANCH  19  22
ENDBRANCH  18  19
ENDBRANCH  17  18
BRANCH  17  44
HETATM   44  C   UNL     1      -8.878   8.518  65.470  1.00  0.00    -0.196 C  
BRANCH  44  45
HETATM   45  C   UNL     1      -8.033   7.259  65.431  1.00  0.00    -0.125 A  
HETATM   46  C   UNL     1      -6.634   7.320  65.320  1.00  0.00    -0.047 A  
HETATM   47  C   UNL     1      -8.644   6.000  65.480  1.00  0.00    -0.145 A  
HETATM   48  C   UNL     1      -5.875   6.149  65.219  1.00  0.00    -0.025 A  
HETATM   49  C   UNL     1      -7.884   4.831  65.384  1.00  0.00    -0.091 A  
HETATM   50  C   UNL     1      -6.500   4.905  65.243  1.00  0.00    -0.036 A  
ENDBRANCH  44  45
ENDBRANCH  17  44
ENDBRANCH  15  17
ENDBRANCH   3  13
TORSDOF 14
ENDMDL
MODEL       81
REMARK 921   NORMALIZED FREE ENERGY PREDICTED BY IDOCK:   -5.55 KCAL/MOL
REMARK 922        TOTAL FREE ENERGY PREDICTED BY IDOCK:  -14.65 KCAL/MOL
REMARK 923 INTER-LIGAND FREE ENERGY PREDICTED BY IDOCK:   -9.92 KCAL/MOL
REMARK 924 INTRA-LIGAND FREE ENERGY PREDICTED BY IDOCK:   -4.73 KCAL/MOL
REMARK 927      BINDING AFFINITY PREDICTED BY RF-SCORE:    0.00 PKD
ROOT
HETATM    1  C   UNL     1     -13.062  12.136  72.057  1.00  0.00    -0.462 C  
HETATM    2  C   UNL     1     -12.097  12.240  70.866  1.00  0.00    -0.162 C  
HETATM    3  C   UNL     1     -12.181  10.971  69.963  1.00  0.00    -0.343 C  
HETATM    4  C   UNL     1     -12.382  13.547  70.124  1.00  0.00    -0.345 C  
ENDROOT
BRANCH   3   5
HETATM    5  N   UNL     1     -11.798   9.748  70.708  1.00  0.00    -0.302 N  
HETATM    6  H   UNL     1     -13.042   7.448  72.627  1.00  0.00     0.000 HD 
HETATM    7  O   UNL     1     -13.972   9.078  71.064  1.00  0.00    -0.171 OA 
HETATM    8  C   UNL     1     -10.412   9.297  70.727  1.00  0.00    -0.276 C  
HETATM    9  C   UNL     1     -12.770   8.956  71.281  1.00  0.00    -0.248 C  
HETATM   10  C   UNL     1     -10.036   8.916  72.146  1.00  0.00    -0.274 C  
HETATM   11  N   UNL     1     -12.332   8.030  72.184  1.00  0.00    -0.321 N  
HETATM   12  C   UNL     1     -10.957   7.793  72.575  1.00  0.00    -0.338 C  
ENDBRANCH   3   5
BRANCH   3  13
HETATM   13  C   UNL     1     -11.375  11.146  68.639  1.00  0.00    -0.277 C  
HETATM   14  O   UNL     1     -11.683  10.603  67.583  1.00  0.00    -0.480 OA 
HETATM   15  N   UNL     1     -10.224  11.896  68.762  1.00  0.00    -0.348 N  
HETATM   16  H   UNL     1     -10.056  12.325  69.671  1.00  0.00     0.000 HD 
BRANCH  15  17
HETATM   17  C   UNL     1      -9.217  12.143  67.732  1.00  0.00    -0.189 C  
BRANCH  17  18
HETATM   18  C   UNL     1      -8.226  10.975  67.534  1.00  0.00    -0.117 C  
BRANCH  18  19
HETATM   19  C   UNL     1      -8.145  10.140  66.230  1.00  0.00    -0.124 C  
HETATM   20  O   UNL     1      -9.462   9.964  65.700  1.00  0.00    -0.196 OA 
HETATM   21  H   UNL     1      -9.412   9.452  64.900  1.00  0.00     0.000 HD 
BRANCH  19  22
HETATM   22  C   UNL     1      -7.545   8.707  66.514  1.00  0.00    -0.088 C  
BRANCH  22  23
HETATM   23  N   UNL     1      -7.366   7.868  65.273  1.00  0.00    -0.071 N  
HETATM   24  C   UNL     1      -7.665   6.591  64.850  1.00  0.00    -0.105 C  
HETATM   25  H   UNL     1      -6.890   8.394  64.542  1.00  0.00     0.000 HD 
HETATM   26  O   UNL     1      -7.584   6.344  63.643  1.00  0.00    -0.078 OA 
BRANCH  24  27
HETATM   27  C   UNL     1      -7.973   5.480  65.868  1.00  0.00    -0.106 C  
BRANCH  27  28
HETATM   28  O   UNL     1      -9.284   5.000  66.117  1.00  0.00    -0.137 OA 
BRANCH  28  29
HETATM   29  C   UNL     1      -9.696   4.848  67.434  1.00  0.00    -0.165 A  
HETATM   30  C   UNL     1      -8.611   2.518  68.085  1.00  0.00    -0.109 C  
HETATM   31  C   UNL     1      -9.379   3.793  68.329  1.00  0.00    -0.225 A  
HETATM   32  C   UNL     1      -9.800   3.894  69.678  1.00  0.00    -0.106 A  
HETATM   33  C   UNL     1     -10.528   4.975  70.151  1.00  0.00    -0.235 A  
HETATM   34  C   UNL     1     -10.875   5.987  69.274  1.00  0.00    -0.428 A  
HETATM   35  C   UNL     1     -10.482   5.936  67.922  1.00  0.00    -0.297 A  
HETATM   36  C   UNL     1     -10.938   7.074  67.041  1.00  0.00    -0.357 C  
ENDBRANCH  28  29
ENDBRANCH  27  28
ENDBRANCH  24  27
ENDBRANCH  22  23
BRANCH  22  37
HETATM   37  C   UNL     1      -6.382   8.730  67.542  1.00  0.00    -0.056 C  
BRANCH  37  38
HETATM   38  C   UNL     1      -6.441   7.632  68.567  1.00  0.00    -0.048 A  
HETATM   39  C   UNL     1      -6.750   5.490  70.344  1.00  0.00    -0.047 A  
HETATM   40  C   UNL     1      -7.224   7.774  69.715  1.00  0.00    -0.067 A  
HETATM   41  C   UNL     1      -5.913   5.366  69.243  1.00  0.00    -0.024 A  
HETATM   42  C   UNL     1      -5.724   6.449  68.389  1.00  0.00    -0.016 A  
HETATM   43  C   UNL     1      -7.376   6.708  70.599  1.00  0.00    -0.075 A  
ENDBRANCH  37  38
ENDBRANCH  22  37
ENDBRANCH  19  22
ENDBRANCH  18  19
ENDBRANCH  17  18
BRANCH  17  44
HETATM   44  C   UNL     1      -8.653  13.581  67.735  1.00  0.00    -0.183 C  
BRANCH  44  45
HETATM   45  C   UNL     1      -9.337  14.504  66.745  1.00  0.00    -0.278 A  
HETATM   46  C   UNL     1      -9.047  15.878  66.707  1.00  0.00    -0.275 A  
HETATM   47  C   UNL     1     -10.298  14.000  65.861  1.00  0.00    -0.327 A  
HETATM   48  C   UNL     1      -9.734  16.728  65.833  1.00  0.00    -0.247 A  
HETATM   49  C   UNL     1     -10.981  14.850  64.986  1.00  0.00    -0.432 A  
HETATM   50  C   UNL     1     -10.706  16.215  64.978  1.00  0.00    -0.359 A  
ENDBRANCH  44  45
ENDBRANCH  17  44
ENDBRANCH  15  17
ENDBRANCH   3  13
TORSDOF 14
ENDMDL
MODEL       82
REMARK 921   NORMALIZED FREE ENERGY PREDICTED BY IDOCK:   -5.53 KCAL/MOL
REMARK 922        TOTAL FREE ENERGY PREDICTED BY IDOCK:  -14.60 KCAL/MOL
REMARK 923 INTER-LIGAND FREE ENERGY PREDICTED BY IDOCK:   -9.92 KCAL/MOL
REMARK 924 INTRA-LIGAND FREE ENERGY PREDICTED BY IDOCK:   -4.68 KCAL/MOL
REMARK 927      BINDING AFFINITY PREDICTED BY RF-SCORE:    0.00 PKD
ROOT
HETATM    1  C   UNL     1     -12.620  13.944  65.684  1.00  0.00    -0.553 C  
HETATM    2  C   UNL     1     -11.120  13.637  65.811  1.00  0.00    -0.292 C  
HETATM    3  C   UNL     1     -10.813  12.872  67.135  1.00  0.00    -0.256 C  
HETATM    4  C   UNL     1     -10.668  12.898  64.549  1.00  0.00    -0.392 C  
ENDROOT
BRANCH   3   5
HETATM    5  N   UNL     1     -11.179  13.676  68.324  1.00  0.00    -0.259 N  
HETATM    6  H   UNL     1     -13.030  13.578  70.987  1.00  0.00     0.000 HD 
HETATM    7  O   UNL     1     -12.161  11.910  69.429  1.00  0.00    -0.280 OA 
HETATM    8  C   UNL     1     -10.645  15.021  68.502  1.00  0.00    -0.235 C  
HETATM    9  C   UNL     1     -11.924  13.111  69.338  1.00  0.00    -0.291 C  
HETATM   10  C   UNL     1     -11.767  15.947  68.931  1.00  0.00    -0.376 C  
HETATM   11  N   UNL     1     -12.463  13.982  70.241  1.00  0.00    -0.349 N  
HETATM   12  C   UNL     1     -12.310  15.422  70.245  1.00  0.00    -0.388 C  
ENDBRANCH   3   5
BRANCH   3  13
HETATM   13  C   UNL     1      -9.340  12.362  67.183  1.00  0.00    -0.199 C  
HETATM   14  O   UNL     1      -8.368  13.082  66.979  1.00  0.00    -0.170 OA 
HETATM   15  N   UNL     1      -9.208  11.004  67.388  1.00  0.00    -0.151 N  
HETATM   16  H   UNL     1     -10.068  10.486  67.567  1.00  0.00     0.000 HD 
BRANCH  15  17
HETATM   17  C   UNL     1      -7.972  10.225  67.375  1.00  0.00    -0.107 C  
BRANCH  17  18
HETATM   18  C   UNL     1      -7.302  10.095  68.761  1.00  0.00    -0.084 C  
BRANCH  18  19
HETATM   19  C   UNL     1      -6.474   8.856  69.191  1.00  0.00    -0.043 C  
HETATM   20  O   UNL     1      -6.226   8.033  68.047  1.00  0.00    -0.044 OA 
HETATM   21  H   UNL     1      -5.718   7.274  68.311  1.00  0.00     0.000 HD 
BRANCH  19  22
HETATM   22  C   UNL     1      -7.264   7.987  70.246  1.00  0.00    -0.053 C  
BRANCH  22  23
HETATM   23  N   UNL     1      -6.613   6.661  70.549  1.00  0.00    -0.051 N  
HETATM   24  C   UNL     1      -6.962   5.328  70.557  1.00  0.00    -0.052 C  
HETATM   25  H   UNL     1      -5.641   6.787  70.828  1.00  0.00     0.000 HD 
HETATM   26  O   UNL     1      -6.057   4.490  70.618  1.00  0.00    -0.017 OA 
BRANCH  24  27
HETATM   27  C   UNL     1      -8.440   4.906  70.608  1.00  0.00    -0.105 C  
BRANCH  27  28
HETATM   28  O   UNL     1      -9.183   4.546  69.454  1.00  0.00    -0.106 OA 
BRANCH  28  29
HETATM   29  C   UNL     1      -9.298   5.470  68.425  1.00  0.00    -0.111 A  
HETATM   30  C   UNL     1      -7.157   4.928  66.957  1.00  0.00    -0.072 C  
HETATM   31  C   UNL     1      -8.448   5.628  67.298  1.00  0.00    -0.106 A  
HETATM   32  C   UNL     1      -8.818   6.554  66.292  1.00  0.00    -0.154 A  
HETATM   33  C   UNL     1      -9.966   7.326  66.375  1.00  0.00    -0.094 A  
HETATM   34  C   UNL     1     -10.777   7.206  67.490  1.00  0.00    -0.344 A  
HETATM   35  C   UNL     1     -10.455   6.300  68.521  1.00  0.00    -0.273 A  
HETATM   36  C   UNL     1     -11.388   6.268  69.707  1.00  0.00    -0.506 C  
ENDBRANCH  28  29
ENDBRANCH  27  28
ENDBRANCH  24  27
ENDBRANCH  22  23
BRANCH  22  37
HETATM   37  C   UNL     1      -7.790   8.822  71.444  1.00  0.00    -0.166 C  
BRANCH  37  38
HETATM   38  C   UNL     1      -9.265   8.674  71.701  1.00  0.00    -0.326 A  
HETATM   39  C   UNL     1     -11.986   8.581  72.356  1.00  0.00    -0.434 A  
HETATM   40  C   UNL     1      -9.732   7.762  72.650  1.00  0.00    -0.278 A  
HETATM   41  C   UNL     1     -11.538   9.440  71.361  1.00  0.00    -0.451 A  
HETATM   42  C   UNL     1     -10.192   9.447  71.004  1.00  0.00    -0.369 A  
HETATM   43  C   UNL     1     -11.086   7.716  72.975  1.00  0.00    -0.437 A  
ENDBRANCH  37  38
ENDBRANCH  22  37
ENDBRANCH  19  22
ENDBRANCH  18  19
ENDBRANCH  17  18
BRANCH  17  44
HETATM   44  C   UNL     1      -7.068  10.502  66.154  1.00  0.00    -0.135 C  
BRANCH  44  45
HETATM   45  C   UNL     1      -7.459   9.716  64.917  1.00  0.00    -0.118 A  
HETATM   46  C   UNL     1      -6.675   8.647  64.452  1.00  0.00    -0.070 A  
HETATM   47  C   UNL     1      -8.607  10.065  64.196  1.00  0.00    -0.195 A  
HETATM   48  C   UNL     1      -7.014   7.975  63.272  1.00  0.00    -0.085 A  
HETATM   49  C   UNL     1      -8.946   9.390  63.020  1.00  0.00    -0.175 A  
HETATM   50  C   UNL     1      -8.145   8.352  62.552  1.00  0.00    -0.169 A  
ENDBRANCH  44  45
ENDBRANCH  17  44
ENDBRANCH  15  17
ENDBRANCH   3  13
TORSDOF 14
ENDMDL
MODEL       83
REMARK 921   NORMALIZED FREE ENERGY PREDICTED BY IDOCK:   -5.52 KCAL/MOL
REMARK 922        TOTAL FREE ENERGY PREDICTED BY IDOCK:  -14.59 KCAL/MOL
REMARK 923 INTER-LIGAND FREE ENERGY PREDICTED BY IDOCK:  -10.50 KCAL/MOL
REMARK 924 INTRA-LIGAND FREE ENERGY PREDICTED BY IDOCK:   -4.09 KCAL/MOL
REMARK 927      BINDING AFFINITY PREDICTED BY RF-SCORE:    0.00 PKD
ROOT
HETATM    1  C   UNL     1     -11.906  14.900  69.468  1.00  0.00    -0.360 C  
HETATM    2  C   UNL     1     -11.980  13.419  69.067  1.00  0.00    -0.357 C  
HETATM    3  C   UNL     1     -10.774  13.022  68.160  1.00  0.00    -0.242 C  
HETATM    4  C   UNL     1     -12.102  12.577  70.338  1.00  0.00    -0.380 C  
ENDROOT
BRANCH   3   5
HETATM    5  N   UNL     1     -10.764  13.800  66.899  1.00  0.00    -0.279 N  
HETATM    6  H   UNL     1      -9.477  16.462  65.566  1.00  0.00     0.000 HD 
HETATM    7  O   UNL     1      -8.934  15.065  67.493  1.00  0.00    -0.173 OA 
HETATM    8  C   UNL     1     -11.593  13.393  65.771  1.00  0.00    -0.332 C  
HETATM    9  C   UNL     1      -9.873  14.839  66.735  1.00  0.00    -0.255 C  
HETATM   10  C   UNL     1     -12.284  14.616  65.198  1.00  0.00    -0.282 C  
HETATM   11  N   UNL     1     -10.120  15.680  65.688  1.00  0.00    -0.347 N  
HETATM   12  C   UNL     1     -11.205  15.571  64.735  1.00  0.00    -0.390 C  
ENDBRANCH   3   5
BRANCH   3  13
HETATM   13  C   UNL     1     -10.711  11.483  67.918  1.00  0.00    -0.200 C  
HETATM   14  O   UNL     1     -11.702  10.787  67.726  1.00  0.00    -0.547 OA 
HETATM   15  N   UNL     1      -9.449  10.936  68.025  1.00  0.00    -0.159 N  
HETATM   16  H   UNL     1      -8.680  11.591  68.167  1.00  0.00     0.000 HD 
BRANCH  15  17
HETATM   17  C   UNL     1      -9.092   9.520  67.958  1.00  0.00    -0.123 C  
BRANCH  17  18
HETATM   18  C   UNL     1      -9.598   8.691  69.158  1.00  0.00    -0.163 C  
BRANCH  18  19
HETATM   19  C   UNL     1      -9.422   9.136  70.633  1.00  0.00    -0.261 C  
HETATM   20  O   UNL     1      -8.222   9.905  70.755  1.00  0.00    -0.393 OA 
HETATM   21  H   UNL     1      -8.114  10.178  71.659  1.00  0.00     0.000 HD 
BRANCH  19  22
HETATM   22  C   UNL     1      -9.289   7.885  71.588  1.00  0.00    -0.148 C  
BRANCH  22  23
HETATM   23  N   UNL     1      -7.862   7.505  71.895  1.00  0.00    -0.088 N  
HETATM   24  C   UNL     1      -6.716   7.183  71.200  1.00  0.00    -0.051 C  
HETATM   25  H   UNL     1      -7.700   7.477  72.901  1.00  0.00     0.000 HD 
HETATM   26  O   UNL     1      -5.645   7.178  71.814  1.00  0.00    -0.036 OA 
BRANCH  24  27
HETATM   27  C   UNL     1      -6.793   6.729  69.733  1.00  0.00    -0.054 C  
BRANCH  27  28
HETATM   28  O   UNL     1      -7.290   5.460  69.340  1.00  0.00    -0.063 OA 
BRANCH  28  29
HETATM   29  C   UNL     1      -8.341   5.410  68.435  1.00  0.00    -0.094 A  
HETATM   30  C   UNL     1     -10.432   5.105  70.037  1.00  0.00    -0.305 C  
HETATM   31  C   UNL     1      -9.728   5.299  68.718  1.00  0.00    -0.203 A  
HETATM   32  C   UNL     1     -10.650   5.395  67.647  1.00  0.00    -0.188 A  
HETATM   33  C   UNL     1     -10.250   5.573  66.332  1.00  0.00    -0.247 A  
HETATM   34  C   UNL     1      -8.898   5.641  66.045  1.00  0.00    -0.147 A  
HETATM   35  C   UNL     1      -7.937   5.550  67.073  1.00  0.00    -0.102 A  
HETATM   36  C   UNL     1      -6.489   5.604  66.651  1.00  0.00    -0.050 C  
ENDBRANCH  28  29
ENDBRANCH  27  28
ENDBRANCH  24  27
ENDBRANCH  22  23
BRANCH  22  37
HETATM   37  C   UNL     1     -10.296   7.917  72.770  1.00  0.00    -0.399 C  
BRANCH  37  38
HETATM   38  C   UNL     1     -11.734   8.054  72.352  1.00  0.00    -0.444 A  
HETATM   39  C   UNL     1     -14.328   8.337  71.333  1.00  0.00    -0.461 A  
HETATM   40  C   UNL     1     -12.345   9.310  72.314  1.00  0.00    -0.344 A  
HETATM   41  C   UNL     1     -13.752   7.076  71.435  1.00  0.00    -0.307 A  
HETATM   42  C   UNL     1     -12.483   6.936  71.988  1.00  0.00    -0.285 A  
HETATM   43  C   UNL     1     -13.636   9.449  71.807  1.00  0.00    -0.461 A  
ENDBRANCH  37  38
ENDBRANCH  22  37
ENDBRANCH  19  22
ENDBRANCH  18  19
ENDBRANCH  17  18
BRANCH  17  44
HETATM   44  C   UNL     1      -7.659   9.257  67.446  1.00  0.00    -0.088 C  
BRANCH  44  45
HETATM   45  C   UNL     1      -7.567   9.123  65.937  1.00  0.00    -0.095 A  
HETATM   46  C   UNL     1      -8.706   9.236  65.123  1.00  0.00    -0.216 A  
HETATM   47  C   UNL     1      -6.335   8.854  65.329  1.00  0.00    -0.063 A  
HETATM   48  C   UNL     1      -8.615   9.043  63.740  1.00  0.00    -0.147 A  
HETATM   49  C   UNL     1      -6.246   8.666  63.947  1.00  0.00    -0.072 A  
HETATM   50  C   UNL     1      -7.386   8.751  63.153  1.00  0.00    -0.099 A  
ENDBRANCH  44  45
ENDBRANCH  17  44
ENDBRANCH  15  17
ENDBRANCH   3  13
TORSDOF 14
ENDMDL
MODEL       84
REMARK 921   NORMALIZED FREE ENERGY PREDICTED BY IDOCK:   -5.51 KCAL/MOL
REMARK 922        TOTAL FREE ENERGY PREDICTED BY IDOCK:  -14.57 KCAL/MOL
REMARK 923 INTER-LIGAND FREE ENERGY PREDICTED BY IDOCK:  -10.87 KCAL/MOL
REMARK 924 INTRA-LIGAND FREE ENERGY PREDICTED BY IDOCK:   -3.70 KCAL/MOL
REMARK 927      BINDING AFFINITY PREDICTED BY RF-SCORE:    0.00 PKD
ROOT
HETATM    1  C   UNL     1      -9.311   4.362  72.071  1.00  0.00    -0.180 C  
HETATM    2  C   UNL     1      -8.999   5.171  70.802  1.00  0.00    -0.162 C  
HETATM    3  C   UNL     1      -9.176   6.700  71.053  1.00  0.00    -0.160 C  
HETATM    4  C   UNL     1      -7.603   4.782  70.310  1.00  0.00    -0.057 C  
ENDROOT
BRANCH   3   5
HETATM    5  N   UNL     1     -10.571   7.031  71.430  1.00  0.00    -0.217 N  
HETATM    6  H   UNL     1     -13.610   6.881  70.306  1.00  0.00     0.000 HD 
HETATM    7  O   UNL     1     -11.506   5.780  69.738  1.00  0.00    -0.169 OA 
HETATM    8  C   UNL     1     -10.858   7.695  72.695  1.00  0.00    -0.340 C  
HETATM    9  C   UNL     1     -11.619   6.598  70.646  1.00  0.00    -0.382 C  
HETATM   10  C   UNL     1     -11.853   8.814  72.453  1.00  0.00    -0.356 C  
HETATM   11  N   UNL     1     -12.829   7.182  70.890  1.00  0.00    -0.223 N  
HETATM   12  C   UNL     1     -13.113   8.186  71.894  1.00  0.00    -0.327 C  
ENDBRANCH   3   5
BRANCH   3  13
HETATM   13  C   UNL     1      -8.660   7.550  69.851  1.00  0.00    -0.139 C  
HETATM   14  O   UNL     1      -7.721   8.335  69.931  1.00  0.00    -0.092 OA 
HETATM   15  N   UNL     1      -9.401   7.419  68.695  1.00  0.00    -0.140 N  
HETATM   16  H   UNL     1     -10.152   6.729  68.712  1.00  0.00     0.000 HD 
BRANCH  15  17
HETATM   17  C   UNL     1      -9.229   8.161  67.447  1.00  0.00    -0.137 C  
BRANCH  17  18
HETATM   18  C   UNL     1      -9.988   9.505  67.410  1.00  0.00    -0.241 C  
BRANCH  18  19
HETATM   19  C   UNL     1     -10.933   9.979  68.544  1.00  0.00    -0.209 C  
HETATM   20  O   UNL     1     -12.125  10.522  67.969  1.00  0.00    -0.697 OA 
HETATM   21  H   UNL     1     -12.705  10.813  68.664  1.00  0.00     0.000 HD 
BRANCH  19  22
HETATM   22  C   UNL     1     -10.255  11.114  69.407  1.00  0.00    -0.010 C  
BRANCH  22  23
HETATM   23  N   UNL     1      -8.749  11.047  69.424  1.00  0.00    -0.376 N  
HETATM   24  C   UNL     1      -7.689  11.667  68.798  1.00  0.00    -0.111 C  
HETATM   25  H   UNL     1      -8.422  10.343  70.085  1.00  0.00     0.000 HD 
HETATM   26  O   UNL     1      -6.561  11.514  69.275  1.00  0.00    -0.092 OA 
BRANCH  24  27
HETATM   27  C   UNL     1      -7.897  12.428  67.477  1.00  0.00    -0.169 C  
BRANCH  27  28
HETATM   28  O   UNL     1      -7.590  13.804  67.320  1.00  0.00    -0.155 OA 
BRANCH  28  29
HETATM   29  C   UNL     1      -8.615  14.731  67.443  1.00  0.00    -0.196 A  
HETATM   30  C   UNL     1      -9.972  14.352  65.196  1.00  0.00    -0.268 C  
HETATM   31  C   UNL     1      -9.694  14.960  66.548  1.00  0.00    -0.294 A  
HETATM   32  C   UNL     1     -10.710  15.871  66.926  1.00  0.00    -0.289 A  
HETATM   33  C   UNL     1     -10.681  16.563  68.127  1.00  0.00    -0.343 A  
HETATM   34  C   UNL     1      -9.612  16.375  68.985  1.00  0.00    -0.264 A  
HETATM   35  C   UNL     1      -8.573  15.480  68.658  1.00  0.00    -0.179 A  
HETATM   36  C   UNL     1      -7.439  15.371  69.647  1.00  0.00    -0.170 C  
ENDBRANCH  28  29
ENDBRANCH  27  28
ENDBRANCH  24  27
ENDBRANCH  22  23
BRANCH  22  37
HETATM   37  C   UNL     1     -10.911  12.506  69.198  1.00  0.00    -0.198 C  
BRANCH  37  38
HETATM   38  C   UNL     1     -11.901  12.890  70.263  1.00  0.00    -0.291 A  
HETATM   39  C   UNL     1     -13.546  13.607  72.413  1.00  0.00    -0.703 A  
HETATM   40  C   UNL     1     -12.555  11.907  71.011  1.00  0.00    -0.381 A  
HETATM   41  C   UNL     1     -12.955  14.590  71.629  1.00  0.00    -0.408 A  
HETATM   42  C   UNL     1     -12.179  14.229  70.532  1.00  0.00    -0.427 A  
HETATM   43  C   UNL     1     -13.374  12.266  72.080  1.00  0.00    -0.491 A  
ENDBRANCH  37  38
ENDBRANCH  22  37
ENDBRANCH  19  22
ENDBRANCH  18  19
ENDBRANCH  17  18
BRANCH  17  44
HETATM   44  C   UNL     1      -9.256   7.276  66.182  1.00  0.00    -0.136 C  
BRANCH  44  45
HETATM   45  C   UNL     1      -8.941   5.817  66.452  1.00  0.00    -0.139 A  
HETATM   46  C   UNL     1      -7.620   5.338  66.426  1.00  0.00    -0.088 A  
HETATM   47  C   UNL     1      -9.975   4.910  66.708  1.00  0.00    -0.250 A  
HETATM   48  C   UNL     1      -7.352   3.977  66.611  1.00  0.00    -0.072 A  
HETATM   49  C   UNL     1      -9.705   3.552  66.898  1.00  0.00    -0.049 A  
HETATM   50  C   UNL     1      -8.396   3.083  66.840  1.00  0.00    -0.092 A  
ENDBRANCH  44  45
ENDBRANCH  17  44
ENDBRANCH  15  17
ENDBRANCH   3  13
TORSDOF 14
ENDMDL
MODEL       85
REMARK 921   NORMALIZED FREE ENERGY PREDICTED BY IDOCK:   -5.51 KCAL/MOL
REMARK 922        TOTAL FREE ENERGY PREDICTED BY IDOCK:  -14.57 KCAL/MOL
REMARK 923 INTER-LIGAND FREE ENERGY PREDICTED BY IDOCK:  -10.99 KCAL/MOL
REMARK 924 INTRA-LIGAND FREE ENERGY PREDICTED BY IDOCK:   -3.58 KCAL/MOL
REMARK 927      BINDING AFFINITY PREDICTED BY RF-SCORE:    0.00 PKD
ROOT
HETATM    1  C   UNL     1     -12.193  14.737  64.394  1.00  0.00    -0.447 C  
HETATM    2  C   UNL     1     -11.447  13.873  65.423  1.00  0.00    -0.316 C  
HETATM    3  C   UNL     1     -11.476  14.532  66.836  1.00  0.00    -0.364 C  
HETATM    4  C   UNL     1     -12.032  12.460  65.386  1.00  0.00    -0.457 C  
ENDROOT
BRANCH   3   5
HETATM    5  N   UNL     1     -10.808  15.855  66.833  1.00  0.00    -0.286 N  
HETATM    6  H   UNL     1     -10.636  18.619  68.522  1.00  0.00     0.000 HD 
HETATM    7  O   UNL     1     -11.399  16.350  69.003  1.00  0.00    -0.317 OA 
HETATM    8  C   UNL     1      -9.911  16.229  65.746  1.00  0.00    -0.323 C  
HETATM    9  C   UNL     1     -10.927  16.691  67.923  1.00  0.00    -0.276 C  
HETATM   10  C   UNL     1     -10.226  17.647  65.310  1.00  0.00     0.506 C  
HETATM   11  N   UNL     1     -10.539  17.986  67.728  1.00  0.00    -0.411 N  
HETATM   12  C   UNL     1     -10.003  18.549  66.506  1.00  0.00    -0.380 C  
ENDBRANCH   3   5
BRANCH   3  13
HETATM   13  C   UNL     1     -10.916  13.577  67.934  1.00  0.00    -0.256 C  
HETATM   14  O   UNL     1      -9.745  13.216  67.984  1.00  0.00    -0.211 OA 
HETATM   15  N   UNL     1     -11.864  13.089  68.810  1.00  0.00    -0.318 N  
HETATM   16  H   UNL     1     -12.810  13.458  68.708  1.00  0.00     0.000 HD 
BRANCH  15  17
HETATM   17  C   UNL     1     -11.664  12.100  69.867  1.00  0.00    -0.287 C  
BRANCH  17  18
HETATM   18  C   UNL     1     -11.195  10.722  69.353  1.00  0.00    -0.337 C  
BRANCH  18  19
HETATM   19  C   UNL     1      -9.702  10.316  69.249  1.00  0.00    -0.225 C  
HETATM   20  O   UNL     1      -9.314  10.290  67.872  1.00  0.00    -0.137 OA 
HETATM   21  H   UNL     1      -8.399  10.041  67.809  1.00  0.00     0.000 HD 
BRANCH  19  22
HETATM   22  C   UNL     1      -9.467   8.872  69.842  1.00  0.00    -0.170 C  
BRANCH  22  23
HETATM   23  N   UNL     1      -9.043   8.871  71.289  1.00  0.00    -0.239 N  
HETATM   24  C   UNL     1      -7.995   8.395  72.048  1.00  0.00    -0.135 C  
HETATM   25  H   UNL     1      -9.723   9.361  71.870  1.00  0.00     0.000 HD 
HETATM   26  O   UNL     1      -7.868   8.825  73.199  1.00  0.00    -0.395 OA 
BRANCH  24  27
HETATM   27  C   UNL     1      -7.087   7.275  71.515  1.00  0.00    -0.067 C  
BRANCH  27  28
HETATM   28  O   UNL     1      -7.161   5.934  71.971  1.00  0.00    -0.087 OA 
BRANCH  28  29
HETATM   29  C   UNL     1      -7.583   4.954  71.084  1.00  0.00    -0.082 A  
HETATM   30  C   UNL     1      -5.378   4.491  69.686  1.00  0.00    -0.008 C  
HETATM   31  C   UNL     1      -6.812   4.276  70.104  1.00  0.00    -0.034 A  
HETATM   32  C   UNL     1      -7.408   3.213  69.384  1.00  0.00    -0.045 A  
HETATM   33  C   UNL     1      -8.723   2.822  69.585  1.00  0.00    -0.131 A  
HETATM   34  C   UNL     1      -9.493   3.505  70.510  1.00  0.00    -0.249 A  
HETATM   35  C   UNL     1      -8.949   4.572  71.254  1.00  0.00    -0.167 A  
HETATM   36  C   UNL     1      -9.880   5.271  72.213  1.00  0.00    -0.209 C  
ENDBRANCH  28  29
ENDBRANCH  27  28
ENDBRANCH  24  27
ENDBRANCH  22  23
BRANCH  22  37
HETATM   37  C   UNL     1     -10.559   7.856  69.411  1.00  0.00    -0.209 C  
BRANCH  37  38
HETATM   38  C   UNL     1     -10.100   6.850  68.392  1.00  0.00    -0.177 A  
HETATM   39  C   UNL     1      -9.251   5.166  66.321  1.00  0.00    -0.147 A  
HETATM   40  C   UNL     1     -11.029   6.106  67.660  1.00  0.00    -0.400 A  
HETATM   41  C   UNL     1      -8.318   5.847  67.093  1.00  0.00    -0.105 A  
HETATM   42  C   UNL     1      -8.742   6.644  68.152  1.00  0.00    -0.117 A  
HETATM   43  C   UNL     1     -10.606   5.268  66.631  1.00  0.00    -0.334 A  
ENDBRANCH  37  38
ENDBRANCH  22  37
ENDBRANCH  19  22
ENDBRANCH  18  19
ENDBRANCH  17  18
BRANCH  17  44
HETATM   44  C   UNL     1     -12.742  12.135  70.972  1.00  0.00    -0.322 C  
BRANCH  44  45
HETATM   45  C   UNL     1     -12.922  13.502  71.604  1.00  0.00    -0.447 A  
HETATM   46  C   UNL     1     -14.200  14.039  71.832  1.00  0.00    -0.511 A  
HETATM   47  C   UNL     1     -11.804  14.270  71.949  1.00  0.00     0.122 A  
HETATM   48  C   UNL     1     -14.349  15.329  72.354  1.00  0.00    -0.475 A  
HETATM   49  C   UNL     1     -11.955  15.557  72.475  1.00  0.00    -0.557 A  
HETATM   50  C   UNL     1     -13.226  16.090  72.668  1.00  0.00    -0.451 A  
ENDBRANCH  44  45
ENDBRANCH  17  44
ENDBRANCH  15  17
ENDBRANCH   3  13
TORSDOF 14
ENDMDL
MODEL       86
REMARK 921   NORMALIZED FREE ENERGY PREDICTED BY IDOCK:   -5.50 KCAL/MOL
REMARK 922        TOTAL FREE ENERGY PREDICTED BY IDOCK:  -14.56 KCAL/MOL
REMARK 923 INTER-LIGAND FREE ENERGY PREDICTED BY IDOCK:  -11.03 KCAL/MOL
REMARK 924 INTRA-LIGAND FREE ENERGY PREDICTED BY IDOCK:   -3.53 KCAL/MOL
REMARK 927      BINDING AFFINITY PREDICTED BY RF-SCORE:    0.00 PKD
ROOT
HETATM    1  C   UNL     1      -7.071  12.683  67.421  1.00  0.00    -0.138 C  
HETATM    2  C   UNL     1      -8.190  12.115  68.307  1.00  0.00    -0.168 C  
HETATM    3  C   UNL     1      -9.345  11.522  67.442  1.00  0.00    -0.166 C  
HETATM    4  C   UNL     1      -7.573  11.114  69.287  1.00  0.00    -0.057 C  
ENDROOT
BRANCH   3   5
HETATM    5  N   UNL     1      -9.970  12.558  66.587  1.00  0.00    -0.231 N  
HETATM    6  H   UNL     1     -10.724  13.185  63.495  1.00  0.00     0.000 HD 
HETATM    7  O   UNL     1     -10.178  11.170  64.761  1.00  0.00    -0.265 OA 
HETATM    8  C   UNL     1     -10.429  13.816  67.163  1.00  0.00    -0.272 C  
HETATM    9  C   UNL     1     -10.241  12.289  65.262  1.00  0.00    -0.278 C  
HETATM   10  C   UNL     1      -9.981  14.960  66.274  1.00  0.00    -0.300 C  
HETATM   11  N   UNL     1     -10.537  13.369  64.480  1.00  0.00    -0.413 N  
HETATM   12  C   UNL     1     -10.610  14.749  64.912  1.00  0.00    -0.406 C  
ENDBRANCH   3   5
BRANCH   3  13
HETATM   13  C   UNL     1     -10.385  10.751  68.311  1.00  0.00    -0.173 C  
HETATM   14  O   UNL     1     -11.053   9.812  67.892  1.00  0.00    -0.236 OA 
HETATM   15  N   UNL     1     -10.566  11.263  69.580  1.00  0.00    -0.439 N  
HETATM   16  H   UNL     1      -9.953  12.032  69.851  1.00  0.00     0.000 HD 
BRANCH  15  17
HETATM   17  C   UNL     1     -11.539  10.825  70.578  1.00  0.00    -0.330 C  
BRANCH  17  18
HETATM   18  C   UNL     1     -11.545   9.299  70.817  1.00  0.00    -0.345 C  
BRANCH  18  19
HETATM   19  C   UNL     1     -10.326   8.521  71.376  1.00  0.00    -0.239 C  
HETATM   20  O   UNL     1      -9.250   9.435  71.609  1.00  0.00    -0.258 OA 
HETATM   21  H   UNL     1      -8.502   8.958  71.951  1.00  0.00     0.000 HD 
BRANCH  19  22
HETATM   22  C   UNL     1      -9.823   7.440  70.342  1.00  0.00    -0.183 C  
BRANCH  22  23
HETATM   23  N   UNL     1      -8.348   7.143  70.443  1.00  0.00    -0.127 N  
HETATM   24  C   UNL     1      -7.213   7.324  69.681  1.00  0.00    -0.079 C  
HETATM   25  H   UNL     1      -8.128   6.677  71.322  1.00  0.00     0.000 HD 
HETATM   26  O   UNL     1      -6.116   7.172  70.227  1.00  0.00    -0.024 OA 
BRANCH  24  27
HETATM   27  C   UNL     1      -7.318   7.589  68.170  1.00  0.00    -0.096 C  
BRANCH  27  28
HETATM   28  O   UNL     1      -6.998   6.617  67.189  1.00  0.00    -0.066 OA 
BRANCH  28  29
HETATM   29  C   UNL     1      -7.848   5.531  67.030  1.00  0.00    -0.101 A  
HETATM   30  C   UNL     1     -10.180   6.716  66.596  1.00  0.00    -0.208 C  
HETATM   31  C   UNL     1      -9.235   5.548  66.727  1.00  0.00    -0.129 A  
HETATM   32  C   UNL     1      -9.893   4.319  66.480  1.00  0.00    -0.238 A  
HETATM   33  C   UNL     1      -9.239   3.098  66.542  1.00  0.00    -0.155 A  
HETATM   34  C   UNL     1      -7.897   3.072  66.877  1.00  0.00    -0.076 A  
HETATM   35  C   UNL     1      -7.194   4.266  67.133  1.00  0.00    -0.068 A  
HETATM   36  C   UNL     1      -5.742   4.126  67.521  1.00  0.00    -0.022 C  
ENDBRANCH  28  29
ENDBRANCH  27  28
ENDBRANCH  24  27
ENDBRANCH  22  23
BRANCH  22  37
HETATM   37  C   UNL     1     -10.793   6.234  70.208  1.00  0.00    -0.366 C  
BRANCH  37  38
HETATM   38  C   UNL     1     -10.332   4.989  70.914  1.00  0.00    -0.260 A  
HETATM   39  C   UNL     1      -9.709   2.575  72.190  1.00  0.00    -0.206 A  
HETATM   40  C   UNL     1     -10.478   4.863  72.298  1.00  0.00    -0.267 A  
HETATM   41  C   UNL     1      -9.494   2.718  70.825  1.00  0.00    -0.219 A  
HETATM   42  C   UNL     1      -9.759   3.935  70.204  1.00  0.00    -0.242 A  
HETATM   43  C   UNL     1     -10.167   3.662  72.932  1.00  0.00    -0.236 A  
ENDBRANCH  37  38
ENDBRANCH  22  37
ENDBRANCH  19  22
ENDBRANCH  18  19
ENDBRANCH  17  18
BRANCH  17  44
HETATM   44  C   UNL     1     -12.899  11.551  70.490  1.00  0.00    -0.091 C  
BRANCH  44  45
HETATM   45  C   UNL     1     -12.881  12.948  71.082  1.00  0.00    -0.326 A  
HETATM   46  C   UNL     1     -13.415  13.210  72.355  1.00  0.00    -0.643 A  
HETATM   47  C   UNL     1     -12.351  14.016  70.349  1.00  0.00    -0.429 A  
HETATM   48  C   UNL     1     -13.451  14.515  72.859  1.00  0.00    -0.525 A  
HETATM   49  C   UNL     1     -12.384  15.318  70.855  1.00  0.00    -0.433 A  
HETATM   50  C   UNL     1     -12.943  15.570  72.105  1.00  0.00    -0.506 A  
ENDBRANCH  44  45
ENDBRANCH  17  44
ENDBRANCH  15  17
ENDBRANCH   3  13
TORSDOF 14
ENDMDL
MODEL       87
REMARK 921   NORMALIZED FREE ENERGY PREDICTED BY IDOCK:   -5.50 KCAL/MOL
REMARK 922        TOTAL FREE ENERGY PREDICTED BY IDOCK:  -14.56 KCAL/MOL
REMARK 923 INTER-LIGAND FREE ENERGY PREDICTED BY IDOCK:  -11.53 KCAL/MOL
REMARK 924 INTRA-LIGAND FREE ENERGY PREDICTED BY IDOCK:   -3.02 KCAL/MOL
REMARK 927      BINDING AFFINITY PREDICTED BY RF-SCORE:    0.00 PKD
ROOT
HETATM    1  C   UNL     1     -12.015  15.214  70.374  1.00  0.00    -0.364 C  
HETATM    2  C   UNL     1     -12.236  13.820  69.766  1.00  0.00    -0.368 C  
HETATM    3  C   UNL     1     -10.991  13.360  68.946  1.00  0.00    -0.248 C  
HETATM    4  C   UNL     1     -12.627  12.857  70.890  1.00  0.00    -0.355 C  
ENDROOT
BRANCH   3   5
HETATM    5  N   UNL     1     -10.720  14.275  67.813  1.00  0.00    -0.249 N  
HETATM    6  H   UNL     1     -11.671  14.913  64.778  1.00  0.00     0.000 HD 
HETATM    7  O   UNL     1     -12.632  13.699  66.667  1.00  0.00    -0.306 OA 
HETATM    8  C   UNL     1      -9.662  15.274  67.904  1.00  0.00    -0.211 C  
HETATM    9  C   UNL     1     -11.549  14.275  66.712  1.00  0.00    -0.391 C  
HETATM   10  C   UNL     1      -8.857  15.262  66.618  1.00  0.00    -0.328 C  
HETATM   11  N   UNL     1     -11.074  14.918  65.604  1.00  0.00    -0.339 N  
HETATM   12  C   UNL     1      -9.805  15.607  65.488  1.00  0.00    -0.291 C  
ENDBRANCH   3   5
BRANCH   3  13
HETATM   13  C   UNL     1     -11.106  11.869  68.503  1.00  0.00    -0.243 C  
HETATM   14  O   UNL     1     -12.154  11.234  68.531  1.00  0.00    -0.573 OA 
HETATM   15  N   UNL     1      -9.907  11.280  68.154  1.00  0.00    -0.177 N  
HETATM   16  H   UNL     1      -9.089  11.888  68.141  1.00  0.00     0.000 HD 
BRANCH  15  17
HETATM   17  C   UNL     1      -9.682   9.880  67.803  1.00  0.00    -0.150 C  
BRANCH  17  18
HETATM   18  C   UNL     1      -9.704   8.921  69.014  1.00  0.00    -0.171 C  
BRANCH  18  19
HETATM   19  C   UNL     1      -9.437   9.383  70.469  1.00  0.00    -0.269 C  
HETATM   20  O   UNL     1      -8.238  10.163  70.505  1.00  0.00    -0.397 OA 
HETATM   21  H   UNL     1      -8.074  10.446  71.397  1.00  0.00     0.000 HD 
BRANCH  19  22
HETATM   22  C   UNL     1      -9.233   8.144  71.427  1.00  0.00    -0.153 C  
BRANCH  22  23
HETATM   23  N   UNL     1      -7.786   7.784  71.653  1.00  0.00    -0.085 N  
HETATM   24  C   UNL     1      -6.675   7.483  70.894  1.00  0.00    -0.043 C  
HETATM   25  H   UNL     1      -7.568   7.755  72.648  1.00  0.00     0.000 HD 
HETATM   26  O   UNL     1      -5.572   7.492  71.448  1.00  0.00    -0.035 OA 
BRANCH  24  27
HETATM   27  C   UNL     1      -6.825   7.034  69.431  1.00  0.00    -0.054 C  
BRANCH  27  28
HETATM   28  O   UNL     1      -7.250   5.733  69.060  1.00  0.00    -0.073 OA 
BRANCH  28  29
HETATM   29  C   UNL     1      -8.224   5.608  68.078  1.00  0.00    -0.100 A  
HETATM   30  C   UNL     1      -6.972   6.551  65.939  1.00  0.00    -0.061 C  
HETATM   31  C   UNL     1      -8.112   5.919  66.697  1.00  0.00    -0.102 A  
HETATM   32  C   UNL     1      -9.190   5.595  65.837  1.00  0.00    -0.145 A  
HETATM   33  C   UNL     1     -10.358   5.007  66.297  1.00  0.00    -0.332 A  
HETATM   34  C   UNL     1     -10.489   4.739  67.648  1.00  0.00     0.059 A  
HETATM   35  C   UNL     1      -9.447   5.041  68.547  1.00  0.00    -0.185 A  
HETATM   36  C   UNL     1      -9.703   4.738  70.004  1.00  0.00    -0.280 C  
ENDBRANCH  28  29
ENDBRANCH  27  28
ENDBRANCH  24  27
ENDBRANCH  22  23
BRANCH  22  37
HETATM   37  C   UNL     1     -10.169   8.176  72.665  1.00  0.00    -0.388 C  
BRANCH  37  38
HETATM   38  C   UNL     1     -11.633   8.078  72.335  1.00  0.00    -0.450 A  
HETATM   39  C   UNL     1     -14.295   7.934  71.475  1.00  0.00    -0.563 A  
HETATM   40  C   UNL     1     -12.440   9.218  72.341  1.00  0.00    -0.307 A  
HETATM   41  C   UNL     1     -13.519   6.784  71.534  1.00  0.00    -0.180 A  
HETATM   42  C   UNL     1     -12.212   6.852  72.009  1.00  0.00    -0.318 A  
HETATM   43  C   UNL     1     -13.764   9.145  71.914  1.00  0.00    -0.485 A  
ENDBRANCH  37  38
ENDBRANCH  22  37
ENDBRANCH  19  22
ENDBRANCH  18  19
ENDBRANCH  17  18
BRANCH  17  44
HETATM   44  C   UNL     1      -8.592   9.669  66.729  1.00  0.00    -0.140 C  
BRANCH  44  45
HETATM   45  C   UNL     1      -9.039  10.040  65.328  1.00  0.00    -0.243 A  
HETATM   46  C   UNL     1      -8.749   9.218  64.226  1.00  0.00    -0.204 A  
HETATM   47  C   UNL     1      -9.734  11.235  65.104  1.00  0.00    -0.285 A  
HETATM   48  C   UNL     1      -9.110   9.607  62.932  1.00  0.00    -0.241 A  
HETATM   49  C   UNL     1     -10.097  11.619  63.811  1.00  0.00    -0.416 A  
HETATM   50  C   UNL     1      -9.777  10.811  62.723  1.00  0.00    -0.297 A  
ENDBRANCH  44  45
ENDBRANCH  17  44
ENDBRANCH  15  17
ENDBRANCH   3  13
TORSDOF 14
ENDMDL
MODEL       88
REMARK 921   NORMALIZED FREE ENERGY PREDICTED BY IDOCK:   -5.49 KCAL/MOL
REMARK 922        TOTAL FREE ENERGY PREDICTED BY IDOCK:  -14.54 KCAL/MOL
REMARK 923 INTER-LIGAND FREE ENERGY PREDICTED BY IDOCK:  -11.46 KCAL/MOL
REMARK 924 INTRA-LIGAND FREE ENERGY PREDICTED BY IDOCK:   -3.08 KCAL/MOL
REMARK 927      BINDING AFFINITY PREDICTED BY RF-SCORE:    0.00 PKD
ROOT
HETATM    1  C   UNL     1      -7.112   5.489  68.862  1.00  0.00    -0.061 C  
HETATM    2  C   UNL     1      -8.224   6.525  69.085  1.00  0.00    -0.116 C  
HETATM    3  C   UNL     1      -8.711   7.127  67.731  1.00  0.00    -0.125 C  
HETATM    4  C   UNL     1      -9.337   5.873  69.909  1.00  0.00    -0.173 C  
ENDROOT
BRANCH   3   5
HETATM    5  N   UNL     1      -7.616   7.831  67.023  1.00  0.00    -0.098 N  
HETATM    6  H   UNL     1      -5.658  10.403  67.293  1.00  0.00     0.000 HD 
HETATM    7  O   UNL     1      -7.034   9.113  68.845  1.00  0.00    -0.062 OA 
HETATM    8  C   UNL     1      -7.158   7.367  65.720  1.00  0.00    -0.065 C  
HETATM    9  C   UNL     1      -6.934   8.852  67.650  1.00  0.00    -0.075 C  
HETATM   10  C   UNL     1      -7.000   8.561  64.797  1.00  0.00    -0.073 C  
HETATM   11  N   UNL     1      -6.156   9.634  66.845  1.00  0.00    -0.062 N  
HETATM   12  C   UNL     1      -5.968   9.480  65.417  1.00  0.00    -0.064 C  
ENDBRANCH   3   5
BRANCH   3  13
HETATM   13  C   UNL     1      -9.980   8.016  67.913  1.00  0.00    -0.180 C  
HETATM   14  O   UNL     1     -10.956   7.962  67.172  1.00  0.00    -0.219 OA 
HETATM   15  N   UNL     1      -9.890   8.943  68.931  1.00  0.00    -0.172 N  
HETATM   16  H   UNL     1      -9.051   8.903  69.509  1.00  0.00     0.000 HD 
BRANCH  15  17
HETATM   17  C   UNL     1     -10.865   9.977  69.271  1.00  0.00    -0.230 C  
BRANCH  17  18
HETATM   18  C   UNL     1     -10.703  11.280  68.458  1.00  0.00    -0.235 C  
BRANCH  18  19
HETATM   19  C   UNL     1      -9.325  11.865  68.054  1.00  0.00    -0.193 C  
HETATM   20  O   UNL     1      -8.410  11.711  69.143  1.00  0.00    -0.369 OA 
HETATM   21  H   UNL     1      -7.565  12.070  68.895  1.00  0.00     0.000 HD 
BRANCH  19  22
HETATM   22  C   UNL     1      -9.438  13.407  67.735  1.00  0.00    -0.210 C  
BRANCH  22  23
HETATM   23  N   UNL     1      -8.586  14.275  68.627  1.00  0.00    -0.235 N  
HETATM   24  C   UNL     1      -7.819  15.415  68.516  1.00  0.00    -0.134 C  
HETATM   25  H   UNL     1      -8.575  13.918  69.582  1.00  0.00     0.000 HD 
HETATM   26  O   UNL     1      -7.468  15.984  69.554  1.00  0.00    -0.222 OA 
BRANCH  24  27
HETATM   27  C   UNL     1      -7.319  15.891  67.141  1.00  0.00    -0.223 C  
BRANCH  27  28
HETATM   28  O   UNL     1      -8.080  16.731  66.289  1.00  0.00    -0.299 OA 
BRANCH  28  29
HETATM   29  C   UNL     1      -8.394  18.010  66.727  1.00  0.00    -0.253 A  
HETATM   30  C   UNL     1      -6.051  19.240  66.561  1.00  0.00    -0.176 C  
HETATM   31  C   UNL     1      -7.535  19.136  66.814  1.00  0.00    -0.237 A  
HETATM   32  C   UNL     1      -8.089  20.390  67.169  1.00  0.00    -0.378 A  
HETATM   33  C   UNL     1      -9.436  20.555  67.454  1.00  0.00    -0.551 A  
HETATM   34  C   UNL     1     -10.271  19.453  67.411  1.00  0.00    -0.530 A  
HETATM   35  C   UNL     1      -9.771  18.182  67.064  1.00  0.00    -0.307 A  
HETATM   36  C   UNL     1     -10.758  17.040  67.077  1.00  0.00    -0.149 C  
ENDBRANCH  28  29
ENDBRANCH  27  28
ENDBRANCH  24  27
ENDBRANCH  22  23
BRANCH  22  37
HETATM   37  C   UNL     1      -9.429  13.711  66.212  1.00  0.00    -0.209 C  
BRANCH  37  38
HETATM   38  C   UNL     1     -10.549  13.063  65.446  1.00  0.00    -0.307 A  
HETATM   39  C   UNL     1     -12.619  12.052  63.854  1.00  0.00    -0.517 A  
HETATM   40  C   UNL     1     -11.880  13.367  65.742  1.00  0.00    -0.412 A  
HETATM   41  C   UNL     1     -11.303  11.689  63.599  1.00  0.00    -0.485 A  
HETATM   42  C   UNL     1     -10.282  12.154  64.423  1.00  0.00    -0.333 A  
HETATM   43  C   UNL     1     -12.909  12.863  64.949  1.00  0.00    -0.370 A  
ENDBRANCH  37  38
ENDBRANCH  22  37
ENDBRANCH  19  22
ENDBRANCH  18  19
ENDBRANCH  17  18
BRANCH  17  44
HETATM   44  C   UNL     1     -11.152  10.096  70.784  1.00  0.00    -0.372 C  
BRANCH  44  45
HETATM   45  C   UNL     1     -11.227   8.759  71.496  1.00  0.00    -0.377 A  
HETATM   46  C   UNL     1     -12.241   7.831  71.205  1.00  0.00    -0.325 A  
HETATM   47  C   UNL     1     -10.290   8.435  72.485  1.00  0.00    -0.371 A  
HETATM   48  C   UNL     1     -12.335   6.630  71.918  1.00  0.00    -0.364 A  
HETATM   49  C   UNL     1     -10.383   7.234  73.193  1.00  0.00    -0.359 A  
HETATM   50  C   UNL     1     -11.410   6.335  72.916  1.00  0.00    -0.187 A  
ENDBRANCH  44  45
ENDBRANCH  17  44
ENDBRANCH  15  17
ENDBRANCH   3  13
TORSDOF 14
ENDMDL
MODEL       89
REMARK 921   NORMALIZED FREE ENERGY PREDICTED BY IDOCK:   -5.49 KCAL/MOL
REMARK 922        TOTAL FREE ENERGY PREDICTED BY IDOCK:  -14.54 KCAL/MOL
REMARK 923 INTER-LIGAND FREE ENERGY PREDICTED BY IDOCK:  -11.88 KCAL/MOL
REMARK 924 INTRA-LIGAND FREE ENERGY PREDICTED BY IDOCK:   -2.66 KCAL/MOL
REMARK 927      BINDING AFFINITY PREDICTED BY RF-SCORE:    0.00 PKD
ROOT
HETATM    1  C   UNL     1      -8.002   6.289  73.116  1.00  0.00    -0.106 C  
HETATM    2  C   UNL     1      -8.510   7.442  72.237  1.00  0.00    -0.129 C  
HETATM    3  C   UNL     1      -9.401   6.910  71.073  1.00  0.00    -0.156 C  
HETATM    4  C   UNL     1      -9.209   8.465  73.135  1.00  0.00    -0.222 C  
ENDROOT
BRANCH   3   5
HETATM    5  N   UNL     1      -8.643   6.003  70.179  1.00  0.00    -0.133 N  
HETATM    6  H   UNL     1      -8.780   3.048  68.849  1.00  0.00     0.000 HD 
HETATM    7  O   UNL     1     -10.408   4.557  69.867  1.00  0.00    -0.130 OA 
HETATM    8  C   UNL     1      -7.342   6.399  69.653  1.00  0.00    -0.080 C  
HETATM    9  C   UNL     1      -9.219   4.832  69.734  1.00  0.00    -0.121 C  
HETATM   10  C   UNL     1      -6.379   5.234  69.788  1.00  0.00    -0.027 C  
HETATM   11  N   UNL     1      -8.369   3.924  69.169  1.00  0.00    -0.071 N  
HETATM   12  C   UNL     1      -6.943   4.084  68.979  1.00  0.00    -0.047 C  
ENDBRANCH   3   5
BRANCH   3  13
HETATM   13  C   UNL     1     -10.100   8.071  70.300  1.00  0.00    -0.192 C  
HETATM   14  O   UNL     1     -11.300   8.309  70.378  1.00  0.00    -0.254 OA 
HETATM   15  N   UNL     1      -9.275   8.768  69.440  1.00  0.00    -0.145 N  
HETATM   16  H   UNL     1      -8.287   8.515  69.455  1.00  0.00     0.000 HD 
BRANCH  15  17
HETATM   17  C   UNL     1      -9.661   9.827  68.512  1.00  0.00    -0.154 C  
BRANCH  17  18
HETATM   18  C   UNL     1     -10.076  11.144  69.204  1.00  0.00    -0.134 C  
BRANCH  18  19
HETATM   19  C   UNL     1     -11.552  11.525  69.491  1.00  0.00    -0.333 C  
HETATM   20  O   UNL     1     -12.411  10.499  68.986  1.00  0.00    -0.770 OA 
HETATM   21  H   UNL     1     -13.316  10.732  69.162  1.00  0.00     0.000 HD 
BRANCH  19  22
HETATM   22  C   UNL     1     -11.938  12.874  68.768  1.00  0.00    -0.253 C  
BRANCH  22  23
HETATM   23  N   UNL     1     -12.598  13.882  69.675  1.00  0.00    -0.344 N  
HETATM   24  C   UNL     1     -12.325  15.133  70.184  1.00  0.00    -0.341 C  
HETATM   25  H   UNL     1     -13.501  13.542  70.003  1.00  0.00     0.000 HD 
HETATM   26  O   UNL     1     -13.250  15.764  70.705  1.00  0.00    -0.542 OA 
BRANCH  24  27
HETATM   27  C   UNL     1     -10.885  15.672  70.208  1.00  0.00    -0.350 C  
BRANCH  27  28
HETATM   28  O   UNL     1     -10.499  16.878  69.568  1.00  0.00    -0.303 OA 
BRANCH  28  29
HETATM   29  C   UNL     1      -9.512  16.825  68.594  1.00  0.00    -0.255 A  
HETATM   30  C   UNL     1      -7.933  14.904  69.514  1.00  0.00    -0.084 C  
HETATM   31  C   UNL     1      -8.403  15.942  68.526  1.00  0.00    -0.182 A  
HETATM   32  C   UNL     1      -7.579  15.971  67.374  1.00  0.00    -0.200 A  
HETATM   33  C   UNL     1      -7.803  16.843  66.320  1.00  0.00    -0.346 A  
HETATM   34  C   UNL     1      -8.858  17.735  66.399  1.00  0.00    -0.256 A  
HETATM   35  C   UNL     1      -9.708  17.749  67.523  1.00  0.00    -0.284 A  
HETATM   36  C   UNL     1     -10.810  18.781  67.525  1.00  0.00    -0.396 C  
ENDBRANCH  28  29
ENDBRANCH  27  28
ENDBRANCH  24  27
ENDBRANCH  22  23
BRANCH  22  37
HETATM   37  C   UNL     1     -10.828  13.385  67.809  1.00  0.00    -0.267 C  
BRANCH  37  38
HETATM   38  C   UNL     1     -11.051  13.036  66.364  1.00  0.00    -0.313 A  
HETATM   39  C   UNL     1     -11.526  12.149  63.750  1.00  0.00    -0.548 A  
HETATM   40  C   UNL     1     -10.001  12.551  65.581  1.00  0.00    -0.259 A  
HETATM   41  C   UNL     1     -12.560  12.698  64.499  1.00  0.00    -0.491 A  
HETATM   42  C   UNL     1     -12.309  13.182  65.779  1.00  0.00    -0.496 A  
HETATM   43  C   UNL     1     -10.239  12.110  64.280  1.00  0.00    -0.351 A  
ENDBRANCH  37  38
ENDBRANCH  22  37
ENDBRANCH  19  22
ENDBRANCH  18  19
ENDBRANCH  17  18
BRANCH  17  44
HETATM   44  C   UNL     1     -10.507   9.338  67.316  1.00  0.00    -0.334 C  
BRANCH  44  45
HETATM   45  C   UNL     1     -10.126   7.953  66.828  1.00  0.00    -0.352 A  
HETATM   46  C   UNL     1      -8.898   7.715  66.189  1.00  0.00    -0.192 A  
HETATM   47  C   UNL     1     -11.015   6.883  66.985  1.00  0.00    -0.404 A  
HETATM   48  C   UNL     1      -8.590   6.446  65.686  1.00  0.00    -0.138 A  
HETATM   49  C   UNL     1     -10.704   5.615  66.485  1.00  0.00    -0.296 A  
HETATM   50  C   UNL     1      -9.497   5.398  65.828  1.00  0.00    -0.104 A  
ENDBRANCH  44  45
ENDBRANCH  17  44
ENDBRANCH  15  17
ENDBRANCH   3  13
TORSDOF 14
ENDMDL
MODEL       90
REMARK 921   NORMALIZED FREE ENERGY PREDICTED BY IDOCK:   -5.49 KCAL/MOL
REMARK 922        TOTAL FREE ENERGY PREDICTED BY IDOCK:  -14.54 KCAL/MOL
REMARK 923 INTER-LIGAND FREE ENERGY PREDICTED BY IDOCK:  -11.62 KCAL/MOL
REMARK 924 INTRA-LIGAND FREE ENERGY PREDICTED BY IDOCK:   -2.92 KCAL/MOL
REMARK 927      BINDING AFFINITY PREDICTED BY RF-SCORE:    0.00 PKD
ROOT
HETATM    1  C   UNL     1      -9.824   3.279  71.083  1.00  0.00    -0.144 C  
HETATM    2  C   UNL     1      -9.196   4.333  70.159  1.00  0.00    -0.205 C  
HETATM    3  C   UNL     1      -9.001   5.689  70.905  1.00  0.00    -0.140 C  
HETATM    4  C   UNL     1      -7.905   3.757  69.573  1.00  0.00    -0.052 C  
ENDROOT
BRANCH   3   5
HETATM    5  N   UNL     1     -10.294   6.249  71.363  1.00  0.00    -0.205 N  
HETATM    6  H   UNL     1     -13.122   7.366  70.232  1.00  0.00     0.000 HD 
HETATM    7  O   UNL     1     -11.327   5.983  69.322  1.00  0.00    -0.384 OA 
HETATM    8  C   UNL     1     -10.539   6.484  72.780  1.00  0.00    -0.230 C  
HETATM    9  C   UNL     1     -11.324   6.430  70.465  1.00  0.00    -0.375 C  
HETATM   10  C   UNL     1     -11.175   7.850  72.953  1.00  0.00    -0.429 C  
HETATM   11  N   UNL     1     -12.361   7.211  70.893  1.00  0.00    -0.327 N  
HETATM   12  C   UNL     1     -12.484   7.840  72.191  1.00  0.00    -0.243 C  
ENDBRANCH   3   5
BRANCH   3  13
HETATM   13  C   UNL     1      -8.172   6.704  70.059  1.00  0.00    -0.130 C  
HETATM   14  O   UNL     1      -7.304   7.430  70.532  1.00  0.00    -0.073 OA 
HETATM   15  N   UNL     1      -8.550   6.791  68.735  1.00  0.00    -0.123 N  
HETATM   16  H   UNL     1      -9.266   6.136  68.422  1.00  0.00     0.000 HD 
BRANCH  15  17
HETATM   17  C   UNL     1      -8.036   7.719  67.730  1.00  0.00    -0.125 C  
BRANCH  17  18
HETATM   18  C   UNL     1      -8.946   8.944  67.488  1.00  0.00    -0.142 C  
BRANCH  18  19
HETATM   19  C   UNL     1     -10.254   9.201  68.280  1.00  0.00    -0.206 C  
HETATM   20  O   UNL     1     -11.348   9.309  67.365  1.00  0.00    -0.246 OA 
HETATM   21  H   UNL     1     -12.149   9.467  67.850  1.00  0.00     0.000 HD 
BRANCH  19  22
HETATM   22  C   UNL     1     -10.167  10.555  69.088  1.00  0.00    -0.224 C  
BRANCH  22  23
HETATM   23  N   UNL     1      -8.778  11.138  69.149  1.00  0.00    -0.378 N  
HETATM   24  C   UNL     1      -8.141  12.305  68.785  1.00  0.00     0.054 C  
HETATM   25  H   UNL     1      -8.126  10.484  69.581  1.00  0.00     0.000 HD 
HETATM   26  O   UNL     1      -7.014  12.519  69.242  1.00  0.00    -0.068 OA 
BRANCH  24  27
HETATM   27  C   UNL     1      -8.769  13.249  67.747  1.00  0.00    -0.194 C  
BRANCH  27  28
HETATM   28  O   UNL     1      -8.901  12.914  66.375  1.00  0.00    -0.087 OA 
BRANCH  28  29
HETATM   29  C   UNL     1     -10.176  12.830  65.833  1.00  0.00    -0.287 A  
HETATM   30  C   UNL     1     -11.409  14.862  67.006  1.00  0.00    -0.345 C  
HETATM   31  C   UNL     1     -11.278  13.695  66.060  1.00  0.00    -0.302 A  
HETATM   32  C   UNL     1     -12.460  13.505  65.304  1.00  0.00    -0.525 A  
HETATM   33  C   UNL     1     -12.590  12.492  64.366  1.00  0.00    -0.497 A  
HETATM   34  C   UNL     1     -11.534  11.620  64.169  1.00  0.00    -0.364 A  
HETATM   35  C   UNL     1     -10.334  11.764  64.895  1.00  0.00    -0.334 A  
HETATM   36  C   UNL     1      -9.256  10.742  64.629  1.00  0.00    -0.249 C  
ENDBRANCH  28  29
ENDBRANCH  27  28
ENDBRANCH  24  27
ENDBRANCH  22  23
BRANCH  22  37
HETATM   37  C   UNL     1     -11.341  11.522  68.774  1.00  0.00    -0.327 C  
BRANCH  37  38
HETATM   38  C   UNL     1     -11.992  12.120  69.991  1.00  0.00    -0.391 A  
HETATM   39  C   UNL     1     -13.424  13.229  72.126  1.00  0.00    -0.655 A  
HETATM   40  C   UNL     1     -12.064  13.506  70.148  1.00  0.00    -0.425 A  
HETATM   41  C   UNL     1     -13.295  11.851  72.015  1.00  0.00    -0.425 A  
HETATM   42  C   UNL     1     -12.541  11.305  70.980  1.00  0.00    -0.495 A  
HETATM   43  C   UNL     1     -12.777  14.057  71.211  1.00  0.00    -0.439 A  
ENDBRANCH  37  38
ENDBRANCH  22  37
ENDBRANCH  19  22
ENDBRANCH  18  19
ENDBRANCH  17  18
BRANCH  17  44
HETATM   44  C   UNL     1      -7.405   7.030  66.501  1.00  0.00    -0.083 C  
BRANCH  44  45
HETATM   45  C   UNL     1      -8.020   5.681  66.177  1.00  0.00    -0.106 A  
HETATM   46  C   UNL     1      -7.231   4.523  66.076  1.00  0.00    -0.076 A  
HETATM   47  C   UNL     1      -9.397   5.574  65.946  1.00  0.00    -0.140 A  
HETATM   48  C   UNL     1      -7.804   3.300  65.711  1.00  0.00    -0.085 A  
HETATM   49  C   UNL     1      -9.968   4.350  65.586  1.00  0.00    -0.247 A  
HETATM   50  C   UNL     1      -9.172   3.215  65.459  1.00  0.00    -0.145 A  
ENDBRANCH  44  45
ENDBRANCH  17  44
ENDBRANCH  15  17
ENDBRANCH   3  13
TORSDOF 14
ENDMDL
MODEL       91
REMARK 921   NORMALIZED FREE ENERGY PREDICTED BY IDOCK:   -5.48 KCAL/MOL
REMARK 922        TOTAL FREE ENERGY PREDICTED BY IDOCK:  -14.52 KCAL/MOL
REMARK 923 INTER-LIGAND FREE ENERGY PREDICTED BY IDOCK:  -11.32 KCAL/MOL
REMARK 924 INTRA-LIGAND FREE ENERGY PREDICTED BY IDOCK:   -3.20 KCAL/MOL
REMARK 927      BINDING AFFINITY PREDICTED BY RF-SCORE:    0.00 PKD
ROOT
HETATM    1  C   UNL     1     -10.970  14.467  64.556  1.00  0.00    -0.264 C  
HETATM    2  C   UNL     1     -10.585  13.538  65.718  1.00  0.00    -0.283 C  
HETATM    3  C   UNL     1     -10.871  14.212  67.095  1.00  0.00    -0.290 C  
HETATM    4  C   UNL     1     -11.298  12.198  65.524  1.00  0.00    -0.393 C  
ENDROOT
BRANCH   3   5
HETATM    5  N   UNL     1     -10.078  15.452  67.268  1.00  0.00    -0.236 N  
HETATM    6  H   UNL     1     -10.401  18.589  68.030  1.00  0.00     0.000 HD 
HETATM    7  O   UNL     1     -11.774  16.592  68.330  1.00  0.00    -0.106 OA 
HETATM    8  C   UNL     1      -8.644  15.456  67.009  1.00  0.00    -0.234 C  
HETATM    9  C   UNL     1     -10.667  16.579  67.800  1.00  0.00    -0.329 C  
HETATM   10  C   UNL     1      -8.290  16.687  66.197  1.00  0.00    -0.305 C  
HETATM   11  N   UNL     1      -9.969  17.745  67.654  1.00  0.00    -0.309 N  
HETATM   12  C   UNL     1      -8.677  17.899  67.020  1.00  0.00    -0.245 C  
ENDBRANCH   3   5
BRANCH   3  13
HETATM   13  C   UNL     1     -10.692  13.213  68.279  1.00  0.00    -0.245 C  
HETATM   14  O   UNL     1      -9.624  12.680  68.559  1.00  0.00    -0.195 OA 
HETATM   15  N   UNL     1     -11.858  12.898  68.946  1.00  0.00    -0.314 N  
HETATM   16  H   UNL     1     -12.697  13.403  68.659  1.00  0.00     0.000 HD 
BRANCH  15  17
HETATM   17  C   UNL     1     -12.025  11.919  70.018  1.00  0.00    -0.332 C  
BRANCH  17  18
HETATM   18  C   UNL     1     -12.082  10.456  69.526  1.00  0.00    -0.125 C  
BRANCH  18  19
HETATM   19  C   UNL     1     -10.904   9.758  68.799  1.00  0.00    -0.188 C  
HETATM   20  O   UNL     1     -11.365   9.226  67.554  1.00  0.00    -0.315 OA 
HETATM   21  H   UNL     1     -10.644   8.797  67.109  1.00  0.00     0.000 HD 
BRANCH  19  22
HETATM   22  C   UNL     1     -10.344   8.556  69.657  1.00  0.00    -0.218 C  
BRANCH  22  23
HETATM   23  N   UNL     1     -11.414   7.621  70.162  1.00  0.00    -0.472 N  
HETATM   24  C   UNL     1     -11.915   7.199  71.375  1.00  0.00    -0.328 C  
HETATM   25  H   UNL     1     -11.904   7.175  69.388  1.00  0.00     0.000 HD 
HETATM   26  O   UNL     1     -12.995   6.600  71.381  1.00  0.00    -0.250 OA 
BRANCH  24  27
HETATM   27  C   UNL     1     -11.093   7.367  72.663  1.00  0.00    -0.331 C  
BRANCH  27  28
HETATM   28  O   UNL     1     -10.245   6.353  73.178  1.00  0.00    -0.182 OA 
BRANCH  28  29
HETATM   29  C   UNL     1      -9.098   6.024  72.469  1.00  0.00    -0.135 A  
HETATM   30  C   UNL     1      -9.919   3.959  71.022  1.00  0.00    -0.149 C  
HETATM   31  C   UNL     1      -8.942   5.009  71.489  1.00  0.00    -0.157 A  
HETATM   32  C   UNL     1      -7.714   4.921  70.789  1.00  0.00    -0.070 A  
HETATM   33  C   UNL     1      -6.652   5.776  71.039  1.00  0.00    -0.045 A  
HETATM   34  C   UNL     1      -6.784   6.742  72.021  1.00  0.00    -0.058 A  
HETATM   35  C   UNL     1      -7.984   6.872  72.748  1.00  0.00    -0.108 A  
HETATM   36  C   UNL     1      -8.014   7.935  73.819  1.00  0.00    -0.240 C  
ENDBRANCH  28  29
ENDBRANCH  27  28
ENDBRANCH  24  27
ENDBRANCH  22  23
BRANCH  22  37
HETATM   37  C   UNL     1      -9.063   7.924  69.049  1.00  0.00    -0.144 C  
BRANCH  37  38
HETATM   38  C   UNL     1      -7.819   8.749  69.235  1.00  0.00    -0.100 A  
HETATM   39  C   UNL     1      -5.428  10.111  69.755  1.00  0.00    -0.038 A  
HETATM   40  C   UNL     1      -7.781   9.771  70.187  1.00  0.00    -0.188 A  
HETATM   41  C   UNL     1      -5.477   9.145  68.757  1.00  0.00    -0.037 A  
HETATM   42  C   UNL     1      -6.680   8.506  68.469  1.00  0.00    -0.060 A  
HETATM   43  C   UNL     1      -6.590  10.448  70.444  1.00  0.00    -0.121 A  
ENDBRANCH  37  38
ENDBRANCH  22  37
ENDBRANCH  19  22
ENDBRANCH  18  19
ENDBRANCH  17  18
BRANCH  17  44
HETATM   44  C   UNL     1     -13.018  12.355  71.118  1.00  0.00    -0.232 C  
BRANCH  44  45
HETATM   45  C   UNL     1     -12.673  13.686  71.757  1.00  0.00    -0.359 A  
HETATM   46  C   UNL     1     -13.334  14.136  72.913  1.00  0.00    -0.532 A  
HETATM   47  C   UNL     1     -11.698  14.510  71.183  1.00  0.00    -0.292 A  
HETATM   48  C   UNL     1     -13.050  15.395  73.452  1.00  0.00    -0.633 A  
HETATM   49  C   UNL     1     -11.413  15.767  71.725  1.00  0.00    -0.484 A  
HETATM   50  C   UNL     1     -12.096  16.214  72.853  1.00  0.00    -0.643 A  
ENDBRANCH  44  45
ENDBRANCH  17  44
ENDBRANCH  15  17
ENDBRANCH   3  13
TORSDOF 14
ENDMDL
MODEL       92
REMARK 921   NORMALIZED FREE ENERGY PREDICTED BY IDOCK:   -5.47 KCAL/MOL
REMARK 922        TOTAL FREE ENERGY PREDICTED BY IDOCK:  -14.51 KCAL/MOL
REMARK 923 INTER-LIGAND FREE ENERGY PREDICTED BY IDOCK:   -9.99 KCAL/MOL
REMARK 924 INTRA-LIGAND FREE ENERGY PREDICTED BY IDOCK:   -4.52 KCAL/MOL
REMARK 927      BINDING AFFINITY PREDICTED BY RF-SCORE:    0.00 PKD
ROOT
HETATM    1  C   UNL     1     -11.357  11.852  63.461  1.00  0.00    -0.516 C  
HETATM    2  C   UNL     1     -10.017  11.466  64.107  1.00  0.00    -0.335 C  
HETATM    3  C   UNL     1     -10.183  11.218  65.638  1.00  0.00    -0.253 C  
HETATM    4  C   UNL     1      -9.437  10.272  63.345  1.00  0.00    -0.340 C  
ENDROOT
BRANCH   3   5
HETATM    5  N   UNL     1     -10.651  12.437  66.338  1.00  0.00    -0.240 N  
HETATM    6  H   UNL     1     -12.875  13.444  68.474  1.00  0.00     0.000 HD 
HETATM    7  O   UNL     1     -11.929  11.277  67.863  1.00  0.00    -0.630 OA 
HETATM    8  C   UNL     1     -10.039  13.730  66.062  1.00  0.00    -0.311 C  
HETATM    9  C   UNL     1     -11.582  12.337  67.350  1.00  0.00    -0.355 C  
HETATM   10  C   UNL     1     -11.131  14.771  65.900  1.00  0.00    -0.340 C  
HETATM   11  N   UNL     1     -12.174  13.506  67.737  1.00  0.00    -0.259 N  
HETATM   12  C   UNL     1     -11.903  14.824  67.203  1.00  0.00    -0.286 C  
ENDBRANCH   3   5
BRANCH   3  13
HETATM   13  C   UNL     1      -8.890  10.618  66.272  1.00  0.00    -0.161 C  
HETATM   14  O   UNL     1      -7.757  10.961  65.952  1.00  0.00    -0.144 OA 
HETATM   15  N   UNL     1      -9.113   9.596  67.173  1.00  0.00    -0.134 N  
HETATM   16  H   UNL     1     -10.087   9.391  67.395  1.00  0.00     0.000 HD 
BRANCH  15  17
HETATM   17  C   UNL     1      -8.107   8.775  67.843  1.00  0.00    -0.107 C  
BRANCH  17  18
HETATM   18  C   UNL     1      -7.932   9.101  69.342  1.00  0.00    -0.097 C  
BRANCH  18  19
HETATM   19  C   UNL     1      -7.768   8.014  70.435  1.00  0.00    -0.085 C  
HETATM   20  O   UNL     1      -7.255   6.819  69.839  1.00  0.00    -0.075 OA 
HETATM   21  H   UNL     1      -7.154   6.152  70.509  1.00  0.00     0.000 HD 
BRANCH  19  22
HETATM   22  C   UNL     1      -9.159   7.662  71.094  1.00  0.00    -0.146 C  
BRANCH  22  23
HETATM   23  N   UNL     1      -9.112   6.463  72.007  1.00  0.00    -0.141 N  
HETATM   24  C   UNL     1      -9.030   5.092  71.893  1.00  0.00    -0.133 C  
HETATM   25  H   UNL     1      -9.152   6.746  72.986  1.00  0.00     0.000 HD 
HETATM   26  O   UNL     1      -8.752   4.439  72.903  1.00  0.00    -0.107 OA 
BRANCH  24  27
HETATM   27  C   UNL     1      -9.394   4.394  70.571  1.00  0.00    -0.143 C  
BRANCH  27  28
HETATM   28  O   UNL     1      -8.593   4.481  69.404  1.00  0.00    -0.080 OA 
BRANCH  28  29
HETATM   29  C   UNL     1      -9.207   4.345  68.167  1.00  0.00    -0.137 A  
HETATM   30  C   UNL     1     -10.715   6.524  68.059  1.00  0.00    -0.351 C  
HETATM   31  C   UNL     1     -10.106   5.246  67.537  1.00  0.00    -0.222 A  
HETATM   32  C   UNL     1     -10.522   4.978  66.210  1.00  0.00    -0.352 A  
HETATM   33  C   UNL     1     -10.101   3.858  65.510  1.00  0.00    -0.078 A  
HETATM   34  C   UNL     1      -9.257   2.955  66.132  1.00  0.00    -0.103 A  
HETATM   35  C   UNL     1      -8.814   3.173  67.452  1.00  0.00    -0.159 A  
HETATM   36  C   UNL     1      -7.922   2.112  68.050  1.00  0.00    -0.062 C  
ENDBRANCH  28  29
ENDBRANCH  27  28
ENDBRANCH  24  27
ENDBRANCH  22  23
BRANCH  22  37
HETATM   37  C   UNL     1      -9.927   8.917  71.592  1.00  0.00    -0.397 C  
BRANCH  37  38
HETATM   38  C   UNL     1     -11.421   8.825  71.447  1.00  0.00    -0.366 A  
HETATM   39  C   UNL     1     -14.216   8.660  71.433  1.00  0.00    -0.341 A  
HETATM   40  C   UNL     1     -12.055   7.580  71.408  1.00  0.00    -0.354 A  
HETATM   41  C   UNL     1     -13.591   9.900  71.399  1.00  0.00    -0.297 A  
HETATM   42  C   UNL     1     -12.202   9.976  71.356  1.00  0.00    -0.510 A  
HETATM   43  C   UNL     1     -13.446   7.500  71.400  1.00  0.00    -0.386 A  
ENDBRANCH  37  38
ENDBRANCH  22  37
ENDBRANCH  19  22
ENDBRANCH  18  19
ENDBRANCH  17  18
BRANCH  17  44
HETATM   44  C   UNL     1      -6.836   8.527  67.001  1.00  0.00    -0.067 C  
BRANCH  44  45
HETATM   45  C   UNL     1      -6.915   7.287  66.131  1.00  0.00    -0.065 A  
HETATM   46  C   UNL     1      -6.246   6.103  66.484  1.00  0.00    -0.037 A  
HETATM   47  C   UNL     1      -7.643   7.311  64.936  1.00  0.00    -0.102 A  
HETATM   48  C   UNL     1      -6.275   4.988  65.638  1.00  0.00    -0.034 A  
HETATM   49  C   UNL     1      -7.673   6.196  64.094  1.00  0.00    -0.106 A  
HETATM   50  C   UNL     1      -6.982   5.038  64.440  1.00  0.00    -0.049 A  
ENDBRANCH  44  45
ENDBRANCH  17  44
ENDBRANCH  15  17
ENDBRANCH   3  13
TORSDOF 14
ENDMDL
MODEL       93
REMARK 921   NORMALIZED FREE ENERGY PREDICTED BY IDOCK:   -5.46 KCAL/MOL
REMARK 922        TOTAL FREE ENERGY PREDICTED BY IDOCK:  -14.48 KCAL/MOL
REMARK 923 INTER-LIGAND FREE ENERGY PREDICTED BY IDOCK:  -10.85 KCAL/MOL
REMARK 924 INTRA-LIGAND FREE ENERGY PREDICTED BY IDOCK:   -3.63 KCAL/MOL
REMARK 927      BINDING AFFINITY PREDICTED BY RF-SCORE:    0.00 PKD
ROOT
HETATM    1  C   UNL     1      -9.169   3.534  66.778  1.00  0.00    -0.199 C  
HETATM    2  C   UNL     1      -9.852   4.690  67.524  1.00  0.00    -0.200 C  
HETATM    3  C   UNL     1      -8.905   5.300  68.603  1.00  0.00    -0.096 C  
HETATM    4  C   UNL     1     -10.351   5.705  66.493  1.00  0.00    -0.287 C  
ENDROOT
BRANCH   3   5
HETATM    5  N   UNL     1      -8.535   4.298  69.629  1.00  0.00    -0.067 N  
HETATM    6  H   UNL     1      -5.966   2.731  70.841  1.00  0.00     0.000 HD 
HETATM    7  O   UNL     1      -6.281   4.751  69.505  1.00  0.00    -0.024 OA 
HETATM    8  C   UNL     1      -9.561   3.660  70.445  1.00  0.00    -0.184 C  
HETATM    9  C   UNL     1      -7.207   4.056  69.911  1.00  0.00    -0.042 C  
HETATM   10  C   UNL     1      -9.284   2.171  70.514  1.00  0.00    -0.186 C  
HETATM   11  N   UNL     1      -6.946   2.930  70.640  1.00  0.00    -0.033 N  
HETATM   12  C   UNL     1      -7.922   1.992  71.153  1.00  0.00    -0.046 C  
ENDBRANCH   3   5
BRANCH   3  13
HETATM   13  C   UNL     1      -9.493   6.606  69.220  1.00  0.00    -0.141 C  
HETATM   14  O   UNL     1     -10.694   6.850  69.271  1.00  0.00    -0.219 OA 
HETATM   15  N   UNL     1      -8.547   7.523  69.633  1.00  0.00    -0.136 N  
HETATM   16  H   UNL     1      -7.573   7.229  69.572  1.00  0.00     0.000 HD 
BRANCH  15  17
HETATM   17  C   UNL     1      -8.789   8.869  70.147  1.00  0.00    -0.163 C  
BRANCH  17  18
HETATM   18  C   UNL     1      -7.709   9.896  69.741  1.00  0.00    -0.159 C  
BRANCH  18  19
HETATM   19  C   UNL     1      -6.885   9.789  68.432  1.00  0.00    -0.060 C  
HETATM   20  O   UNL     1      -5.608  10.406  68.626  1.00  0.00    -0.038 OA 
HETATM   21  H   UNL     1      -5.103  10.341  67.824  1.00  0.00     0.000 HD 
BRANCH  19  22
HETATM   22  C   UNL     1      -7.607  10.543  67.247  1.00  0.00    -0.096 C  
BRANCH  22  23
HETATM   23  N   UNL     1      -7.108  11.950  67.030  1.00  0.00    -0.247 N  
HETATM   24  C   UNL     1      -7.296  13.199  67.581  1.00  0.00    -0.154 C  
HETATM   25  H   UNL     1      -6.445  11.987  66.256  1.00  0.00     0.000 HD 
HETATM   26  O   UNL     1      -6.496  14.092  67.286  1.00  0.00    -0.286 OA 
BRANCH  24  27
HETATM   27  C   UNL     1      -8.536  13.497  68.441  1.00  0.00    -0.142 C  
BRANCH  27  28
HETATM   28  O   UNL     1      -9.450  14.541  68.146  1.00  0.00    -0.196 OA 
BRANCH  28  29
HETATM   29  C   UNL     1     -10.356  14.356  67.111  1.00  0.00    -0.262 A  
HETATM   30  C   UNL     1     -11.805  12.323  68.004  1.00  0.00    -0.368 C  
HETATM   31  C   UNL     1     -11.423  13.421  67.044  1.00  0.00    -0.372 A  
HETATM   32  C   UNL     1     -12.315  13.484  65.945  1.00  0.00    -0.507 A  
HETATM   33  C   UNL     1     -12.174  14.409  64.923  1.00  0.00    -0.440 A  
HETATM   34  C   UNL     1     -11.113  15.297  64.962  1.00  0.00    -0.436 A  
HETATM   35  C   UNL     1     -10.195  15.278  66.032  1.00  0.00    -0.335 A  
HETATM   36  C   UNL     1      -9.056  16.265  65.963  1.00  0.00    -0.332 C  
ENDBRANCH  28  29
ENDBRANCH  27  28
ENDBRANCH  24  27
ENDBRANCH  22  23
BRANCH  22  37
HETATM   37  C   UNL     1      -7.808   9.649  65.994  1.00  0.00    -0.102 C  
BRANCH  37  38
HETATM   38  C   UNL     1      -8.627  10.285  64.906  1.00  0.00    -0.192 A  
HETATM   39  C   UNL     1     -10.229  11.234  62.813  1.00  0.00    -0.075 A  
HETATM   40  C   UNL     1      -8.080  10.496  63.637  1.00  0.00    -0.051 A  
HETATM   41  C   UNL     1     -10.760  11.094  64.089  1.00  0.00    -0.415 A  
HETATM   42  C   UNL     1      -9.948  10.669  65.137  1.00  0.00    -0.366 A  
HETATM   43  C   UNL     1      -8.878  10.969  62.597  1.00  0.00    -0.334 A  
ENDBRANCH  37  38
ENDBRANCH  22  37
ENDBRANCH  19  22
ENDBRANCH  18  19
ENDBRANCH  17  18
BRANCH  17  44
HETATM   44  C   UNL     1      -9.312   8.902  71.600  1.00  0.00    -0.328 C  
BRANCH  44  45
HETATM   45  C   UNL     1     -10.812   9.103  71.701  1.00  0.00    -0.442 A  
HETATM   46  C   UNL     1     -11.601   8.306  72.547  1.00  0.00    -0.454 A  
HETATM   47  C   UNL     1     -11.445  10.081  70.924  1.00  0.00    -0.452 A  
HETATM   48  C   UNL     1     -12.991   8.460  72.580  1.00  0.00    -0.235 A  
HETATM   49  C   UNL     1     -12.833  10.236  70.961  1.00  0.00    -0.490 A  
HETATM   50  C   UNL     1     -13.608   9.420  71.781  1.00  0.00    -0.461 A  
ENDBRANCH  44  45
ENDBRANCH  17  44
ENDBRANCH  15  17
ENDBRANCH   3  13
TORSDOF 14
ENDMDL
MODEL       94
REMARK 921   NORMALIZED FREE ENERGY PREDICTED BY IDOCK:   -5.43 KCAL/MOL
REMARK 922        TOTAL FREE ENERGY PREDICTED BY IDOCK:  -14.43 KCAL/MOL
REMARK 923 INTER-LIGAND FREE ENERGY PREDICTED BY IDOCK:  -10.73 KCAL/MOL
REMARK 924 INTRA-LIGAND FREE ENERGY PREDICTED BY IDOCK:   -3.70 KCAL/MOL
REMARK 927      BINDING AFFINITY PREDICTED BY RF-SCORE:    0.00 PKD
ROOT
HETATM    1  C   UNL     1     -11.205   7.223  70.733  1.00  0.00    -0.300 C  
HETATM    2  C   UNL     1      -9.755   7.729  70.698  1.00  0.00    -0.177 C  
HETATM    3  C   UNL     1      -9.283   7.982  69.233  1.00  0.00    -0.152 C  
HETATM    4  C   UNL     1      -9.648   8.957  71.605  1.00  0.00    -0.363 C  
ENDROOT
BRANCH   3   5
HETATM    5  N   UNL     1      -9.313   6.738  68.429  1.00  0.00    -0.126 N  
HETATM    6  H   UNL     1     -10.641   5.472  65.754  1.00  0.00     0.000 HD 
HETATM    7  O   UNL     1     -10.305   7.736  66.606  1.00  0.00    -0.281 OA 
HETATM    8  C   UNL     1      -8.580   5.556  68.866  1.00  0.00    -0.100 C  
HETATM    9  C   UNL     1      -9.930   6.727  67.196  1.00  0.00    -0.167 C  
HETATM   10  C   UNL     1      -9.470   4.337  68.715  1.00  0.00    -0.230 C  
HETATM   11  N   UNL     1     -10.172   5.495  66.659  1.00  0.00    -0.210 N  
HETATM   12  C   UNL     1      -9.828   4.217  67.248  1.00  0.00    -0.146 C  
ENDBRANCH   3   5
BRANCH   3  13
HETATM   13  C   UNL     1      -7.898   8.697  69.184  1.00  0.00    -0.099 C  
HETATM   14  O   UNL     1      -6.984   8.457  69.967  1.00  0.00    -0.042 OA 
HETATM   15  N   UNL     1      -7.800   9.697  68.238  1.00  0.00    -0.086 N  
HETATM   16  H   UNL     1      -8.600   9.815  67.617  1.00  0.00     0.000 HD 
BRANCH  15  17
HETATM   17  C   UNL     1      -6.676  10.606  68.028  1.00  0.00    -0.064 C  
BRANCH  17  18
HETATM   18  C   UNL     1      -7.095  12.075  67.796  1.00  0.00    -0.108 C  
BRANCH  18  19
HETATM   19  C   UNL     1      -8.510  12.489  67.317  1.00  0.00    -0.185 C  
HETATM   20  O   UNL     1      -8.766  11.902  66.038  1.00  0.00    -0.383 OA 
HETATM   21  H   UNL     1      -9.634  12.156  65.744  1.00  0.00     0.000 HD 
BRANCH  19  22
HETATM   22  C   UNL     1      -8.616  14.056  67.157  1.00  0.00    -0.205 C  
BRANCH  22  23
HETATM   23  N   UNL     1      -9.780  14.502  66.309  1.00  0.00    -0.295 N  
HETATM   24  C   UNL     1     -11.143  14.662  66.443  1.00  0.00    -0.334 C  
HETATM   25  H   UNL     1      -9.473  14.758  65.371  1.00  0.00     0.000 HD 
HETATM   26  O   UNL     1     -11.741  15.310  65.579  1.00  0.00    -0.156 OA 
BRANCH  24  27
HETATM   27  C   UNL     1     -11.907  13.950  67.573  1.00  0.00    -0.396 C  
BRANCH  27  28
HETATM   28  O   UNL     1     -11.505  14.004  68.932  1.00  0.00    -0.255 OA 
BRANCH  28  29
HETATM   29  C   UNL     1     -12.090  13.123  69.831  1.00  0.00    -0.287 A  
HETATM   30  C   UNL     1     -11.427  10.770  68.804  1.00  0.00    -0.364 C  
HETATM   31  C   UNL     1     -12.033  11.704  69.821  1.00  0.00    -0.402 A  
HETATM   32  C   UNL     1     -12.594  10.993  70.909  1.00  0.00    -0.488 A  
HETATM   33  C   UNL     1     -13.215  11.628  71.974  1.00  0.00    -0.443 A  
HETATM   34  C   UNL     1     -13.309  13.009  71.970  1.00  0.00    -0.588 A  
HETATM   35  C   UNL     1     -12.768  13.765  70.911  1.00  0.00    -0.394 A  
HETATM   36  C   UNL     1     -12.952  15.261  70.987  1.00  0.00    -0.526 C  
ENDBRANCH  28  29
ENDBRANCH  27  28
ENDBRANCH  24  27
ENDBRANCH  22  23
BRANCH  22  37
HETATM   37  C   UNL     1      -8.359  14.818  68.485  1.00  0.00    -0.160 C  
BRANCH  37  38
HETATM   38  C   UNL     1      -8.325  16.315  68.342  1.00  0.00    -0.190 A  
HETATM   39  C   UNL     1      -8.175  19.111  68.317  1.00  0.00    -0.369 A  
HETATM   40  C   UNL     1      -9.441  17.085  68.676  1.00  0.00    -0.274 A  
HETATM   41  C   UNL     1      -7.084  18.351  67.915  1.00  0.00    -0.229 A  
HETATM   42  C   UNL     1      -7.179  16.963  67.882  1.00  0.00    -0.159 A  
HETATM   43  C   UNL     1      -9.366  18.476  68.663  1.00  0.00    -0.352 A  
ENDBRANCH  37  38
ENDBRANCH  22  37
ENDBRANCH  19  22
ENDBRANCH  18  19
ENDBRANCH  17  18
BRANCH  17  44
HETATM   44  C   UNL     1      -5.552  10.023  67.143  1.00  0.00    -0.046 C  
BRANCH  44  45
HETATM   45  C   UNL     1      -5.958   9.830  65.694  1.00  0.00    -0.065 A  
HETATM   46  C   UNL     1      -6.875   8.834  65.318  1.00  0.00    -0.072 A  
HETATM   47  C   UNL     1      -5.399  10.634  64.694  1.00  0.00    -0.129 A  
HETATM   48  C   UNL     1      -7.188   8.625  63.971  1.00  0.00    -0.092 A  
HETATM   49  C   UNL     1      -5.716  10.427  63.349  1.00  0.00    -0.147 A  
HETATM   50  C   UNL     1      -6.602   9.417  62.985  1.00  0.00    -0.099 A  
ENDBRANCH  44  45
ENDBRANCH  17  44
ENDBRANCH  15  17
ENDBRANCH   3  13
TORSDOF 14
ENDMDL
MODEL       95
REMARK 921   NORMALIZED FREE ENERGY PREDICTED BY IDOCK:   -5.43 KCAL/MOL
REMARK 922        TOTAL FREE ENERGY PREDICTED BY IDOCK:  -14.42 KCAL/MOL
REMARK 923 INTER-LIGAND FREE ENERGY PREDICTED BY IDOCK:  -10.77 KCAL/MOL
REMARK 924 INTRA-LIGAND FREE ENERGY PREDICTED BY IDOCK:   -3.65 KCAL/MOL
REMARK 927      BINDING AFFINITY PREDICTED BY RF-SCORE:    0.00 PKD
ROOT
HETATM    1  C   UNL     1     -12.350  14.044  64.023  1.00  0.00    -0.341 C  
HETATM    2  C   UNL     1     -11.142  13.142  64.318  1.00  0.00    -0.426 C  
HETATM    3  C   UNL     1     -10.939  12.960  65.854  1.00  0.00    -0.276 C  
HETATM    4  C   UNL     1     -11.320  11.827  63.557  1.00  0.00    -0.496 C  
ENDROOT
BRANCH   3   5
HETATM    5  N   UNL     1     -10.671  14.254  66.524  1.00  0.00    -0.294 N  
HETATM    6  H   UNL     1     -11.692  16.099  68.989  1.00  0.00     0.000 HD 
HETATM    7  O   UNL     1     -11.920  13.743  68.390  1.00  0.00    -0.355 OA 
HETATM    8  C   UNL     1      -9.654  15.160  66.005  1.00  0.00    -0.330 C  
HETATM    9  C   UNL     1     -11.290  14.555  67.719  1.00  0.00    -0.317 C  
HETATM   10  C   UNL     1     -10.210  16.571  65.988  1.00  0.00    -0.372 C  
HETATM   11  N   UNL     1     -11.225  15.860  68.115  1.00  0.00    -0.347 N  
HETATM   12  C   UNL     1     -10.558  16.939  67.416  1.00  0.00    -0.294 C  
ENDBRANCH   3   5
BRANCH   3  13
HETATM   13  C   UNL     1      -9.858  11.882  66.174  1.00  0.00    -0.232 C  
HETATM   14  O   UNL     1      -9.075  11.441  65.339  1.00  0.00    -0.190 OA 
HETATM   15  N   UNL     1      -9.903  11.387  67.461  1.00  0.00    -0.177 N  
HETATM   16  H   UNL     1     -10.573  11.825  68.093  1.00  0.00     0.000 HD 
BRANCH  15  17
HETATM   17  C   UNL     1      -9.097  10.303  68.019  1.00  0.00    -0.132 C  
BRANCH  17  18
HETATM   18  C   UNL     1      -9.355  10.041  69.519  1.00  0.00    -0.247 C  
BRANCH  18  19
HETATM   19  C   UNL     1     -10.775   9.944  70.132  1.00  0.00    -0.308 C  
HETATM   20  O   UNL     1     -11.299  11.262  70.321  1.00  0.00    -0.465 OA 
HETATM   21  H   UNL     1     -12.170  11.203  70.697  1.00  0.00     0.000 HD 
BRANCH  19  22
HETATM   22  C   UNL     1     -10.734   9.237  71.544  1.00  0.00    -0.355 C  
BRANCH  22  23
HETATM   23  N   UNL     1     -11.857   8.255  71.764  1.00  0.00    -0.287 N  
HETATM   24  C   UNL     1     -12.264   7.036  71.265  1.00  0.00    -0.377 C  
HETATM   25  H   UNL     1     -12.496   8.587  72.486  1.00  0.00     0.000 HD 
HETATM   26  O   UNL     1     -13.121   6.407  71.893  1.00  0.00    -0.153 OA 
BRANCH  24  27
HETATM   27  C   UNL     1     -11.750   6.537  69.904  1.00  0.00    -0.283 C  
BRANCH  27  28
HETATM   28  O   UNL     1     -10.383   6.260  69.647  1.00  0.00    -0.187 OA 
BRANCH  28  29
HETATM   29  C   UNL     1     -10.042   5.671  68.437  1.00  0.00    -0.173 A  
HETATM   30  C   UNL     1     -10.572   7.613  66.711  1.00  0.00    -0.256 C  
HETATM   31  C   UNL     1     -10.075   6.256  67.144  1.00  0.00    -0.213 A  
HETATM   32  C   UNL     1      -9.561   5.519  66.050  1.00  0.00    -0.128 A  
HETATM   33  C   UNL     1      -9.047   4.240  66.190  1.00  0.00    -0.133 A  
HETATM   34  C   UNL     1      -9.049   3.648  67.440  1.00  0.00    -0.186 A  
HETATM   35  C   UNL     1      -9.549   4.337  68.563  1.00  0.00    -0.202 A  
HETATM   36  C   UNL     1      -9.536   3.591  69.875  1.00  0.00    -0.254 C  
ENDBRANCH  28  29
ENDBRANCH  27  28
ENDBRANCH  24  27
ENDBRANCH  22  23
BRANCH  22  37
HETATM   37  C   UNL     1      -9.303   8.800  71.959  1.00  0.00    -0.322 C  
BRANCH  37  38
HETATM   38  C   UNL     1      -9.248   7.495  72.705  1.00  0.00    -0.208 A  
HETATM   39  C   UNL     1      -9.318   4.976  73.926  1.00  0.00    -0.124 A  
HETATM   40  C   UNL     1     -10.114   7.252  73.775  1.00  0.00    -0.375 A  
HETATM   41  C   UNL     1      -8.405   5.233  72.911  1.00  0.00    -0.112 A  
HETATM   42  C   UNL     1      -8.341   6.501  72.341  1.00  0.00    -0.108 A  
HETATM   43  C   UNL     1     -10.147   5.998  74.382  1.00  0.00    -0.316 A  
ENDBRANCH  37  38
ENDBRANCH  22  37
ENDBRANCH  19  22
ENDBRANCH  18  19
ENDBRANCH  17  18
BRANCH  17  44
HETATM   44  C   UNL     1      -7.635  10.286  67.520  1.00  0.00    -0.094 C  
BRANCH  44  45
HETATM   45  C   UNL     1      -7.111   8.895  67.220  1.00  0.00    -0.083 A  
HETATM   46  C   UNL     1      -6.997   7.923  68.228  1.00  0.00    -0.073 A  
HETATM   47  C   UNL     1      -6.703   8.561  65.923  1.00  0.00    -0.057 A  
HETATM   48  C   UNL     1      -6.450   6.666  67.949  1.00  0.00    -0.056 A  
HETATM   49  C   UNL     1      -6.160   7.304  65.645  1.00  0.00    -0.037 A  
HETATM   50  C   UNL     1      -6.024   6.359  66.659  1.00  0.00    -0.025 A  
ENDBRANCH  44  45
ENDBRANCH  17  44
ENDBRANCH  15  17
ENDBRANCH   3  13
TORSDOF 14
ENDMDL
MODEL       96
REMARK 921   NORMALIZED FREE ENERGY PREDICTED BY IDOCK:   -5.42 KCAL/MOL
REMARK 922        TOTAL FREE ENERGY PREDICTED BY IDOCK:  -14.42 KCAL/MOL
REMARK 923 INTER-LIGAND FREE ENERGY PREDICTED BY IDOCK:  -11.96 KCAL/MOL
REMARK 924 INTRA-LIGAND FREE ENERGY PREDICTED BY IDOCK:   -2.46 KCAL/MOL
REMARK 927      BINDING AFFINITY PREDICTED BY RF-SCORE:    0.00 PKD
ROOT
HETATM    1  C   UNL     1      -9.889  19.486  67.073  1.00  0.00    -0.469 C  
HETATM    2  C   UNL     1      -9.962  17.997  67.443  1.00  0.00    -0.328 C  
HETATM    3  C   UNL     1      -8.836  17.613  68.451  1.00  0.00    -0.281 C  
HETATM    4  C   UNL     1     -11.374  17.690  67.945  1.00  0.00     0.451 C  
ENDROOT
BRANCH   3   5
HETATM    5  N   UNL     1      -7.490  17.838  67.874  1.00  0.00    -0.206 N  
HETATM    6  H   UNL     1      -4.877  19.736  68.182  1.00  0.00     0.000 HD 
HETATM    7  O   UNL     1      -6.785  19.185  69.603  1.00  0.00    -0.269 OA 
HETATM    8  C   UNL     1      -7.029  17.047  66.739  1.00  0.00    -0.233 C  
HETATM    9  C   UNL     1      -6.612  18.707  68.486  1.00  0.00    -0.236 C  
HETATM   10  C   UNL     1      -6.381  17.968  65.724  1.00  0.00    -0.287 C  
HETATM   11  N   UNL     1      -5.526  19.081  67.746  1.00  0.00    -0.172 N  
HETATM   12  C   UNL     1      -5.206  18.638  66.405  1.00  0.00    -0.139 C  
ENDBRANCH   3   5
BRANCH   3  13
HETATM   13  C   UNL     1      -9.019  16.166  69.004  1.00  0.00    -0.247 C  
HETATM   14  O   UNL     1      -8.170  15.583  69.669  1.00  0.00    -0.230 OA 
HETATM   15  N   UNL     1     -10.189  15.546  68.613  1.00  0.00    -0.211 N  
HETATM   16  H   UNL     1     -10.846  16.112  68.078  1.00  0.00     0.000 HD 
BRANCH  15  17
HETATM   17  C   UNL     1     -10.588  14.166  68.881  1.00  0.00    -0.239 C  
BRANCH  17  18
HETATM   18  C   UNL     1      -9.969  13.137  67.909  1.00  0.00    -0.233 C  
BRANCH  18  19
HETATM   19  C   UNL     1     -10.696  11.841  67.468  1.00  0.00    -0.221 C  
HETATM   20  O   UNL     1     -12.073  12.134  67.214  1.00  0.00    -0.565 OA 
HETATM   21  H   UNL     1     -12.519  11.340  66.944  1.00  0.00     0.000 HD 
BRANCH  19  22
HETATM   22  C   UNL     1     -10.640  10.747  68.605  1.00  0.00    -0.199 C  
BRANCH  22  23
HETATM   23  N   UNL     1     -11.885  10.690  69.455  1.00  0.00    -0.442 N  
HETATM   24  C   UNL     1     -12.239  10.296  70.727  1.00  0.00    -0.350 C  
HETATM   25  H   UNL     1     -12.693  11.043  68.943  1.00  0.00     0.000 HD 
HETATM   26  O   UNL     1     -13.339  10.649  71.161  1.00  0.00    -0.286 OA 
BRANCH  24  27
HETATM   27  C   UNL     1     -11.336   9.345  71.531  1.00  0.00    -0.394 C  
BRANCH  27  28
HETATM   28  O   UNL     1     -11.437   7.932  71.454  1.00  0.00    -0.251 OA 
BRANCH  28  29
HETATM   29  C   UNL     1     -10.267   7.187  71.390  1.00  0.00    -0.192 A  
HETATM   30  C   UNL     1      -8.968   8.014  73.549  1.00  0.00    -0.327 C  
HETATM   31  C   UNL     1      -9.192   7.173  72.317  1.00  0.00    -0.149 A  
HETATM   32  C   UNL     1      -8.143   6.240  72.129  1.00  0.00    -0.109 A  
HETATM   33  C   UNL     1      -8.117   5.354  71.063  1.00  0.00    -0.113 A  
HETATM   34  C   UNL     1      -9.142   5.390  70.134  1.00  0.00    -0.165 A  
HETATM   35  C   UNL     1     -10.209   6.299  70.273  1.00  0.00    -0.244 A  
HETATM   36  C   UNL     1     -11.259   6.280  69.189  1.00  0.00    -0.439 C  
ENDBRANCH  28  29
ENDBRANCH  27  28
ENDBRANCH  24  27
ENDBRANCH  22  23
BRANCH  22  37
HETATM   37  C   UNL     1     -10.037   9.401  68.121  1.00  0.00    -0.215 C  
BRANCH  37  38
HETATM   38  C   UNL     1      -8.631   9.149  68.592  1.00  0.00    -0.128 A  
HETATM   39  C   UNL     1      -6.102   8.468  69.585  1.00  0.00    -0.032 A  
HETATM   40  C   UNL     1      -8.186   9.672  69.809  1.00  0.00    -0.168 A  
HETATM   41  C   UNL     1      -6.511   8.004  68.342  1.00  0.00    -0.058 A  
HETATM   42  C   UNL     1      -7.748   8.385  67.830  1.00  0.00    -0.103 A  
HETATM   43  C   UNL     1      -6.927   9.333  70.302  1.00  0.00    -0.076 A  
ENDBRANCH  37  38
ENDBRANCH  22  37
ENDBRANCH  19  22
ENDBRANCH  18  19
ENDBRANCH  17  18
BRANCH  17  44
HETATM   44  C   UNL     1     -12.076  14.004  69.258  1.00  0.00    -0.380 C  
BRANCH  44  45
HETATM   45  C   UNL     1     -12.419  14.553  70.631  1.00  0.00    -0.409 A  
HETATM   46  C   UNL     1     -13.674  14.321  71.218  1.00  0.00    -0.328 A  
HETATM   47  C   UNL     1     -11.488  15.330  71.330  1.00  0.00    -0.431 A  
HETATM   48  C   UNL     1     -13.998  14.890  72.455  1.00  0.00    -0.582 A  
HETATM   49  C   UNL     1     -11.812  15.893  72.567  1.00  0.00    -0.613 A  
HETATM   50  C   UNL     1     -13.069  15.682  73.126  1.00  0.00    -0.666 A  
ENDBRANCH  44  45
ENDBRANCH  17  44
ENDBRANCH  15  17
ENDBRANCH   3  13
TORSDOF 14
ENDMDL
MODEL       97
REMARK 921   NORMALIZED FREE ENERGY PREDICTED BY IDOCK:   -5.42 KCAL/MOL
REMARK 922        TOTAL FREE ENERGY PREDICTED BY IDOCK:  -14.40 KCAL/MOL
REMARK 923 INTER-LIGAND FREE ENERGY PREDICTED BY IDOCK:  -11.32 KCAL/MOL
REMARK 924 INTRA-LIGAND FREE ENERGY PREDICTED BY IDOCK:   -3.08 KCAL/MOL
REMARK 927      BINDING AFFINITY PREDICTED BY RF-SCORE:    0.00 PKD
ROOT
HETATM    1  C   UNL     1     -11.719   6.735  71.016  1.00  0.00    -0.406 C  
HETATM    2  C   UNL     1     -10.376   7.476  71.101  1.00  0.00    -0.208 C  
HETATM    3  C   UNL     1      -9.970   8.064  69.714  1.00  0.00    -0.191 C  
HETATM    4  C   UNL     1     -10.469   8.523  72.214  1.00  0.00    -0.402 C  
ENDROOT
BRANCH   3   5
HETATM    5  N   UNL     1      -9.798   6.996  68.701  1.00  0.00    -0.145 N  
HETATM    6  H   UNL     1     -10.771   6.131  65.730  1.00  0.00     0.000 HD 
HETATM    7  O   UNL     1     -10.761   8.215  67.002  1.00  0.00    -0.321 OA 
HETATM    8  C   UNL     1      -8.967   5.832  68.986  1.00  0.00    -0.117 C  
HETATM    9  C   UNL     1     -10.317   7.156  67.434  1.00  0.00    -0.254 C  
HETATM   10  C   UNL     1      -9.697   4.581  68.536  1.00  0.00    -0.198 C  
HETATM   11  N   UNL     1     -10.375   6.029  66.664  1.00  0.00    -0.211 N  
HETATM   12  C   UNL     1      -9.931   4.704  67.044  1.00  0.00    -0.195 C  
ENDBRANCH   3   5
BRANCH   3  13
HETATM   13  C   UNL     1      -8.726   8.998  69.821  1.00  0.00    -0.147 C  
HETATM   14  O   UNL     1      -8.289   9.424  70.884  1.00  0.00    -0.252 OA 
HETATM   15  N   UNL     1      -8.196   9.390  68.608  1.00  0.00    -0.111 N  
HETATM   16  H   UNL     1      -8.610   8.972  67.775  1.00  0.00     0.000 HD 
BRANCH  15  17
HETATM   17  C   UNL     1      -7.107  10.339  68.386  1.00  0.00    -0.078 C  
BRANCH  17  18
HETATM   18  C   UNL     1      -7.574  11.715  67.863  1.00  0.00    -0.115 C  
BRANCH  18  19
HETATM   19  C   UNL     1      -8.690  11.886  66.801  1.00  0.00    -0.193 C  
HETATM   20  O   UNL     1      -8.235  11.364  65.549  1.00  0.00    -0.368 OA 
HETATM   21  H   UNL     1      -8.919  11.469  64.898  1.00  0.00     0.000 HD 
BRANCH  19  22
HETATM   22  C   UNL     1      -9.037  13.412  66.587  1.00  0.00    -0.169 C  
BRANCH  22  23
HETATM   23  N   UNL     1     -10.451  13.653  66.121  1.00  0.00    -0.292 N  
HETATM   24  C   UNL     1     -11.727  13.556  66.631  1.00  0.00    -0.387 C  
HETATM   25  H   UNL     1     -10.466  13.981  65.156  1.00  0.00     0.000 HD 
HETATM   26  O   UNL     1     -12.645  14.100  66.010  1.00  0.00    -0.478 OA 
BRANCH  24  27
HETATM   27  C   UNL     1     -12.011  12.693  67.872  1.00  0.00    -0.249 C  
BRANCH  27  28
HETATM   28  O   UNL     1     -11.389  12.914  69.127  1.00  0.00    -0.261 OA 
BRANCH  28  29
HETATM   29  C   UNL     1     -12.087  13.620  70.097  1.00  0.00    -0.361 A  
HETATM   30  C   UNL     1     -11.640  16.133  69.376  1.00  0.00    -0.261 C  
HETATM   31  C   UNL     1     -12.247  15.027  70.203  1.00  0.00    -0.392 A  
HETATM   32  C   UNL     1     -13.110  15.541  71.202  1.00  0.00    -0.573 A  
HETATM   33  C   UNL     1     -13.787  14.723  72.094  1.00  0.00    -0.578 A  
HETATM   34  C   UNL     1     -13.603  13.354  72.022  1.00  0.00    -0.577 A  
HETATM   35  C   UNL     1     -12.755  12.790  71.047  1.00  0.00    -0.331 A  
HETATM   36  C   UNL     1     -12.599  11.289  71.074  1.00  0.00    -0.495 C  
ENDBRANCH  28  29
ENDBRANCH  27  28
ENDBRANCH  24  27
ENDBRANCH  22  23
BRANCH  22  37
HETATM   37  C   UNL     1      -8.487  14.321  67.719  1.00  0.00    -0.177 C  
BRANCH  37  38
HETATM   38  C   UNL     1      -7.624  15.455  67.236  1.00  0.00    -0.246 A  
HETATM   39  C   UNL     1      -6.083  17.691  66.552  1.00  0.00    -0.236 A  
HETATM   40  C   UNL     1      -8.165  16.470  66.443  1.00  0.00    -0.364 A  
HETATM   41  C   UNL     1      -5.518  16.651  67.280  1.00  0.00    -0.178 A  
HETATM   42  C   UNL     1      -6.273  15.520  67.575  1.00  0.00    -0.141 A  
HETATM   43  C   UNL     1      -7.397  17.582  66.103  1.00  0.00    -0.347 A  
ENDBRANCH  37  38
ENDBRANCH  22  37
ENDBRANCH  19  22
ENDBRANCH  18  19
ENDBRANCH  17  18
BRANCH  17  44
HETATM   44  C   UNL     1      -5.846   9.711  67.753  1.00  0.00    -0.044 C  
BRANCH  44  45
HETATM   45  C   UNL     1      -6.098   8.363  67.105  1.00  0.00    -0.055 A  
HETATM   46  C   UNL     1      -6.820   8.251  65.905  1.00  0.00    -0.064 A  
HETATM   47  C   UNL     1      -5.631   7.192  67.715  1.00  0.00    -0.024 A  
HETATM   48  C   UNL     1      -7.100   6.995  65.356  1.00  0.00    -0.068 A  
HETATM   49  C   UNL     1      -5.909   5.938  67.163  1.00  0.00    -0.017 A  
HETATM   50  C   UNL     1      -6.651   5.838  65.989  1.00  0.00    -0.044 A  
ENDBRANCH  44  45
ENDBRANCH  17  44
ENDBRANCH  15  17
ENDBRANCH   3  13
TORSDOF 14
ENDMDL
MODEL       98
REMARK 921   NORMALIZED FREE ENERGY PREDICTED BY IDOCK:   -5.40 KCAL/MOL
REMARK 922        TOTAL FREE ENERGY PREDICTED BY IDOCK:  -14.37 KCAL/MOL
REMARK 923 INTER-LIGAND FREE ENERGY PREDICTED BY IDOCK:  -10.85 KCAL/MOL
REMARK 924 INTRA-LIGAND FREE ENERGY PREDICTED BY IDOCK:   -3.53 KCAL/MOL
REMARK 927      BINDING AFFINITY PREDICTED BY RF-SCORE:    0.00 PKD
ROOT
HETATM    1  C   UNL     1      -5.327   7.828  64.011  1.00  0.00    -0.037 C  
HETATM    2  C   UNL     1      -6.051   9.049  64.600  1.00  0.00    -0.066 C  
HETATM    3  C   UNL     1      -6.277   8.881  66.135  1.00  0.00    -0.063 C  
HETATM    4  C   UNL     1      -5.267  10.307  64.224  1.00  0.00    -0.125 C  
ENDROOT
BRANCH   3   5
HETATM    5  N   UNL     1      -7.126   7.704  66.434  1.00  0.00    -0.069 N  
HETATM    6  H   UNL     1      -7.327   5.159  68.435  1.00  0.00     0.000 HD 
HETATM    7  O   UNL     1      -6.128   7.286  68.467  1.00  0.00    -0.025 OA 
HETATM    8  C   UNL     1      -8.299   7.411  65.619  1.00  0.00    -0.140 C  
HETATM    9  C   UNL     1      -6.887   6.950  67.563  1.00  0.00    -0.077 C  
HETATM   10  C   UNL     1      -8.320   5.929  65.297  1.00  0.00    -0.146 C  
HETATM   11  N   UNL     1      -7.507   5.733  67.612  1.00  0.00    -0.077 N  
HETATM   12  C   UNL     1      -8.395   5.180  66.611  1.00  0.00    -0.108 C  
ENDBRANCH   3   5
BRANCH   3  13
HETATM   13  C   UNL     1      -6.813  10.191  66.789  1.00  0.00    -0.086 C  
HETATM   14  O   UNL     1      -6.212  10.807  67.663  1.00  0.00    -0.051 OA 
HETATM   15  N   UNL     1      -8.074  10.568  66.372  1.00  0.00    -0.129 N  
HETATM   16  H   UNL     1      -8.491  10.010  65.628  1.00  0.00     0.000 HD 
BRANCH  15  17
HETATM   17  C   UNL     1      -8.876  11.679  66.879  1.00  0.00    -0.190 C  
BRANCH  17  18
HETATM   18  C   UNL     1      -9.526  11.404  68.253  1.00  0.00    -0.187 C  
BRANCH  18  19
HETATM   19  C   UNL     1     -10.129  10.032  68.648  1.00  0.00    -0.172 C  
HETATM   20  O   UNL     1     -11.339   9.819  67.915  1.00  0.00    -0.511 OA 
HETATM   21  H   UNL     1     -11.709   8.978  68.157  1.00  0.00     0.000 HD 
BRANCH  19  22
HETATM   22  C   UNL     1     -10.487   9.994  70.185  1.00  0.00    -0.284 C  
BRANCH  22  23
HETATM   23  N   UNL     1     -11.941   9.708  70.463  1.00  0.00    -0.421 N  
HETATM   24  C   UNL     1     -13.042  10.379  70.951  1.00  0.00    -0.330 C  
HETATM   25  H   UNL     1     -12.177   8.746  70.223  1.00  0.00     0.000 HD 
HETATM   26  O   UNL     1     -14.154   9.870  70.787  1.00  0.00     0.139 OA 
BRANCH  24  27
HETATM   27  C   UNL     1     -12.871  11.665  71.777  1.00  0.00    -0.313 C  
BRANCH  27  28
HETATM   28  O   UNL     1     -13.476  12.898  71.424  1.00  0.00    -0.178 OA 
BRANCH  28  29
HETATM   29  C   UNL     1     -12.669  13.918  70.939  1.00  0.00    -0.340 A  
HETATM   30  C   UNL     1     -12.257  13.150  68.435  1.00  0.00    -0.065 C  
HETATM   31  C   UNL     1     -12.158  14.073  69.624  1.00  0.00    -0.408 A  
HETATM   32  C   UNL     1     -11.455  15.259  69.302  1.00  0.00    -0.334 A  
HETATM   33  C   UNL     1     -11.229  16.266  70.228  1.00  0.00    -0.343 A  
HETATM   34  C   UNL     1     -11.689  16.103  71.523  1.00  0.00    -0.533 A  
HETATM   35  C   UNL     1     -12.394  14.941  71.897  1.00  0.00    -0.415 A  
HETATM   36  C   UNL     1     -12.825  14.847  73.340  1.00  0.00    -0.638 C  
ENDBRANCH  28  29
ENDBRANCH  27  28
ENDBRANCH  24  27
ENDBRANCH  22  23
BRANCH  22  37
HETATM   37  C   UNL     1      -9.429   9.239  71.034  1.00  0.00    -0.313 C  
BRANCH  37  38
HETATM   38  C   UNL     1      -9.922   7.950  71.632  1.00  0.00    -0.227 A  
HETATM   39  C   UNL     1     -10.596   5.499  72.807  1.00  0.00    -0.266 A  
HETATM   40  C   UNL     1     -10.006   6.793  70.854  1.00  0.00    -0.200 A  
HETATM   41  C   UNL     1     -10.585   6.658  73.571  1.00  0.00    -0.334 A  
HETATM   42  C   UNL     1     -10.297   7.882  72.973  1.00  0.00    -0.401 A  
HETATM   43  C   UNL     1     -10.342   5.574  71.439  1.00  0.00    -0.291 A  
ENDBRANCH  37  38
ENDBRANCH  22  37
ENDBRANCH  19  22
ENDBRANCH  18  19
ENDBRANCH  17  18
BRANCH  17  44
HETATM   44  C   UNL     1      -9.728  12.383  65.800  1.00  0.00    -0.210 C  
BRANCH  44  45
HETATM   45  C   UNL     1      -9.807  13.888  65.973  1.00  0.00    -0.306 A  
HETATM   46  C   UNL     1     -10.776  14.651  65.301  1.00  0.00    -0.396 A  
HETATM   47  C   UNL     1      -8.887  14.551  66.795  1.00  0.00    -0.248 A  
HETATM   48  C   UNL     1     -10.793  16.045  65.420  1.00  0.00    -0.340 A  
HETATM   49  C   UNL     1      -8.909  15.943  66.915  1.00  0.00    -0.264 A  
HETATM   50  C   UNL     1      -9.855  16.692  66.221  1.00  0.00    -0.329 A  
ENDBRANCH  44  45
ENDBRANCH  17  44
ENDBRANCH  15  17
ENDBRANCH   3  13
TORSDOF 14
ENDMDL
MODEL       99
REMARK 921   NORMALIZED FREE ENERGY PREDICTED BY IDOCK:   -5.40 KCAL/MOL
REMARK 922        TOTAL FREE ENERGY PREDICTED BY IDOCK:  -14.37 KCAL/MOL
REMARK 923 INTER-LIGAND FREE ENERGY PREDICTED BY IDOCK:  -12.20 KCAL/MOL
REMARK 924 INTRA-LIGAND FREE ENERGY PREDICTED BY IDOCK:   -2.17 KCAL/MOL
REMARK 927      BINDING AFFINITY PREDICTED BY RF-SCORE:    0.00 PKD
ROOT
HETATM    1  C   UNL     1      -9.466   5.316  66.810  1.00  0.00    -0.142 C  
HETATM    2  C   UNL     1     -10.118   6.379  67.708  1.00  0.00    -0.171 C  
HETATM    3  C   UNL     1      -9.210   6.714  68.931  1.00  0.00    -0.130 C  
HETATM    4  C   UNL     1     -10.470   7.593  66.846  1.00  0.00    -0.388 C  
ENDROOT
BRANCH   3   5
HETATM    5  N   UNL     1      -8.986   5.523  69.784  1.00  0.00    -0.124 N  
HETATM    6  H   UNL     1      -6.736   4.128  71.659  1.00  0.00     0.000 HD 
HETATM    7  O   UNL     1      -7.088   6.376  70.771  1.00  0.00    -0.066 OA 
HETATM    8  C   UNL     1     -10.013   4.497  69.907  1.00  0.00    -0.203 C  
HETATM    9  C   UNL     1      -7.856   5.440  70.570  1.00  0.00    -0.093 C  
HETATM   10  C   UNL     1      -9.365   3.131  69.783  1.00  0.00    -0.223 C  
HETATM   11  N   UNL     1      -7.578   4.207  71.089  1.00  0.00    -0.054 N  
HETATM   12  C   UNL     1      -8.360   3.002  70.908  1.00  0.00    -0.057 C  
ENDBRANCH   3   5
BRANCH   3  13
HETATM   13  C   UNL     1      -9.748   7.938  69.735  1.00  0.00    -0.176 C  
HETATM   14  O   UNL     1      -9.109   8.971  69.901  1.00  0.00    -0.151 OA 
HETATM   15  N   UNL     1     -10.977   7.739  70.330  1.00  0.00    -0.249 N  
HETATM   16  H   UNL     1     -11.445   6.857  70.122  1.00  0.00     0.000 HD 
BRANCH  15  17
HETATM   17  C   UNL     1     -11.682   8.653  71.226  1.00  0.00    -0.289 C  
BRANCH  17  18
HETATM   18  C   UNL     1     -11.305  10.138  71.026  1.00  0.00    -0.385 C  
BRANCH  18  19
HETATM   19  C   UNL     1     -12.297  11.201  70.488  1.00  0.00    -0.364 C  
HETATM   20  O   UNL     1     -13.269  10.562  69.655  1.00  0.00    -0.499 OA 
HETATM   21  H   UNL     1     -13.876  11.214  69.325  1.00  0.00     0.000 HD 
BRANCH  19  22
HETATM   22  C   UNL     1     -11.547  12.279  69.611  1.00  0.00    -0.278 C  
BRANCH  22  23
HETATM   23  N   UNL     1     -10.934  11.718  68.352  1.00  0.00    -0.216 N  
HETATM   24  C   UNL     1      -9.747  11.818  67.660  1.00  0.00    -0.182 C  
HETATM   25  H   UNL     1     -11.581  11.088  67.880  1.00  0.00     0.000 HD 
HETATM   26  O   UNL     1      -9.516  10.985  66.778  1.00  0.00    -0.177 OA 
BRANCH  24  27
HETATM   27  C   UNL     1      -8.796  13.002  67.902  1.00  0.00    -0.193 C  
BRANCH  27  28
HETATM   28  O   UNL     1      -9.225  14.240  68.446  1.00  0.00    -0.188 OA 
BRANCH  28  29
HETATM   29  C   UNL     1      -9.432  15.308  67.583  1.00  0.00    -0.205 A  
HETATM   30  C   UNL     1     -11.155  14.285  65.846  1.00  0.00    -0.310 C  
HETATM   31  C   UNL     1     -10.304  15.366  66.464  1.00  0.00    -0.293 A  
HETATM   32  C   UNL     1     -10.462  16.600  65.788  1.00  0.00    -0.324 A  
HETATM   33  C   UNL     1      -9.783  17.748  66.164  1.00  0.00    -0.230 A  
HETATM   34  C   UNL     1      -8.901  17.688  67.229  1.00  0.00    -0.240 A  
HETATM   35  C   UNL     1      -8.705  16.485  67.936  1.00  0.00    -0.188 A  
HETATM   36  C   UNL     1      -7.698  16.517  69.060  1.00  0.00    -0.228 C  
ENDBRANCH  28  29
ENDBRANCH  27  28
ENDBRANCH  24  27
ENDBRANCH  22  23
BRANCH  22  37
HETATM   37  C   UNL     1     -12.329  13.616  69.497  1.00  0.00    -0.232 C  
BRANCH  37  38
HETATM   38  C   UNL     1     -12.479  14.356  70.798  1.00  0.00    -0.423 A  
HETATM   39  C   UNL     1     -12.921  15.892  73.098  1.00  0.00    -0.653 A  
HETATM   40  C   UNL     1     -11.623  15.413  71.117  1.00  0.00    -0.425 A  
HETATM   41  C   UNL     1     -13.732  14.798  72.824  1.00  0.00    -0.486 A  
HETATM   42  C   UNL     1     -13.479  14.008  71.706  1.00  0.00    -0.473 A  
HETATM   43  C   UNL     1     -11.843  16.176  72.261  1.00  0.00    -0.631 A  
ENDBRANCH  37  38
ENDBRANCH  22  37
ENDBRANCH  19  22
ENDBRANCH  18  19
ENDBRANCH  17  18
BRANCH  17  44
HETATM   44  C   UNL     1     -11.827   8.129  72.671  1.00  0.00    -0.389 C  
BRANCH  44  45
HETATM   45  C   UNL     1     -10.668   7.261  73.123  1.00  0.00    -0.411 A  
HETATM   46  C   UNL     1     -10.819   5.875  73.299  1.00  0.00    -0.291 A  
HETATM   47  C   UNL     1      -9.424   7.838  73.401  1.00  0.00    -0.349 A  
HETATM   48  C   UNL     1      -9.759   5.098  73.779  1.00  0.00    -0.149 A  
HETATM   49  C   UNL     1      -8.365   7.060  73.877  1.00  0.00    -0.164 A  
HETATM   50  C   UNL     1      -8.534   5.692  74.076  1.00  0.00    -0.114 A  
ENDBRANCH  44  45
ENDBRANCH  17  44
ENDBRANCH  15  17
ENDBRANCH   3  13
TORSDOF 14
ENDMDL
MODEL      100
REMARK 921   NORMALIZED FREE ENERGY PREDICTED BY IDOCK:   -5.39 KCAL/MOL
REMARK 922        TOTAL FREE ENERGY PREDICTED BY IDOCK:  -14.36 KCAL/MOL
REMARK 923 INTER-LIGAND FREE ENERGY PREDICTED BY IDOCK:  -11.45 KCAL/MOL
REMARK 924 INTRA-LIGAND FREE ENERGY PREDICTED BY IDOCK:   -2.92 KCAL/MOL
REMARK 927      BINDING AFFINITY PREDICTED BY RF-SCORE:    0.00 PKD
ROOT
HETATM    1  C   UNL     1      -9.465   2.595  68.137  1.00  0.00    -0.217 C  
HETATM    2  C   UNL     1      -8.735   3.846  68.650  1.00  0.00    -0.133 C  
HETATM    3  C   UNL     1      -8.379   4.810  67.476  1.00  0.00    -0.104 C  
HETATM    4  C   UNL     1      -9.588   4.492  69.744  1.00  0.00    -0.270 C  
ENDROOT
BRANCH   3   5
HETATM    5  N   UNL     1      -7.471   4.164  66.499  1.00  0.00    -0.083 N  
HETATM    6  H   UNL     1      -7.138   3.609  63.320  1.00  0.00     0.000 HD 
HETATM    7  O   UNL     1      -8.443   5.170  64.670  1.00  0.00    -0.139 OA 
HETATM    8  C   UNL     1      -6.285   3.446  66.952  1.00  0.00    -0.028 C  
HETATM    9  C   UNL     1      -7.669   4.345  65.147  1.00  0.00    -0.085 C  
HETATM   10  C   UNL     1      -6.189   2.129  66.207  1.00  0.00    -0.024 C  
HETATM   11  N   UNL     1      -6.988   3.495  64.323  1.00  0.00    -0.048 N  
HETATM   12  C   UNL     1      -6.074   2.449  64.732  1.00  0.00    -0.018 C  
ENDBRANCH   3   5
BRANCH   3  13
HETATM   13  C   UNL     1      -7.833   6.177  67.991  1.00  0.00    -0.106 C  
HETATM   14  O   UNL     1      -7.080   6.286  68.953  1.00  0.00    -0.076 OA 
HETATM   15  N   UNL     1      -8.336   7.281  67.333  1.00  0.00    -0.119 N  
HETATM   16  H   UNL     1      -8.941   7.096  66.533  1.00  0.00     0.000 HD 
BRANCH  15  17
HETATM   17  C   UNL     1      -8.098   8.686  67.657  1.00  0.00    -0.107 C  
BRANCH  17  18
HETATM   18  C   UNL     1      -8.828   9.166  68.930  1.00  0.00    -0.139 C  
BRANCH  18  19
HETATM   19  C   UNL     1     -10.189   8.589  69.398  1.00  0.00    -0.211 C  
HETATM   20  O   UNL     1     -10.826   7.931  68.299  1.00  0.00    -0.416 OA 
HETATM   21  H   UNL     1     -11.660   7.578  68.586  1.00  0.00     0.000 HD 
BRANCH  19  22
HETATM   22  C   UNL     1     -11.150   9.740  69.892  1.00  0.00    -0.254 C  
BRANCH  22  23
HETATM   23  N   UNL     1     -11.774  10.533  68.771  1.00  0.00    -0.512 N  
HETATM   24  C   UNL     1     -11.899  11.854  68.398  1.00  0.00    -0.289 C  
HETATM   25  H   UNL     1     -12.233   9.918  68.099  1.00  0.00     0.000 HD 
HETATM   26  O   UNL     1     -12.272  12.101  67.247  1.00  0.00    -0.496 OA 
BRANCH  24  27
HETATM   27  C   UNL     1     -11.694  12.980  69.425  1.00  0.00    -0.326 C  
BRANCH  27  28
HETATM   28  O   UNL     1     -12.758  13.768  69.932  1.00  0.00    -0.177 OA 
BRANCH  28  29
HETATM   29  C   UNL     1     -12.537  14.525  71.075  1.00  0.00    -0.340 A  
HETATM   30  C   UNL     1     -11.024  16.495  70.146  1.00  0.00    -0.215 C  
HETATM   31  C   UNL     1     -11.818  15.744  71.186  1.00  0.00    -0.471 A  
HETATM   32  C   UNL     1     -11.819  16.424  72.428  1.00  0.00    -0.548 A  
HETATM   33  C   UNL     1     -12.478  15.933  73.545  1.00  0.00    -0.683 A  
HETATM   34  C   UNL     1     -13.147  14.725  73.454  1.00  0.00    -0.458 A  
HETATM   35  C   UNL     1     -13.177  14.007  72.242  1.00  0.00    -0.558 A  
HETATM   36  C   UNL     1     -13.906  12.686  72.257  1.00  0.00    -0.310 C  
ENDBRANCH  28  29
ENDBRANCH  27  28
ENDBRANCH  24  27
ENDBRANCH  22  23
BRANCH  22  37
HETATM   37  C   UNL     1     -12.072   9.299  71.061  1.00  0.00    -0.349 C  
BRANCH  37  38
HETATM   38  C   UNL     1     -11.601   8.070  71.789  1.00  0.00    -0.331 A  
HETATM   39  C   UNL     1     -10.897   5.837  73.326  1.00  0.00    -0.306 A  
HETATM   40  C   UNL     1     -10.557   8.149  72.714  1.00  0.00    -0.386 A  
HETATM   41  C   UNL     1     -11.887   5.732  72.357  1.00  0.00    -0.227 A  
HETATM   42  C   UNL     1     -12.199   6.831  71.562  1.00  0.00    -0.413 A  
HETATM   43  C   UNL     1     -10.208   7.038  73.478  1.00  0.00    -0.371 A  
ENDBRANCH  37  38
ENDBRANCH  22  37
ENDBRANCH  19  22
ENDBRANCH  18  19
ENDBRANCH  17  18
BRANCH  17  44
HETATM   44  C   UNL     1      -8.089   9.621  66.428  1.00  0.00    -0.112 C  
BRANCH  44  45
HETATM   45  C   UNL     1      -7.953  11.090  66.783  1.00  0.00    -0.152 A  
HETATM   46  C   UNL     1      -6.800  11.586  67.413  1.00  0.00    -0.104 A  
HETATM   47  C   UNL     1      -8.999  11.979  66.509  1.00  0.00    -0.193 A  
HETATM   48  C   UNL     1      -6.717  12.930  67.793  1.00  0.00    -0.141 A  
HETATM   49  C   UNL     1      -8.913  13.322  66.886  1.00  0.00    -0.212 A  
HETATM   50  C   UNL     1      -7.777  13.796  67.537  1.00  0.00    -0.187 A  
ENDBRANCH  44  45
ENDBRANCH  17  44
ENDBRANCH  15  17
ENDBRANCH   3  13
TORSDOF 14
ENDMDL
MODEL      101
REMARK 921   NORMALIZED FREE ENERGY PREDICTED BY IDOCK:   -5.39 KCAL/MOL
REMARK 922        TOTAL FREE ENERGY PREDICTED BY IDOCK:  -14.36 KCAL/MOL
REMARK 923 INTER-LIGAND FREE ENERGY PREDICTED BY IDOCK:  -11.29 KCAL/MOL
REMARK 924 INTRA-LIGAND FREE ENERGY PREDICTED BY IDOCK:   -3.07 KCAL/MOL
REMARK 927      BINDING AFFINITY PREDICTED BY RF-SCORE:    0.00 PKD
ROOT
HETATM    1  C   UNL     1      -9.586  11.340  63.136  1.00  0.00    -0.391 C  
HETATM    2  C   UNL     1      -9.509  10.974  64.626  1.00  0.00    -0.270 C  
HETATM    3  C   UNL     1     -10.851  11.295  65.353  1.00  0.00    -0.188 C  
HETATM    4  C   UNL     1      -9.074   9.512  64.745  1.00  0.00    -0.271 C  
ENDROOT
BRANCH   3   5
HETATM    5  N   UNL     1     -11.170  12.741  65.291  1.00  0.00    -0.287 N  
HETATM    6  H   UNL     1     -13.324  14.816  64.035  1.00  0.00     0.000 HD 
HETATM    7  O   UNL     1     -13.292  12.412  64.460  1.00  0.00    -0.800 OA 
HETATM    8  C   UNL     1     -10.298  13.720  65.928  1.00  0.00    -0.309 C  
HETATM    9  C   UNL     1     -12.363  13.162  64.742  1.00  0.00    -0.423 C  
HETATM   10  C   UNL     1     -10.078  14.880  64.977  1.00  0.00    -0.300 C  
HETATM   11  N   UNL     1     -12.452  14.495  64.456  1.00  0.00    -0.409 N  
HETATM   12  C   UNL     1     -11.432  15.495  64.690  1.00  0.00    -0.324 C  
ENDBRANCH   3   5
BRANCH   3  13
HETATM   13  C   UNL     1     -10.871  10.736  66.809  1.00  0.00    -0.194 C  
HETATM   14  O   UNL     1     -11.146   9.574  67.084  1.00  0.00    -0.078 OA 
HETATM   15  N   UNL     1     -10.638  11.679  67.790  1.00  0.00    -0.188 N  
HETATM   16  H   UNL     1     -10.397  12.617  67.470  1.00  0.00     0.000 HD 
BRANCH  15  17
HETATM   17  C   UNL     1     -10.698  11.481  69.237  1.00  0.00    -0.125 C  
BRANCH  17  18
HETATM   18  C   UNL     1      -9.866  10.280  69.738  1.00  0.00    -0.201 C  
BRANCH  18  19
HETATM   19  C   UNL     1      -8.353  10.113  69.445  1.00  0.00    -0.168 C  
HETATM   20  O   UNL     1      -8.089  10.492  68.091  1.00  0.00    -0.108 OA 
HETATM   21  H   UNL     1      -7.162  10.390  67.911  1.00  0.00     0.000 HD 
BRANCH  19  22
HETATM   22  C   UNL     1      -7.907   8.608  69.617  1.00  0.00    -0.094 C  
BRANCH  22  23
HETATM   23  N   UNL     1      -7.837   7.843  68.319  1.00  0.00    -0.118 N  
HETATM   24  C   UNL     1      -8.110   6.571  67.864  1.00  0.00    -0.116 C  
HETATM   25  H   UNL     1      -7.489   8.435  67.564  1.00  0.00     0.000 HD 
HETATM   26  O   UNL     1      -8.168   6.389  66.644  1.00  0.00    -0.108 OA 
BRANCH  24  27
HETATM   27  C   UNL     1      -8.219   5.395  68.848  1.00  0.00    -0.100 C  
BRANCH  27  28
HETATM   28  O   UNL     1      -9.453   4.785  69.192  1.00  0.00    -0.124 OA 
BRANCH  28  29
HETATM   29  C   UNL     1      -9.970   5.004  70.461  1.00  0.00    -0.242 A  
HETATM   30  C   UNL     1     -11.750   6.917  70.008  1.00  0.00    -0.261 C  
HETATM   31  C   UNL     1     -11.005   5.900  70.837  1.00  0.00    -0.335 A  
HETATM   32  C   UNL     1     -11.473   5.878  72.173  1.00  0.00    -0.333 A  
HETATM   33  C   UNL     1     -10.945   5.029  73.134  1.00  0.00    -0.375 A  
HETATM   34  C   UNL     1      -9.908   4.182  72.784  1.00  0.00    -0.197 A  
HETATM   35  C   UNL     1      -9.404   4.164  71.468  1.00  0.00    -0.207 A  
HETATM   36  C   UNL     1      -8.252   3.227  71.198  1.00  0.00    -0.076 C  
ENDBRANCH  28  29
ENDBRANCH  27  28
ENDBRANCH  24  27
ENDBRANCH  22  23
BRANCH  22  37
HETATM   37  C   UNL     1      -6.734   8.435  70.619  1.00  0.00    -0.038 C  
BRANCH  37  38
HETATM   38  C   UNL     1      -7.131   7.830  71.937  1.00  0.00    -0.067 A  
HETATM   39  C   UNL     1      -7.705   6.865  74.503  1.00  0.00    -0.132 A  
HETATM   40  C   UNL     1      -6.448   6.722  72.444  1.00  0.00    -0.058 A  
HETATM   41  C   UNL     1      -8.437   7.921  73.976  1.00  0.00    -0.321 A  
HETATM   42  C   UNL     1      -8.181   8.366  72.682  1.00  0.00    -0.190 A  
HETATM   43  C   UNL     1      -6.734   6.242  73.720  1.00  0.00    -0.075 A  
ENDBRANCH  37  38
ENDBRANCH  22  37
ENDBRANCH  19  22
ENDBRANCH  18  19
ENDBRANCH  17  18
BRANCH  17  44
HETATM   44  C   UNL     1     -12.102  11.696  69.842  1.00  0.00    -0.373 C  
BRANCH  44  45
HETATM   45  C   UNL     1     -12.257  13.021  70.564  1.00  0.00    -0.392 A  
HETATM   46  C   UNL     1     -13.229  13.199  71.563  1.00  0.00    -0.368 A  
HETATM   47  C   UNL     1     -11.443  14.107  70.224  1.00  0.00    -0.193 A  
HETATM   48  C   UNL     1     -13.404  14.446  72.173  1.00  0.00    -0.486 A  
HETATM   49  C   UNL     1     -11.616  15.351  70.837  1.00  0.00    -0.396 A  
HETATM   50  C   UNL     1     -12.602  15.524  71.804  1.00  0.00    -0.480 A  
ENDBRANCH  44  45
ENDBRANCH  17  44
ENDBRANCH  15  17
ENDBRANCH   3  13
TORSDOF 14
ENDMDL
MODEL      102
REMARK 921   NORMALIZED FREE ENERGY PREDICTED BY IDOCK:   -5.35 KCAL/MOL
REMARK 922        TOTAL FREE ENERGY PREDICTED BY IDOCK:  -14.29 KCAL/MOL
REMARK 923 INTER-LIGAND FREE ENERGY PREDICTED BY IDOCK:  -10.03 KCAL/MOL
REMARK 924 INTRA-LIGAND FREE ENERGY PREDICTED BY IDOCK:   -4.26 KCAL/MOL
REMARK 927      BINDING AFFINITY PREDICTED BY RF-SCORE:    0.00 PKD
ROOT
HETATM    1  C   UNL     1     -10.601  12.495  63.934  1.00  0.00    -0.472 C  
HETATM    2  C   UNL     1      -9.836  11.738  65.031  1.00  0.00    -0.257 C  
HETATM    3  C   UNL     1     -10.463  11.998  66.435  1.00  0.00    -0.233 C  
HETATM    4  C   UNL     1      -9.774  10.258  64.645  1.00  0.00    -0.398 C  
ENDROOT
BRANCH   3   5
HETATM    5  N   UNL     1     -10.406  13.434  66.798  1.00  0.00    -0.260 N  
HETATM    6  H   UNL     1     -12.218  15.811  68.058  1.00  0.00     0.000 HD 
HETATM    7  O   UNL     1     -12.339  13.372  68.046  1.00  0.00    -0.199 OA 
HETATM    8  C   UNL     1      -9.207  14.218  66.529  1.00  0.00    -0.235 C  
HETATM    9  C   UNL     1     -11.437  14.008  67.510  1.00  0.00    -0.343 C  
HETATM   10  C   UNL     1      -9.611  15.548  65.922  1.00  0.00    -0.383 C  
HETATM   11  N   UNL     1     -11.451  15.373  67.547  1.00  0.00    -0.281 N  
HETATM   12  C   UNL     1     -10.486  16.260  66.933  1.00  0.00    -0.302 C  
ENDBRANCH   3   5
BRANCH   3  13
HETATM   13  C   UNL     1      -9.842  11.076  67.528  1.00  0.00    -0.169 C  
HETATM   14  O   UNL     1      -8.643  11.040  67.783  1.00  0.00    -0.126 OA 
HETATM   15  N   UNL     1     -10.740  10.224  68.139  1.00  0.00    -0.227 N  
HETATM   16  H   UNL     1     -11.720  10.335  67.880  1.00  0.00     0.000 HD 
BRANCH  15  17
HETATM   17  C   UNL     1     -10.441   9.179  69.116  1.00  0.00    -0.217 C  
BRANCH  17  18
HETATM   18  C   UNL     1     -10.090   7.814  68.483  1.00  0.00    -0.216 C  
BRANCH  18  19
HETATM   19  C   UNL     1     -10.440   7.441  67.019  1.00  0.00    -0.333 C  
HETATM   20  O   UNL     1     -11.591   6.592  67.010  1.00  0.00    -0.729 OA 
HETATM   21  H   UNL     1     -11.806   6.363  66.113  1.00  0.00     0.000 HD 
BRANCH  19  22
HETATM   22  C   UNL     1      -9.255   6.651  66.339  1.00  0.00    -0.151 C  
BRANCH  22  23
HETATM   23  N   UNL     1      -7.887   7.117  66.771  1.00  0.00    -0.101 N  
HETATM   24  C   UNL     1      -6.623   6.587  66.915  1.00  0.00    -0.051 C  
HETATM   25  H   UNL     1      -7.902   8.104  67.028  1.00  0.00     0.000 HD 
HETATM   26  O   UNL     1      -5.677   7.368  67.055  1.00  0.00    -0.028 OA 
BRANCH  24  27
HETATM   27  C   UNL     1      -6.419   5.066  67.020  1.00  0.00    -0.045 C  
BRANCH  27  28
HETATM   28  O   UNL     1      -6.277   4.387  68.257  1.00  0.00    -0.030 OA 
BRANCH  28  29
HETATM   29  C   UNL     1      -7.348   4.386  69.140  1.00  0.00    -0.055 A  
HETATM   30  C   UNL     1      -6.908   6.594  70.541  1.00  0.00    -0.062 C  
HETATM   31  C   UNL     1      -7.670   5.363  70.119  1.00  0.00    -0.077 A  
HETATM   32  C   UNL     1      -8.886   5.235  70.834  1.00  0.00    -0.151 A  
HETATM   33  C   UNL     1      -9.763   4.181  70.629  1.00  0.00    -0.273 A  
HETATM   34  C   UNL     1      -9.436   3.205  69.705  1.00  0.00    -0.198 A  
HETATM   35  C   UNL     1      -8.238   3.283  68.966  1.00  0.00    -0.076 A  
HETATM   36  C   UNL     1      -7.960   2.152  68.007  1.00  0.00    -0.062 C  
ENDBRANCH  28  29
ENDBRANCH  27  28
ENDBRANCH  24  27
ENDBRANCH  22  23
BRANCH  22  37
HETATM   37  C   UNL     1      -9.506   5.120  66.276  1.00  0.00    -0.164 C  
BRANCH  37  38
HETATM   38  C   UNL     1      -9.563   4.559  64.882  1.00  0.00    -0.126 A  
HETATM   39  C   UNL     1      -9.549   3.308  62.377  1.00  0.00    -0.094 A  
HETATM   40  C   UNL     1      -8.527   4.802  63.977  1.00  0.00    -0.132 A  
HETATM   41  C   UNL     1     -10.618   3.120  63.243  1.00  0.00    -0.238 A  
HETATM   42  C   UNL     1     -10.645   3.783  64.467  1.00  0.00    -0.168 A  
HETATM   43  C   UNL     1      -8.521   4.179  62.731  1.00  0.00    -0.088 A  
ENDBRANCH  37  38
ENDBRANCH  22  37
ENDBRANCH  19  22
ENDBRANCH  18  19
ENDBRANCH  17  18
BRANCH  17  44
HETATM   44  C   UNL     1     -11.367   9.190  70.352  1.00  0.00    -0.260 C  
BRANCH  44  45
HETATM   45  C   UNL     1     -10.732   8.591  71.593  1.00  0.00    -0.351 A  
HETATM   46  C   UNL     1      -9.387   8.836  71.917  1.00  0.00    -0.343 A  
HETATM   47  C   UNL     1     -11.479   7.754  72.430  1.00  0.00    -0.418 A  
HETATM   48  C   UNL     1      -8.799   8.223  73.028  1.00  0.00    -0.302 A  
HETATM   49  C   UNL     1     -10.890   7.145  73.542  1.00  0.00    -0.296 A  
HETATM   50  C   UNL     1      -9.548   7.372  73.837  1.00  0.00    -0.303 A  
ENDBRANCH  44  45
ENDBRANCH  17  44
ENDBRANCH  15  17
ENDBRANCH   3  13
TORSDOF 14
ENDMDL
MODEL      103
REMARK 921   NORMALIZED FREE ENERGY PREDICTED BY IDOCK:   -5.35 KCAL/MOL
REMARK 922        TOTAL FREE ENERGY PREDICTED BY IDOCK:  -14.28 KCAL/MOL
REMARK 923 INTER-LIGAND FREE ENERGY PREDICTED BY IDOCK:  -10.41 KCAL/MOL
REMARK 924 INTRA-LIGAND FREE ENERGY PREDICTED BY IDOCK:   -3.86 KCAL/MOL
REMARK 927      BINDING AFFINITY PREDICTED BY RF-SCORE:    0.00 PKD
ROOT
HETATM    1  C   UNL     1      -9.534  11.380  62.926  1.00  0.00    -0.372 C  
HETATM    2  C   UNL     1      -9.377  10.880  64.370  1.00  0.00    -0.256 C  
HETATM    3  C   UNL     1     -10.685  11.106  65.188  1.00  0.00    -0.210 C  
HETATM    4  C   UNL     1      -8.914   9.422  64.331  1.00  0.00    -0.215 C  
ENDROOT
BRANCH   3   5
HETATM    5  N   UNL     1     -11.030  12.544  65.276  1.00  0.00    -0.286 N  
HETATM    6  H   UNL     1     -13.285  14.680  64.339  1.00  0.00     0.000 HD 
HETATM    7  O   UNL     1     -13.192  12.248  64.541  1.00  0.00    -0.799 OA 
HETATM    8  C   UNL     1     -10.137  13.479  65.949  1.00  0.00    -0.303 C  
HETATM    9  C   UNL     1     -12.259  12.988  64.837  1.00  0.00    -0.441 C  
HETATM   10  C   UNL     1      -9.991  14.725  65.096  1.00  0.00    -0.279 C  
HETATM   11  N   UNL     1     -12.385  14.339  64.678  1.00  0.00    -0.436 N  
HETATM   12  C   UNL     1     -11.368  15.335  64.945  1.00  0.00    -0.384 C  
ENDBRANCH   3   5
BRANCH   3  13
HETATM   13  C   UNL     1     -10.624  10.415  66.585  1.00  0.00    -0.178 C  
HETATM   14  O   UNL     1     -11.032   9.278  66.796  1.00  0.00    -0.026 OA 
HETATM   15  N   UNL     1     -10.151  11.217  67.603  1.00  0.00    -0.177 N  
HETATM   16  H   UNL     1      -9.815  12.142  67.333  1.00  0.00     0.000 HD 
BRANCH  15  17
HETATM   17  C   UNL     1     -10.078  10.889  69.025  1.00  0.00    -0.196 C  
BRANCH  17  18
HETATM   18  C   UNL     1      -9.414   9.525  69.317  1.00  0.00    -0.171 C  
BRANCH  18  19
HETATM   19  C   UNL     1      -8.012   9.131  68.785  1.00  0.00    -0.100 C  
HETATM   20  O   UNL     1      -7.881   9.570  67.429  1.00  0.00    -0.101 OA 
HETATM   21  H   UNL     1      -7.022   9.328  67.103  1.00  0.00     0.000 HD 
BRANCH  19  22
HETATM   22  C   UNL     1      -7.822   7.563  68.802  1.00  0.00    -0.121 C  
BRANCH  22  23
HETATM   23  N   UNL     1      -8.014   6.914  67.455  1.00  0.00    -0.110 N  
HETATM   24  C   UNL     1      -8.386   5.684  66.955  1.00  0.00    -0.107 C  
HETATM   25  H   UNL     1      -7.812   7.569  66.701  1.00  0.00     0.000 HD 
HETATM   26  O   UNL     1      -8.682   5.607  65.759  1.00  0.00    -0.142 OA 
BRANCH  24  27
HETATM   27  C   UNL     1      -8.318   4.427  67.839  1.00  0.00    -0.095 C  
BRANCH  27  28
HETATM   28  O   UNL     1      -9.466   3.811  68.398  1.00  0.00    -0.164 OA 
BRANCH  28  29
HETATM   29  C   UNL     1      -9.763   4.050  69.733  1.00  0.00    -0.184 A  
HETATM   30  C   UNL     1     -11.017   6.383  69.607  1.00  0.00    -0.420 C  
HETATM   31  C   UNL     1     -10.478   5.147  70.282  1.00  0.00    -0.296 A  
HETATM   32  C   UNL     1     -10.784   5.136  71.665  1.00  0.00    -0.181 A  
HETATM   33  C   UNL     1     -10.394   4.106  72.506  1.00  0.00    -0.228 A  
HETATM   34  C   UNL     1      -9.662   3.054  71.985  1.00  0.00    -0.230 A  
HETATM   35  C   UNL     1      -9.329   3.015  70.616  1.00  0.00    -0.221 A  
HETATM   36  C   UNL     1      -8.501   1.841  70.154  1.00  0.00    -0.081 C  
ENDBRANCH  28  29
ENDBRANCH  27  28
ENDBRANCH  24  27
ENDBRANCH  22  23
BRANCH  22  37
HETATM   37  C   UNL     1      -6.604   7.111  69.653  1.00  0.00    -0.044 C  
BRANCH  37  38
HETATM   38  C   UNL     1      -6.962   6.598  71.020  1.00  0.00    -0.067 A  
HETATM   39  C   UNL     1      -7.412   5.755  73.652  1.00  0.00    -0.090 A  
HETATM   40  C   UNL     1      -6.524   5.341  71.444  1.00  0.00    -0.035 A  
HETATM   41  C   UNL     1      -7.913   6.975  73.217  1.00  0.00    -0.110 A  
HETATM   42  C   UNL     1      -7.729   7.368  71.894  1.00  0.00    -0.085 A  
HETATM   43  C   UNL     1      -6.749   4.922  72.753  1.00  0.00    -0.065 A  
ENDBRANCH  37  38
ENDBRANCH  22  37
ENDBRANCH  19  22
ENDBRANCH  18  19
ENDBRANCH  17  18
BRANCH  17  44
HETATM   44  C   UNL     1     -11.346  11.265  69.822  1.00  0.00    -0.348 C  
BRANCH  44  45
HETATM   45  C   UNL     1     -11.777  10.203  70.816  1.00  0.00    -0.446 A  
HETATM   46  C   UNL     1     -13.134   9.930  71.051  1.00  0.00    -0.406 A  
HETATM   47  C   UNL     1     -10.817   9.488  71.542  1.00  0.00    -0.321 A  
HETATM   48  C   UNL     1     -13.517   8.994  72.019  1.00  0.00    -0.498 A  
HETATM   49  C   UNL     1     -11.200   8.550  72.505  1.00  0.00    -0.336 A  
HETATM   50  C   UNL     1     -12.549   8.310  72.751  1.00  0.00    -0.053 A  
ENDBRANCH  44  45
ENDBRANCH  17  44
ENDBRANCH  15  17
ENDBRANCH   3  13
TORSDOF 14
ENDMDL
MODEL      104
REMARK 921   NORMALIZED FREE ENERGY PREDICTED BY IDOCK:   -5.34 KCAL/MOL
REMARK 922        TOTAL FREE ENERGY PREDICTED BY IDOCK:  -14.27 KCAL/MOL
REMARK 923 INTER-LIGAND FREE ENERGY PREDICTED BY IDOCK:  -10.80 KCAL/MOL
REMARK 924 INTRA-LIGAND FREE ENERGY PREDICTED BY IDOCK:   -3.47 KCAL/MOL
REMARK 927      BINDING AFFINITY PREDICTED BY RF-SCORE:    0.00 PKD
ROOT
HETATM    1  C   UNL     1     -12.266  14.676  64.096  1.00  0.00    -0.343 C  
HETATM    2  C   UNL     1     -11.143  13.698  64.476  1.00  0.00    -0.396 C  
HETATM    3  C   UNL     1     -11.015  13.564  66.025  1.00  0.00    -0.275 C  
HETATM    4  C   UNL     1     -11.393  12.370  63.758  1.00  0.00    -0.536 C  
ENDROOT
BRANCH   3   5
HETATM    5  N   UNL     1     -10.675  14.861  66.656  1.00  0.00    -0.306 N  
HETATM    6  H   UNL     1     -11.456  16.740  69.182  1.00  0.00     0.000 HD 
HETATM    7  O   UNL     1     -11.763  14.381  68.628  1.00  0.00    -0.299 OA 
HETATM    8  C   UNL     1      -9.696  15.749  66.041  1.00  0.00    -0.345 C  
HETATM    9  C   UNL     1     -11.184  15.180  67.897  1.00  0.00    -0.329 C  
HETATM   10  C   UNL     1     -10.235  17.167  66.059  1.00  0.00    -0.332 C  
HETATM   11  N   UNL     1     -11.069  16.488  68.273  1.00  0.00    -0.353 N  
HETATM   12  C   UNL     1     -10.452  17.551  67.508  1.00  0.00    -0.355 C  
ENDBRANCH   3   5
BRANCH   3  13
HETATM   13  C   UNL     1     -10.034  12.421  66.430  1.00  0.00    -0.242 C  
HETATM   14  O   UNL     1      -8.837  12.596  66.629  1.00  0.00    -0.203 OA 
HETATM   15  N   UNL     1     -10.601  11.163  66.463  1.00  0.00    -0.256 N  
HETATM   16  H   UNL     1     -11.607  11.113  66.303  1.00  0.00     0.000 HD 
BRANCH  15  17
HETATM   17  C   UNL     1      -9.917   9.894  66.701  1.00  0.00    -0.217 C  
BRANCH  17  18
HETATM   18  C   UNL     1     -10.168   9.304  68.106  1.00  0.00    -0.246 C  
BRANCH  18  19
HETATM   19  C   UNL     1     -10.549  10.168  69.336  1.00  0.00    -0.237 C  
HETATM   20  O   UNL     1      -9.799  11.387  69.307  1.00  0.00    -0.415 OA 
HETATM   21  H   UNL     1     -10.032  11.917  70.060  1.00  0.00     0.000 HD 
BRANCH  19  22
HETATM   22  C   UNL     1     -10.199   9.421  70.682  1.00  0.00    -0.288 C  
BRANCH  22  23
HETATM   23  N   UNL     1     -11.381   8.739  71.322  1.00  0.00    -0.272 N  
HETATM   24  C   UNL     1     -11.987   7.501  71.294  1.00  0.00    -0.307 C  
HETATM   25  H   UNL     1     -11.871   9.371  71.953  1.00  0.00     0.000 HD 
HETATM   26  O   UNL     1     -12.810   7.236  72.175  1.00  0.00    -0.202 OA 
BRANCH  24  27
HETATM   27  C   UNL     1     -11.729   6.529  70.130  1.00  0.00    -0.353 C  
BRANCH  27  28
HETATM   28  O   UNL     1     -10.885   5.395  70.241  1.00  0.00    -0.266 OA 
BRANCH  28  29
HETATM   29  C   UNL     1      -9.654   5.420  69.600  1.00  0.00    -0.160 A  
HETATM   30  C   UNL     1     -10.343   6.009  67.108  1.00  0.00    -0.284 C  
HETATM   31  C   UNL     1      -9.386   5.728  68.240  1.00  0.00    -0.123 A  
HETATM   32  C   UNL     1      -8.039   5.822  67.815  1.00  0.00    -0.102 A  
HETATM   33  C   UNL     1      -6.971   5.604  68.672  1.00  0.00    -0.064 A  
HETATM   34  C   UNL     1      -7.225   5.263  69.989  1.00  0.00    -0.063 A  
HETATM   35  C   UNL     1      -8.548   5.156  70.464  1.00  0.00    -0.126 A  
HETATM   36  C   UNL     1      -8.717   4.749  71.907  1.00  0.00    -0.133 C  
ENDBRANCH  28  29
ENDBRANCH  27  28
ENDBRANCH  24  27
ENDBRANCH  22  23
BRANCH  22  37
HETATM   37  C   UNL     1      -8.865   8.631  70.606  1.00  0.00    -0.192 C  
BRANCH  37  38
HETATM   38  C   UNL     1      -8.176   8.452  71.931  1.00  0.00    -0.210 A  
HETATM   39  C   UNL     1      -6.896   7.866  74.351  1.00  0.00    -0.142 A  
HETATM   40  C   UNL     1      -8.921   8.282  73.100  1.00  0.00    -0.301 A  
HETATM   41  C   UNL     1      -6.146   8.104  73.207  1.00  0.00    -0.078 A  
HETATM   42  C   UNL     1      -6.784   8.444  72.017  1.00  0.00    -0.087 A  
HETATM   43  C   UNL     1      -8.283   7.992  74.304  1.00  0.00    -0.308 A  
ENDBRANCH  37  38
ENDBRANCH  22  37
ENDBRANCH  19  22
ENDBRANCH  18  19
ENDBRANCH  17  18
BRANCH  17  44
HETATM   44  C   UNL     1      -8.482   9.837  66.135  1.00  0.00    -0.130 C  
BRANCH  44  45
HETATM   45  C   UNL     1      -8.384   9.139  64.792  1.00  0.00    -0.176 A  
HETATM   46  C   UNL     1      -8.865   9.742  63.618  1.00  0.00    -0.258 A  
HETATM   47  C   UNL     1      -7.832   7.855  64.705  1.00  0.00    -0.133 A  
HETATM   48  C   UNL     1      -8.828   9.058  62.398  1.00  0.00    -0.177 A  
HETATM   49  C   UNL     1      -7.792   7.175  63.484  1.00  0.00    -0.103 A  
HETATM   50  C   UNL     1      -8.299   7.771  62.333  1.00  0.00    -0.081 A  
ENDBRANCH  44  45
ENDBRANCH  17  44
ENDBRANCH  15  17
ENDBRANCH   3  13
TORSDOF 14
ENDMDL
MODEL      105
REMARK 921   NORMALIZED FREE ENERGY PREDICTED BY IDOCK:   -5.32 KCAL/MOL
REMARK 922        TOTAL FREE ENERGY PREDICTED BY IDOCK:  -14.23 KCAL/MOL
REMARK 923 INTER-LIGAND FREE ENERGY PREDICTED BY IDOCK:  -11.75 KCAL/MOL
REMARK 924 INTRA-LIGAND FREE ENERGY PREDICTED BY IDOCK:   -2.49 KCAL/MOL
REMARK 927      BINDING AFFINITY PREDICTED BY RF-SCORE:    0.00 PKD
ROOT
HETATM    1  C   UNL     1      -8.370   5.138  71.975  1.00  0.00    -0.125 C  
HETATM    2  C   UNL     1      -8.759   6.531  71.457  1.00  0.00    -0.132 C  
HETATM    3  C   UNL     1      -9.782   6.429  70.284  1.00  0.00    -0.167 C  
HETATM    4  C   UNL     1      -9.253   7.368  72.638  1.00  0.00    -0.185 C  
ENDROOT
BRANCH   3   5
HETATM    5  N   UNL     1      -9.214   5.694  69.129  1.00  0.00    -0.114 N  
HETATM    6  H   UNL     1     -10.093   4.186  66.395  1.00  0.00     0.000 HD 
HETATM    7  O   UNL     1     -11.149   5.805  67.887  1.00  0.00    -0.176 OA 
HETATM    8  C   UNL     1      -7.782   5.431  69.051  1.00  0.00    -0.089 C  
HETATM    9  C   UNL     1     -10.016   5.366  68.057  1.00  0.00    -0.154 C  
HETATM   10  C   UNL     1      -7.566   3.989  68.632  1.00  0.00    -0.058 C  
HETATM   11  N   UNL     1      -9.503   4.449  67.184  1.00  0.00    -0.159 N  
HETATM   12  C   UNL     1      -8.205   3.812  67.270  1.00  0.00    -0.091 C  
ENDBRANCH   3   5
BRANCH   3  13
HETATM   13  C   UNL     1     -10.352   7.825  69.887  1.00  0.00    -0.223 C  
HETATM   14  O   UNL     1     -11.465   8.220  70.217  1.00  0.00    -0.201 OA 
HETATM   15  N   UNL     1      -9.538   8.562  69.051  1.00  0.00    -0.165 N  
HETATM   16  H   UNL     1      -8.622   8.165  68.844  1.00  0.00     0.000 HD 
BRANCH  15  17
HETATM   17  C   UNL     1      -9.844   9.849  68.430  1.00  0.00    -0.151 C  
BRANCH  17  18
HETATM   18  C   UNL     1     -10.141  10.976  69.443  1.00  0.00    -0.060 C  
BRANCH  18  19
HETATM   19  C   UNL     1     -11.573  11.481  69.757  1.00  0.00    -0.326 C  
HETATM   20  O   UNL     1     -12.527  10.566  69.209  1.00  0.00    -0.714 OA 
HETATM   21  H   UNL     1     -13.405  10.875  69.402  1.00  0.00     0.000 HD 
BRANCH  19  22
HETATM   22  C   UNL     1     -11.830  12.894  69.102  1.00  0.00    -0.303 C  
BRANCH  22  23
HETATM   23  N   UNL     1     -12.305  13.939  70.079  1.00  0.00    -0.333 N  
HETATM   24  C   UNL     1     -11.992  15.237  70.422  1.00  0.00    -0.335 C  
HETATM   25  H   UNL     1     -13.076  13.587  70.646  1.00  0.00     0.000 HD 
HETATM   26  O   UNL     1     -12.796  15.865  71.118  1.00  0.00    -0.467 OA 
BRANCH  24  27
HETATM   27  C   UNL     1     -10.627  15.838  70.047  1.00  0.00    -0.326 C  
BRANCH  27  28
HETATM   28  O   UNL     1     -10.487  17.071  69.361  1.00  0.00    -0.321 OA 
BRANCH  28  29
HETATM   29  C   UNL     1      -9.403  17.237  68.510  1.00  0.00    -0.276 A  
HETATM   30  C   UNL     1      -7.732  15.368  69.376  1.00  0.00    -0.227 C  
HETATM   31  C   UNL     1      -8.204  16.477  68.468  1.00  0.00    -0.212 A  
HETATM   32  C   UNL     1      -7.273  16.730  67.432  1.00  0.00    -0.187 A  
HETATM   33  C   UNL     1      -7.477  17.706  66.469  1.00  0.00    -0.299 A  
HETATM   34  C   UNL     1      -8.624  18.478  66.528  1.00  0.00    -0.289 A  
HETATM   35  C   UNL     1      -9.583  18.268  67.539  1.00  0.00    -0.282 A  
HETATM   36  C   UNL     1     -10.783  19.184  67.533  1.00  0.00    -0.555 C  
ENDBRANCH  28  29
ENDBRANCH  27  28
ENDBRANCH  24  27
ENDBRANCH  22  23
BRANCH  22  37
HETATM   37  C   UNL     1     -10.724  13.302  68.091  1.00  0.00    -0.264 C  
BRANCH  37  38
HETATM   38  C   UNL     1     -11.246  13.879  66.804  1.00  0.00    -0.328 A  
HETATM   39  C   UNL     1     -12.084  14.769  64.284  1.00  0.00    -0.415 A  
HETATM   40  C   UNL     1     -10.539  14.883  66.138  1.00  0.00    -0.322 A  
HETATM   41  C   UNL     1     -12.832  13.822  64.973  1.00  0.00    -0.319 A  
HETATM   42  C   UNL     1     -12.438  13.419  66.246  1.00  0.00    -0.338 A  
HETATM   43  C   UNL     1     -10.957  15.325  64.885  1.00  0.00    -0.445 A  
ENDBRANCH  37  38
ENDBRANCH  22  37
ENDBRANCH  19  22
ENDBRANCH  18  19
ENDBRANCH  17  18
BRANCH  17  44
HETATM   44  C   UNL     1     -10.740   9.744  67.177  1.00  0.00    -0.273 C  
BRANCH  44  45
HETATM   45  C   UNL     1     -10.020  10.084  65.885  1.00  0.00    -0.339 A  
HETATM   46  C   UNL     1      -8.674   9.735  65.684  1.00  0.00    -0.168 A  
HETATM   47  C   UNL     1     -10.687  10.782  64.871  1.00  0.00    -0.167 A  
HETATM   48  C   UNL     1      -8.006  10.114  64.515  1.00  0.00    -0.147 A  
HETATM   49  C   UNL     1     -10.019  11.156  63.702  1.00  0.00    -0.411 A  
HETATM   50  C   UNL     1      -8.677  10.831  63.527  1.00  0.00    -0.106 A  
ENDBRANCH  44  45
ENDBRANCH  17  44
ENDBRANCH  15  17
ENDBRANCH   3  13
TORSDOF 14
ENDMDL
MODEL      106
REMARK 921   NORMALIZED FREE ENERGY PREDICTED BY IDOCK:   -5.29 KCAL/MOL
REMARK 922        TOTAL FREE ENERGY PREDICTED BY IDOCK:  -14.18 KCAL/MOL
REMARK 923 INTER-LIGAND FREE ENERGY PREDICTED BY IDOCK:  -10.12 KCAL/MOL
REMARK 924 INTRA-LIGAND FREE ENERGY PREDICTED BY IDOCK:   -4.06 KCAL/MOL
REMARK 927      BINDING AFFINITY PREDICTED BY RF-SCORE:    0.00 PKD
ROOT
HETATM    1  C   UNL     1     -11.784  15.026  64.466  1.00  0.00    -0.372 C  
HETATM    2  C   UNL     1     -10.914  13.906  65.055  1.00  0.00    -0.371 C  
HETATM    3  C   UNL     1     -10.763  14.065  66.600  1.00  0.00    -0.281 C  
HETATM    4  C   UNL     1     -11.500  12.559  64.626  1.00  0.00    -0.377 C  
ENDROOT
BRANCH   3   5
HETATM    5  N   UNL     1     -10.100  15.343  66.952  1.00  0.00    -0.253 N  
HETATM    6  H   UNL     1     -10.664  18.178  68.423  1.00  0.00     0.000 HD 
HETATM    7  O   UNL     1     -11.745  15.988  68.428  1.00  0.00    -0.346 OA 
HETATM    8  C   UNL     1      -8.727  15.602  66.538  1.00  0.00    -0.307 C  
HETATM    9  C   UNL     1     -10.731  16.242  67.785  1.00  0.00    -0.325 C  
HETATM   10  C   UNL     1      -8.635  17.012  65.984  1.00  0.00    -0.164 C  
HETATM   11  N   UNL     1     -10.197  17.499  67.823  1.00  0.00    -0.333 N  
HETATM   12  C   UNL     1      -9.035  17.962  67.094  1.00  0.00    -0.251 C  
ENDBRANCH   3   5
BRANCH   3  13
HETATM   13  C   UNL     1     -10.069  12.828  67.246  1.00  0.00    -0.226 C  
HETATM   14  O   UNL     1     -10.055  12.613  68.454  1.00  0.00    -0.228 OA 
HETATM   15  N   UNL     1      -9.384  12.023  66.358  1.00  0.00    -0.225 N  
HETATM   16  H   UNL     1      -9.466  12.265  65.370  1.00  0.00     0.000 HD 
BRANCH  15  17
HETATM   17  C   UNL     1      -8.555  10.864  66.676  1.00  0.00    -0.148 C  
BRANCH  17  18
HETATM   18  C   UNL     1      -9.100  10.006  67.839  1.00  0.00    -0.135 C  
BRANCH  18  19
HETATM   19  C   UNL     1     -10.375   9.131  67.725  1.00  0.00    -0.245 C  
HETATM   20  O   UNL     1     -11.505   9.974  67.480  1.00  0.00    -0.495 OA 
HETATM   21  H   UNL     1     -12.287   9.438  67.410  1.00  0.00     0.000 HD 
BRANCH  19  22
HETATM   22  C   UNL     1     -10.643   8.346  69.068  1.00  0.00    -0.154 C  
BRANCH  22  23
HETATM   23  N   UNL     1     -11.482   9.111  70.061  1.00  0.00    -0.439 N  
HETATM   24  C   UNL     1     -11.752   9.078  71.412  1.00  0.00    -0.322 C  
HETATM   25  H   UNL     1     -11.993   9.865  69.604  1.00  0.00     0.000 HD 
HETATM   26  O   UNL     1     -12.311  10.056  71.918  1.00  0.00    -0.374 OA 
BRANCH  24  27
HETATM   27  C   UNL     1     -11.473   7.810  72.236  1.00  0.00    -0.332 C  
BRANCH  27  28
HETATM   28  O   UNL     1     -10.482   7.747  73.249  1.00  0.00    -0.349 OA 
BRANCH  28  29
HETATM   29  C   UNL     1      -9.293   7.086  72.973  1.00  0.00    -0.147 A  
HETATM   30  C   UNL     1      -8.086   8.786  71.335  1.00  0.00    -0.189 C  
HETATM   31  C   UNL     1      -8.211   7.538  72.174  1.00  0.00    -0.118 A  
HETATM   32  C   UNL     1      -7.029   6.760  72.125  1.00  0.00    -0.067 A  
HETATM   33  C   UNL     1      -6.896   5.563  72.811  1.00  0.00    -0.078 A  
HETATM   34  C   UNL     1      -7.962   5.096  73.559  1.00  0.00    -0.110 A  
HETATM   35  C   UNL     1      -9.162   5.831  73.642  1.00  0.00    -0.130 A  
HETATM   36  C   UNL     1     -10.274   5.220  74.458  1.00  0.00    -0.299 C  
ENDBRANCH  28  29
ENDBRANCH  27  28
ENDBRANCH  24  27
ENDBRANCH  22  23
BRANCH  22  37
HETATM   37  C   UNL     1     -10.988   6.850  68.836  1.00  0.00    -0.217 C  
BRANCH  37  38
HETATM   38  C   UNL     1      -9.880   5.898  69.194  1.00  0.00    -0.199 A  
HETATM   39  C   UNL     1      -7.876   3.996  69.646  1.00  0.00    -0.052 A  
HETATM   40  C   UNL     1     -10.138   4.774  69.983  1.00  0.00    -0.308 A  
HETATM   41  C   UNL     1      -7.593   5.147  68.922  1.00  0.00    -0.081 A  
HETATM   42  C   UNL     1      -8.579   6.112  68.741  1.00  0.00    -0.120 A  
HETATM   43  C   UNL     1      -9.140   3.829  70.208  1.00  0.00    -0.193 A  
ENDBRANCH  37  38
ENDBRANCH  22  37
ENDBRANCH  19  22
ENDBRANCH  18  19
ENDBRANCH  17  18
BRANCH  17  44
HETATM   44  C   UNL     1      -7.037  11.145  66.631  1.00  0.00    -0.141 C  
BRANCH  44  45
HETATM   45  C   UNL     1      -6.556  12.066  67.736  1.00  0.00    -0.093 A  
HETATM   46  C   UNL     1      -6.374  11.601  69.048  1.00  0.00    -0.072 A  
HETATM   47  C   UNL     1      -6.309  13.418  67.467  1.00  0.00    -0.112 A  
HETATM   48  C   UNL     1      -5.994  12.478  70.070  1.00  0.00    -0.145 A  
HETATM   49  C   UNL     1      -5.925  14.292  68.488  1.00  0.00    -0.093 A  
HETATM   50  C   UNL     1      -5.777  13.825  69.791  1.00  0.00    -0.108 A  
ENDBRANCH  44  45
ENDBRANCH  17  44
ENDBRANCH  15  17
ENDBRANCH   3  13
TORSDOF 14
ENDMDL
MODEL      107
REMARK 921   NORMALIZED FREE ENERGY PREDICTED BY IDOCK:   -5.29 KCAL/MOL
REMARK 922        TOTAL FREE ENERGY PREDICTED BY IDOCK:  -14.18 KCAL/MOL
REMARK 923 INTER-LIGAND FREE ENERGY PREDICTED BY IDOCK:  -11.51 KCAL/MOL
REMARK 924 INTRA-LIGAND FREE ENERGY PREDICTED BY IDOCK:   -2.67 KCAL/MOL
REMARK 927      BINDING AFFINITY PREDICTED BY RF-SCORE:    0.00 PKD
ROOT
HETATM    1  C   UNL     1      -7.946   6.431  63.399  1.00  0.00    -0.086 C  
HETATM    2  C   UNL     1      -8.032   7.687  64.280  1.00  0.00    -0.112 C  
HETATM    3  C   UNL     1      -7.439   7.421  65.698  1.00  0.00    -0.084 C  
HETATM    4  C   UNL     1      -7.364   8.847  63.537  1.00  0.00    -0.098 C  
ENDROOT
BRANCH   3   5
HETATM    5  N   UNL     1      -8.187   6.357  66.408  1.00  0.00    -0.112 N  
HETATM    6  H   UNL     1      -7.741   3.567  68.002  1.00  0.00     0.000 HD 
HETATM    7  O   UNL     1      -6.307   5.442  67.373  1.00  0.00    -0.036 OA 
HETATM    8  C   UNL     1      -9.642   6.398  66.481  1.00  0.00    -0.145 C  
HETATM    9  C   UNL     1      -7.507   5.390  67.118  1.00  0.00    -0.084 C  
HETATM   10  C   UNL     1     -10.192   5.016  66.180  1.00  0.00    -0.288 C  
HETATM   11  N   UNL     1      -8.236   4.297  67.490  1.00  0.00    -0.099 N  
HETATM   12  C   UNL     1      -9.642   4.072  67.229  1.00  0.00    -0.189 C  
ENDBRANCH   3   5
BRANCH   3  13
HETATM   13  C   UNL     1      -7.318   8.732  66.533  1.00  0.00    -0.081 C  
HETATM   14  O   UNL     1      -6.293   9.072  67.115  1.00  0.00    -0.058 OA 
HETATM   15  N   UNL     1      -8.490   9.452  66.645  1.00  0.00    -0.125 N  
HETATM   16  H   UNL     1      -9.288   9.107  66.112  1.00  0.00     0.000 HD 
BRANCH  15  17
HETATM   17  C   UNL     1      -8.713  10.655  67.444  1.00  0.00    -0.125 C  
BRANCH  17  18
HETATM   18  C   UNL     1      -9.743  10.468  68.580  1.00  0.00    -0.175 C  
BRANCH  18  19
HETATM   19  C   UNL     1      -9.960   9.120  69.316  1.00  0.00    -0.187 C  
HETATM   20  O   UNL     1     -11.041   8.414  68.699  1.00  0.00    -0.422 OA 
HETATM   21  H   UNL     1     -11.174   7.589  69.150  1.00  0.00     0.000 HD 
BRANCH  19  22
HETATM   22  C   UNL     1     -10.344   9.359  70.829  1.00  0.00    -0.298 C  
BRANCH  22  23
HETATM   23  N   UNL     1     -11.819   9.220  71.110  1.00  0.00    -0.306 N  
HETATM   24  C   UNL     1     -12.889  10.042  71.390  1.00  0.00    -0.417 C  
HETATM   25  H   UNL     1     -12.105   8.242  71.088  1.00  0.00     0.000 HD 
HETATM   26  O   UNL     1     -14.025   9.567  71.306  1.00  0.00    -0.240 OA 
BRANCH  24  27
HETATM   27  C   UNL     1     -12.663  11.473  71.906  1.00  0.00    -0.144 C  
BRANCH  27  28
HETATM   28  O   UNL     1     -13.369  12.597  71.405  1.00  0.00    -0.222 OA 
BRANCH  28  29
HETATM   29  C   UNL     1     -12.664  13.769  71.165  1.00  0.00    -0.362 A  
HETATM   30  C   UNL     1     -13.055  15.117  73.415  1.00  0.00    -0.588 C  
HETATM   31  C   UNL     1     -12.476  14.868  72.044  1.00  0.00    -0.408 A  
HETATM   32  C   UNL     1     -11.612  15.917  71.648  1.00  0.00    -0.541 A  
HETATM   33  C   UNL     1     -10.958  15.922  70.425  1.00  0.00    -0.361 A  
HETATM   34  C   UNL     1     -11.170  14.874  69.547  1.00  0.00    -0.300 A  
HETATM   35  C   UNL     1     -12.021  13.805  69.891  1.00  0.00    -0.412 A  
HETATM   36  C   UNL     1     -12.208  12.728  68.850  1.00  0.00    -0.019 C  
ENDBRANCH  28  29
ENDBRANCH  27  28
ENDBRANCH  24  27
ENDBRANCH  22  23
BRANCH  22  37
HETATM   37  C   UNL     1      -9.355   8.683  71.817  1.00  0.00    -0.343 C  
BRANCH  37  38
HETATM   38  C   UNL     1      -9.777   7.313  72.272  1.00  0.00    -0.177 A  
HETATM   39  C   UNL     1     -10.804   4.835  73.079  1.00  0.00    -0.326 A  
HETATM   40  C   UNL     1     -10.045   7.064  73.621  1.00  0.00    -0.376 A  
HETATM   41  C   UNL     1     -10.471   5.052  71.748  1.00  0.00    -0.246 A  
HETATM   42  C   UNL     1      -9.915   6.268  71.360  1.00  0.00    -0.210 A  
HETATM   43  C   UNL     1     -10.556   5.831  74.021  1.00  0.00    -0.234 A  
ENDBRANCH  37  38
ENDBRANCH  22  37
ENDBRANCH  19  22
ENDBRANCH  18  19
ENDBRANCH  17  18
BRANCH  17  44
HETATM   44  C   UNL     1      -8.775  11.957  66.616  1.00  0.00    -0.185 C  
BRANCH  44  45
HETATM   45  C   UNL     1      -9.879  11.964  65.574  1.00  0.00    -0.257 A  
HETATM   46  C   UNL     1     -11.128  12.551  65.837  1.00  0.00    -0.334 A  
HETATM   47  C   UNL     1      -9.676  11.354  64.331  1.00  0.00    -0.266 A  
HETATM   48  C   UNL     1     -12.157  12.491  64.890  1.00  0.00    -0.499 A  
HETATM   49  C   UNL     1     -10.703  11.298  63.385  1.00  0.00    -0.349 A  
HETATM   50  C   UNL     1     -11.947  11.858  63.668  1.00  0.00    -0.578 A  
ENDBRANCH  44  45
ENDBRANCH  17  44
ENDBRANCH  15  17
ENDBRANCH   3  13
TORSDOF 14
ENDMDL
MODEL      108
REMARK 921   NORMALIZED FREE ENERGY PREDICTED BY IDOCK:   -5.28 KCAL/MOL
REMARK 922        TOTAL FREE ENERGY PREDICTED BY IDOCK:  -14.15 KCAL/MOL
REMARK 923 INTER-LIGAND FREE ENERGY PREDICTED BY IDOCK:  -10.84 KCAL/MOL
REMARK 924 INTRA-LIGAND FREE ENERGY PREDICTED BY IDOCK:   -3.31 KCAL/MOL
REMARK 927      BINDING AFFINITY PREDICTED BY RF-SCORE:    0.00 PKD
ROOT
HETATM    1  C   UNL     1      -6.993   5.842  64.410  1.00  0.00    -0.051 C  
HETATM    2  C   UNL     1      -7.196   6.598  65.732  1.00  0.00    -0.070 C  
HETATM    3  C   UNL     1      -6.688   5.757  66.944  1.00  0.00    -0.058 C  
HETATM    4  C   UNL     1      -6.533   7.972  65.612  1.00  0.00    -0.042 C  
ENDROOT
BRANCH   3   5
HETATM    5  N   UNL     1      -7.433   4.482  67.070  1.00  0.00    -0.081 N  
HETATM    6  H   UNL     1      -6.972   1.277  67.262  1.00  0.00     0.000 HD 
HETATM    7  O   UNL     1      -5.566   3.245  67.602  1.00  0.00    -0.019 OA 
HETATM    8  C   UNL     1      -8.891   4.476  67.091  1.00  0.00    -0.109 C  
HETATM    9  C   UNL     1      -6.754   3.305  67.299  1.00  0.00    -0.045 C  
HETATM   10  C   UNL     1      -9.394   3.372  66.180  1.00  0.00    -0.151 C  
HETATM   11  N   UNL     1      -7.467   2.155  67.110  1.00  0.00    -0.060 N  
HETATM   12  C   UNL     1      -8.858   2.061  66.716  1.00  0.00    -0.126 C  
ENDBRANCH   3   5
BRANCH   3  13
HETATM   13  C   UNL     1      -6.684   6.585  68.265  1.00  0.00    -0.068 C  
HETATM   14  O   UNL     1      -5.693   7.163  68.699  1.00  0.00    -0.020 OA 
HETATM   15  N   UNL     1      -7.871   6.550  68.969  1.00  0.00    -0.109 N  
HETATM   16  H   UNL     1      -8.648   6.062  68.525  1.00  0.00     0.000 HD 
BRANCH  15  17
HETATM   17  C   UNL     1      -8.135   7.134  70.282  1.00  0.00    -0.118 C  
BRANCH  17  18
HETATM   18  C   UNL     1      -7.893   8.658  70.348  1.00  0.00    -0.091 C  
BRANCH  18  19
HETATM   19  C   UNL     1      -8.574   9.669  69.390  1.00  0.00    -0.158 C  
HETATM   20  O   UNL     1      -8.201  10.998  69.764  1.00  0.00    -0.312 OA 
HETATM   21  H   UNL     1      -8.618  11.618  69.177  1.00  0.00     0.000 HD 
BRANCH  19  22
HETATM   22  C   UNL     1     -10.146   9.566  69.485  1.00  0.00    -0.206 C  
BRANCH  22  23
HETATM   23  N   UNL     1     -10.748   8.566  68.530  1.00  0.00    -0.417 N  
HETATM   24  C   UNL     1     -10.632   8.222  67.201  1.00  0.00    -0.270 C  
HETATM   25  H   UNL     1     -11.435   7.979  69.002  1.00  0.00     0.000 HD 
HETATM   26  O   UNL     1     -11.121   7.150  66.832  1.00  0.00    -0.327 OA 
BRANCH  24  27
HETATM   27  C   UNL     1     -10.016   9.203  66.189  1.00  0.00    -0.268 C  
BRANCH  27  28
HETATM   28  O   UNL     1      -9.948  10.602  66.411  1.00  0.00    -0.206 OA 
BRANCH  28  29
HETATM   29  C   UNL     1     -10.621  11.446  65.539  1.00  0.00    -0.271 A  
HETATM   30  C   UNL     1      -9.575  10.766  63.199  1.00  0.00    -0.385 C  
HETATM   31  C   UNL     1     -10.507  11.507  64.125  1.00  0.00    -0.408 A  
HETATM   32  C   UNL     1     -11.384  12.357  63.407  1.00  0.00    -0.507 A  
HETATM   33  C   UNL     1     -12.334  13.147  64.035  1.00  0.00    -0.425 A  
HETATM   34  C   UNL     1     -12.423  13.123  65.415  1.00  0.00    -0.535 A  
HETATM   35  C   UNL     1     -11.574  12.296  66.178  1.00  0.00    -0.450 A  
HETATM   36  C   UNL     1     -11.730  12.366  67.677  1.00  0.00    -0.412 C  
ENDBRANCH  28  29
ENDBRANCH  27  28
ENDBRANCH  24  27
ENDBRANCH  22  23
BRANCH  22  37
HETATM   37  C   UNL     1     -10.665   9.567  70.949  1.00  0.00    -0.403 C  
BRANCH  37  38
HETATM   38  C   UNL     1     -11.946   8.807  71.151  1.00  0.00    -0.331 A  
HETATM   39  C   UNL     1     -14.283   7.397  71.779  1.00  0.00    -0.544 A  
HETATM   40  C   UNL     1     -11.949   7.409  71.156  1.00  0.00    -0.351 A  
HETATM   41  C   UNL     1     -14.305   8.784  71.705  1.00  0.00    -0.414 A  
HETATM   42  C   UNL     1     -13.153   9.478  71.344  1.00  0.00    -0.449 A  
HETATM   43  C   UNL     1     -13.112   6.709  71.468  1.00  0.00    -0.115 A  
ENDBRANCH  37  38
ENDBRANCH  22  37
ENDBRANCH  19  22
ENDBRANCH  18  19
ENDBRANCH  17  18
BRANCH  17  44
HETATM   44  C   UNL     1      -7.647   6.269  71.465  1.00  0.00    -0.099 C  
BRANCH  44  45
HETATM   45  C   UNL     1      -8.773   5.701  72.308  1.00  0.00    -0.132 A  
HETATM   46  C   UNL     1      -9.373   4.470  71.993  1.00  0.00    -0.184 A  
HETATM   47  C   UNL     1      -9.254   6.415  73.412  1.00  0.00    -0.140 A  
HETATM   48  C   UNL     1     -10.454   3.991  72.742  1.00  0.00    -0.234 A  
HETATM   49  C   UNL     1     -10.332   5.934  74.161  1.00  0.00    -0.295 A  
HETATM   50  C   UNL     1     -10.938   4.727  73.821  1.00  0.00    -0.371 A  
ENDBRANCH  44  45
ENDBRANCH  17  44
ENDBRANCH  15  17
ENDBRANCH   3  13
TORSDOF 14
ENDMDL
MODEL      109
REMARK 921   NORMALIZED FREE ENERGY PREDICTED BY IDOCK:   -5.24 KCAL/MOL
REMARK 922        TOTAL FREE ENERGY PREDICTED BY IDOCK:  -14.09 KCAL/MOL
REMARK 923 INTER-LIGAND FREE ENERGY PREDICTED BY IDOCK:  -10.71 KCAL/MOL
REMARK 924 INTRA-LIGAND FREE ENERGY PREDICTED BY IDOCK:   -3.38 KCAL/MOL
REMARK 927      BINDING AFFINITY PREDICTED BY RF-SCORE:    0.00 PKD
ROOT
HETATM    1  C   UNL     1     -13.179  15.405  70.346  1.00  0.00    -0.139 C  
HETATM    2  C   UNL     1     -11.882  15.014  69.619  1.00  0.00    -0.358 C  
HETATM    3  C   UNL     1     -12.006  13.601  68.971  1.00  0.00    -0.353 C  
HETATM    4  C   UNL     1     -11.530  16.124  68.626  1.00  0.00    -0.340 C  
ENDROOT
BRANCH   3   5
HETATM    5  N   UNL     1     -12.248  12.554  69.991  1.00  0.00    -0.240 N  
HETATM    6  H   UNL     1     -12.971   9.405  70.278  1.00  0.00     0.000 HD 
HETATM    7  O   UNL     1     -12.085  10.814  68.492  1.00  0.00    -0.493 OA 
HETATM    8  C   UNL     1     -12.233  12.886  71.410  1.00  0.00     0.224 C  
HETATM    9  C   UNL     1     -12.360  11.234  69.612  1.00  0.00    -0.194 C  
HETATM   10  C   UNL     1     -13.421  12.227  72.085  1.00  0.00    -0.431 C  
HETATM   11  N   UNL     1     -12.869  10.382  70.551  1.00  0.00    -0.314 N  
HETATM   12  C   UNL     1     -13.277  10.731  71.896  1.00  0.00    -0.419 C  
ENDBRANCH   3   5
BRANCH   3  13
HETATM   13  C   UNL     1     -10.789  13.276  68.051  1.00  0.00    -0.243 C  
HETATM   14  O   UNL     1     -10.872  13.167  66.832  1.00  0.00    -0.262 OA 
HETATM   15  N   UNL     1      -9.610  13.029  68.724  1.00  0.00    -0.412 N  
HETATM   16  H   UNL     1      -9.628  13.161  69.735  1.00  0.00     0.000 HD 
BRANCH  15  17
HETATM   17  C   UNL     1      -8.339  12.597  68.147  1.00  0.00    -0.175 C  
BRANCH  17  18
HETATM   18  C   UNL     1      -8.044  11.093  68.341  1.00  0.00    -0.141 C  
BRANCH  18  19
HETATM   19  C   UNL     1      -8.199  10.365  69.701  1.00  0.00    -0.084 C  
HETATM   20  O   UNL     1      -7.017  10.564  70.481  1.00  0.00    -0.412 OA 
HETATM   21  H   UNL     1      -7.111  10.118  71.315  1.00  0.00     0.000 HD 
BRANCH  19  22
HETATM   22  C   UNL     1      -8.380   8.811  69.491  1.00  0.00    -0.119 C  
BRANCH  22  23
HETATM   23  N   UNL     1      -8.201   8.366  68.062  1.00  0.00    -0.126 N  
HETATM   24  C   UNL     1      -8.981   8.188  66.939  1.00  0.00    -0.140 C  
HETATM   25  H   UNL     1      -7.228   8.129  67.872  1.00  0.00     0.000 HD 
HETATM   26  O   UNL     1      -8.413   8.050  65.852  1.00  0.00    -0.128 OA 
BRANCH  24  27
HETATM   27  C   UNL     1     -10.508   8.049  67.061  1.00  0.00    -0.340 C  
BRANCH  27  28
HETATM   28  O   UNL     1     -11.170   6.795  67.101  1.00  0.00    -0.379 OA 
BRANCH  28  29
HETATM   29  C   UNL     1     -10.515   5.718  67.682  1.00  0.00    -0.235 A  
HETATM   30  C   UNL     1      -9.280   4.637  65.599  1.00  0.00    -0.151 C  
HETATM   31  C   UNL     1      -9.649   4.785  67.054  1.00  0.00    -0.187 A  
HETATM   32  C   UNL     1      -8.979   3.830  67.858  1.00  0.00    -0.158 A  
HETATM   33  C   UNL     1      -9.154   3.759  69.232  1.00  0.00    -0.200 A  
HETATM   34  C   UNL     1     -10.029   4.640  69.844  1.00  0.00    -0.296 A  
HETATM   35  C   UNL     1     -10.721   5.609  69.091  1.00  0.00    -0.325 A  
HETATM   36  C   UNL     1     -11.675   6.500  69.849  1.00  0.00    -0.349 C  
ENDBRANCH  28  29
ENDBRANCH  27  28
ENDBRANCH  24  27
ENDBRANCH  22  23
BRANCH  22  37
HETATM   37  C   UNL     1      -7.694   7.967  70.600  1.00  0.00    -0.090 C  
BRANCH  37  38
HETATM   38  C   UNL     1      -8.596   7.602  71.746  1.00  0.00    -0.130 A  
HETATM   39  C   UNL     1     -10.422   6.796  73.710  1.00  0.00    -0.383 A  
HETATM   40  C   UNL     1      -9.660   8.433  72.104  1.00  0.00    -0.367 A  
HETATM   41  C   UNL     1      -9.326   5.999  73.409  1.00  0.00    -0.134 A  
HETATM   42  C   UNL     1      -8.394   6.426  72.468  1.00  0.00    -0.116 A  
HETATM   43  C   UNL     1     -10.568   8.031  73.082  1.00  0.00    -0.226 A  
ENDBRANCH  37  38
ENDBRANCH  22  37
ENDBRANCH  19  22
ENDBRANCH  18  19
ENDBRANCH  17  18
BRANCH  17  44
HETATM   44  C   UNL     1      -7.181  13.597  68.358  1.00  0.00    -0.109 C  
BRANCH  44  45
HETATM   45  C   UNL     1      -7.530  15.022  67.970  1.00  0.00    -0.130 A  
HETATM   46  C   UNL     1      -7.926  15.347  66.662  1.00  0.00    -0.068 A  
HETATM   47  C   UNL     1      -7.436  16.051  68.915  1.00  0.00    -0.188 A  
HETATM   48  C   UNL     1      -8.180  16.676  66.304  1.00  0.00    -0.365 A  
HETATM   49  C   UNL     1      -7.694  17.377  68.556  1.00  0.00    -0.267 A  
HETATM   50  C   UNL     1      -8.057  17.691  67.249  1.00  0.00    -0.222 A  
ENDBRANCH  44  45
ENDBRANCH  17  44
ENDBRANCH  15  17
ENDBRANCH   3  13
TORSDOF 14
ENDMDL
MODEL      110
REMARK 921   NORMALIZED FREE ENERGY PREDICTED BY IDOCK:   -5.24 KCAL/MOL
REMARK 922        TOTAL FREE ENERGY PREDICTED BY IDOCK:  -14.08 KCAL/MOL
REMARK 923 INTER-LIGAND FREE ENERGY PREDICTED BY IDOCK:   -9.05 KCAL/MOL
REMARK 924 INTRA-LIGAND FREE ENERGY PREDICTED BY IDOCK:   -5.04 KCAL/MOL
REMARK 927      BINDING AFFINITY PREDICTED BY RF-SCORE:    0.00 PKD
ROOT
HETATM    1  C   UNL     1      -8.888  15.532  65.965  1.00  0.00    -0.160 C  
HETATM    2  C   UNL     1      -9.252  14.484  67.028  1.00  0.00    -0.253 C  
HETATM    3  C   UNL     1      -9.436  13.074  66.386  1.00  0.00    -0.224 C  
HETATM    4  C   UNL     1      -8.196  14.528  68.134  1.00  0.00    -0.146 C  
ENDROOT
BRANCH   3   5
HETATM    5  N   UNL     1     -10.537  13.067  65.394  1.00  0.00    -0.286 N  
HETATM    6  H   UNL     1     -11.218  12.148  62.359  1.00  0.00     0.000 HD 
HETATM    7  O   UNL     1      -9.492  11.574  63.988  1.00  0.00    -0.191 OA 
HETATM    8  C   UNL     1     -11.821  13.681  65.710  1.00  0.00    -0.371 C  
HETATM    9  C   UNL     1     -10.400  12.368  64.214  1.00  0.00    -0.362 C  
HETATM   10  C   UNL     1     -12.275  14.516  64.528  1.00  0.00    -0.483 C  
HETATM   11  N   UNL     1     -11.318  12.648  63.242  1.00  0.00    -0.388 N  
HETATM   12  C   UNL     1     -12.418  13.584  63.343  1.00  0.00    -0.077 C  
ENDBRANCH   3   5
BRANCH   3  13
HETATM   13  C   UNL     1      -9.592  11.960  67.466  1.00  0.00    -0.175 C  
HETATM   14  O   UNL     1      -9.678  12.189  68.667  1.00  0.00    -0.178 OA 
HETATM   15  N   UNL     1      -9.536  10.671  66.975  1.00  0.00    -0.167 N  
HETATM   16  H   UNL     1      -9.483  10.573  65.961  1.00  0.00     0.000 HD 
BRANCH  15  17
HETATM   17  C   UNL     1      -9.545   9.431  67.747  1.00  0.00    -0.134 C  
BRANCH  17  18
HETATM   18  C   UNL     1     -10.892   9.140  68.445  1.00  0.00    -0.098 C  
BRANCH  18  19
HETATM   19  C   UNL     1     -11.076   9.173  69.984  1.00  0.00    -0.190 C  
HETATM   20  O   UNL     1     -10.556  10.404  70.496  1.00  0.00    -0.424 OA 
HETATM   21  H   UNL     1     -10.669  10.425  71.439  1.00  0.00     0.000 HD 
BRANCH  19  22
HETATM   22  C   UNL     1     -10.284   7.994  70.674  1.00  0.00    -0.196 C  
BRANCH  22  23
HETATM   23  N   UNL     1      -9.728   8.348  72.030  1.00  0.00    -0.253 N  
HETATM   24  C   UNL     1      -8.657   7.994  72.821  1.00  0.00    -0.192 C  
HETATM   25  H   UNL     1     -10.309   9.047  72.492  1.00  0.00     0.000 HD 
HETATM   26  O   UNL     1      -8.388   8.708  73.792  1.00  0.00    -0.363 OA 
BRANCH  24  27
HETATM   27  C   UNL     1      -7.896   6.681  72.567  1.00  0.00    -0.102 C  
BRANCH  27  28
HETATM   28  O   UNL     1      -7.860   5.614  73.501  1.00  0.00    -0.105 OA 
BRANCH  28  29
HETATM   29  C   UNL     1      -8.537   4.442  73.194  1.00  0.00    -0.101 A  
HETATM   30  C   UNL     1     -11.055   5.115  73.684  1.00  0.00    -0.299 C  
HETATM   31  C   UNL     1      -9.937   4.211  73.225  1.00  0.00    -0.185 A  
HETATM   32  C   UNL     1     -10.434   2.973  72.749  1.00  0.00    -0.212 A  
HETATM   33  C   UNL     1      -9.603   1.970  72.273  1.00  0.00    -0.173 A  
HETATM   34  C   UNL     1      -8.235   2.173  72.279  1.00  0.00    -0.054 A  
HETATM   35  C   UNL     1      -7.687   3.386  72.743  1.00  0.00    -0.060 A  
HETATM   36  C   UNL     1      -6.182   3.495  72.736  1.00  0.00    -0.009 C  
ENDBRANCH  28  29
ENDBRANCH  27  28
ENDBRANCH  24  27
ENDBRANCH  22  23
BRANCH  22  37
HETATM   37  C   UNL     1     -10.991   6.620  70.521  1.00  0.00    -0.337 C  
BRANCH  37  38
HETATM   38  C   UNL     1     -10.425   5.752  69.431  1.00  0.00    -0.360 A  
HETATM   39  C   UNL     1      -9.576   3.982  67.434  1.00  0.00    -0.222 A  
HETATM   40  C   UNL     1      -9.543   4.713  69.737  1.00  0.00    -0.258 A  
HETATM   41  C   UNL     1     -10.396   5.055  67.111  1.00  0.00    -0.217 A  
HETATM   42  C   UNL     1     -10.775   5.961  68.098  1.00  0.00    -0.329 A  
HETATM   43  C   UNL     1      -9.120   3.834  68.742  1.00  0.00    -0.199 A  
ENDBRANCH  37  38
ENDBRANCH  22  37
ENDBRANCH  19  22
ENDBRANCH  18  19
ENDBRANCH  17  18
BRANCH  17  44
HETATM   44  C   UNL     1      -8.246   9.176  68.541  1.00  0.00    -0.115 C  
BRANCH  44  45
HETATM   45  C   UNL     1      -7.510   7.919  68.115  1.00  0.00    -0.107 A  
HETATM   46  C   UNL     1      -7.548   7.464  66.787  1.00  0.00    -0.101 A  
HETATM   47  C   UNL     1      -6.793   7.171  69.057  1.00  0.00    -0.061 A  
HETATM   48  C   UNL     1      -6.919   6.268  66.424  1.00  0.00    -0.067 A  
HETATM   49  C   UNL     1      -6.162   5.978  68.692  1.00  0.00    -0.032 A  
HETATM   50  C   UNL     1      -6.232   5.522  67.379  1.00  0.00    -0.031 A  
ENDBRANCH  44  45
ENDBRANCH  17  44
ENDBRANCH  15  17
ENDBRANCH   3  13
TORSDOF 14
ENDMDL
MODEL      111
REMARK 921   NORMALIZED FREE ENERGY PREDICTED BY IDOCK:   -5.20 KCAL/MOL
REMARK 922        TOTAL FREE ENERGY PREDICTED BY IDOCK:  -14.02 KCAL/MOL
REMARK 923 INTER-LIGAND FREE ENERGY PREDICTED BY IDOCK:   -9.42 KCAL/MOL
REMARK 924 INTRA-LIGAND FREE ENERGY PREDICTED BY IDOCK:   -4.60 KCAL/MOL
REMARK 927      BINDING AFFINITY PREDICTED BY RF-SCORE:    0.00 PKD
ROOT
HETATM    1  C   UNL     1      -9.423  15.614  66.287  1.00  0.00    -0.351 C  
HETATM    2  C   UNL     1      -9.556  14.383  67.196  1.00  0.00    -0.251 C  
HETATM    3  C   UNL     1      -9.427  13.062  66.375  1.00  0.00    -0.224 C  
HETATM    4  C   UNL     1      -8.540  14.507  68.333  1.00  0.00    -0.172 C  
ENDROOT
BRANCH   3   5
HETATM    5  N   UNL     1     -10.496  12.950  65.356  1.00  0.00    -0.287 N  
HETATM    6  H   UNL     1     -13.722  12.765  65.065  1.00  0.00     0.000 HD 
HETATM    7  O   UNL     1     -12.188  13.492  66.821  1.00  0.00    -0.390 OA 
HETATM    8  C   UNL     1     -10.161  12.830  63.942  1.00  0.00    -0.240 C  
HETATM    9  C   UNL     1     -11.818  13.088  65.723  1.00  0.00    -0.404 C  
HETATM   10  C   UNL     1     -11.014  11.739  63.322  1.00  0.00    -0.387 C  
HETATM   11  N   UNL     1     -12.741  12.683  64.800  1.00  0.00    -0.467 N  
HETATM   12  C   UNL     1     -12.463  12.149  63.483  1.00  0.00    -0.555 C  
ENDBRANCH   3   5
BRANCH   3  13
HETATM   13  C   UNL     1      -9.343  11.810  67.301  1.00  0.00    -0.171 C  
HETATM   14  O   UNL     1      -8.712  11.785  68.351  1.00  0.00    -0.162 OA 
HETATM   15  N   UNL     1      -9.968  10.684  66.802  1.00  0.00    -0.201 N  
HETATM   16  H   UNL     1     -10.486  10.800  65.931  1.00  0.00     0.000 HD 
BRANCH  15  17
HETATM   17  C   UNL     1      -9.969   9.344  67.385  1.00  0.00    -0.199 C  
BRANCH  17  18
HETATM   18  C   UNL     1     -11.062   9.129  68.454  1.00  0.00     0.119 C  
BRANCH  18  19
HETATM   19  C   UNL     1     -10.833   9.380  69.967  1.00  0.00    -0.241 C  
HETATM   20  O   UNL     1     -10.178  10.640  70.143  1.00  0.00    -0.421 OA 
HETATM   21  H   UNL     1     -10.037  10.794  71.070  1.00  0.00     0.000 HD 
BRANCH  19  22
HETATM   22  C   UNL     1      -9.904   8.265  70.590  1.00  0.00    -0.182 C  
BRANCH  22  23
HETATM   23  N   UNL     1      -9.276   8.662  71.902  1.00  0.00    -0.260 N  
HETATM   24  C   UNL     1      -9.231   8.194  73.198  1.00  0.00    -0.266 C  
HETATM   25  H   UNL     1      -8.731   9.518  71.803  1.00  0.00     0.000 HD 
HETATM   26  O   UNL     1      -8.379   8.666  73.957  1.00  0.00    -0.325 OA 
BRANCH  24  27
HETATM   27  C   UNL     1     -10.289   7.203  73.710  1.00  0.00    -0.347 C  
BRANCH  27  28
HETATM   28  O   UNL     1      -9.961   6.010  74.403  1.00  0.00    -0.225 OA 
BRANCH  28  29
HETATM   29  C   UNL     1      -9.352   4.980  73.699  1.00  0.00    -0.129 A  
HETATM   30  C   UNL     1      -6.791   5.657  73.840  1.00  0.00    -0.081 C  
HETATM   31  C   UNL     1      -7.964   4.780  73.476  1.00  0.00    -0.103 A  
HETATM   32  C   UNL     1      -7.541   3.589  72.837  1.00  0.00    -0.060 A  
HETATM   33  C   UNL     1      -8.433   2.621  72.402  1.00  0.00    -0.070 A  
HETATM   34  C   UNL     1      -9.790   2.829  72.580  1.00  0.00    -0.217 A  
HETATM   35  C   UNL     1     -10.264   3.997  73.209  1.00  0.00    -0.214 A  
HETATM   36  C   UNL     1     -11.762   4.141  73.326  1.00  0.00    -0.050 C  
ENDBRANCH  28  29
ENDBRANCH  27  28
ENDBRANCH  24  27
ENDBRANCH  22  23
BRANCH  22  37
HETATM   37  C   UNL     1     -10.514   6.841  70.484  1.00  0.00    -0.238 C  
BRANCH  37  38
HETATM   38  C   UNL     1      -9.544   5.786  70.029  1.00  0.00    -0.206 A  
HETATM   39  C   UNL     1      -7.744   3.932  68.951  1.00  0.00    -0.053 A  
HETATM   40  C   UNL     1     -10.006   4.579  69.497  1.00  0.00    -0.235 A  
HETATM   41  C   UNL     1      -7.273   5.097  69.543  1.00  0.00    -0.057 A  
HETATM   42  C   UNL     1      -8.168   5.992  70.122  1.00  0.00    -0.119 A  
HETATM   43  C   UNL     1      -9.110   3.657  68.962  1.00  0.00    -0.202 A  
ENDBRANCH  37  38
ENDBRANCH  22  37
ENDBRANCH  19  22
ENDBRANCH  18  19
ENDBRANCH  17  18
BRANCH  17  44
HETATM   44  C   UNL     1      -8.559   8.779  67.664  1.00  0.00    -0.128 C  
BRANCH  44  45
HETATM   45  C   UNL     1      -8.260   7.494  66.916  1.00  0.00    -0.124 A  
HETATM   46  C   UNL     1      -6.940   7.090  66.655  1.00  0.00    -0.073 A  
HETATM   47  C   UNL     1      -9.308   6.694  66.445  1.00  0.00    -0.175 A  
HETATM   48  C   UNL     1      -6.681   5.936  65.907  1.00  0.00    -0.055 A  
HETATM   49  C   UNL     1      -9.048   5.539  65.701  1.00  0.00    -0.131 A  
HETATM   50  C   UNL     1      -7.736   5.165  65.424  1.00  0.00    -0.087 A  
ENDBRANCH  44  45
ENDBRANCH  17  44
ENDBRANCH  15  17
ENDBRANCH   3  13
TORSDOF 14
ENDMDL
MODEL      112
REMARK 921   NORMALIZED FREE ENERGY PREDICTED BY IDOCK:   -5.20 KCAL/MOL
REMARK 922        TOTAL FREE ENERGY PREDICTED BY IDOCK:  -14.02 KCAL/MOL
REMARK 923 INTER-LIGAND FREE ENERGY PREDICTED BY IDOCK:  -12.66 KCAL/MOL
REMARK 924 INTRA-LIGAND FREE ENERGY PREDICTED BY IDOCK:   -1.36 KCAL/MOL
REMARK 927      BINDING AFFINITY PREDICTED BY RF-SCORE:    0.00 PKD
ROOT
HETATM    1  C   UNL     1      -8.499   4.873  66.677  1.00  0.00    -0.106 C  
HETATM    2  C   UNL     1      -9.404   6.080  66.968  1.00  0.00    -0.128 C  
HETATM    3  C   UNL     1      -8.743   7.407  66.484  1.00  0.00    -0.140 C  
HETATM    4  C   UNL     1     -10.780   5.814  66.354  1.00  0.00    -0.193 C  
ENDROOT
BRANCH   3   5
HETATM    5  N   UNL     1      -7.462   7.663  67.184  1.00  0.00    -0.094 N  
HETATM    6  H   UNL     1      -6.235   8.116  70.152  1.00  0.00     0.000 HD 
HETATM    7  O   UNL     1      -8.305   7.169  69.269  1.00  0.00    -0.130 OA 
HETATM    8  C   UNL     1      -6.228   7.840  66.428  1.00  0.00    -0.045 C  
HETATM    9  C   UNL     1      -7.404   7.608  68.560  1.00  0.00    -0.095 C  
HETATM   10  C   UNL     1      -5.471   9.029  66.989  1.00  0.00    -0.041 C  
HETATM   11  N   UNL     1      -6.283   8.137  69.134  1.00  0.00    -0.038 N  
HETATM   12  C   UNL     1      -5.157   8.725  68.439  1.00  0.00    -0.034 C  
ENDBRANCH   3   5
BRANCH   3  13
HETATM   13  C   UNL     1      -9.728   8.613  66.571  1.00  0.00    -0.255 C  
HETATM   14  O   UNL     1     -10.137   9.226  65.591  1.00  0.00    -0.215 OA 
HETATM   15  N   UNL     1     -10.045   9.003  67.857  1.00  0.00    -0.186 N  
HETATM   16  H   UNL     1      -9.677   8.425  68.611  1.00  0.00     0.000 HD 
BRANCH  15  17
HETATM   17  C   UNL     1     -10.851  10.156  68.255  1.00  0.00    -0.252 C  
BRANCH  17  18
HETATM   18  C   UNL     1     -10.979  11.237  67.160  1.00  0.00    -0.348 C  
BRANCH  18  19
HETATM   19  C   UNL     1     -10.099  12.513  67.119  1.00  0.00    -0.214 C  
HETATM   20  O   UNL     1      -9.014  12.369  68.041  1.00  0.00    -0.181 OA 
HETATM   21  H   UNL     1      -8.475  13.151  68.016  1.00  0.00     0.000 HD 
BRANCH  19  22
HETATM   22  C   UNL     1     -10.929  13.785  67.550  1.00  0.00    -0.272 C  
BRANCH  22  23
HETATM   23  N   UNL     1     -11.145  14.776  66.434  1.00  0.00    -0.336 N  
HETATM   24  C   UNL     1     -10.378  15.567  65.605  1.00  0.00    -0.384 C  
HETATM   25  H   UNL     1     -12.138  14.896  66.238  1.00  0.00     0.000 HD 
HETATM   26  O   UNL     1     -10.919  16.069  64.615  1.00  0.00    -0.590 OA 
BRANCH  24  27
HETATM   27  C   UNL     1      -8.924  15.906  65.973  1.00  0.00    -0.302 C  
BRANCH  27  28
HETATM   28  O   UNL     1      -8.351  17.187  65.764  1.00  0.00    -0.519 OA 
BRANCH  28  29
HETATM   29  C   UNL     1      -8.074  17.978  66.870  1.00  0.00    -0.236 A  
HETATM   30  C   UNL     1     -10.501  18.452  67.829  1.00  0.00    -0.433 C  
HETATM   31  C   UNL     1      -8.993  18.508  67.813  1.00  0.00    -0.289 A  
HETATM   32  C   UNL     1      -8.488  19.188  68.948  1.00  0.00    -0.318 A  
HETATM   33  C   UNL     1      -7.131  19.374  69.162  1.00  0.00    -0.384 A  
HETATM   34  C   UNL     1      -6.232  18.896  68.225  1.00  0.00    -0.228 A  
HETATM   35  C   UNL     1      -6.681  18.213  67.078  1.00  0.00    -0.206 A  
HETATM   36  C   UNL     1      -5.622  17.759  66.103  1.00  0.00    -0.244 C  
ENDBRANCH  28  29
ENDBRANCH  27  28
ENDBRANCH  24  27
ENDBRANCH  22  23
BRANCH  22  37
HETATM   37  C   UNL     1     -12.147  13.437  68.449  1.00  0.00    -0.270 C  
BRANCH  37  38
HETATM   38  C   UNL     1     -12.184  14.181  69.755  1.00  0.00    -0.397 A  
HETATM   39  C   UNL     1     -12.422  15.728  72.078  1.00  0.00    -0.531 A  
HETATM   40  C   UNL     1     -11.293  15.229  70.000  1.00  0.00    -0.311 A  
HETATM   41  C   UNL     1     -13.264  14.642  71.874  1.00  0.00    -0.436 A  
HETATM   42  C   UNL     1     -13.111  13.847  70.742  1.00  0.00    -0.204 A  
HETATM   43  C   UNL     1     -11.412  15.997  71.157  1.00  0.00    -0.470 A  
ENDBRANCH  37  38
ENDBRANCH  22  37
ENDBRANCH  19  22
ENDBRANCH  18  19
ENDBRANCH  17  18
BRANCH  17  44
HETATM   44  C   UNL     1     -10.609  10.619  69.708  1.00  0.00    -0.233 C  
BRANCH  44  45
HETATM   45  C   UNL     1     -11.387   9.822  70.738  1.00  0.00    -0.416 A  
HETATM   46  C   UNL     1     -10.838   8.681  71.348  1.00  0.00    -0.339 A  
HETATM   47  C   UNL     1     -12.691  10.200  71.082  1.00  0.00    -0.494 A  
HETATM   48  C   UNL     1     -11.593   7.919  72.246  1.00  0.00    -0.406 A  
HETATM   49  C   UNL     1     -13.442   9.440  71.982  1.00  0.00    -0.522 A  
HETATM   50  C   UNL     1     -12.898   8.294  72.557  1.00  0.00    -0.191 A  
ENDBRANCH  44  45
ENDBRANCH  17  44
ENDBRANCH  15  17
ENDBRANCH   3  13
TORSDOF 14
ENDMDL
MODEL      113
REMARK 921   NORMALIZED FREE ENERGY PREDICTED BY IDOCK:   -5.19 KCAL/MOL
REMARK 922        TOTAL FREE ENERGY PREDICTED BY IDOCK:  -14.00 KCAL/MOL
REMARK 923 INTER-LIGAND FREE ENERGY PREDICTED BY IDOCK:  -10.59 KCAL/MOL
REMARK 924 INTRA-LIGAND FREE ENERGY PREDICTED BY IDOCK:   -3.41 KCAL/MOL
REMARK 927      BINDING AFFINITY PREDICTED BY RF-SCORE:    0.00 PKD
ROOT
HETATM    1  C   UNL     1     -10.312   7.119  73.927  1.00  0.00    -0.339 C  
HETATM    2  C   UNL     1      -9.567   7.331  72.601  1.00  0.00    -0.189 C  
HETATM    3  C   UNL     1     -10.135   8.560  71.827  1.00  0.00    -0.281 C  
HETATM    4  C   UNL     1      -8.068   7.424  72.896  1.00  0.00    -0.130 C  
ENDROOT
BRANCH   3   5
HETATM    5  N   UNL     1     -11.564   8.372  71.481  1.00  0.00    -0.270 N  
HETATM    6  H   UNL     1     -14.394   9.954  71.421  1.00  0.00     0.000 HD 
HETATM    7  O   UNL     1     -12.048  10.622  71.519  1.00  0.00    -0.300 OA 
HETATM    8  C   UNL     1     -12.051   7.073  71.031  1.00  0.00    -0.368 C  
HETATM    9  C   UNL     1     -12.417   9.454  71.458  1.00  0.00    -0.366 C  
HETATM   10  C   UNL     1     -13.349   6.756  71.749  1.00  0.00    -0.185 C  
HETATM   11  N   UNL     1     -13.752   9.163  71.423  1.00  0.00    -0.331 N  
HETATM   12  C   UNL     1     -14.343   7.841  71.389  1.00  0.00    -0.385 C  
ENDBRANCH   3   5
BRANCH   3  13
HETATM   13  C   UNL     1      -9.259   8.924  70.589  1.00  0.00    -0.213 C  
HETATM   14  O   UNL     1      -8.628   9.970  70.490  1.00  0.00    -0.061 OA 
HETATM   15  N   UNL     1      -9.314   8.008  69.558  1.00  0.00    -0.156 N  
HETATM   16  H   UNL     1      -9.847   7.157  69.734  1.00  0.00     0.000 HD 
BRANCH  15  17
HETATM   17  C   UNL     1      -8.692   8.124  68.240  1.00  0.00    -0.133 C  
BRANCH  17  18
HETATM   18  C   UNL     1      -9.656   8.612  67.136  1.00  0.00    -0.227 C  
BRANCH  18  19
HETATM   19  C   UNL     1     -10.258  10.040  67.103  1.00  0.00    -0.228 C  
HETATM   20  O   UNL     1     -11.628   9.984  67.511  1.00  0.00    -0.461 OA 
HETATM   21  H   UNL     1     -11.998  10.860  67.491  1.00  0.00     0.000 HD 
BRANCH  19  22
HETATM   22  C   UNL     1     -10.217  10.637  65.642  1.00  0.00    -0.253 C  
BRANCH  22  23
HETATM   23  N   UNL     1     -11.483  11.352  65.242  1.00  0.00    -0.015 N  
HETATM   24  C   UNL     1     -12.157  12.505  65.580  1.00  0.00    -0.400 C  
HETATM   25  H   UNL     1     -11.980  10.837  64.516  1.00  0.00     0.000 HD 
HETATM   26  O   UNL     1     -13.059  12.893  64.831  1.00  0.00    -0.799 OA 
BRANCH  24  27
HETATM   27  C   UNL     1     -11.871  13.217  66.913  1.00  0.00    -0.386 C  
BRANCH  27  28
HETATM   28  O   UNL     1     -12.303  14.539  67.193  1.00  0.00    -0.290 OA 
BRANCH  28  29
HETATM   29  C   UNL     1     -11.349  15.543  67.280  1.00  0.00    -0.167 A  
HETATM   30  C   UNL     1     -10.450  15.664  64.788  1.00  0.00    -0.107 C  
HETATM   31  C   UNL     1     -10.556  16.083  66.233  1.00  0.00    -0.288 A  
HETATM   32  C   UNL     1      -9.729  17.198  66.511  1.00  0.00    -0.299 A  
HETATM   33  C   UNL     1      -9.648  17.770  67.771  1.00  0.00    -0.272 A  
HETATM   34  C   UNL     1     -10.387  17.223  68.805  1.00  0.00    -0.358 A  
HETATM   35  C   UNL     1     -11.226  16.112  68.583  1.00  0.00    -0.369 A  
HETATM   36  C   UNL     1     -11.965  15.573  69.784  1.00  0.00    -0.384 C  
ENDBRANCH  28  29
ENDBRANCH  27  28
ENDBRANCH  24  27
ENDBRANCH  22  23
BRANCH  22  37
HETATM   37  C   UNL     1      -8.865  11.323  65.307  1.00  0.00    -0.015 C  
BRANCH  37  38
HETATM   38  C   UNL     1      -8.164  11.920  66.496  1.00  0.00    -0.026 A  
HETATM   39  C   UNL     1      -7.023  12.900  68.859  1.00  0.00    -0.084 A  
HETATM   40  C   UNL     1      -8.593  13.135  67.037  1.00  0.00    -0.168 A  
HETATM   41  C   UNL     1      -6.543  11.729  68.286  1.00  0.00    -0.056 A  
HETATM   42  C   UNL     1      -7.080  11.272  67.086  1.00  0.00    -0.125 A  
HETATM   43  C   UNL     1      -8.024  13.621  68.212  1.00  0.00    -0.150 A  
ENDBRANCH  37  38
ENDBRANCH  22  37
ENDBRANCH  19  22
ENDBRANCH  18  19
ENDBRANCH  17  18
BRANCH  17  44
HETATM   44  C   UNL     1      -7.721   6.974  67.900  1.00  0.00    -0.113 C  
BRANCH  44  45
HETATM   45  C   UNL     1      -8.256   5.600  68.257  1.00  0.00    -0.103 A  
HETATM   46  C   UNL     1      -7.933   4.984  69.478  1.00  0.00    -0.075 A  
HETATM   47  C   UNL     1      -9.068   4.904  67.353  1.00  0.00    -0.124 A  
HETATM   48  C   UNL     1      -8.380   3.690  69.764  1.00  0.00    -0.078 A  
HETATM   49  C   UNL     1      -9.517   3.613  67.643  1.00  0.00    -0.234 A  
HETATM   50  C   UNL     1      -9.166   3.001  68.843  1.00  0.00    -0.227 A  
ENDBRANCH  44  45
ENDBRANCH  17  44
ENDBRANCH  15  17
ENDBRANCH   3  13
TORSDOF 14
ENDMDL
MODEL      114
REMARK 921   NORMALIZED FREE ENERGY PREDICTED BY IDOCK:   -5.18 KCAL/MOL
REMARK 922        TOTAL FREE ENERGY PREDICTED BY IDOCK:  -13.96 KCAL/MOL
REMARK 923 INTER-LIGAND FREE ENERGY PREDICTED BY IDOCK:  -10.29 KCAL/MOL
REMARK 924 INTRA-LIGAND FREE ENERGY PREDICTED BY IDOCK:   -3.68 KCAL/MOL
REMARK 927      BINDING AFFINITY PREDICTED BY RF-SCORE:    0.00 PKD
ROOT
HETATM    1  C   UNL     1     -12.127  13.938  66.275  1.00  0.00    -0.484 C  
HETATM    2  C   UNL     1     -10.759  13.378  66.694  1.00  0.00    -0.282 C  
HETATM    3  C   UNL     1     -10.837  12.692  68.092  1.00  0.00    -0.227 C  
HETATM    4  C   UNL     1     -10.249  12.459  65.581  1.00  0.00    -0.285 C  
ENDROOT
BRANCH   3   5
HETATM    5  N   UNL     1     -11.238  13.653  69.147  1.00  0.00    -0.263 N  
HETATM    6  H   UNL     1     -13.244  13.955  71.678  1.00  0.00     0.000 HD 
HETATM    7  O   UNL     1     -12.354  12.075  70.399  1.00  0.00    -0.298 OA 
HETATM    8  C   UNL     1     -10.661  14.990  69.188  1.00  0.00    -0.249 C  
HETATM    9  C   UNL     1     -12.064  13.246  70.173  1.00  0.00    -0.333 C  
HETATM   10  C   UNL     1     -11.768  16.000  69.428  1.00  0.00    -0.287 C  
HETATM   11  N   UNL     1     -12.619  14.242  70.926  1.00  0.00    -0.335 N  
HETATM   12  C   UNL     1     -12.407  15.665  70.759  1.00  0.00    -0.419 C  
ENDBRANCH   3   5
BRANCH   3  13
HETATM   13  C   UNL     1      -9.520  11.932  68.441  1.00  0.00    -0.189 C  
HETATM   14  O   UNL     1      -8.407  12.441  68.375  1.00  0.00    -0.167 OA 
HETATM   15  N   UNL     1      -9.692  10.597  68.749  1.00  0.00    -0.181 N  
HETATM   16  H   UNL     1     -10.654  10.263  68.800  1.00  0.00     0.000 HD 
BRANCH  15  17
HETATM   17  C   UNL     1      -8.646   9.611  69.011  1.00  0.00    -0.133 C  
BRANCH  17  18
HETATM   18  C   UNL     1      -8.417   9.327  70.512  1.00  0.00    -0.251 C  
BRANCH  18  19
HETATM   19  C   UNL     1      -8.059   7.924  71.067  1.00  0.00    -0.098 C  
HETATM   20  O   UNL     1      -7.649   7.080  69.987  1.00  0.00    -0.094 OA 
HETATM   21  H   UNL     1      -7.430   6.220  70.327  1.00  0.00     0.000 HD 
BRANCH  19  22
HETATM   22  C   UNL     1      -9.311   7.252  71.754  1.00  0.00    -0.149 C  
BRANCH  22  23
HETATM   23  N   UNL     1      -8.992   5.966  72.473  1.00  0.00    -0.133 N  
HETATM   24  C   UNL     1      -8.629   4.676  72.151  1.00  0.00    -0.119 C  
HETATM   25  H   UNL     1      -9.066   6.084  73.483  1.00  0.00     0.000 HD 
HETATM   26  O   UNL     1      -8.194   3.952  73.051  1.00  0.00    -0.086 OA 
BRANCH  24  27
HETATM   27  C   UNL     1      -8.871   4.125  70.736  1.00  0.00    -0.086 C  
BRANCH  27  28
HETATM   28  O   UNL     1     -10.023   4.438  69.970  1.00  0.00    -0.223 OA 
BRANCH  28  29
HETATM   29  C   UNL     1      -9.913   4.463  68.587  1.00  0.00    -0.002 A  
HETATM   30  C   UNL     1      -8.683   2.167  68.091  1.00  0.00    -0.126 C  
HETATM   31  C   UNL     1      -9.370   3.463  67.738  1.00  0.00    -0.243 A  
HETATM   32  C   UNL     1      -9.470   3.632  66.336  1.00  0.00    -0.184 A  
HETATM   33  C   UNL     1     -10.060   4.746  65.760  1.00  0.00    -0.236 A  
HETATM   34  C   UNL     1     -10.554   5.744  66.581  1.00  0.00    -0.347 A  
HETATM   35  C   UNL     1     -10.480   5.627  67.984  1.00  0.00    -0.264 A  
HETATM   36  C   UNL     1     -11.020   6.784  68.788  1.00  0.00    -0.267 C  
ENDBRANCH  28  29
ENDBRANCH  27  28
ENDBRANCH  24  27
ENDBRANCH  22  23
BRANCH  22  37
HETATM   37  C   UNL     1     -10.224   8.277  72.481  1.00  0.00    -0.386 C  
BRANCH  37  38
HETATM   38  C   UNL     1     -11.695   8.070  72.245  1.00  0.00    -0.428 A  
HETATM   39  C   UNL     1     -14.388   7.728  71.558  1.00  0.00    -0.574 A  
HETATM   40  C   UNL     1     -12.583   9.147  72.308  1.00  0.00    -0.425 A  
HETATM   41  C   UNL     1     -13.527   6.638  71.563  1.00  0.00    -0.015 A  
HETATM   42  C   UNL     1     -12.201   6.804  71.953  1.00  0.00    -0.377 A  
HETATM   43  C   UNL     1     -13.922   8.975  71.966  1.00  0.00    -0.472 A  
ENDBRANCH  37  38
ENDBRANCH  22  37
ENDBRANCH  19  22
ENDBRANCH  18  19
ENDBRANCH  17  18
BRANCH  17  44
HETATM   44  C   UNL     1      -7.407   9.752  68.100  1.00  0.00    -0.080 C  
BRANCH  44  45
HETATM   45  C   UNL     1      -7.477   8.907  66.842  1.00  0.00    -0.083 A  
HETATM   46  C   UNL     1      -8.497   9.092  65.894  1.00  0.00    -0.150 A  
HETATM   47  C   UNL     1      -6.531   7.901  66.616  1.00  0.00    -0.055 A  
HETATM   48  C   UNL     1      -8.587   8.261  64.771  1.00  0.00    -0.047 A  
HETATM   49  C   UNL     1      -6.619   7.075  65.493  1.00  0.00    -0.051 A  
HETATM   50  C   UNL     1      -7.652   7.248  64.575  1.00  0.00    -0.107 A  
ENDBRANCH  44  45
ENDBRANCH  17  44
ENDBRANCH  15  17
ENDBRANCH   3  13
TORSDOF 14
ENDMDL
MODEL      115
REMARK 921   NORMALIZED FREE ENERGY PREDICTED BY IDOCK:   -5.17 KCAL/MOL
REMARK 922        TOTAL FREE ENERGY PREDICTED BY IDOCK:  -13.96 KCAL/MOL
REMARK 923 INTER-LIGAND FREE ENERGY PREDICTED BY IDOCK:  -10.22 KCAL/MOL
REMARK 924 INTRA-LIGAND FREE ENERGY PREDICTED BY IDOCK:   -3.74 KCAL/MOL
REMARK 927      BINDING AFFINITY PREDICTED BY RF-SCORE:    0.00 PKD
ROOT
HETATM    1  C   UNL     1     -11.591  16.143  71.721  1.00  0.00    -0.503 C  
HETATM    2  C   UNL     1     -11.073  15.621  70.372  1.00  0.00    -0.369 C  
HETATM    3  C   UNL     1     -12.208  14.914  69.570  1.00  0.00    -0.233 C  
HETATM    4  C   UNL     1     -10.416  16.782  69.623  1.00  0.00    -0.209 C  
ENDROOT
BRANCH   3   5
HETATM    5  N   UNL     1     -12.738  13.738  70.300  1.00  0.00    -0.214 N  
HETATM    6  H   UNL     1     -14.519  12.948  72.894  1.00  0.00     0.000 HD 
HETATM    7  O   UNL     1     -14.216  14.973  71.562  1.00  0.00    -0.459 OA 
HETATM    8  C   UNL     1     -12.412  12.386  69.862  1.00  0.00     0.086 C  
HETATM    9  C   UNL     1     -13.648  13.912  71.321  1.00  0.00    -0.145 C  
HETATM   10  C   UNL     1     -12.038  11.551  71.072  1.00  0.00    -0.258 C  
HETATM   11  N   UNL     1     -13.859  12.828  72.125  1.00  0.00    -0.350 N  
HETATM   12  C   UNL     1     -13.238  11.527  71.995  1.00  0.00    -0.337 C  
ENDBRANCH   3   5
BRANCH   3  13
HETATM   13  C   UNL     1     -11.763  14.569  68.115  1.00  0.00    -0.337 C  
HETATM   14  O   UNL     1     -12.490  14.698  67.137  1.00  0.00    -0.093 OA 
HETATM   15  N   UNL     1     -10.502  14.016  68.016  1.00  0.00    -0.237 N  
HETATM   16  H   UNL     1      -9.960  13.963  68.878  1.00  0.00     0.000 HD 
BRANCH  15  17
HETATM   17  C   UNL     1      -9.859  13.497  66.811  1.00  0.00    -0.267 C  
BRANCH  17  18
HETATM   18  C   UNL     1     -10.338  12.085  66.407  1.00  0.00    -0.246 C  
BRANCH  18  19
HETATM   19  C   UNL     1      -9.419  11.038  65.726  1.00  0.00    -0.210 C  
HETATM   20  O   UNL     1     -10.130  10.409  64.656  1.00  0.00    -0.345 OA 
HETATM   21  H   UNL     1      -9.567   9.767  64.239  1.00  0.00     0.000 HD 
BRANCH  19  22
HETATM   22  C   UNL     1      -8.992   9.912  66.747  1.00  0.00    -0.138 C  
BRANCH  22  23
HETATM   23  N   UNL     1      -8.061  10.396  67.831  1.00  0.00    -0.102 N  
HETATM   24  C   UNL     1      -7.913  10.251  69.193  1.00  0.00    -0.135 C  
HETATM   25  H   UNL     1      -7.337  11.002  67.447  1.00  0.00     0.000 HD 
HETATM   26  O   UNL     1      -6.848  10.608  69.704  1.00  0.00    -0.093 OA 
BRANCH  24  27
HETATM   27  C   UNL     1      -9.088   9.769  70.061  1.00  0.00    -0.223 C  
BRANCH  27  28
HETATM   28  O   UNL     1      -8.955   8.771  71.060  1.00  0.00    -0.177 OA 
BRANCH  28  29
HETATM   29  C   UNL     1      -9.476   7.509  70.811  1.00  0.00    -0.163 A  
HETATM   30  C   UNL     1     -12.049   7.861  71.344  1.00  0.00    -0.333 C  
HETATM   31  C   UNL     1     -10.832   7.097  70.886  1.00  0.00    -0.266 A  
HETATM   32  C   UNL     1     -11.170   5.788  70.465  1.00  0.00    -0.200 A  
HETATM   33  C   UNL     1     -10.224   4.887  70.002  1.00  0.00    -0.313 A  
HETATM   34  C   UNL     1      -8.894   5.269  69.965  1.00  0.00    -0.140 A  
HETATM   35  C   UNL     1      -8.503   6.560  70.373  1.00  0.00    -0.131 A  
HETATM   36  C   UNL     1      -7.026   6.866  70.323  1.00  0.00    -0.066 C  
ENDBRANCH  28  29
ENDBRANCH  27  28
ENDBRANCH  24  27
ENDBRANCH  22  23
BRANCH  22  37
HETATM   37  C   UNL     1     -10.175   8.999  67.169  1.00  0.00    -0.334 C  
BRANCH  37  38
HETATM   38  C   UNL     1      -9.953   7.536  66.899  1.00  0.00    -0.318 A  
HETATM   39  C   UNL     1      -9.574   4.865  66.148  1.00  0.00    -0.183 A  
HETATM   40  C   UNL     1     -11.028   6.644  66.894  1.00  0.00    -0.396 A  
HETATM   41  C   UNL     1      -8.489   5.730  66.221  1.00  0.00    -0.126 A  
HETATM   42  C   UNL     1      -8.674   7.043  66.642  1.00  0.00    -0.131 A  
HETATM   43  C   UNL     1     -10.838   5.316  66.521  1.00  0.00    -0.196 A  
ENDBRANCH  37  38
ENDBRANCH  22  37
ENDBRANCH  19  22
ENDBRANCH  18  19
ENDBRANCH  17  18
BRANCH  17  44
HETATM   44  C   UNL     1      -8.348  13.804  66.724  1.00  0.00     0.086 C  
BRANCH  44  45
HETATM   45  C   UNL     1      -8.001  15.245  67.047  1.00  0.00    -0.243 A  
HETATM   46  C   UNL     1      -8.543  16.310  66.309  1.00  0.00    -0.374 A  
HETATM   47  C   UNL     1      -7.103  15.537  68.080  1.00  0.00    -0.126 A  
HETATM   48  C   UNL     1      -8.161  17.630  66.576  1.00  0.00    -0.306 A  
HETATM   49  C   UNL     1      -6.726  16.856  68.349  1.00  0.00    -0.164 A  
HETATM   50  C   UNL     1      -7.246  17.901  67.591  1.00  0.00    -0.206 A  
ENDBRANCH  44  45
ENDBRANCH  17  44
ENDBRANCH  15  17
ENDBRANCH   3  13
TORSDOF 14
ENDMDL
MODEL      116
REMARK 921   NORMALIZED FREE ENERGY PREDICTED BY IDOCK:   -5.16 KCAL/MOL
REMARK 922        TOTAL FREE ENERGY PREDICTED BY IDOCK:  -13.94 KCAL/MOL
REMARK 923 INTER-LIGAND FREE ENERGY PREDICTED BY IDOCK:   -9.73 KCAL/MOL
REMARK 924 INTRA-LIGAND FREE ENERGY PREDICTED BY IDOCK:   -4.21 KCAL/MOL
REMARK 927      BINDING AFFINITY PREDICTED BY RF-SCORE:    0.00 PKD
ROOT
HETATM    1  C   UNL     1     -12.233  13.490  65.805  1.00  0.00    -0.505 C  
HETATM    2  C   UNL     1     -11.035  12.692  66.344  1.00  0.00    -0.304 C  
HETATM    3  C   UNL     1     -11.232  12.332  67.849  1.00  0.00    -0.274 C  
HETATM    4  C   UNL     1     -10.816  11.477  65.440  1.00  0.00    -0.318 C  
ENDROOT
BRANCH   3   5
HETATM    5  N   UNL     1     -11.340  13.548  68.689  1.00  0.00    -0.268 N  
HETATM    6  H   UNL     1     -12.877  14.704  71.301  1.00  0.00     0.000 HD 
HETATM    7  O   UNL     1     -12.446  12.475  70.400  1.00  0.00    -0.242 OA 
HETATM    8  C   UNL     1     -10.594  14.752  68.346  1.00  0.00    -0.242 C  
HETATM    9  C   UNL     1     -12.044  13.509  69.873  1.00  0.00    -0.341 C  
HETATM   10  C   UNL     1     -11.511  15.954  68.473  1.00  0.00    -0.377 C  
HETATM   11  N   UNL     1     -12.343  14.719  70.432  1.00  0.00    -0.324 N  
HETATM   12  C   UNL     1     -11.977  16.020  69.912  1.00  0.00    -0.173 C  
ENDBRANCH   3   5
BRANCH   3  13
HETATM   13  C   UNL     1     -10.139  11.343  68.357  1.00  0.00    -0.201 C  
HETATM   14  O   UNL     1      -8.940  11.495  68.149  1.00  0.00    -0.159 OA 
HETATM   15  N   UNL     1     -10.629  10.221  68.993  1.00  0.00    -0.210 N  
HETATM   16  H   UNL     1     -11.638  10.186  69.140  1.00  0.00     0.000 HD 
BRANCH  15  17
HETATM   17  C   UNL     1      -9.863   9.075  69.478  1.00  0.00    -0.180 C  
BRANCH  17  18
HETATM   18  C   UNL     1     -10.280   7.730  68.844  1.00  0.00    -0.220 C  
BRANCH  18  19
HETATM   19  C   UNL     1     -10.611   7.568  67.338  1.00  0.00    -0.294 C  
HETATM   20  O   UNL     1     -11.555   6.505  67.174  1.00  0.00    -0.743 OA 
HETATM   21  H   UNL     1     -11.758   6.406  66.251  1.00  0.00     0.000 HD 
BRANCH  19  22
HETATM   22  C   UNL     1      -9.318   7.193  66.513  1.00  0.00    -0.164 C  
BRANCH  22  23
HETATM   23  N   UNL     1      -9.319   5.777  65.993  1.00  0.00    -0.246 N  
HETATM   24  C   UNL     1      -9.188   4.501  66.499  1.00  0.00    -0.137 C  
HETATM   25  H   UNL     1      -9.456   5.758  64.983  1.00  0.00     0.000 HD 
HETATM   26  O   UNL     1      -9.507   3.553  65.775  1.00  0.00    -0.164 OA 
BRANCH  24  27
HETATM   27  C   UNL     1      -8.549   4.268  67.878  1.00  0.00    -0.099 C  
BRANCH  27  28
HETATM   28  O   UNL     1      -9.226   4.525  69.098  1.00  0.00    -0.112 OA 
BRANCH  28  29
HETATM   29  C   UNL     1      -8.504   4.465  70.282  1.00  0.00    -0.073 A  
HETATM   30  C   UNL     1      -7.029   6.664  70.140  1.00  0.00    -0.063 C  
HETATM   31  C   UNL     1      -7.569   5.410  70.781  1.00  0.00    -0.088 A  
HETATM   32  C   UNL     1      -7.036   5.220  72.079  1.00  0.00    -0.078 A  
HETATM   33  C   UNL     1      -7.376   4.135  72.872  1.00  0.00    -0.073 A  
HETATM   34  C   UNL     1      -8.255   3.189  72.376  1.00  0.00    -0.067 A  
HETATM   35  C   UNL     1      -8.815   3.329  71.090  1.00  0.00    -0.139 A  
HETATM   36  C   UNL     1      -9.738   2.227  70.631  1.00  0.00    -0.077 C  
ENDBRANCH  28  29
ENDBRANCH  27  28
ENDBRANCH  24  27
ENDBRANCH  22  23
BRANCH  22  37
HETATM   37  C   UNL     1      -8.876   8.317  65.538  1.00  0.00    -0.152 C  
BRANCH  37  38
HETATM   38  C   UNL     1      -7.621   9.035  65.951  1.00  0.00    -0.094 A  
HETATM   39  C   UNL     1      -5.436  10.551  66.829  1.00  0.00    -0.046 A  
HETATM   40  C   UNL     1      -7.036   9.985  65.109  1.00  0.00    -0.135 A  
HETATM   41  C   UNL     1      -5.967   9.559  67.642  1.00  0.00    -0.052 A  
HETATM   42  C   UNL     1      -7.022   8.775  67.183  1.00  0.00    -0.071 A  
HETATM   43  C   UNL     1      -5.949  10.738  65.547  1.00  0.00    -0.081 A  
ENDBRANCH  37  38
ENDBRANCH  22  37
ENDBRANCH  19  22
ENDBRANCH  18  19
ENDBRANCH  17  18
BRANCH  17  44
HETATM   44  C   UNL     1      -9.581   9.105  70.996  1.00  0.00    -0.350 C  
BRANCH  44  45
HETATM   45  C   UNL     1     -10.097   7.885  71.735  1.00  0.00    -0.236 A  
HETATM   46  C   UNL     1     -10.922   6.941  71.101  1.00  0.00    -0.284 A  
HETATM   47  C   UNL     1      -9.777   7.692  73.084  1.00  0.00    -0.327 A  
HETATM   48  C   UNL     1     -11.444   5.856  71.814  1.00  0.00    -0.262 A  
HETATM   49  C   UNL     1     -10.295   6.605  73.794  1.00  0.00    -0.373 A  
HETATM   50  C   UNL     1     -11.136   5.693  73.163  1.00  0.00    -0.315 A  
ENDBRANCH  44  45
ENDBRANCH  17  44
ENDBRANCH  15  17
ENDBRANCH   3  13
TORSDOF 14
ENDMDL
MODEL      117
REMARK 921   NORMALIZED FREE ENERGY PREDICTED BY IDOCK:   -5.16 KCAL/MOL
REMARK 922        TOTAL FREE ENERGY PREDICTED BY IDOCK:  -13.93 KCAL/MOL
REMARK 923 INTER-LIGAND FREE ENERGY PREDICTED BY IDOCK:  -12.01 KCAL/MOL
REMARK 924 INTRA-LIGAND FREE ENERGY PREDICTED BY IDOCK:   -1.92 KCAL/MOL
REMARK 927      BINDING AFFINITY PREDICTED BY RF-SCORE:    0.00 PKD
ROOT
HETATM    1  C   UNL     1     -12.841   9.788  71.924  1.00  0.00    -0.520 C  
HETATM    2  C   UNL     1     -11.710  10.277  71.006  1.00  0.00    -0.461 C  
HETATM    3  C   UNL     1     -11.344   9.196  69.942  1.00  0.00    -0.030 C  
HETATM    4  C   UNL     1     -12.120  11.623  70.405  1.00  0.00    -0.462 C  
ENDROOT
BRANCH   3   5
HETATM    5  N   UNL     1     -10.859   7.949  70.579  1.00  0.00    -0.238 N  
HETATM    6  H   UNL     1      -8.436   6.806  72.409  1.00  0.00     0.000 HD 
HETATM    7  O   UNL     1      -9.327   9.026  71.920  1.00  0.00    -0.341 OA 
HETATM    8  C   UNL     1     -11.576   6.694  70.391  1.00  0.00    -0.398 C  
HETATM    9  C   UNL     1      -9.799   7.990  71.461  1.00  0.00    -0.170 C  
HETATM   10  C   UNL     1     -10.577   5.593  70.091  1.00  0.00    -0.380 C  
HETATM   11  N   UNL     1      -9.231   6.787  71.770  1.00  0.00    -0.147 N  
HETATM   12  C   UNL     1      -9.645   5.489  71.281  1.00  0.00    -0.155 C  
ENDBRANCH   3   5
BRANCH   3  13
HETATM   13  C   UNL     1     -10.355   9.748  68.870  1.00  0.00    -0.210 C  
HETATM   14  O   UNL     1     -10.671   9.962  67.705  1.00  0.00    -0.254 OA 
HETATM   15  N   UNL     1      -9.055   9.899  69.310  1.00  0.00    -0.177 N  
HETATM   16  H   UNL     1      -8.887   9.717  70.299  1.00  0.00     0.000 HD 
BRANCH  15  17
HETATM   17  C   UNL     1      -7.894  10.290  68.515  1.00  0.00    -0.097 C  
BRANCH  17  18
HETATM   18  C   UNL     1      -8.196  11.380  67.463  1.00  0.00    -0.130 C  
BRANCH  18  19
HETATM   19  C   UNL     1      -8.276  12.891  67.804  1.00  0.00    -0.174 C  
HETATM   20  O   UNL     1      -7.922  13.085  69.176  1.00  0.00    -0.315 OA 
HETATM   21  H   UNL     1      -7.971  14.011  69.385  1.00  0.00     0.000 HD 
BRANCH  19  22
HETATM   22  C   UNL     1      -9.744  13.437  67.605  1.00  0.00    -0.222 C  
BRANCH  22  23
HETATM   23  N   UNL     1     -10.324  14.083  68.838  1.00  0.00    -0.340 N  
HETATM   24  C   UNL     1     -10.431  15.346  69.378  1.00  0.00    -0.257 C  
HETATM   25  H   UNL     1     -10.760  13.388  69.444  1.00  0.00     0.000 HD 
HETATM   26  O   UNL     1     -11.222  15.516  70.311  1.00  0.00    -0.269 OA 
BRANCH  24  27
HETATM   27  C   UNL     1      -9.503  16.479  68.909  1.00  0.00    -0.260 C  
BRANCH  27  28
HETATM   28  O   UNL     1      -9.838  17.368  67.855  1.00  0.00    -0.268 OA 
BRANCH  28  29
HETATM   29  C   UNL     1      -8.812  18.013  67.180  1.00  0.00    -0.248 A  
HETATM   30  C   UNL     1      -7.014  16.079  66.935  1.00  0.00    -0.139 C  
HETATM   31  C   UNL     1      -7.585  17.460  66.728  1.00  0.00    -0.263 A  
HETATM   32  C   UNL     1      -6.724  18.264  65.942  1.00  0.00    -0.315 A  
HETATM   33  C   UNL     1      -7.024  19.577  65.614  1.00  0.00    -0.317 A  
HETATM   34  C   UNL     1      -8.200  20.135  66.086  1.00  0.00    -0.233 A  
HETATM   35  C   UNL     1      -9.092  19.379  66.873  1.00  0.00    -0.370 A  
HETATM   36  C   UNL     1     -10.330  20.090  67.363  1.00  0.00    -0.533 C  
ENDBRANCH  28  29
ENDBRANCH  27  28
ENDBRANCH  24  27
ENDBRANCH  22  23
BRANCH  22  37
HETATM   37  C   UNL     1      -9.938  14.170  66.250  1.00  0.00    -0.315 C  
BRANCH  37  38
HETATM   38  C   UNL     1     -10.789  13.424  65.260  1.00  0.00    -0.318 A  
HETATM   39  C   UNL     1     -12.385  11.842  63.588  1.00  0.00    -0.591 A  
HETATM   40  C   UNL     1     -10.201  12.582  64.312  1.00  0.00    -0.359 A  
HETATM   41  C   UNL     1     -12.974  12.730  64.478  1.00  0.00    -0.210 A  
HETATM   42  C   UNL     1     -12.177  13.550  65.272  1.00  0.00    -0.474 A  
HETATM   43  C   UNL     1     -10.996  11.796  63.480  1.00  0.00    -0.499 A  
ENDBRANCH  37  38
ENDBRANCH  22  37
ENDBRANCH  19  22
ENDBRANCH  18  19
ENDBRANCH  17  18
BRANCH  17  44
HETATM   44  C   UNL     1      -6.991   9.109  68.097  1.00  0.00    -0.076 C  
BRANCH  44  45
HETATM   45  C   UNL     1      -7.648   8.160  67.112  1.00  0.00    -0.096 A  
HETATM   46  C   UNL     1      -8.241   6.960  67.538  1.00  0.00    -0.116 A  
HETATM   47  C   UNL     1      -7.649   8.457  65.744  1.00  0.00    -0.085 A  
HETATM   48  C   UNL     1      -8.784   6.064  66.609  1.00  0.00    -0.123 A  
HETATM   49  C   UNL     1      -8.195   7.563  64.818  1.00  0.00    -0.068 A  
HETATM   50  C   UNL     1      -8.754   6.363  65.249  1.00  0.00     0.012 A  
ENDBRANCH  44  45
ENDBRANCH  17  44
ENDBRANCH  15  17
ENDBRANCH   3  13
TORSDOF 14
ENDMDL
MODEL      118
REMARK 921   NORMALIZED FREE ENERGY PREDICTED BY IDOCK:   -5.15 KCAL/MOL
REMARK 922        TOTAL FREE ENERGY PREDICTED BY IDOCK:  -13.92 KCAL/MOL
REMARK 923 INTER-LIGAND FREE ENERGY PREDICTED BY IDOCK:  -12.56 KCAL/MOL
REMARK 924 INTRA-LIGAND FREE ENERGY PREDICTED BY IDOCK:   -1.36 KCAL/MOL
REMARK 927      BINDING AFFINITY PREDICTED BY RF-SCORE:    0.00 PKD
ROOT
HETATM    1  C   UNL     1     -12.780  14.649  73.375  1.00  0.00    -0.528 C  
HETATM    2  C   UNL     1     -11.917  14.952  72.141  1.00  0.00    -0.412 C  
HETATM    3  C   UNL     1     -12.574  14.389  70.843  1.00  0.00    -0.352 C  
HETATM    4  C   UNL     1     -11.647  16.458  72.095  1.00  0.00    -0.336 C  
ENDROOT
BRANCH   3   5
HETATM    5  N   UNL     1     -12.719  12.915  70.903  1.00  0.00    -0.259 N  
HETATM    6  H   UNL     1     -13.960  10.557  72.753  1.00  0.00     0.000 HD 
HETATM    7  O   UNL     1     -14.307  12.967  72.570  1.00  0.00    -0.548 OA 
HETATM    8  C   UNL     1     -12.124  12.070  69.875  1.00  0.00    -0.263 C  
HETATM    9  C   UNL     1     -13.528  12.339  71.860  1.00  0.00    -0.240 C  
HETATM   10  C   UNL     1     -11.427  10.898  70.540  1.00  0.00    -0.314 C  
HETATM   11  N   UNL     1     -13.379  10.993  72.037  1.00  0.00    -0.403 N  
HETATM   12  C   UNL     1     -12.478  10.124  71.309  1.00  0.00    -0.406 C  
ENDBRANCH   3   5
BRANCH   3  13
HETATM   13  C   UNL     1     -11.830  14.869  69.559  1.00  0.00    -0.325 C  
HETATM   14  O   UNL     1     -12.405  15.264  68.551  1.00  0.00    -0.044 OA 
HETATM   15  N   UNL     1     -10.457  14.733  69.607  1.00  0.00    -0.407 N  
HETATM   16  H   UNL     1     -10.062  14.415  70.492  1.00  0.00     0.000 HD 
BRANCH  15  17
HETATM   17  C   UNL     1      -9.507  14.994  68.528  1.00  0.00    -0.203 C  
BRANCH  17  18
HETATM   18  C   UNL     1      -9.091  13.731  67.742  1.00  0.00    -0.193 C  
BRANCH  18  19
HETATM   19  C   UNL     1      -7.899  12.829  68.152  1.00  0.00    -0.146 C  
HETATM   20  O   UNL     1      -6.843  12.980  67.199  1.00  0.00    -0.338 OA 
HETATM   21  H   UNL     1      -6.112  12.427  67.450  1.00  0.00     0.000 HD 
BRANCH  19  22
HETATM   22  C   UNL     1      -8.320  11.308  68.165  1.00  0.00    -0.143 C  
BRANCH  22  23
HETATM   23  N   UNL     1      -8.220  10.662  69.524  1.00  0.00    -0.365 N  
HETATM   24  C   UNL     1      -7.635   9.548  70.087  1.00  0.00    -0.142 C  
HETATM   25  H   UNL     1      -8.729  11.201  70.224  1.00  0.00     0.000 HD 
HETATM   26  O   UNL     1      -7.561   9.489  71.319  1.00  0.00    -0.327 OA 
BRANCH  24  27
HETATM   27  C   UNL     1      -7.196   8.365  69.208  1.00  0.00    -0.063 C  
BRANCH  27  28
HETATM   28  O   UNL     1      -8.078   7.327  68.812  1.00  0.00    -0.121 OA 
BRANCH  28  29
HETATM   29  C   UNL     1      -9.039   6.892  69.714  1.00  0.00    -0.144 A  
HETATM   30  C   UNL     1      -7.548   5.950  71.695  1.00  0.00    -0.100 C  
HETATM   31  C   UNL     1      -8.833   6.326  71.000  1.00  0.00    -0.136 A  
HETATM   32  C   UNL     1      -9.960   6.067  71.818  1.00  0.00    -0.199 A  
HETATM   33  C   UNL     1     -11.257   6.325  71.402  1.00  0.00    -0.349 A  
HETATM   34  C   UNL     1     -11.467   6.838  70.135  1.00  0.00    -0.404 A  
HETATM   35  C   UNL     1     -10.381   7.114  69.280  1.00  0.00    -0.209 A  
HETATM   36  C   UNL     1     -10.719   7.643  67.907  1.00  0.00    -0.176 C  
ENDBRANCH  28  29
ENDBRANCH  27  28
ENDBRANCH  24  27
ENDBRANCH  22  23
BRANCH  22  37
HETATM   37  C   UNL     1      -9.596  11.026  67.326  1.00  0.00    -0.183 C  
BRANCH  37  38
HETATM   38  C   UNL     1      -9.323  10.518  65.937  1.00  0.00    -0.220 A  
HETATM   39  C   UNL     1      -8.648   9.767  63.325  1.00  0.00    -0.200 A  
HETATM   40  C   UNL     1     -10.081  10.970  64.854  1.00  0.00    -0.359 A  
HETATM   41  C   UNL     1      -7.935   9.257  64.403  1.00  0.00    -0.133 A  
HETATM   42  C   UNL     1      -8.305   9.595  65.702  1.00  0.00    -0.133 A  
HETATM   43  C   UNL     1      -9.745  10.595  63.555  1.00  0.00    -0.389 A  
ENDBRANCH  37  38
ENDBRANCH  22  37
ENDBRANCH  19  22
ENDBRANCH  18  19
ENDBRANCH  17  18
BRANCH  17  44
HETATM   44  C   UNL     1      -8.409  16.017  68.892  1.00  0.00    -0.231 C  
BRANCH  44  45
HETATM   45  C   UNL     1      -8.679  17.413  68.363  1.00  0.00    -0.271 A  
HETATM   46  C   UNL     1      -9.909  18.054  68.586  1.00  0.00    -0.383 A  
HETATM   47  C   UNL     1      -7.704  18.082  67.613  1.00  0.00    -0.215 A  
HETATM   48  C   UNL     1     -10.166  19.314  68.035  1.00  0.00    -0.507 A  
HETATM   49  C   UNL     1      -7.961  19.343  67.067  1.00  0.00    -0.287 A  
HETATM   50  C   UNL     1      -9.195  19.955  67.269  1.00  0.00    -0.453 A  
ENDBRANCH  44  45
ENDBRANCH  17  44
ENDBRANCH  15  17
ENDBRANCH   3  13
TORSDOF 14
ENDMDL
MODEL      119
REMARK 921   NORMALIZED FREE ENERGY PREDICTED BY IDOCK:   -5.11 KCAL/MOL
REMARK 922        TOTAL FREE ENERGY PREDICTED BY IDOCK:  -13.85 KCAL/MOL
REMARK 923 INTER-LIGAND FREE ENERGY PREDICTED BY IDOCK:  -11.73 KCAL/MOL
REMARK 924 INTRA-LIGAND FREE ENERGY PREDICTED BY IDOCK:   -2.13 KCAL/MOL
REMARK 927      BINDING AFFINITY PREDICTED BY RF-SCORE:    0.00 PKD
ROOT
HETATM    1  C   UNL     1      -8.340   8.394  63.051  1.00  0.00    -0.102 C  
HETATM    2  C   UNL     1      -8.031   9.069  64.397  1.00  0.00    -0.133 C  
HETATM    3  C   UNL     1      -7.597   8.019  65.465  1.00  0.00    -0.085 C  
HETATM    4  C   UNL     1      -6.999  10.174  64.160  1.00  0.00    -0.098 C  
ENDROOT
BRANCH   3   5
HETATM    5  N   UNL     1      -8.672   7.033  65.726  1.00  0.00    -0.133 N  
HETATM    6  H   UNL     1     -11.563   6.749  67.171  1.00  0.00     0.000 HD 
HETATM    7  O   UNL     1     -10.201   8.621  66.394  1.00  0.00    -0.282 OA 
HETATM    8  C   UNL     1      -8.532   5.650  65.286  1.00  0.00    -0.147 C  
HETATM    9  C   UNL     1      -9.869   7.445  66.273  1.00  0.00     0.028 C  
HETATM   10  C   UNL     1      -8.963   4.727  66.410  1.00  0.00    -0.113 C  
HETATM   11  N   UNL     1     -10.681   6.456  66.750  1.00  0.00    -0.297 N  
HETATM   12  C   UNL     1     -10.414   5.033  66.718  1.00  0.00    -0.219 C  
ENDBRANCH   3   5
BRANCH   3  13
HETATM   13  C   UNL     1      -7.074   8.698  66.768  1.00  0.00    -0.078 C  
HETATM   14  O   UNL     1      -6.235   8.191  67.505  1.00  0.00    -0.050 OA 
HETATM   15  N   UNL     1      -7.695   9.889  67.085  1.00  0.00    -0.092 N  
HETATM   16  H   UNL     1      -8.367  10.245  66.405  1.00  0.00     0.000 HD 
BRANCH  15  17
HETATM   17  C   UNL     1      -7.497  10.695  68.287  1.00  0.00    -0.091 C  
BRANCH  17  18
HETATM   18  C   UNL     1      -8.687  10.651  69.271  1.00  0.00    -0.090 C  
BRANCH  18  19
HETATM   19  C   UNL     1      -9.053   9.397  70.107  1.00  0.00    -0.231 C  
HETATM   20  O   UNL     1      -8.355   8.262  69.586  1.00  0.00    -0.120 OA 
HETATM   21  H   UNL     1      -8.579   7.494  70.098  1.00  0.00     0.000 HD 
BRANCH  19  22
HETATM   22  C   UNL     1     -10.600   9.092  70.018  1.00  0.00    -0.228 C  
BRANCH  22  23
HETATM   23  N   UNL     1     -11.315   9.882  68.951  1.00  0.00    -0.471 N  
HETATM   24  C   UNL     1     -11.700  11.186  68.728  1.00  0.00    -0.326 C  
HETATM   25  H   UNL     1     -11.590   9.281  68.175  1.00  0.00     0.000 HD 
HETATM   26  O   UNL     1     -12.052  11.502  67.588  1.00  0.00    -0.623 OA 
BRANCH  24  27
HETATM   27  C   UNL     1     -11.803  12.182  69.896  1.00  0.00    -0.319 C  
BRANCH  27  28
HETATM   28  O   UNL     1     -12.242  13.521  69.734  1.00  0.00    -0.313 OA 
BRANCH  28  29
HETATM   29  C   UNL     1     -12.414  14.303  70.868  1.00  0.00    -0.354 A  
HETATM   30  C   UNL     1     -13.999  12.781  72.352  1.00  0.00    -0.236 C  
HETATM   31  C   UNL     1     -13.142  13.984  72.044  1.00  0.00    -0.487 A  
HETATM   32  C   UNL     1     -13.086  14.876  73.143  1.00  0.00    -0.615 A  
HETATM   33  C   UNL     1     -12.363  16.058  73.106  1.00  0.00    -0.637 A  
HETATM   34  C   UNL     1     -11.685  16.395  71.948  1.00  0.00    -0.419 A  
HETATM   35  C   UNL     1     -11.708  15.544  70.825  1.00  0.00    -0.397 A  
HETATM   36  C   UNL     1     -10.961  16.018  69.602  1.00  0.00    -0.326 C  
ENDBRANCH  28  29
ENDBRANCH  27  28
ENDBRANCH  24  27
ENDBRANCH  22  23
BRANCH  22  37
HETATM   37  C   UNL     1     -10.925   7.578  70.133  1.00  0.00    -0.267 C  
BRANCH  37  38
HETATM   38  C   UNL     1     -10.845   7.033  71.533  1.00  0.00    -0.255 A  
HETATM   39  C   UNL     1     -10.460   5.937  74.081  1.00  0.00    -0.253 A  
HETATM   40  C   UNL     1     -11.265   5.730  71.812  1.00  0.00    -0.275 A  
HETATM   41  C   UNL     1     -10.106   7.256  73.829  1.00  0.00    -0.375 A  
HETATM   42  C   UNL     1     -10.344   7.812  72.575  1.00  0.00    -0.328 A  
HETATM   43  C   UNL     1     -11.074   5.186  73.080  1.00  0.00    -0.391 A  
ENDBRANCH  37  38
ENDBRANCH  22  37
ENDBRANCH  19  22
ENDBRANCH  18  19
ENDBRANCH  17  18
BRANCH  17  44
HETATM   44  C   UNL     1      -6.822  12.058  68.026  1.00  0.00    -0.078 C  
BRANCH  44  45
HETATM   45  C   UNL     1      -7.750  13.090  67.413  1.00  0.00    -0.159 A  
HETATM   46  C   UNL     1      -7.507  14.467  67.552  1.00  0.00    -0.206 A  
HETATM   47  C   UNL     1      -8.892  12.681  66.714  1.00  0.00    -0.168 A  
HETATM   48  C   UNL     1      -8.408  15.406  67.039  1.00  0.00    -0.268 A  
HETATM   49  C   UNL     1      -9.789  13.621  66.198  1.00  0.00    -0.304 A  
HETATM   50  C   UNL     1      -9.553  14.982  66.368  1.00  0.00    -0.314 A  
ENDBRANCH  44  45
ENDBRANCH  17  44
ENDBRANCH  15  17
ENDBRANCH   3  13
TORSDOF 14
ENDMDL
MODEL      120
REMARK 921   NORMALIZED FREE ENERGY PREDICTED BY IDOCK:   -5.11 KCAL/MOL
REMARK 922        TOTAL FREE ENERGY PREDICTED BY IDOCK:  -13.84 KCAL/MOL
REMARK 923 INTER-LIGAND FREE ENERGY PREDICTED BY IDOCK:  -11.90 KCAL/MOL
REMARK 924 INTRA-LIGAND FREE ENERGY PREDICTED BY IDOCK:   -1.94 KCAL/MOL
REMARK 927      BINDING AFFINITY PREDICTED BY RF-SCORE:    0.00 PKD
ROOT
HETATM    1  C   UNL     1      -6.691   4.559  69.305  1.00  0.00    -0.045 C  
HETATM    2  C   UNL     1      -7.772   5.633  69.497  1.00  0.00    -0.091 C  
HETATM    3  C   UNL     1      -8.945   5.437  68.487  1.00  0.00    -0.107 C  
HETATM    4  C   UNL     1      -8.210   5.626  70.963  1.00  0.00    -0.121 C  
ENDROOT
BRANCH   3   5
HETATM    5  N   UNL     1      -8.480   5.553  67.085  1.00  0.00    -0.111 N  
HETATM    6  H   UNL     1      -7.544   7.754  64.893  1.00  0.00     0.000 HD 
HETATM    7  O   UNL     1      -7.755   7.726  67.325  1.00  0.00    -0.108 OA 
HETATM    8  C   UNL     1      -8.389   4.373  66.234  1.00  0.00    -0.112 C  
HETATM    9  C   UNL     1      -8.006   6.759  66.612  1.00  0.00    -0.108 C  
HETATM   10  C   UNL     1      -8.982   4.695  64.876  1.00  0.00    -0.153 C  
HETATM   11  N   UNL     1      -7.878   6.862  65.256  1.00  0.00    -0.110 N  
HETATM   12  C   UNL     1      -8.172   5.829  64.284  1.00  0.00    -0.106 C  
ENDBRANCH   3   5
BRANCH   3  13
HETATM   13  C   UNL     1     -10.147   6.378  68.803  1.00  0.00    -0.158 C  
HETATM   14  O   UNL     1     -11.283   6.190  68.381  1.00  0.00    -0.330 OA 
HETATM   15  N   UNL     1      -9.820   7.504  69.530  1.00  0.00    -0.168 N  
HETATM   16  H   UNL     1      -8.856   7.570  69.857  1.00  0.00     0.000 HD 
BRANCH  15  17
HETATM   17  C   UNL     1     -10.702   8.614  69.884  1.00  0.00    -0.225 C  
BRANCH  17  18
HETATM   18  C   UNL     1      -9.968   9.959  70.074  1.00  0.00    -0.302 C  
BRANCH  18  19
HETATM   19  C   UNL     1      -9.105  10.620  68.969  1.00  0.00    -0.166 C  
HETATM   20  O   UNL     1      -8.035  11.349  69.578  1.00  0.00    -0.355 OA 
HETATM   21  H   UNL     1      -7.506  11.754  68.901  1.00  0.00     0.000 HD 
BRANCH  19  22
HETATM   22  C   UNL     1      -9.959  11.640  68.119  1.00  0.00    -0.195 C  
BRANCH  22  23
HETATM   23  N   UNL     1     -10.337  12.890  68.872  1.00  0.00    -0.429 N  
HETATM   24  C   UNL     1      -9.902  14.194  68.976  1.00  0.00    -0.025 C  
HETATM   25  H   UNL     1     -11.143  12.724  69.475  1.00  0.00     0.000 HD 
HETATM   26  O   UNL     1     -10.647  15.014  69.522  1.00  0.00    -0.247 OA 
BRANCH  24  27
HETATM   27  C   UNL     1      -8.483  14.583  68.531  1.00  0.00    -0.166 C  
BRANCH  27  28
HETATM   28  O   UNL     1      -8.217  15.328  67.353  1.00  0.00    -0.156 OA 
BRANCH  28  29
HETATM   29  C   UNL     1      -8.816  16.572  67.206  1.00  0.00    -0.192 A  
HETATM   30  C   UNL     1     -10.665  16.079  65.370  1.00  0.00    -0.399 C  
HETATM   31  C   UNL     1      -9.916  16.916  66.377  1.00  0.00    -0.321 A  
HETATM   32  C   UNL     1     -10.457  18.221  66.472  1.00  0.00    -0.378 A  
HETATM   33  C   UNL     1      -9.940  19.182  67.327  1.00  0.00    -0.436 A  
HETATM   34  C   UNL     1      -8.843  18.865  68.108  1.00  0.00    -0.341 A  
HETATM   35  C   UNL     1      -8.265  17.581  68.053  1.00  0.00    -0.239 A  
HETATM   36  C   UNL     1      -7.052  17.347  68.921  1.00  0.00    -0.251 C  
ENDBRANCH  28  29
ENDBRANCH  27  28
ENDBRANCH  24  27
ENDBRANCH  22  23
BRANCH  22  37
HETATM   37  C   UNL     1      -9.434  11.805  66.667  1.00  0.00    -0.215 C  
BRANCH  37  38
HETATM   38  C   UNL     1     -10.516  11.934  65.630  1.00  0.00    -0.302 A  
HETATM   39  C   UNL     1     -12.417  12.393  63.626  1.00  0.00    -0.610 A  
HETATM   40  C   UNL     1     -11.706  12.604  65.925  1.00  0.00    -0.470 A  
HETATM   41  C   UNL     1     -11.269  11.664  63.343  1.00  0.00    -0.401 A  
HETATM   42  C   UNL     1     -10.350  11.396  64.354  1.00  0.00    -0.375 A  
HETATM   43  C   UNL     1     -12.651  12.831  64.927  1.00  0.00    -0.541 A  
ENDBRANCH  37  38
ENDBRANCH  22  37
ENDBRANCH  19  22
ENDBRANCH  18  19
ENDBRANCH  17  18
BRANCH  17  44
HETATM   44  C   UNL     1     -11.807   8.240  70.896  1.00  0.00    -0.232 C  
BRANCH  44  45
HETATM   45  C   UNL     1     -11.327   7.332  72.013  1.00  0.00    -0.295 A  
HETATM   46  C   UNL     1     -10.439   7.794  72.999  1.00  0.00    -0.432 A  
HETATM   47  C   UNL     1     -11.745   5.997  72.064  1.00  0.00    -0.315 A  
HETATM   48  C   UNL     1      -9.953   6.926  73.984  1.00  0.00    -0.371 A  
HETATM   49  C   UNL     1     -11.262   5.133  73.051  1.00  0.00    -0.390 A  
HETATM   50  C   UNL     1     -10.359   5.594  74.005  1.00  0.00    -0.298 A  
ENDBRANCH  44  45
ENDBRANCH  17  44
ENDBRANCH  15  17
ENDBRANCH   3  13
TORSDOF 14
ENDMDL
MODEL      121
REMARK 921   NORMALIZED FREE ENERGY PREDICTED BY IDOCK:   -5.11 KCAL/MOL
REMARK 922        TOTAL FREE ENERGY PREDICTED BY IDOCK:  -13.84 KCAL/MOL
REMARK 923 INTER-LIGAND FREE ENERGY PREDICTED BY IDOCK:   -9.96 KCAL/MOL
REMARK 924 INTRA-LIGAND FREE ENERGY PREDICTED BY IDOCK:   -3.89 KCAL/MOL
REMARK 927      BINDING AFFINITY PREDICTED BY RF-SCORE:    0.00 PKD
ROOT
HETATM    1  C   UNL     1     -12.315  13.689  65.967  1.00  0.00    -0.493 C  
HETATM    2  C   UNL     1     -11.025  12.948  66.352  1.00  0.00    -0.310 C  
HETATM    3  C   UNL     1     -10.826  12.934  67.899  1.00  0.00    -0.227 C  
HETATM    4  C   UNL     1     -11.059  11.555  65.719  1.00  0.00    -0.272 C  
ENDROOT
BRANCH   3   5
HETATM    5  N   UNL     1     -10.700  14.307  68.443  1.00  0.00    -0.244 N  
HETATM    6  H   UNL     1     -12.176  16.394  70.440  1.00  0.00     0.000 HD 
HETATM    7  O   UNL     1     -12.263  13.977  70.102  1.00  0.00    -0.321 OA 
HETATM    8  C   UNL     1      -9.616  15.179  68.008  1.00  0.00    -0.204 C  
HETATM    9  C   UNL     1     -11.531  14.725  69.461  1.00  0.00    -0.298 C  
HETATM   10  C   UNL     1     -10.177  16.559  67.720  1.00  0.00    -0.278 C  
HETATM   11  N   UNL     1     -11.554  16.070  69.700  1.00  0.00    -0.320 N  
HETATM   12  C   UNL     1     -10.783  17.080  69.006  1.00  0.00    -0.271 C  
ENDBRANCH   3   5
BRANCH   3  13
HETATM   13  C   UNL     1      -9.645  12.008  68.324  1.00  0.00    -0.204 C  
HETATM   14  O   UNL     1      -8.509  12.111  67.877  1.00  0.00    -0.145 OA 
HETATM   15  N   UNL     1      -9.996  10.990  69.188  1.00  0.00    -0.366 N  
HETATM   16  H   UNL     1     -10.959  10.992  69.525  1.00  0.00     0.000 HD 
BRANCH  15  17
HETATM   17  C   UNL     1      -9.140   9.911  69.674  1.00  0.00    -0.227 C  
BRANCH  17  18
HETATM   18  C   UNL     1      -8.695   8.923  68.573  1.00  0.00    -0.134 C  
BRANCH  18  19
HETATM   19  C   UNL     1      -9.640   8.416  67.454  1.00  0.00    -0.157 C  
HETATM   20  O   UNL     1     -10.965   8.284  67.978  1.00  0.00    -0.466 OA 
HETATM   21  H   UNL     1     -11.544   7.973  67.292  1.00  0.00     0.000 HD 
BRANCH  19  22
HETATM   22  C   UNL     1      -9.187   6.996  66.932  1.00  0.00    -0.150 C  
BRANCH  22  23
HETATM   23  N   UNL     1      -7.698   6.872  66.726  1.00  0.00    -0.100 N  
HETATM   24  C   UNL     1      -6.835   6.299  65.817  1.00  0.00    -0.053 C  
HETATM   25  H   UNL     1      -7.186   7.346  67.469  1.00  0.00     0.000 HD 
HETATM   26  O   UNL     1      -5.648   6.638  65.849  1.00  0.00    -0.020 OA 
BRANCH  24  27
HETATM   27  C   UNL     1      -7.318   5.184  64.875  1.00  0.00    -0.067 C  
BRANCH  27  28
HETATM   28  O   UNL     1      -7.009   3.814  65.074  1.00  0.00    -0.054 OA 
BRANCH  28  29
HETATM   29  C   UNL     1      -7.422   3.206  66.252  1.00  0.00    -0.076 A  
HETATM   30  C   UNL     1      -5.285   3.491  67.797  1.00  0.00    -0.012 C  
HETATM   31  C   UNL     1      -6.702   3.090  67.470  1.00  0.00    -0.045 A  
HETATM   32  C   UNL     1      -7.359   2.541  68.599  1.00  0.00    -0.047 A  
HETATM   33  C   UNL     1      -8.670   2.094  68.554  1.00  0.00    -0.127 A  
HETATM   34  C   UNL     1      -9.363   2.167  67.358  1.00  0.00    -0.097 A  
HETATM   35  C   UNL     1      -8.757   2.703  66.205  1.00  0.00    -0.128 A  
HETATM   36  C   UNL     1      -9.588   2.708  64.945  1.00  0.00    -0.035 C  
ENDBRANCH  28  29
ENDBRANCH  27  28
ENDBRANCH  24  27
ENDBRANCH  22  23
BRANCH  22  37
HETATM   37  C   UNL     1      -9.915   5.827  67.649  1.00  0.00    -0.165 C  
BRANCH  37  38
HETATM   38  C   UNL     1      -9.429   5.562  69.047  1.00  0.00    -0.167 A  
HETATM   39  C   UNL     1      -8.581   5.313  71.705  1.00  0.00    -0.135 A  
HETATM   40  C   UNL     1      -8.088   5.765  69.383  1.00  0.00    -0.101 A  
HETATM   41  C   UNL     1      -9.900   5.040  71.366  1.00  0.00    -0.245 A  
HETATM   42  C   UNL     1     -10.305   5.117  70.036  1.00  0.00    -0.347 A  
HETATM   43  C   UNL     1      -7.667   5.640  70.705  1.00  0.00    -0.092 A  
ENDBRANCH  37  38
ENDBRANCH  22  37
ENDBRANCH  19  22
ENDBRANCH  18  19
ENDBRANCH  17  18
BRANCH  17  44
HETATM   44  C   UNL     1      -9.573   9.330  71.038  1.00  0.00    -0.329 C  
BRANCH  44  45
HETATM   45  C   UNL     1     -11.078   9.249  71.215  1.00  0.00    -0.427 A  
HETATM   46  C   UNL     1     -11.878  10.404  71.204  1.00  0.00    -0.432 A  
HETATM   47  C   UNL     1     -11.696   8.010  71.420  1.00  0.00    -0.320 A  
HETATM   48  C   UNL     1     -13.255  10.319  71.435  1.00  0.00    -0.464 A  
HETATM   49  C   UNL     1     -13.073   7.927  71.646  1.00  0.00    -0.361 A  
HETATM   50  C   UNL     1     -13.851   9.081  71.663  1.00  0.00    -0.422 A  
ENDBRANCH  44  45
ENDBRANCH  17  44
ENDBRANCH  15  17
ENDBRANCH   3  13
TORSDOF 14
ENDMDL
MODEL      122
REMARK 921   NORMALIZED FREE ENERGY PREDICTED BY IDOCK:   -5.10 KCAL/MOL
REMARK 922        TOTAL FREE ENERGY PREDICTED BY IDOCK:  -13.83 KCAL/MOL
REMARK 923 INTER-LIGAND FREE ENERGY PREDICTED BY IDOCK:  -11.13 KCAL/MOL
REMARK 924 INTRA-LIGAND FREE ENERGY PREDICTED BY IDOCK:   -2.70 KCAL/MOL
REMARK 927      BINDING AFFINITY PREDICTED BY RF-SCORE:    0.00 PKD
ROOT
HETATM    1  C   UNL     1     -11.292   4.961  73.187  1.00  0.00    -0.395 C  
HETATM    2  C   UNL     1     -10.411   5.000  71.928  1.00  0.00    -0.255 C  
HETATM    3  C   UNL     1      -9.865   6.438  71.669  1.00  0.00    -0.167 C  
HETATM    4  C   UNL     1      -9.319   3.938  72.067  1.00  0.00    -0.186 C  
ENDROOT
BRANCH   3   5
HETATM    5  N   UNL     1     -10.965   7.405  71.443  1.00  0.00    -0.234 N  
HETATM    6  H   UNL     1     -11.770  10.504  71.961  1.00  0.00     0.000 HD 
HETATM    7  O   UNL     1      -9.676   9.248  71.938  1.00  0.00    -0.260 OA 
HETATM    8  C   UNL     1     -12.210   6.977  70.818  1.00  0.00    -0.295 C  
HETATM    9  C   UNL     1     -10.771   8.745  71.704  1.00  0.00    -0.327 C  
HETATM   10  C   UNL     1     -13.378   7.553  71.595  1.00  0.00    -0.414 C  
HETATM   11  N   UNL     1     -11.899   9.514  71.754  1.00  0.00    -0.385 N  
HETATM   12  C   UNL     1     -13.258   9.062  71.542  1.00  0.00    -0.334 C  
ENDBRANCH   3   5
BRANCH   3  13
HETATM   13  C   UNL     1      -8.801   6.459  70.529  1.00  0.00    -0.144 C  
HETATM   14  O   UNL     1      -7.609   6.237  70.711  1.00  0.00    -0.092 OA 
HETATM   15  N   UNL     1      -9.290   6.837  69.294  1.00  0.00    -0.144 N  
HETATM   16  H   UNL     1     -10.297   6.984  69.230  1.00  0.00     0.000 HD 
BRANCH  15  17
HETATM   17  C   UNL     1      -8.522   7.051  68.069  1.00  0.00    -0.125 C  
BRANCH  17  18
HETATM   18  C   UNL     1      -8.544   8.511  67.566  1.00  0.00    -0.128 C  
BRANCH  18  19
HETATM   19  C   UNL     1      -9.531   9.580  68.101  1.00  0.00    -0.133 C  
HETATM   20  O   UNL     1     -10.859   9.047  68.085  1.00  0.00    -0.433 OA 
HETATM   21  H   UNL     1     -11.464   9.702  68.413  1.00  0.00     0.000 HD 
BRANCH  19  22
HETATM   22  C   UNL     1      -9.520  10.867  67.186  1.00  0.00    -0.160 C  
BRANCH  22  23
HETATM   23  N   UNL     1      -8.195  11.587  67.168  1.00  0.00    -0.154 N  
HETATM   24  C   UNL     1      -7.725  12.870  67.347  1.00  0.00    -0.159 C  
HETATM   25  H   UNL     1      -7.431  10.943  66.965  1.00  0.00     0.000 HD 
HETATM   26  O   UNL     1      -6.511  13.028  67.511  1.00  0.00    -0.153 OA 
BRANCH  24  27
HETATM   27  C   UNL     1      -8.673  14.075  67.228  1.00  0.00    -0.218 C  
BRANCH  27  28
HETATM   28  O   UNL     1      -8.748  15.102  68.204  1.00  0.00    -0.161 OA 
BRANCH  28  29
HETATM   29  C   UNL     1      -8.528  16.413  67.805  1.00  0.00    -0.167 A  
HETATM   30  C   UNL     1     -10.219  16.663  65.778  1.00  0.00    -0.328 C  
HETATM   31  C   UNL     1      -9.189  17.132  66.775  1.00  0.00    -0.270 A  
HETATM   32  C   UNL     1      -8.901  18.509  66.613  1.00  0.00    -0.300 A  
HETATM   33  C   UNL     1      -7.982  19.176  67.408  1.00  0.00    -0.283 A  
HETATM   34  C   UNL     1      -7.304  18.472  68.387  1.00  0.00    -0.301 A  
HETATM   35  C   UNL     1      -7.552  17.099  68.590  1.00  0.00    -0.258 A  
HETATM   36  C   UNL     1      -6.738  16.416  69.662  1.00  0.00    -0.145 C  
ENDBRANCH  28  29
ENDBRANCH  27  28
ENDBRANCH  24  27
ENDBRANCH  22  23
BRANCH  22  37
HETATM   37  C   UNL     1     -10.241  10.650  65.828  1.00  0.00    -0.317 C  
BRANCH  37  38
HETATM   38  C   UNL     1     -10.987  11.855  65.325  1.00  0.00    -0.354 A  
HETATM   39  C   UNL     1     -12.585  13.950  64.377  1.00  0.00    -0.213 A  
HETATM   40  C   UNL     1     -11.059  12.125  63.956  1.00  0.00    -0.449 A  
HETATM   41  C   UNL     1     -12.460  13.733  65.743  1.00  0.00    -0.527 A  
HETATM   42  C   UNL     1     -11.626  12.721  66.211  1.00  0.00    -0.433 A  
HETATM   43  C   UNL     1     -11.854  13.168  63.486  1.00  0.00    -0.539 A  
ENDBRANCH  37  38
ENDBRANCH  22  37
ENDBRANCH  19  22
ENDBRANCH  18  19
ENDBRANCH  17  18
BRANCH  17  44
HETATM   44  C   UNL     1      -8.673   5.921  67.028  1.00  0.00    -0.109 C  
BRANCH  44  45
HETATM   45  C   UNL     1      -8.530   4.529  67.615  1.00  0.00    -0.103 A  
HETATM   46  C   UNL     1      -9.650   3.713  67.841  1.00  0.00    -0.180 A  
HETATM   47  C   UNL     1      -7.266   4.042  67.969  1.00  0.00    -0.059 A  
HETATM   48  C   UNL     1      -9.508   2.458  68.444  1.00  0.00    -0.219 A  
HETATM   49  C   UNL     1      -7.126   2.787  68.568  1.00  0.00    -0.048 A  
HETATM   50  C   UNL     1      -8.246   1.999  68.814  1.00  0.00    -0.074 A  
ENDBRANCH  44  45
ENDBRANCH  17  44
ENDBRANCH  15  17
ENDBRANCH   3  13
TORSDOF 14
ENDMDL
MODEL      123
REMARK 921   NORMALIZED FREE ENERGY PREDICTED BY IDOCK:   -5.10 KCAL/MOL
REMARK 922        TOTAL FREE ENERGY PREDICTED BY IDOCK:  -13.82 KCAL/MOL
REMARK 923 INTER-LIGAND FREE ENERGY PREDICTED BY IDOCK:   -8.27 KCAL/MOL
REMARK 924 INTRA-LIGAND FREE ENERGY PREDICTED BY IDOCK:   -5.55 KCAL/MOL
REMARK 927      BINDING AFFINITY PREDICTED BY RF-SCORE:    0.00 PKD
ROOT
HETATM    1  C   UNL     1      -7.124  15.217  67.212  1.00  0.00    -0.187 C  
HETATM    2  C   UNL     1      -7.301  13.865  67.920  1.00  0.00    -0.157 C  
HETATM    3  C   UNL     1      -8.612  13.157  67.459  1.00  0.00    -0.196 C  
HETATM    4  C   UNL     1      -6.037  13.032  67.698  1.00  0.00    -0.151 C  
ENDROOT
BRANCH   3   5
HETATM    5  N   UNL     1      -9.810  13.964  67.789  1.00  0.00    -0.231 N  
HETATM    6  H   UNL     1     -11.686  16.330  66.603  1.00  0.00     0.000 HD 
HETATM    7  O   UNL     1     -10.069  14.769  65.647  1.00  0.00    -0.322 OA 
HETATM    8  C   UNL     1     -10.486  13.797  69.070  1.00  0.00    -0.098 C  
HETATM    9  C   UNL     1     -10.372  14.788  66.837  1.00  0.00    -0.267 C  
HETATM   10  C   UNL     1     -10.796  15.165  69.648  1.00  0.00    -0.297 C  
HETATM   11  N   UNL     1     -11.275  15.705  67.295  1.00  0.00    -0.244 N  
HETATM   12  C   UNL     1     -11.704  15.877  68.667  1.00  0.00    -0.322 C  
ENDBRANCH   3   5
BRANCH   3  13
HETATM   13  C   UNL     1      -8.704  11.696  67.998  1.00  0.00    -0.157 C  
HETATM   14  O   UNL     1      -8.061  11.288  68.959  1.00  0.00    -0.127 OA 
HETATM   15  N   UNL     1      -9.506  10.858  67.250  1.00  0.00    -0.159 N  
HETATM   16  H   UNL     1     -10.018  11.287  66.480  1.00  0.00     0.000 HD 
BRANCH  15  17
HETATM   17  C   UNL     1      -9.702   9.423  67.441  1.00  0.00    -0.159 C  
BRANCH  17  18
HETATM   18  C   UNL     1     -10.891   9.072  68.364  1.00  0.00    -0.062 C  
BRANCH  18  19
HETATM   19  C   UNL     1     -10.828   9.181  69.909  1.00  0.00    -0.228 C  
HETATM   20  O   UNL     1     -10.365  10.486  70.272  1.00  0.00    -0.434 OA 
HETATM   21  H   UNL     1     -10.327  10.553  71.219  1.00  0.00     0.000 HD 
BRANCH  19  22
HETATM   22  C   UNL     1      -9.815   8.129  70.509  1.00  0.00    -0.186 C  
BRANCH  22  23
HETATM   23  N   UNL     1      -9.178   8.569  71.803  1.00  0.00    -0.222 N  
HETATM   24  C   UNL     1      -9.141   8.157  73.118  1.00  0.00    -0.265 C  
HETATM   25  H   UNL     1      -8.616   9.409  71.667  1.00  0.00     0.000 HD 
HETATM   26  O   UNL     1      -8.279   8.643  73.856  1.00  0.00    -0.379 OA 
BRANCH  24  27
HETATM   27  C   UNL     1     -10.219   7.210  73.672  1.00  0.00    -0.359 C  
BRANCH  27  28
HETATM   28  O   UNL     1      -9.914   6.041  74.415  1.00  0.00    -0.225 OA 
BRANCH  28  29
HETATM   29  C   UNL     1      -9.344   4.964  73.751  1.00  0.00    -0.128 A  
HETATM   30  C   UNL     1      -6.753   5.476  73.994  1.00  0.00    -0.080 C  
HETATM   31  C   UNL     1      -7.964   4.672  73.590  1.00  0.00    -0.102 A  
HETATM   32  C   UNL     1      -7.593   3.446  72.984  1.00  0.00    -0.060 A  
HETATM   33  C   UNL     1      -8.526   2.531  72.523  1.00  0.00    -0.064 A  
HETATM   34  C   UNL     1      -9.873   2.828  72.640  1.00  0.00    -0.207 A  
HETATM   35  C   UNL     1     -10.296   4.034  73.234  1.00  0.00    -0.233 A  
HETATM   36  C   UNL     1     -11.785   4.276  73.284  1.00  0.00    -0.093 C  
ENDBRANCH  28  29
ENDBRANCH  27  28
ENDBRANCH  24  27
ENDBRANCH  22  23
BRANCH  22  37
HETATM   37  C   UNL     1     -10.339   6.670  70.424  1.00  0.00    -0.231 C  
BRANCH  37  38
HETATM   38  C   UNL     1      -9.295   5.661  70.031  1.00  0.00    -0.183 A  
HETATM   39  C   UNL     1      -7.343   3.898  69.069  1.00  0.00    -0.054 A  
HETATM   40  C   UNL     1      -9.666   4.450  69.440  1.00  0.00    -0.267 A  
HETATM   41  C   UNL     1      -6.967   5.066  69.720  1.00  0.00    -0.053 A  
HETATM   42  C   UNL     1      -7.941   5.915  70.240  1.00  0.00    -0.106 A  
HETATM   43  C   UNL     1      -8.694   3.574  68.963  1.00  0.00    -0.139 A  
ENDBRANCH  37  38
ENDBRANCH  22  37
ENDBRANCH  19  22
ENDBRANCH  18  19
ENDBRANCH  17  18
BRANCH  17  44
HETATM   44  C   UNL     1      -8.390   8.626  67.613  1.00  0.00    -0.121 C  
BRANCH  44  45
HETATM   45  C   UNL     1      -8.392   7.290  66.894  1.00  0.00    -0.118 A  
HETATM   46  C   UNL     1      -7.194   6.674  66.495  1.00  0.00    -0.073 A  
HETATM   47  C   UNL     1      -9.602   6.655  66.592  1.00  0.00    -0.207 A  
HETATM   48  C   UNL     1      -7.215   5.474  65.775  1.00  0.00    -0.068 A  
HETATM   49  C   UNL     1      -9.621   5.455  65.876  1.00  0.00    -0.116 A  
HETATM   50  C   UNL     1      -8.430   4.869  65.459  1.00  0.00    -0.130 A  
ENDBRANCH  44  45
ENDBRANCH  17  44
ENDBRANCH  15  17
ENDBRANCH   3  13
TORSDOF 14
ENDMDL
MODEL      124
REMARK 921   NORMALIZED FREE ENERGY PREDICTED BY IDOCK:   -5.09 KCAL/MOL
REMARK 922        TOTAL FREE ENERGY PREDICTED BY IDOCK:  -13.81 KCAL/MOL
REMARK 923 INTER-LIGAND FREE ENERGY PREDICTED BY IDOCK:  -10.54 KCAL/MOL
REMARK 924 INTRA-LIGAND FREE ENERGY PREDICTED BY IDOCK:   -3.27 KCAL/MOL
REMARK 927      BINDING AFFINITY PREDICTED BY RF-SCORE:    0.00 PKD
ROOT
HETATM    1  C   UNL     1      -7.806   7.108  64.187  1.00  0.00    -0.113 C  
HETATM    2  C   UNL     1      -7.761   7.223  65.718  1.00  0.00    -0.099 C  
HETATM    3  C   UNL     1      -7.046   5.991  66.353  1.00  0.00    -0.068 C  
HETATM    4  C   UNL     1      -7.124   8.565  66.086  1.00  0.00    -0.077 C  
ENDROOT
BRANCH   3   5
HETATM    5  N   UNL     1      -7.762   4.730  66.047  1.00  0.00    -0.090 N  
HETATM    6  H   UNL     1      -7.238   1.686  65.057  1.00  0.00     0.000 HD 
HETATM    7  O   UNL     1      -5.848   3.450  66.018  1.00  0.00    -0.021 OA 
HETATM    8  C   UNL     1      -9.216   4.666  66.128  1.00  0.00    -0.140 C  
HETATM    9  C   UNL     1      -7.052   3.573  65.809  1.00  0.00    -0.063 C  
HETATM   10  C   UNL     1      -9.749   3.944  64.905  1.00  0.00    -0.188 C  
HETATM   11  N   UNL     1      -7.755   2.542  65.253  1.00  0.00    -0.076 N  
HETATM   12  C   UNL     1      -9.163   2.547  64.912  1.00  0.00    -0.133 C  
ENDBRANCH   3   5
BRANCH   3  13
HETATM   13  C   UNL     1      -6.797   6.186  67.880  1.00  0.00    -0.066 C  
HETATM   14  O   UNL     1      -5.700   6.051  68.411  1.00  0.00    -0.011 OA 
HETATM   15  N   UNL     1      -7.935   6.442  68.620  1.00  0.00    -0.105 N  
HETATM   16  H   UNL     1      -8.801   6.558  68.094  1.00  0.00     0.000 HD 
BRANCH  15  17
HETATM   17  C   UNL     1      -8.035   6.563  70.072  1.00  0.00    -0.116 C  
BRANCH  17  18
HETATM   18  C   UNL     1      -7.333   7.815  70.644  1.00  0.00    -0.065 C  
BRANCH  18  19
HETATM   19  C   UNL     1      -7.733   9.263  70.260  1.00  0.00    -0.129 C  
HETATM   20  O   UNL     1      -7.084  10.182  71.145  1.00  0.00    -0.298 OA 
HETATM   21  H   UNL     1      -7.329  11.070  70.910  1.00  0.00     0.000 HD 
BRANCH  19  22
HETATM   22  C   UNL     1      -9.290   9.476  70.405  1.00  0.00    -0.257 C  
BRANCH  22  23
HETATM   23  N   UNL     1     -10.079   9.020  69.203  1.00  0.00    -0.190 N  
HETATM   24  C   UNL     1     -10.664   9.583  68.089  1.00  0.00    -0.197 C  
HETATM   25  H   UNL     1     -10.220   8.010  69.220  1.00  0.00     0.000 HD 
HETATM   26  O   UNL     1     -11.013   8.832  67.173  1.00  0.00    -0.105 OA 
BRANCH  24  27
HETATM   27  C   UNL     1     -10.976  11.088  68.045  1.00  0.00    -0.258 C  
BRANCH  27  28
HETATM   28  O   UNL     1     -11.839  11.672  67.082  1.00  0.00    -0.608 OA 
BRANCH  28  29
HETATM   29  C   UNL     1     -11.581  12.969  66.660  1.00  0.00    -0.359 A  
HETATM   30  C   UNL     1     -11.874  14.346  68.907  1.00  0.00    -0.355 C  
HETATM   31  C   UNL     1     -11.548  14.149  67.448  1.00  0.00    -0.399 A  
HETATM   32  C   UNL     1     -11.137  15.361  66.841  1.00  0.00    -0.256 A  
HETATM   33  C   UNL     1     -10.786  15.442  65.502  1.00  0.00    -0.397 A  
HETATM   34  C   UNL     1     -10.855  14.303  64.720  1.00  0.00    -0.420 A  
HETATM   35  C   UNL     1     -11.258  13.071  65.273  1.00  0.00    -0.316 A  
HETATM   36  C   UNL     1     -11.331  11.897  64.328  1.00  0.00    -0.425 C  
ENDBRANCH  28  29
ENDBRANCH  27  28
ENDBRANCH  24  27
ENDBRANCH  22  23
BRANCH  22  37
HETATM   37  C   UNL     1      -9.826   9.085  71.809  1.00  0.00    -0.330 C  
BRANCH  37  38
HETATM   38  C   UNL     1     -11.278   8.690  71.828  1.00  0.00    -0.396 A  
HETATM   39  C   UNL     1     -13.975   7.972  71.608  1.00  0.00    -0.474 A  
HETATM   40  C   UNL     1     -12.277   9.663  71.910  1.00  0.00    -0.413 A  
HETATM   41  C   UNL     1     -12.990   6.992  71.599  1.00  0.00    -0.400 A  
HETATM   42  C   UNL     1     -11.654   7.350  71.758  1.00  0.00    -0.305 A  
HETATM   43  C   UNL     1     -13.619   9.304  71.801  1.00  0.00    -0.465 A  
ENDBRANCH  37  38
ENDBRANCH  22  37
ENDBRANCH  19  22
ENDBRANCH  18  19
ENDBRANCH  17  18
BRANCH  17  44
HETATM   44  C   UNL     1      -7.865   5.228  70.828  1.00  0.00    -0.093 C  
BRANCH  44  45
HETATM   45  C   UNL     1      -8.835   5.054  71.982  1.00  0.00    -0.139 A  
HETATM   46  C   UNL     1      -8.682   5.772  73.180  1.00  0.00    -0.122 A  
HETATM   47  C   UNL     1      -9.895   4.146  71.879  1.00  0.00    -0.251 A  
HETATM   48  C   UNL     1      -9.545   5.552  74.258  1.00  0.00    -0.160 A  
HETATM   49  C   UNL     1     -10.759   3.930  72.956  1.00  0.00    -0.241 A  
HETATM   50  C   UNL     1     -10.579   4.625  74.149  1.00  0.00    -0.348 A  
ENDBRANCH  44  45
ENDBRANCH  17  44
ENDBRANCH  15  17
ENDBRANCH   3  13
TORSDOF 14
ENDMDL
MODEL      125
REMARK 921   NORMALIZED FREE ENERGY PREDICTED BY IDOCK:   -5.08 KCAL/MOL
REMARK 922        TOTAL FREE ENERGY PREDICTED BY IDOCK:  -13.80 KCAL/MOL
REMARK 923 INTER-LIGAND FREE ENERGY PREDICTED BY IDOCK:  -11.38 KCAL/MOL
REMARK 924 INTRA-LIGAND FREE ENERGY PREDICTED BY IDOCK:   -2.42 KCAL/MOL
REMARK 927      BINDING AFFINITY PREDICTED BY RF-SCORE:    0.00 PKD
ROOT
HETATM    1  C   UNL     1     -12.142  14.686  64.249  1.00  0.00    -0.437 C  
HETATM    2  C   UNL     1     -10.975  13.832  64.771  1.00  0.00    -0.396 C  
HETATM    3  C   UNL     1     -10.868  13.917  66.324  1.00  0.00    -0.290 C  
HETATM    4  C   UNL     1     -11.140  12.407  64.238  1.00  0.00    -0.399 C  
ENDROOT
BRANCH   3   5
HETATM    5  N   UNL     1     -10.609  15.304  66.776  1.00  0.00    -0.299 N  
HETATM    6  H   UNL     1     -11.501  17.447  69.042  1.00  0.00     0.000 HD 
HETATM    7  O   UNL     1     -11.659  15.022  68.806  1.00  0.00    -0.303 OA 
HETATM    8  C   UNL     1      -9.691  16.164  66.039  1.00  0.00    -0.344 C  
HETATM    9  C   UNL     1     -11.134  15.751  67.970  1.00  0.00    -0.337 C  
HETATM   10  C   UNL     1     -10.318  17.535  65.877  1.00  0.00    -0.265 C  
HETATM   11  N   UNL     1     -11.101  17.102  68.170  1.00  0.00    -0.233 N  
HETATM   12  C   UNL     1     -10.556  18.092  67.265  1.00  0.00    -0.367 C  
ENDBRANCH   3   5
BRANCH   3  13
HETATM   13  C   UNL     1      -9.835  12.896  66.892  1.00  0.00    -0.235 C  
HETATM   14  O   UNL     1      -8.630  12.961  66.675  1.00  0.00    -0.121 OA 
HETATM   15  N   UNL     1     -10.391  11.847  67.595  1.00  0.00    -0.198 N  
HETATM   16  H   UNL     1     -11.399  11.883  67.744  1.00  0.00     0.000 HD 
BRANCH  15  17
HETATM   17  C   UNL     1      -9.694  10.688  68.150  1.00  0.00    -0.156 C  
BRANCH  17  18
HETATM   18  C   UNL     1      -8.600  10.115  67.222  1.00  0.00    -0.125 C  
BRANCH  18  19
HETATM   19  C   UNL     1      -8.908   9.214  65.999  1.00  0.00    -0.168 C  
HETATM   20  O   UNL     1     -10.316   9.230  65.744  1.00  0.00    -0.268 OA 
HETATM   21  H   UNL     1     -10.506   8.678  64.994  1.00  0.00     0.000 HD 
BRANCH  19  22
HETATM   22  C   UNL     1      -8.488   7.718  66.279  1.00  0.00    -0.141 C  
BRANCH  22  23
HETATM   23  N   UNL     1      -7.193   7.584  67.041  1.00  0.00    -0.083 N  
HETATM   24  C   UNL     1      -6.788   7.297  68.326  1.00  0.00    -0.070 C  
HETATM   25  H   UNL     1      -6.392   7.754  66.434  1.00  0.00     0.000 HD 
HETATM   26  O   UNL     1      -5.599   7.022  68.514  1.00  0.00    -0.016 OA 
BRANCH  24  27
HETATM   27  C   UNL     1      -7.766   7.434  69.505  1.00  0.00    -0.108 C  
BRANCH  27  28
HETATM   28  O   UNL     1      -7.941   6.426  70.488  1.00  0.00    -0.108 OA 
BRANCH  28  29
HETATM   29  C   UNL     1      -8.928   6.600  71.448  1.00  0.00    -0.139 A  
HETATM   30  C   UNL     1     -11.133   6.076  70.071  1.00  0.00    -0.451 C  
HETATM   31  C   UNL     1     -10.327   6.411  71.302  1.00  0.00    -0.244 A  
HETATM   32  C   UNL     1     -11.152   6.519  72.448  1.00  0.00    -0.293 A  
HETATM   33  C   UNL     1     -10.648   6.824  73.703  1.00  0.00    -0.347 A  
HETATM   34  C   UNL     1      -9.290   7.049  73.844  1.00  0.00    -0.264 A  
HETATM   35  C   UNL     1      -8.424   6.955  72.736  1.00  0.00    -0.126 A  
HETATM   36  C   UNL     1      -6.966   7.250  72.990  1.00  0.00    -0.068 C  
ENDBRANCH  28  29
ENDBRANCH  27  28
ENDBRANCH  24  27
ENDBRANCH  22  23
BRANCH  22  37
HETATM   37  C   UNL     1      -9.680   6.827  66.721  1.00  0.00    -0.222 C  
BRANCH  37  38
HETATM   38  C   UNL     1      -9.492   5.361  66.445  1.00  0.00    -0.164 A  
HETATM   39  C   UNL     1      -8.893   2.663  65.992  1.00  0.00    -0.136 A  
HETATM   40  C   UNL     1      -9.154   4.918  65.164  1.00  0.00    -0.146 A  
HETATM   41  C   UNL     1      -9.298   3.085  67.252  1.00  0.00    -0.198 A  
HETATM   42  C   UNL     1      -9.642   4.418  67.461  1.00  0.00    -0.213 A  
HETATM   43  C   UNL     1      -8.857   3.575  64.940  1.00  0.00    -0.122 A  
ENDBRANCH  37  38
ENDBRANCH  22  37
ENDBRANCH  19  22
ENDBRANCH  18  19
ENDBRANCH  17  18
BRANCH  17  44
HETATM   44  C   UNL     1     -10.617   9.692  68.885  1.00  0.00    -0.239 C  
BRANCH  44  45
HETATM   45  C   UNL     1     -11.524  10.347  69.910  1.00  0.00    -0.368 A  
HETATM   46  C   UNL     1     -11.749  11.734  69.907  1.00  0.00    -0.399 A  
HETATM   47  C   UNL     1     -12.139   9.573  70.901  1.00  0.00    -0.357 A  
HETATM   48  C   UNL     1     -12.535  12.331  70.898  1.00  0.00    -0.371 A  
HETATM   49  C   UNL     1     -12.928  10.170  71.888  1.00  0.00    -0.549 A  
HETATM   50  C   UNL     1     -13.119  11.549  71.893  1.00  0.00    -0.492 A  
ENDBRANCH  44  45
ENDBRANCH  17  44
ENDBRANCH  15  17
ENDBRANCH   3  13
TORSDOF 14
ENDMDL
MODEL      126
REMARK 921   NORMALIZED FREE ENERGY PREDICTED BY IDOCK:   -5.08 KCAL/MOL
REMARK 922        TOTAL FREE ENERGY PREDICTED BY IDOCK:  -13.79 KCAL/MOL
REMARK 923 INTER-LIGAND FREE ENERGY PREDICTED BY IDOCK:  -11.97 KCAL/MOL
REMARK 924 INTRA-LIGAND FREE ENERGY PREDICTED BY IDOCK:   -1.82 KCAL/MOL
REMARK 927      BINDING AFFINITY PREDICTED BY RF-SCORE:    0.00 PKD
ROOT
HETATM    1  C   UNL     1     -10.866   8.000  72.882  1.00  0.00    -0.399 C  
HETATM    2  C   UNL     1     -10.719   8.903  71.648  1.00  0.00    -0.418 C  
HETATM    3  C   UNL     1     -10.017   8.146  70.478  1.00  0.00    -0.187 C  
HETATM    4  C   UNL     1     -12.098   9.458  71.286  1.00  0.00    -0.424 C  
ENDROOT
BRANCH   3   5
HETATM    5  N   UNL     1      -8.648   7.719  70.851  1.00  0.00    -0.127 N  
HETATM    6  H   UNL     1      -6.738   5.099  70.935  1.00  0.00     0.000 HD 
HETATM    7  O   UNL     1      -8.802   5.691  69.772  1.00  0.00    -0.121 OA 
HETATM    8  C   UNL     1      -7.711   8.668  71.438  1.00  0.00    -0.122 C  
HETATM    9  C   UNL     1      -8.207   6.453  70.528  1.00  0.00    -0.118 C  
HETATM   10  C   UNL     1      -7.020   8.016  72.620  1.00  0.00    -0.100 C  
HETATM   11  N   UNL     1      -7.066   6.039  71.154  1.00  0.00    -0.071 N  
HETATM   12  C   UNL     1      -6.277   6.803  72.098  1.00  0.00    -0.042 C  
ENDBRANCH   3   5
BRANCH   3  13
HETATM   13  C   UNL     1     -10.052   8.966  69.152  1.00  0.00    -0.197 C  
HETATM   14  O   UNL     1     -11.081   9.419  68.663  1.00  0.00    -0.089 OA 
HETATM   15  N   UNL     1      -8.834   9.073  68.511  1.00  0.00    -0.133 N  
HETATM   16  H   UNL     1      -8.028   8.684  68.999  1.00  0.00     0.000 HD 
BRANCH  15  17
HETATM   17  C   UNL     1      -8.573   9.683  67.209  1.00  0.00    -0.132 C  
BRANCH  17  18
HETATM   18  C   UNL     1      -8.741  11.218  67.194  1.00  0.00    -0.151 C  
BRANCH  18  19
HETATM   19  C   UNL     1      -7.559  12.205  67.369  1.00  0.00    -0.155 C  
HETATM   20  O   UNL     1      -6.635  11.671  68.323  1.00  0.00    -0.056 OA 
HETATM   21  H   UNL     1      -5.910  12.276  68.431  1.00  0.00     0.000 HD 
BRANCH  19  22
HETATM   22  C   UNL     1      -8.062  13.598  67.916  1.00  0.00    -0.164 C  
BRANCH  22  23
HETATM   23  N   UNL     1      -7.470  14.783  67.195  1.00  0.00    -0.281 N  
HETATM   24  C   UNL     1      -6.851  15.972  67.516  1.00  0.00    -0.176 C  
HETATM   25  H   UNL     1      -7.550  14.674  66.184  1.00  0.00     0.000 HD 
HETATM   26  O   UNL     1      -6.260  16.582  66.620  1.00  0.00    -0.297 OA 
BRANCH  24  27
HETATM   27  C   UNL     1      -6.997  16.575  68.924  1.00  0.00    -0.191 C  
BRANCH  27  28
HETATM   28  O   UNL     1      -7.418  17.910  69.154  1.00  0.00    -0.206 OA 
BRANCH  28  29
HETATM   29  C   UNL     1      -8.500  18.397  68.433  1.00  0.00    -0.326 A  
HETATM   30  C   UNL     1     -10.499  16.939  69.388  1.00  0.00    -0.283 C  
HETATM   31  C   UNL     1      -9.863  18.019  68.548  1.00  0.00    -0.383 A  
HETATM   32  C   UNL     1     -10.833  18.735  67.804  1.00  0.00    -0.333 A  
HETATM   33  C   UNL     1     -10.499  19.776  66.952  1.00  0.00    -0.596 A  
HETATM   34  C   UNL     1      -9.167  20.122  66.805  1.00  0.00    -0.487 A  
HETATM   35  C   UNL     1      -8.162  19.443  67.522  1.00  0.00    -0.321 A  
HETATM   36  C   UNL     1      -6.739  19.876  67.266  1.00  0.00    -0.239 C  
ENDBRANCH  28  29
ENDBRANCH  27  28
ENDBRANCH  24  27
ENDBRANCH  22  23
BRANCH  22  37
HETATM   37  C   UNL     1      -9.587  13.619  68.204  1.00  0.00    -0.221 C  
BRANCH  37  38
HETATM   38  C   UNL     1     -10.438  13.945  67.007  1.00  0.00    -0.278 A  
HETATM   39  C   UNL     1     -11.878  14.383  64.645  1.00  0.00    -0.460 A  
HETATM   40  C   UNL     1     -10.084  14.988  66.147  1.00  0.00    -0.312 A  
HETATM   41  C   UNL     1     -12.278  13.391  65.531  1.00  0.00    -0.499 A  
HETATM   42  C   UNL     1     -11.589  13.209  66.727  1.00  0.00    -0.414 A  
HETATM   43  C   UNL     1     -10.802  15.206  64.973  1.00  0.00    -0.457 A  
ENDBRANCH  37  38
ENDBRANCH  22  37
ENDBRANCH  19  22
ENDBRANCH  18  19
ENDBRANCH  17  18
BRANCH  17  44
HETATM   44  C   UNL     1      -9.131   8.879  66.015  1.00  0.00    -0.265 C  
BRANCH  44  45
HETATM   45  C   UNL     1      -9.137   9.653  64.710  1.00  0.00    -0.283 A  
HETATM   46  C   UNL     1      -8.155   9.440  63.729  1.00  0.00    -0.155 A  
HETATM   47  C   UNL     1     -10.119  10.622  64.472  1.00  0.00    -0.421 A  
HETATM   48  C   UNL     1      -8.135  10.208  62.560  1.00  0.00    -0.158 A  
HETATM   49  C   UNL     1     -10.101  11.386  63.302  1.00  0.00    -0.424 A  
HETATM   50  C   UNL     1      -9.104  11.187  62.350  1.00  0.00    -0.292 A  
ENDBRANCH  44  45
ENDBRANCH  17  44
ENDBRANCH  15  17
ENDBRANCH   3  13
TORSDOF 14
ENDMDL
MODEL      127
REMARK 921   NORMALIZED FREE ENERGY PREDICTED BY IDOCK:   -5.07 KCAL/MOL
REMARK 922        TOTAL FREE ENERGY PREDICTED BY IDOCK:  -13.77 KCAL/MOL
REMARK 923 INTER-LIGAND FREE ENERGY PREDICTED BY IDOCK:  -10.25 KCAL/MOL
REMARK 924 INTRA-LIGAND FREE ENERGY PREDICTED BY IDOCK:   -3.53 KCAL/MOL
REMARK 927      BINDING AFFINITY PREDICTED BY RF-SCORE:    0.00 PKD
ROOT
HETATM    1  C   UNL     1     -11.978  13.201  63.857  1.00  0.00    -0.550 C  
HETATM    2  C   UNL     1     -10.823  12.537  64.622  1.00  0.00    -0.343 C  
HETATM    3  C   UNL     1     -11.129  12.467  66.150  1.00  0.00    -0.298 C  
HETATM    4  C   UNL     1     -10.538  11.175  63.985  1.00  0.00    -0.436 C  
ENDROOT
BRANCH   3   5
HETATM    5  N   UNL     1     -11.297  13.819  66.733  1.00  0.00    -0.319 N  
HETATM    6  H   UNL     1      -9.764  16.660  67.046  1.00  0.00     0.000 HD 
HETATM    7  O   UNL     1      -9.527  14.727  65.574  1.00  0.00    -0.216 OA 
HETATM    8  C   UNL     1     -12.490  14.151  67.502  1.00  0.00     0.135 C  
HETATM    9  C   UNL     1     -10.387  14.814  66.445  1.00  0.00    -0.293 C  
HETATM   10  C   UNL     1     -12.079  14.892  68.759  1.00  0.00    -0.212 C  
HETATM   11  N   UNL     1     -10.442  15.924  67.239  1.00  0.00    -0.305 N  
HETATM   12  C   UNL     1     -11.367  16.157  68.328  1.00  0.00    -0.316 C  
ENDBRANCH   3   5
BRANCH   3  13
HETATM   13  C   UNL     1     -10.075  11.609  66.915  1.00  0.00    -0.211 C  
HETATM   14  O   UNL     1      -8.864  11.741  66.775  1.00  0.00    -0.180 OA 
HETATM   15  N   UNL     1     -10.610  10.614  67.708  1.00  0.00    -0.217 N  
HETATM   16  H   UNL     1     -11.627  10.590  67.782  1.00  0.00     0.000 HD 
BRANCH  15  17
HETATM   17  C   UNL     1      -9.880   9.592  68.455  1.00  0.00    -0.158 C  
BRANCH  17  18
HETATM   18  C   UNL     1     -10.334   8.149  68.145  1.00  0.00    -0.251 C  
BRANCH  18  19
HETATM   19  C   UNL     1     -10.250   7.516  66.732  1.00  0.00    -0.254 C  
HETATM   20  O   UNL     1     -11.070   6.344  66.690  1.00  0.00    -0.656 OA 
HETATM   21  H   UNL     1     -11.019   5.956  65.824  1.00  0.00     0.000 HD 
BRANCH  19  22
HETATM   22  C   UNL     1      -8.771   7.079  66.396  1.00  0.00    -0.142 C  
BRANCH  22  23
HETATM   23  N   UNL     1      -8.539   5.592  66.498  1.00  0.00    -0.118 N  
HETATM   24  C   UNL     1      -8.426   4.639  67.488  1.00  0.00    -0.104 C  
HETATM   25  H   UNL     1      -8.436   5.174  65.574  1.00  0.00     0.000 HD 
HETATM   26  O   UNL     1      -8.493   3.451  67.161  1.00  0.00    -0.096 OA 
BRANCH  24  27
HETATM   27  C   UNL     1      -8.106   5.048  68.935  1.00  0.00    -0.084 C  
BRANCH  27  28
HETATM   28  O   UNL     1      -8.989   5.819  69.735  1.00  0.00    -0.127 OA 
BRANCH  28  29
HETATM   29  C   UNL     1      -8.597   6.151  71.024  1.00  0.00    -0.132 A  
HETATM   30  C   UNL     1      -6.627   7.868  70.574  1.00  0.00    -0.037 C  
HETATM   31  C   UNL     1      -7.595   7.077  71.418  1.00  0.00    -0.086 A  
HETATM   32  C   UNL     1      -7.438   7.366  72.795  1.00  0.00    -0.086 A  
HETATM   33  C   UNL     1      -8.212   6.763  73.775  1.00  0.00    -0.124 A  
HETATM   34  C   UNL     1      -9.162   5.829  73.401  1.00  0.00    -0.132 A  
HETATM   35  C   UNL     1      -9.359   5.505  72.044  1.00  0.00    -0.164 A  
HETATM   36  C   UNL     1     -10.397   4.451  71.745  1.00  0.00    -0.141 C  
ENDBRANCH  28  29
ENDBRANCH  27  28
ENDBRANCH  24  27
ENDBRANCH  22  23
BRANCH  22  37
HETATM   37  C   UNL     1      -8.189   7.816  65.160  1.00  0.00    -0.135 C  
BRANCH  37  38
HETATM   38  C   UNL     1      -7.128   8.831  65.487  1.00  0.00    -0.083 A  
HETATM   39  C   UNL     1      -5.343  10.892  66.126  1.00  0.00    -0.121 A  
HETATM   40  C   UNL     1      -6.539   9.593  64.476  1.00  0.00    -0.102 A  
HETATM   41  C   UNL     1      -5.870  10.090  67.130  1.00  0.00    -0.050 A  
HETATM   42  C   UNL     1      -6.718   9.036  66.804  1.00  0.00    -0.076 A  
HETATM   43  C   UNL     1      -5.651  10.618  64.795  1.00  0.00    -0.089 A  
ENDBRANCH  37  38
ENDBRANCH  22  37
ENDBRANCH  19  22
ENDBRANCH  18  19
ENDBRANCH  17  18
BRANCH  17  44
HETATM   44  C   UNL     1      -9.603   9.966  69.927  1.00  0.00    -0.265 C  
BRANCH  44  45
HETATM   45  C   UNL     1     -10.780   9.712  70.850  1.00  0.00    -0.402 A  
HETATM   46  C   UNL     1     -10.785   8.633  71.749  1.00  0.00    -0.392 A  
HETATM   47  C   UNL     1     -11.904  10.545  70.801  1.00  0.00    -0.465 A  
HETATM   48  C   UNL     1     -11.905   8.374  72.547  1.00  0.00    -0.427 A  
HETATM   49  C   UNL     1     -13.021  10.287  71.601  1.00  0.00    -0.570 A  
HETATM   50  C   UNL     1     -13.026   9.197  72.467  1.00  0.00    -0.416 A  
ENDBRANCH  44  45
ENDBRANCH  17  44
ENDBRANCH  15  17
ENDBRANCH   3  13
TORSDOF 14
ENDMDL
MODEL      128
REMARK 921   NORMALIZED FREE ENERGY PREDICTED BY IDOCK:   -5.04 KCAL/MOL
REMARK 922        TOTAL FREE ENERGY PREDICTED BY IDOCK:  -13.72 KCAL/MOL
REMARK 923 INTER-LIGAND FREE ENERGY PREDICTED BY IDOCK:  -10.90 KCAL/MOL
REMARK 924 INTRA-LIGAND FREE ENERGY PREDICTED BY IDOCK:   -2.83 KCAL/MOL
REMARK 927      BINDING AFFINITY PREDICTED BY RF-SCORE:    0.00 PKD
ROOT
HETATM    1  C   UNL     1      -9.670  11.338  63.159  1.00  0.00    -0.408 C  
HETATM    2  C   UNL     1      -9.546  10.964  64.644  1.00  0.00    -0.305 C  
HETATM    3  C   UNL     1     -10.864  11.282  65.415  1.00  0.00    -0.188 C  
HETATM    4  C   UNL     1      -9.108   9.502  64.742  1.00  0.00    -0.271 C  
ENDROOT
BRANCH   3   5
HETATM    5  N   UNL     1     -11.185  12.728  65.370  1.00  0.00    -0.285 N  
HETATM    6  H   UNL     1     -13.391  14.806  64.215  1.00  0.00     0.000 HD 
HETATM    7  O   UNL     1     -13.342  12.401  64.634  1.00  0.00    -0.778 OA 
HETATM    8  C   UNL     1     -10.285  13.705  65.970  1.00  0.00    -0.307 C  
HETATM    9  C   UNL     1     -12.401  13.150  64.876  1.00  0.00    -0.441 C  
HETATM   10  C   UNL     1     -10.107  14.867  65.012  1.00  0.00    -0.300 C  
HETATM   11  N   UNL     1     -12.502  14.484  64.596  1.00  0.00    -0.399 N  
HETATM   12  C   UNL     1     -11.472  15.483  64.787  1.00  0.00    -0.313 C  
ENDBRANCH   3   5
BRANCH   3  13
HETATM   13  C   UNL     1     -10.838  10.716  66.868  1.00  0.00    -0.205 C  
HETATM   14  O   UNL     1     -11.010   9.532  67.136  1.00  0.00    -0.168 OA 
HETATM   15  N   UNL     1     -10.692  11.670  67.854  1.00  0.00    -0.193 N  
HETATM   16  H   UNL     1     -10.535  12.628  67.540  1.00  0.00     0.000 HD 
BRANCH  15  17
HETATM   17  C   UNL     1     -10.738  11.460  69.300  1.00  0.00    -0.151 C  
BRANCH  17  18
HETATM   18  C   UNL     1      -9.802  10.337  69.798  1.00  0.00    -0.201 C  
BRANCH  18  19
HETATM   19  C   UNL     1      -8.293  10.271  69.447  1.00  0.00    -0.161 C  
HETATM   20  O   UNL     1      -7.985  11.290  68.490  1.00  0.00    -0.130 OA 
HETATM   21  H   UNL     1      -7.060  11.249  68.275  1.00  0.00     0.000 HD 
BRANCH  19  22
HETATM   22  C   UNL     1      -7.924   8.879  68.801  1.00  0.00    -0.102 C  
BRANCH  22  23
HETATM   23  N   UNL     1      -7.031   8.988  67.591  1.00  0.00    -0.074 N  
HETATM   24  C   UNL     1      -6.329   8.144  66.757  1.00  0.00    -0.055 C  
HETATM   25  H   UNL     1      -6.915   9.961  67.309  1.00  0.00     0.000 HD 
HETATM   26  O   UNL     1      -5.908   8.599  65.689  1.00  0.00    -0.049 OA 
BRANCH  24  27
HETATM   27  C   UNL     1      -5.980   6.714  67.204  1.00  0.00    -0.021 C  
BRANCH  27  28
HETATM   28  O   UNL     1      -6.538   5.558  66.601  1.00  0.00    -0.052 OA 
BRANCH  28  29
HETATM   29  C   UNL     1      -7.424   4.786  67.341  1.00  0.00    -0.082 A  
HETATM   30  C   UNL     1      -9.656   5.005  65.927  1.00  0.00    -0.176 C  
HETATM   31  C   UNL     1      -8.781   4.494  67.044  1.00  0.00    -0.104 A  
HETATM   32  C   UNL     1      -9.476   3.576  67.869  1.00  0.00    -0.220 A  
HETATM   33  C   UNL     1      -8.887   2.969  68.967  1.00  0.00    -0.155 A  
HETATM   34  C   UNL     1      -7.577   3.281  69.286  1.00  0.00    -0.048 A  
HETATM   35  C   UNL     1      -6.840   4.188  68.499  1.00  0.00    -0.047 A  
HETATM   36  C   UNL     1      -5.430   4.484  68.949  1.00  0.00    -0.012 C  
ENDBRANCH  28  29
ENDBRANCH  27  28
ENDBRANCH  24  27
ENDBRANCH  22  23
BRANCH  22  37
HETATM   37  C   UNL     1      -7.574   7.796  69.858  1.00  0.00    -0.090 C  
BRANCH  37  38
HETATM   38  C   UNL     1      -8.757   7.007  70.349  1.00  0.00    -0.147 A  
HETATM   39  C   UNL     1     -10.875   5.343  71.117  1.00  0.00    -0.188 A  
HETATM   40  C   UNL     1      -9.971   7.046  69.659  1.00  0.00    -0.177 A  
HETATM   41  C   UNL     1      -9.695   5.353  71.850  1.00  0.00    -0.204 A  
HETATM   42  C   UNL     1      -8.663   6.217  71.494  1.00  0.00    -0.135 A  
HETATM   43  C   UNL     1     -11.024   6.218  70.043  1.00  0.00    -0.422 A  
ENDBRANCH  37  38
ENDBRANCH  22  37
ENDBRANCH  19  22
ENDBRANCH  18  19
ENDBRANCH  17  18
BRANCH  17  44
HETATM   44  C   UNL     1     -12.158  11.542  69.902  1.00  0.00    -0.389 C  
BRANCH  44  45
HETATM   45  C   UNL     1     -12.464  12.874  70.560  1.00  0.00    -0.294 A  
HETATM   46  C   UNL     1     -13.056  12.942  71.832  1.00  0.00    -0.474 A  
HETATM   47  C   UNL     1     -12.182  14.071  69.890  1.00  0.00    -0.399 A  
HETATM   48  C   UNL     1     -13.392  14.177  72.397  1.00  0.00    -0.591 A  
HETATM   49  C   UNL     1     -12.516  15.304  70.457  1.00  0.00    -0.454 A  
HETATM   50  C   UNL     1     -13.129  15.358  71.706  1.00  0.00    -0.529 A  
ENDBRANCH  44  45
ENDBRANCH  17  44
ENDBRANCH  15  17
ENDBRANCH   3  13
TORSDOF 14
ENDMDL
MODEL      129
REMARK 921   NORMALIZED FREE ENERGY PREDICTED BY IDOCK:   -5.01 KCAL/MOL
REMARK 922        TOTAL FREE ENERGY PREDICTED BY IDOCK:  -13.67 KCAL/MOL
REMARK 923 INTER-LIGAND FREE ENERGY PREDICTED BY IDOCK:  -11.51 KCAL/MOL
REMARK 924 INTRA-LIGAND FREE ENERGY PREDICTED BY IDOCK:   -2.16 KCAL/MOL
REMARK 927      BINDING AFFINITY PREDICTED BY RF-SCORE:    0.00 PKD
ROOT
HETATM    1  C   UNL     1      -5.782   6.159  66.382  1.00  0.00    -0.017 C  
HETATM    2  C   UNL     1      -6.953   6.716  67.207  1.00  0.00    -0.078 C  
HETATM    3  C   UNL     1      -8.165   7.072  66.292  1.00  0.00    -0.120 C  
HETATM    4  C   UNL     1      -7.286   5.713  68.314  1.00  0.00    -0.075 C  
ENDROOT
BRANCH   3   5
HETATM    5  N   UNL     1      -7.811   8.119  65.305  1.00  0.00    -0.107 N  
HETATM    6  H   UNL     1      -7.025   8.505  62.182  1.00  0.00     0.000 HD 
HETATM    7  O   UNL     1      -8.100   6.740  63.484  1.00  0.00    -0.094 OA 
HETATM    8  C   UNL     1      -7.691   9.513  65.715  1.00  0.00    -0.100 C  
HETATM    9  C   UNL     1      -7.721   7.803  63.966  1.00  0.00    -0.126 C  
HETATM   10  C   UNL     1      -6.435  10.102  65.102  1.00  0.00    -0.121 C  
HETATM   11  N   UNL     1      -7.112   8.733  63.172  1.00  0.00    -0.090 N  
HETATM   12  C   UNL     1      -6.578  10.010  63.597  1.00  0.00    -0.130 C  
ENDBRANCH   3   5
BRANCH   3  13
HETATM   13  C   UNL     1      -9.434   7.433  67.125  1.00  0.00    -0.149 C  
HETATM   14  O   UNL     1     -10.578   7.196  66.752  1.00  0.00    -0.288 OA 
HETATM   15  N   UNL     1      -9.178   8.129  68.289  1.00  0.00    -0.135 N  
HETATM   16  H   UNL     1      -8.197   8.265  68.531  1.00  0.00     0.000 HD 
BRANCH  15  17
HETATM   17  C   UNL     1     -10.160   8.692  69.214  1.00  0.00    -0.202 C  
BRANCH  17  18
HETATM   18  C   UNL     1      -9.941  10.191  69.519  1.00  0.00    -0.257 C  
BRANCH  18  19
HETATM   19  C   UNL     1      -9.016  11.104  68.675  1.00  0.00    -0.162 C  
HETATM   20  O   UNL     1      -7.994  11.648  69.515  1.00  0.00    -0.298 OA 
HETATM   21  H   UNL     1      -7.427  12.208  68.998  1.00  0.00     0.000 HD 
BRANCH  19  22
HETATM   22  C   UNL     1      -9.825  12.313  68.059  1.00  0.00    -0.204 C  
BRANCH  22  23
HETATM   23  N   UNL     1     -10.117  13.414  69.048  1.00  0.00    -0.430 N  
HETATM   24  C   UNL     1      -9.664  14.685  69.327  1.00  0.00    -0.041 C  
HETATM   25  H   UNL     1     -10.860  13.140  69.690  1.00  0.00     0.000 HD 
HETATM   26  O   UNL     1     -10.344  15.394  70.075  1.00  0.00    -0.294 OA 
BRANCH  24  27
HETATM   27  C   UNL     1      -8.293  15.157  68.816  1.00  0.00    -0.175 C  
BRANCH  27  28
HETATM   28  O   UNL     1      -8.136  15.995  67.682  1.00  0.00    -0.141 OA 
BRANCH  28  29
HETATM   29  C   UNL     1      -8.636  17.288  67.739  1.00  0.00    -0.225 A  
HETATM   30  C   UNL     1     -11.013  17.010  66.597  1.00  0.00     0.176 C  
HETATM   31  C   UNL     1      -9.909  17.749  67.310  1.00  0.00    -0.312 A  
HETATM   32  C   UNL     1     -10.272  19.092  67.577  1.00  0.00    -0.493 A  
HETATM   33  C   UNL     1      -9.424  19.979  68.222  1.00  0.00    -0.342 A  
HETATM   34  C   UNL     1      -8.167  19.547  68.606  1.00  0.00    -0.369 A  
HETATM   35  C   UNL     1      -7.754  18.221  68.365  1.00  0.00    -0.312 A  
HETATM   36  C   UNL     1      -6.353  17.860  68.794  1.00  0.00    -0.217 C  
ENDBRANCH  28  29
ENDBRANCH  27  28
ENDBRANCH  24  27
ENDBRANCH  22  23
BRANCH  22  37
HETATM   37  C   UNL     1      -9.318  12.725  66.651  1.00  0.00    -0.242 C  
BRANCH  37  38
HETATM   38  C   UNL     1     -10.379  12.719  65.585  1.00  0.00    -0.296 A  
HETATM   39  C   UNL     1     -12.394  12.458  63.658  1.00  0.00    -0.647 A  
HETATM   40  C   UNL     1     -10.055  12.406  64.263  1.00  0.00    -0.305 A  
HETATM   41  C   UNL     1     -12.715  12.839  64.954  1.00  0.00    -0.479 A  
HETATM   42  C   UNL     1     -11.706  13.015  65.896  1.00  0.00    -0.442 A  
HETATM   43  C   UNL     1     -11.058  12.278  63.304  1.00  0.00    -0.389 A  
ENDBRANCH  37  38
ENDBRANCH  22  37
ENDBRANCH  19  22
ENDBRANCH  18  19
ENDBRANCH  17  18
BRANCH  17  44
HETATM   44  C   UNL     1     -10.526   7.758  70.387  1.00  0.00    -0.221 C  
BRANCH  44  45
HETATM   45  C   UNL     1     -11.898   8.029  70.975  1.00  0.00    -0.280 A  
HETATM   46  C   UNL     1     -12.231   9.286  71.506  1.00  0.00    -0.439 A  
HETATM   47  C   UNL     1     -12.857   7.010  71.021  1.00  0.00    -0.258 A  
HETATM   48  C   UNL     1     -13.477   9.501  72.104  1.00  0.00    -0.535 A  
HETATM   49  C   UNL     1     -14.103   7.227  71.616  1.00  0.00    -0.522 A  
HETATM   50  C   UNL     1     -14.411   8.469  72.166  1.00  0.00    -0.529 A  
ENDBRANCH  44  45
ENDBRANCH  17  44
ENDBRANCH  15  17
ENDBRANCH   3  13
TORSDOF 14
ENDMDL
MODEL      130
REMARK 921   NORMALIZED FREE ENERGY PREDICTED BY IDOCK:   -4.99 KCAL/MOL
REMARK 922        TOTAL FREE ENERGY PREDICTED BY IDOCK:  -13.64 KCAL/MOL
REMARK 923 INTER-LIGAND FREE ENERGY PREDICTED BY IDOCK:   -9.19 KCAL/MOL
REMARK 924 INTRA-LIGAND FREE ENERGY PREDICTED BY IDOCK:   -4.44 KCAL/MOL
REMARK 927      BINDING AFFINITY PREDICTED BY RF-SCORE:    0.00 PKD
ROOT
HETATM    1  C   UNL     1     -11.228  14.759  70.111  1.00  0.00    -0.256 C  
HETATM    2  C   UNL     1     -11.621  13.575  69.214  1.00  0.00    -0.369 C  
HETATM    3  C   UNL     1     -10.398  13.065  68.391  1.00  0.00    -0.252 C  
HETATM    4  C   UNL     1     -12.272  12.500  70.086  1.00  0.00    -0.307 C  
ENDROOT
BRANCH   3   5
HETATM    5  N   UNL     1      -9.871  14.118  67.491  1.00  0.00    -0.232 N  
HETATM    6  H   UNL     1      -7.134  15.696  66.757  1.00  0.00     0.000 HD 
HETATM    7  O   UNL     1      -7.664  13.608  67.906  1.00  0.00    -0.126 OA 
HETATM    8  C   UNL     1     -10.761  14.826  66.579  1.00  0.00    -0.319 C  
HETATM    9  C   UNL     1      -8.513  14.347  67.417  1.00  0.00    -0.203 C  
HETATM   10  C   UNL     1     -10.456  16.310  66.643  1.00  0.00    -0.290 C  
HETATM   11  N   UNL     1      -8.135  15.508  66.804  1.00  0.00    -0.238 N  
HETATM   12  C   UNL     1      -9.014  16.496  66.217  1.00  0.00    -0.324 C  
ENDBRANCH   3   5
BRANCH   3  13
HETATM   13  C   UNL     1     -10.717  11.736  67.640  1.00  0.00    -0.214 C  
HETATM   14  O   UNL     1     -11.854  11.374  67.358  1.00  0.00    -0.609 OA 
HETATM   15  N   UNL     1      -9.618  10.940  67.388  1.00  0.00    -0.163 N  
HETATM   16  H   UNL     1      -8.709  11.329  67.638  1.00  0.00     0.000 HD 
BRANCH  15  17
HETATM   17  C   UNL     1      -9.613   9.602  66.801  1.00  0.00    -0.173 C  
BRANCH  17  18
HETATM   18  C   UNL     1      -8.720   8.593  67.556  1.00  0.00    -0.135 C  
BRANCH  18  19
HETATM   19  C   UNL     1      -8.392   8.712  69.067  1.00  0.00    -0.119 C  
HETATM   20  O   UNL     1      -7.534   9.838  69.276  1.00  0.00    -0.077 OA 
HETATM   21  H   UNL     1      -7.333   9.912  70.202  1.00  0.00     0.000 HD 
BRANCH  19  22
HETATM   22  C   UNL     1      -7.632   7.428  69.583  1.00  0.00    -0.095 C  
BRANCH  22  23
HETATM   23  N   UNL     1      -7.199   6.495  68.480  1.00  0.00    -0.083 N  
HETATM   24  C   UNL     1      -7.437   5.196  68.087  1.00  0.00    -0.076 C  
HETATM   25  H   UNL     1      -6.545   6.955  67.848  1.00  0.00     0.000 HD 
HETATM   26  O   UNL     1      -7.085   4.857  66.953  1.00  0.00    -0.069 OA 
BRANCH  24  27
HETATM   27  C   UNL     1      -8.015   4.171  69.077  1.00  0.00    -0.067 C  
BRANCH  27  28
HETATM   28  O   UNL     1      -9.407   3.944  69.232  1.00  0.00    -0.143 OA 
BRANCH  28  29
HETATM   29  C   UNL     1     -10.077   4.602  70.253  1.00  0.00    -0.206 A  
HETATM   30  C   UNL     1      -9.350   3.199  72.382  1.00  0.00    -0.163 C  
HETATM   31  C   UNL     1     -10.034   4.322  71.644  1.00  0.00    -0.250 A  
HETATM   32  C   UNL     1     -10.696   5.201  72.536  1.00  0.00    -0.286 A  
HETATM   33  C   UNL     1     -11.402   6.312  72.101  1.00  0.00    -0.343 A  
HETATM   34  C   UNL     1     -11.482   6.567  70.743  1.00  0.00    -0.419 A  
HETATM   35  C   UNL     1     -10.842   5.724  69.812  1.00  0.00    -0.419 A  
HETATM   36  C   UNL     1     -11.016   6.072  68.354  1.00  0.00    -0.340 C  
ENDBRANCH  28  29
ENDBRANCH  27  28
ENDBRANCH  24  27
ENDBRANCH  22  23
BRANCH  22  37
HETATM   37  C   UNL     1      -6.606   7.742  70.705  1.00  0.00    -0.038 C  
BRANCH  37  38
HETATM   38  C   UNL     1      -7.068   7.371  72.087  1.00  0.00    -0.067 A  
HETATM   39  C   UNL     1      -8.121   6.551  74.549  1.00  0.00    -0.129 A  
HETATM   40  C   UNL     1      -7.974   8.184  72.774  1.00  0.00    -0.209 A  
HETATM   41  C   UNL     1      -7.167   5.773  73.905  1.00  0.00    -0.086 A  
HETATM   42  C   UNL     1      -6.611   6.209  72.706  1.00  0.00    -0.065 A  
HETATM   43  C   UNL     1      -8.497   7.775  73.999  1.00  0.00    -0.304 A  
ENDBRANCH  37  38
ENDBRANCH  22  37
ENDBRANCH  19  22
ENDBRANCH  18  19
ENDBRANCH  17  18
BRANCH  17  44
HETATM   44  C   UNL     1      -9.575   9.592  65.258  1.00  0.00    -0.314 C  
BRANCH  44  45
HETATM   45  C   UNL     1      -8.179   9.439  64.684  1.00  0.00    -0.148 A  
HETATM   46  C   UNL     1      -7.798   8.279  63.989  1.00  0.00    -0.146 A  
HETATM   47  C   UNL     1      -7.230  10.451  64.865  1.00  0.00    -0.051 A  
HETATM   48  C   UNL     1      -6.487   8.125  63.524  1.00  0.00    -0.072 A  
HETATM   49  C   UNL     1      -5.922  10.298  64.396  1.00  0.00    -0.134 A  
HETATM   50  C   UNL     1      -5.547   9.132  63.734  1.00  0.00    -0.066 A  
ENDBRANCH  44  45
ENDBRANCH  17  44
ENDBRANCH  15  17
ENDBRANCH   3  13
TORSDOF 14
ENDMDL
MODEL      131
REMARK 921   NORMALIZED FREE ENERGY PREDICTED BY IDOCK:   -4.97 KCAL/MOL
REMARK 922        TOTAL FREE ENERGY PREDICTED BY IDOCK:  -13.60 KCAL/MOL
REMARK 923 INTER-LIGAND FREE ENERGY PREDICTED BY IDOCK:  -10.23 KCAL/MOL
REMARK 924 INTRA-LIGAND FREE ENERGY PREDICTED BY IDOCK:   -3.37 KCAL/MOL
REMARK 927      BINDING AFFINITY PREDICTED BY RF-SCORE:    0.00 PKD
ROOT
HETATM    1  C   UNL     1     -12.383  13.803  65.055  1.00  0.00    -0.456 C  
HETATM    2  C   UNL     1     -11.066  13.078  65.375  1.00  0.00    -0.300 C  
HETATM    3  C   UNL     1     -10.789  13.069  66.910  1.00  0.00    -0.264 C  
HETATM    4  C   UNL     1     -11.114  11.685  64.746  1.00  0.00    -0.328 C  
ENDROOT
BRANCH   3   5
HETATM    5  N   UNL     1     -10.653  14.444  67.446  1.00  0.00    -0.268 N  
HETATM    6  H   UNL     1     -12.130  16.564  69.406  1.00  0.00     0.000 HD 
HETATM    7  O   UNL     1     -12.244  14.146  69.083  1.00  0.00    -0.335 OA 
HETATM    8  C   UNL     1      -9.551  15.298  67.021  1.00  0.00    -0.224 C  
HETATM    9  C   UNL     1     -11.493  14.880  68.448  1.00  0.00    -0.318 C  
HETATM   10  C   UNL     1     -10.088  16.683  66.715  1.00  0.00    -0.293 C  
HETATM   11  N   UNL     1     -11.502  16.227  68.677  1.00  0.00    -0.346 N  
HETATM   12  C   UNL     1     -10.707  17.222  67.988  1.00  0.00    -0.367 C  
ENDBRANCH   3   5
BRANCH   3  13
HETATM   13  C   UNL     1      -9.577  12.158  67.275  1.00  0.00    -0.185 C  
HETATM   14  O   UNL     1      -8.465  12.276  66.772  1.00  0.00    -0.183 OA 
HETATM   15  N   UNL     1      -9.871  11.135  68.154  1.00  0.00    -0.174 N  
HETATM   16  H   UNL     1     -10.816  11.124  68.538  1.00  0.00     0.000 HD 
BRANCH  15  17
HETATM   17  C   UNL     1      -8.978  10.066  68.596  1.00  0.00    -0.136 C  
BRANCH  17  18
HETATM   18  C   UNL     1      -8.791   8.939  67.556  1.00  0.00    -0.135 C  
BRANCH  18  19
HETATM   19  C   UNL     1      -9.837   7.819  67.320  1.00  0.00    -0.189 C  
HETATM   20  O   UNL     1     -11.035   8.132  68.037  1.00  0.00    -0.466 OA 
HETATM   21  H   UNL     1     -11.676   7.446  67.892  1.00  0.00     0.000 HD 
BRANCH  19  22
HETATM   22  C   UNL     1      -9.307   6.430  67.852  1.00  0.00    -0.114 C  
BRANCH  22  23
HETATM   23  N   UNL     1      -7.875   6.467  68.322  1.00  0.00    -0.104 N  
HETATM   24  C   UNL     1      -6.739   5.694  68.204  1.00  0.00    -0.054 C  
HETATM   25  H   UNL     1      -7.696   7.297  68.885  1.00  0.00     0.000 HD 
HETATM   26  O   UNL     1      -5.658   6.196  68.527  1.00  0.00    -0.010 OA 
BRANCH  24  27
HETATM   27  C   UNL     1      -6.838   4.215  67.796  1.00  0.00    -0.051 C  
BRANCH  27  28
HETATM   28  O   UNL     1      -6.536   3.146  68.679  1.00  0.00    -0.038 OA 
BRANCH  28  29
HETATM   29  C   UNL     1      -7.444   2.840  69.683  1.00  0.00    -0.044 A  
HETATM   30  C   UNL     1      -9.404   1.687  68.318  1.00  0.00    -0.242 C  
HETATM   31  C   UNL     1      -8.686   2.163  69.556  1.00  0.00    -0.119 A  
HETATM   32  C   UNL     1      -9.406   1.836  70.731  1.00  0.00    -0.185 A  
HETATM   33  C   UNL     1      -8.954   2.169  71.998  1.00  0.00    -0.117 A  
HETATM   34  C   UNL     1      -7.765   2.865  72.126  1.00  0.00    -0.054 A  
HETATM   35  C   UNL     1      -7.009   3.216  70.990  1.00  0.00    -0.033 A  
HETATM   36  C   UNL     1      -5.743   4.000  71.235  1.00  0.00    -0.012 C  
ENDBRANCH  28  29
ENDBRANCH  27  28
ENDBRANCH  24  27
ENDBRANCH  22  23
BRANCH  22  37
HETATM   37  C   UNL     1     -10.340   5.692  68.746  1.00  0.00    -0.288 C  
BRANCH  37  38
HETATM   38  C   UNL     1     -10.015   5.715  70.214  1.00  0.00    -0.269 A  
HETATM   39  C   UNL     1      -9.546   5.977  72.963  1.00  0.00    -0.155 A  
HETATM   40  C   UNL     1      -8.866   6.362  70.676  1.00  0.00    -0.144 A  
HETATM   41  C   UNL     1     -10.652   5.271  72.509  1.00  0.00    -0.276 A  
HETATM   42  C   UNL     1     -10.855   5.101  71.142  1.00  0.00    -0.060 A  
HETATM   43  C   UNL     1      -8.633   6.490  72.044  1.00  0.00    -0.125 A  
ENDBRANCH  37  38
ENDBRANCH  22  37
ENDBRANCH  19  22
ENDBRANCH  18  19
ENDBRANCH  17  18
BRANCH  17  44
HETATM   44  C   UNL     1      -9.160   9.666  70.076  1.00  0.00    -0.269 C  
BRANCH  44  45
HETATM   45  C   UNL     1     -10.577   9.851  70.586  1.00  0.00    -0.341 A  
HETATM   46  C   UNL     1     -11.307  11.019  70.308  1.00  0.00    -0.291 A  
HETATM   47  C   UNL     1     -11.176   8.861  71.373  1.00  0.00    -0.382 A  
HETATM   48  C   UNL     1     -12.588  11.203  70.841  1.00  0.00    -0.483 A  
HETATM   49  C   UNL     1     -12.457   9.045  71.902  1.00  0.00    -0.454 A  
HETATM   50  C   UNL     1     -13.159  10.219  71.644  1.00  0.00    -0.553 A  
ENDBRANCH  44  45
ENDBRANCH  17  44
ENDBRANCH  15  17
ENDBRANCH   3  13
TORSDOF 14
ENDMDL
MODEL      132
REMARK 921   NORMALIZED FREE ENERGY PREDICTED BY IDOCK:   -4.96 KCAL/MOL
REMARK 922        TOTAL FREE ENERGY PREDICTED BY IDOCK:  -13.58 KCAL/MOL
REMARK 923 INTER-LIGAND FREE ENERGY PREDICTED BY IDOCK:   -9.37 KCAL/MOL
REMARK 924 INTRA-LIGAND FREE ENERGY PREDICTED BY IDOCK:   -4.20 KCAL/MOL
REMARK 927      BINDING AFFINITY PREDICTED BY RF-SCORE:    0.00 PKD
ROOT
HETATM    1  C   UNL     1      -9.615   2.717  70.644  1.00  0.00    -0.167 C  
HETATM    2  C   UNL     1      -9.023   3.612  69.545  1.00  0.00    -0.172 C  
HETATM    3  C   UNL     1      -7.490   3.816  69.753  1.00  0.00    -0.052 C  
HETATM    4  C   UNL     1      -9.390   3.017  68.184  1.00  0.00    -0.254 C  
ENDROOT
BRANCH   3   5
HETATM    5  N   UNL     1      -7.201   4.487  71.042  1.00  0.00    -0.043 N  
HETATM    6  H   UNL     1      -5.495   4.111  73.775  1.00  0.00     0.000 HD 
HETATM    7  O   UNL     1      -5.405   3.134  71.538  1.00  0.00    -0.003 OA 
HETATM    8  C   UNL     1      -7.855   5.743  71.386  1.00  0.00    -0.112 C  
HETATM    9  C   UNL     1      -6.215   3.995  71.870  1.00  0.00    -0.014 C  
HETATM   10  C   UNL     1      -8.337   5.674  72.822  1.00  0.00    -0.120 C  
HETATM   11  N   UNL     1      -6.210   4.478  73.148  1.00  0.00    -0.031 N  
HETATM   12  C   UNL     1      -7.120   5.460  73.699  1.00  0.00    -0.086 C  
ENDBRANCH   3   5
BRANCH   3  13
HETATM   13  C   UNL     1      -6.831   4.538  68.537  1.00  0.00    -0.051 C  
HETATM   14  O   UNL     1      -5.630   4.496  68.295  1.00  0.00    -0.015 OA 
HETATM   15  N   UNL     1      -7.696   5.313  67.791  1.00  0.00    -0.091 N  
HETATM   16  H   UNL     1      -8.681   5.274  68.052  1.00  0.00     0.000 HD 
BRANCH  15  17
HETATM   17  C   UNL     1      -7.355   6.184  66.668  1.00  0.00    -0.082 C  
BRANCH  17  18
HETATM   18  C   UNL     1      -8.324   7.373  66.483  1.00  0.00    -0.124 C  
BRANCH  18  19
HETATM   19  C   UNL     1      -8.263   8.661  67.343  1.00  0.00    -0.105 C  
HETATM   20  O   UNL     1      -7.330   8.472  68.411  1.00  0.00    -0.090 OA 
HETATM   21  H   UNL     1      -7.292   9.262  68.938  1.00  0.00     0.000 HD 
BRANCH  19  22
HETATM   22  C   UNL     1      -9.670   8.979  67.986  1.00  0.00    -0.155 C  
BRANCH  22  23
HETATM   23  N   UNL     1     -10.461  10.019  67.232  1.00  0.00    -0.241 N  
HETATM   24  C   UNL     1     -11.366  11.019  67.514  1.00  0.00    -0.257 C  
HETATM   25  H   UNL     1     -10.272   9.968  66.232  1.00  0.00     0.000 HD 
HETATM   26  O   UNL     1     -11.606  11.852  66.635  1.00  0.00    -0.465 OA 
BRANCH  24  27
HETATM   27  C   UNL     1     -12.139  11.023  68.844  1.00  0.00    -0.169 C  
BRANCH  27  28
HETATM   28  O   UNL     1     -11.637  11.616  70.030  1.00  0.00    -0.295 OA 
BRANCH  28  29
HETATM   29  C   UNL     1     -12.350  12.659  70.603  1.00  0.00    -0.290 A  
HETATM   30  C   UNL     1     -11.450  14.752  69.246  1.00  0.00    -0.322 C  
HETATM   31  C   UNL     1     -12.318  14.034  70.249  1.00  0.00    -0.425 A  
HETATM   32  C   UNL     1     -13.225  14.920  70.879  1.00  0.00    -0.420 A  
HETATM   33  C   UNL     1     -14.128  14.501  71.843  1.00  0.00    -0.595 A  
HETATM   34  C   UNL     1     -14.137  13.170  72.222  1.00  0.00    -0.372 A  
HETATM   35  C   UNL     1     -13.255  12.246  71.628  1.00  0.00    -0.356 A  
HETATM   36  C   UNL     1     -13.322  10.825  72.134  1.00  0.00    -0.314 C  
ENDBRANCH  28  29
ENDBRANCH  27  28
ENDBRANCH  24  27
ENDBRANCH  22  23
BRANCH  22  37
HETATM   37  C   UNL     1     -10.422   7.704  68.456  1.00  0.00    -0.206 C  
BRANCH  37  38
HETATM   38  C   UNL     1     -10.698   7.659  69.934  1.00  0.00    -0.253 A  
HETATM   39  C   UNL     1     -11.423   7.714  72.638  1.00  0.00    -0.403 A  
HETATM   40  C   UNL     1     -10.195   8.651  70.780  1.00  0.00    -0.250 A  
HETATM   41  C   UNL     1     -11.867   6.685  71.818  1.00  0.00    -0.380 A  
HETATM   42  C   UNL     1     -11.464   6.635  70.487  1.00  0.00    -0.432 A  
HETATM   43  C   UNL     1     -10.556   8.677  72.125  1.00  0.00    -0.411 A  
ENDBRANCH  37  38
ENDBRANCH  22  37
ENDBRANCH  19  22
ENDBRANCH  18  19
ENDBRANCH  17  18
BRANCH  17  44
HETATM   44  C   UNL     1      -6.884   5.428  65.407  1.00  0.00    -0.060 C  
BRANCH  44  45
HETATM   45  C   UNL     1      -7.787   4.273  65.018  1.00  0.00    -0.089 A  
HETATM   46  C   UNL     1      -9.110   4.488  64.597  1.00  0.00    -0.151 A  
HETATM   47  C   UNL     1      -7.318   2.956  65.098  1.00  0.00    -0.067 A  
HETATM   48  C   UNL     1      -9.950   3.408  64.305  1.00  0.00    -0.181 A  
HETATM   49  C   UNL     1      -8.158   1.879  64.802  1.00  0.00    -0.078 A  
HETATM   50  C   UNL     1      -9.476   2.103  64.415  1.00  0.00    -0.128 A  
ENDBRANCH  44  45
ENDBRANCH  17  44
ENDBRANCH  15  17
ENDBRANCH   3  13
TORSDOF 14
ENDMDL
MODEL      133
REMARK 921   NORMALIZED FREE ENERGY PREDICTED BY IDOCK:   -4.95 KCAL/MOL
REMARK 922        TOTAL FREE ENERGY PREDICTED BY IDOCK:  -13.56 KCAL/MOL
REMARK 923 INTER-LIGAND FREE ENERGY PREDICTED BY IDOCK:  -10.36 KCAL/MOL
REMARK 924 INTRA-LIGAND FREE ENERGY PREDICTED BY IDOCK:   -3.20 KCAL/MOL
REMARK 927      BINDING AFFINITY PREDICTED BY RF-SCORE:    0.00 PKD
ROOT
HETATM    1  C   UNL     1      -9.411   1.924  67.966  1.00  0.00    -0.225 C  
HETATM    2  C   UNL     1      -8.695   3.273  68.137  1.00  0.00    -0.135 C  
HETATM    3  C   UNL     1      -8.833   4.148  66.854  1.00  0.00    -0.119 C  
HETATM    4  C   UNL     1      -9.225   3.945  69.406  1.00  0.00    -0.221 C  
ENDROOT
BRANCH   3   5
HETATM    5  N   UNL     1      -8.215   3.490  65.679  1.00  0.00    -0.097 N  
HETATM    6  H   UNL     1      -8.982   2.088  62.856  1.00  0.00     0.000 HD 
HETATM    7  O   UNL     1     -10.127   3.595  64.399  1.00  0.00    -0.185 OA 
HETATM    8  C   UNL     1      -6.773   3.281  65.620  1.00  0.00    -0.041 C  
HETATM    9  C   UNL     1      -8.982   3.188  64.574  1.00  0.00    -0.121 C  
HETATM   10  C   UNL     1      -6.497   1.870  65.137  1.00  0.00    -0.023 C  
HETATM   11  N   UNL     1      -8.419   2.332  63.670  1.00  0.00    -0.084 N  
HETATM   12  C   UNL     1      -7.101   1.737  63.755  1.00  0.00    -0.032 C  
ENDBRANCH   3   5
BRANCH   3  13
HETATM   13  C   UNL     1      -8.303   5.598  67.080  1.00  0.00    -0.107 C  
HETATM   14  O   UNL     1      -7.243   5.851  67.641  1.00  0.00    -0.073 OA 
HETATM   15  N   UNL     1      -9.168   6.595  66.676  1.00  0.00    -0.153 N  
HETATM   16  H   UNL     1     -10.019   6.293  66.200  1.00  0.00     0.000 HD 
BRANCH  15  17
HETATM   17  C   UNL     1      -8.999   8.035  66.853  1.00  0.00    -0.138 C  
BRANCH  17  18
HETATM   18  C   UNL     1      -9.882   8.634  67.970  1.00  0.00    -0.201 C  
BRANCH  18  19
HETATM   19  C   UNL     1     -10.395   7.813  69.181  1.00  0.00    -0.215 C  
HETATM   20  O   UNL     1     -11.537   7.048  68.783  1.00  0.00    -0.398 OA 
HETATM   21  H   UNL     1     -11.851   6.545  69.525  1.00  0.00     0.000 HD 
BRANCH  19  22
HETATM   22  C   UNL     1     -10.841   8.764  70.360  1.00  0.00    -0.228 C  
BRANCH  22  23
HETATM   23  N   UNL     1     -12.201   8.437  70.922  1.00  0.00    -0.486 N  
HETATM   24  C   UNL     1     -13.379   9.096  71.202  1.00  0.00    -0.139 C  
HETATM   25  H   UNL     1     -12.269   7.449  71.164  1.00  0.00     0.000 HD 
HETATM   26  O   UNL     1     -14.386   8.418  71.427  1.00  0.00    -0.406 OA 
BRANCH  24  27
HETATM   27  C   UNL     1     -13.403  10.627  71.347  1.00  0.00    -0.205 C  
BRANCH  27  28
HETATM   28  O   UNL     1     -12.231  11.426  71.326  1.00  0.00    -0.270 OA 
BRANCH  28  29
HETATM   29  C   UNL     1     -12.320  12.720  70.834  1.00  0.00    -0.265 A  
HETATM   30  C   UNL     1     -13.138  14.066  72.967  1.00  0.00    -0.365 C  
HETATM   31  C   UNL     1     -12.672  13.899  71.542  1.00  0.00    -0.440 A  
HETATM   32  C   UNL     1     -12.578  15.146  70.879  1.00  0.00    -0.441 A  
HETATM   33  C   UNL     1     -12.174  15.258  69.557  1.00  0.00    -0.273 A  
HETATM   34  C   UNL     1     -11.868  14.110  68.849  1.00  0.00    -0.382 A  
HETATM   35  C   UNL     1     -11.946  12.843  69.461  1.00  0.00    -0.346 A  
HETATM   36  C   UNL     1     -11.623  11.652  68.593  1.00  0.00    -0.373 C  
ENDBRANCH  28  29
ENDBRANCH  27  28
ENDBRANCH  24  27
ENDBRANCH  22  23
BRANCH  22  37
HETATM   37  C   UNL     1      -9.696   9.056  71.367  1.00  0.00    -0.369 C  
BRANCH  37  38
HETATM   38  C   UNL     1      -9.308   7.879  72.220  1.00  0.00    -0.238 A  
HETATM   39  C   UNL     1      -8.447   5.852  73.949  1.00  0.00    -0.117 A  
HETATM   40  C   UNL     1      -8.176   7.122  71.912  1.00  0.00    -0.104 A  
HETATM   41  C   UNL     1      -9.614   6.553  74.224  1.00  0.00    -0.280 A  
HETATM   42  C   UNL     1     -10.065   7.526  73.337  1.00  0.00    -0.393 A  
HETATM   43  C   UNL     1      -7.748   6.113  72.772  1.00  0.00    -0.105 A  
ENDBRANCH  37  38
ENDBRANCH  22  37
ENDBRANCH  19  22
ENDBRANCH  18  19
ENDBRANCH  17  18
BRANCH  17  44
HETATM   44  C   UNL     1      -8.868   8.821  65.531  1.00  0.00    -0.229 C  
BRANCH  44  45
HETATM   45  C   UNL     1      -9.151  10.305  65.674  1.00  0.00    -0.208 A  
HETATM   46  C   UNL     1      -8.317  11.137  66.440  1.00  0.00    -0.167 A  
HETATM   47  C   UNL     1     -10.275  10.869  65.059  1.00  0.00    -0.367 A  
HETATM   48  C   UNL     1      -8.629  12.489  66.616  1.00  0.00    -0.057 A  
HETATM   49  C   UNL     1     -10.582  12.221  65.233  1.00  0.00    -0.322 A  
HETATM   50  C   UNL     1      -9.765  13.030  66.019  1.00  0.00    -0.223 A  
ENDBRANCH  44  45
ENDBRANCH  17  44
ENDBRANCH  15  17
ENDBRANCH   3  13
TORSDOF 14
ENDMDL
MODEL      134
REMARK 921   NORMALIZED FREE ENERGY PREDICTED BY IDOCK:   -4.92 KCAL/MOL
REMARK 922        TOTAL FREE ENERGY PREDICTED BY IDOCK:  -13.50 KCAL/MOL
REMARK 923 INTER-LIGAND FREE ENERGY PREDICTED BY IDOCK:  -11.61 KCAL/MOL
REMARK 924 INTRA-LIGAND FREE ENERGY PREDICTED BY IDOCK:   -1.89 KCAL/MOL
REMARK 927      BINDING AFFINITY PREDICTED BY RF-SCORE:    0.00 PKD
ROOT
HETATM    1  C   UNL     1      -8.947   4.246  66.533  1.00  0.00    -0.120 C  
HETATM    2  C   UNL     1      -9.330   5.648  67.031  1.00  0.00    -0.119 C  
HETATM    3  C   UNL     1      -8.449   6.074  68.246  1.00  0.00    -0.112 C  
HETATM    4  C   UNL     1      -9.264   6.617  65.848  1.00  0.00    -0.010 C  
ENDROOT
BRANCH   3   5
HETATM    5  N   UNL     1      -8.629   5.156  69.395  1.00  0.00    -0.095 N  
HETATM    6  H   UNL     1      -7.006   3.847  71.880  1.00  0.00     0.000 HD 
HETATM    7  O   UNL     1      -6.655   5.767  70.412  1.00  0.00    -0.040 OA 
HETATM    8  C   UNL     1      -9.905   4.488  69.616  1.00  0.00    -0.218 C  
HETATM    9  C   UNL     1      -7.632   5.027  70.338  1.00  0.00    -0.063 C  
HETATM   10  C   UNL     1      -9.651   3.028  69.940  1.00  0.00    -0.124 C  
HETATM   11  N   UNL     1      -7.746   3.963  71.188  1.00  0.00    -0.054 N  
HETATM   12  C   UNL     1      -8.812   2.983  71.201  1.00  0.00    -0.083 C  
ENDBRANCH   3   5
BRANCH   3  13
HETATM   13  C   UNL     1      -8.671   7.569  68.628  1.00  0.00    -0.128 C  
HETATM   14  O   UNL     1      -7.774   8.307  69.023  1.00  0.00    -0.094 OA 
HETATM   15  N   UNL     1      -9.985   7.987  68.575  1.00  0.00    -0.186 N  
HETATM   16  H   UNL     1     -10.662   7.314  68.216  1.00  0.00     0.000 HD 
BRANCH  15  17
HETATM   17  C   UNL     1     -10.514   9.289  68.975  1.00  0.00    -0.216 C  
BRANCH  17  18
HETATM   18  C   UNL     1      -9.941  10.472  68.163  1.00  0.00    -0.172 C  
BRANCH  18  19
HETATM   19  C   UNL     1     -10.734  11.198  67.046  1.00  0.00    -0.268 C  
HETATM   20  O   UNL     1      -9.867  11.441  65.934  1.00  0.00    -0.209 OA 
HETATM   21  H   UNL     1     -10.352  11.886  65.248  1.00  0.00     0.000 HD 
BRANCH  19  22
HETATM   22  C   UNL     1     -11.270  12.595  67.550  1.00  0.00    -0.288 C  
BRANCH  22  23
HETATM   23  N   UNL     1     -11.982  13.392  66.486  1.00  0.00    -0.393 N  
HETATM   24  C   UNL     1     -11.665  14.322  65.520  1.00  0.00    -0.353 C  
HETATM   25  H   UNL     1     -12.980  13.184  66.480  1.00  0.00     0.000 HD 
HETATM   26  O   UNL     1     -12.503  14.563  64.646  1.00  0.00    -0.555 OA 
BRANCH  24  27
HETATM   27  C   UNL     1     -10.352  15.120  65.602  1.00  0.00    -0.357 C  
BRANCH  27  28
HETATM   28  O   UNL     1      -9.811  15.595  66.823  1.00  0.00    -0.233 OA 
BRANCH  28  29
HETATM   29  C   UNL     1      -8.910  16.651  66.783  1.00  0.00    -0.231 A  
HETATM   30  C   UNL     1     -10.436  18.644  65.928  1.00  0.00    -0.395 C  
HETATM   31  C   UNL     1      -9.168  18.003  66.436  1.00  0.00    -0.256 A  
HETATM   32  C   UNL     1      -8.129  18.954  66.583  1.00  0.00    -0.290 A  
HETATM   33  C   UNL     1      -6.864  18.611  67.033  1.00  0.00    -0.207 A  
HETATM   34  C   UNL     1      -6.594  17.288  67.333  1.00  0.00    -0.173 A  
HETATM   35  C   UNL     1      -7.591  16.301  67.204  1.00  0.00    -0.230 A  
HETATM   36  C   UNL     1      -7.186  14.883  67.527  1.00  0.00    -0.227 C  
ENDBRANCH  28  29
ENDBRANCH  27  28
ENDBRANCH  24  27
ENDBRANCH  22  23
BRANCH  22  37
HETATM   37  C   UNL     1     -11.928  12.519  68.954  1.00  0.00    -0.282 C  
BRANCH  37  38
HETATM   38  C   UNL     1     -11.663  13.715  69.827  1.00  0.00    -0.364 A  
HETATM   39  C   UNL     1     -11.354  16.063  71.321  1.00  0.00    -0.397 A  
HETATM   40  C   UNL     1     -10.720  14.674  69.449  1.00  0.00    -0.237 A  
HETATM   41  C   UNL     1     -12.242  15.081  71.741  1.00  0.00    -0.417 A  
HETATM   42  C   UNL     1     -12.356  13.895  71.023  1.00  0.00    -0.453 A  
HETATM   43  C   UNL     1     -10.567  15.842  70.193  1.00  0.00    -0.334 A  
ENDBRANCH  37  38
ENDBRANCH  22  37
ENDBRANCH  19  22
ENDBRANCH  18  19
ENDBRANCH  17  18
BRANCH  17  44
HETATM   44  C   UNL     1     -10.667   9.463  70.502  1.00  0.00    -0.335 C  
BRANCH  44  45
HETATM   45  C   UNL     1     -11.962   8.894  71.052  1.00  0.00    -0.307 A  
HETATM   46  C   UNL     1     -12.968   9.731  71.563  1.00  0.00    -0.504 A  
HETATM   47  C   UNL     1     -12.164   7.510  71.083  1.00  0.00    -0.330 A  
HETATM   48  C   UNL     1     -14.128   9.188  72.128  1.00  0.00    -0.416 A  
HETATM   49  C   UNL     1     -13.325   6.969  71.643  1.00  0.00    -0.356 A  
HETATM   50  C   UNL     1     -14.302   7.807  72.174  1.00  0.00    -0.376 A  
ENDBRANCH  44  45
ENDBRANCH  17  44
ENDBRANCH  15  17
ENDBRANCH   3  13
TORSDOF 14
ENDMDL
MODEL      135
REMARK 921   NORMALIZED FREE ENERGY PREDICTED BY IDOCK:   -4.92 KCAL/MOL
REMARK 922        TOTAL FREE ENERGY PREDICTED BY IDOCK:  -13.49 KCAL/MOL
REMARK 923 INTER-LIGAND FREE ENERGY PREDICTED BY IDOCK:  -11.79 KCAL/MOL
REMARK 924 INTRA-LIGAND FREE ENERGY PREDICTED BY IDOCK:   -1.70 KCAL/MOL
REMARK 927      BINDING AFFINITY PREDICTED BY RF-SCORE:    0.00 PKD
ROOT
HETATM    1  C   UNL     1      -5.757   5.873  66.391  1.00  0.00    -0.017 C  
HETATM    2  C   UNL     1      -6.984   6.784  66.551  1.00  0.00    -0.063 C  
HETATM    3  C   UNL     1      -7.970   6.216  67.618  1.00  0.00    -0.106 C  
HETATM    4  C   UNL     1      -6.498   8.204  66.851  1.00  0.00    -0.057 C  
ENDROOT
BRANCH   3   5
HETATM    5  N   UNL     1      -8.484   4.883  67.227  1.00  0.00    -0.106 N  
HETATM    6  H   UNL     1      -8.636   1.813  68.265  1.00  0.00     0.000 HD 
HETATM    7  O   UNL     1      -8.208   3.971  69.324  1.00  0.00    -0.062 OA 
HETATM    8  C   UNL     1      -9.146   4.692  65.942  1.00  0.00    -0.135 C  
HETATM    9  C   UNL     1      -8.458   3.840  68.129  1.00  0.00    -0.093 C  
HETATM   10  C   UNL     1      -8.615   3.428  65.295  1.00  0.00    -0.110 C  
HETATM   11  N   UNL     1      -8.669   2.594  67.610  1.00  0.00    -0.102 N  
HETATM   12  C   UNL     1      -8.935   2.274  66.223  1.00  0.00    -0.108 C  
ENDBRANCH   3   5
BRANCH   3  13
HETATM   13  C   UNL     1      -9.109   7.227  67.953  1.00  0.00    -0.132 C  
HETATM   14  O   UNL     1     -10.072   7.428  67.221  1.00  0.00    -0.183 OA 
HETATM   15  N   UNL     1      -8.909   7.956  69.107  1.00  0.00    -0.141 N  
HETATM   16  H   UNL     1      -8.092   7.710  69.665  1.00  0.00     0.000 HD 
BRANCH  15  17
HETATM   17  C   UNL     1      -9.741   9.044  69.619  1.00  0.00    -0.172 C  
BRANCH  17  18
HETATM   18  C   UNL     1      -9.423  10.420  68.995  1.00  0.00    -0.205 C  
BRANCH  18  19
HETATM   19  C   UNL     1     -10.513  11.462  68.634  1.00  0.00    -0.201 C  
HETATM   20  O   UNL     1     -11.506  10.842  67.812  1.00  0.00    -0.447 OA 
HETATM   21  H   UNL     1     -12.174  11.481  67.591  1.00  0.00     0.000 HD 
BRANCH  19  22
HETATM   22  C   UNL     1      -9.896  12.665  67.818  1.00  0.00    -0.212 C  
BRANCH  22  23
HETATM   23  N   UNL     1      -8.991  13.553  68.635  1.00  0.00    -0.367 N  
HETATM   24  C   UNL     1      -8.489  14.835  68.574  1.00  0.00    -0.159 C  
HETATM   25  H   UNL     1      -8.657  13.068  69.467  1.00  0.00     0.000 HD 
HETATM   26  O   UNL     1      -7.967  15.304  69.590  1.00  0.00    -0.224 OA 
BRANCH  24  27
HETATM   27  C   UNL     1      -8.474  15.608  67.245  1.00  0.00    -0.191 C  
BRANCH  27  28
HETATM   28  O   UNL     1      -9.172  16.827  67.051  1.00  0.00    -0.215 OA 
BRANCH  28  29
HETATM   29  C   UNL     1      -8.456  18.015  67.096  1.00  0.00    -0.234 A  
HETATM   30  C   UNL     1      -5.972  17.176  66.696  1.00  0.00    -0.240 C  
HETATM   31  C   UNL     1      -7.061  18.199  66.901  1.00  0.00    -0.217 A  
HETATM   32  C   UNL     1      -6.548  19.519  66.863  1.00  0.00    -0.203 A  
HETATM   33  C   UNL     1      -7.351  20.636  67.030  1.00  0.00    -0.370 A  
HETATM   34  C   UNL     1      -8.704  20.462  67.261  1.00  0.00    -0.429 A  
HETATM   35  C   UNL     1      -9.267  19.171  67.309  1.00  0.00    -0.335 A  
HETATM   36  C   UNL     1     -10.746  19.089  67.598  1.00  0.00    -0.495 C  
ENDBRANCH  28  29
ENDBRANCH  27  28
ENDBRANCH  24  27
ENDBRANCH  22  23
BRANCH  22  37
HETATM   37  C   UNL     1      -9.411  12.249  66.403  1.00  0.00    -0.240 C  
BRANCH  37  38
HETATM   38  C   UNL     1     -10.338  12.652  65.289  1.00  0.00    -0.309 A  
HETATM   39  C   UNL     1     -12.253  13.285  63.346  1.00  0.00    -0.476 A  
HETATM   40  C   UNL     1     -10.535  11.811  64.190  1.00  0.00    -0.394 A  
HETATM   41  C   UNL     1     -12.011  14.160  64.397  1.00  0.00    -0.478 A  
HETATM   42  C   UNL     1     -11.024  13.865  65.333  1.00  0.00    -0.316 A  
HETATM   43  C   UNL     1     -11.487  12.128  63.224  1.00  0.00    -0.410 A  
ENDBRANCH  37  38
ENDBRANCH  22  37
ENDBRANCH  19  22
ENDBRANCH  18  19
ENDBRANCH  17  18
BRANCH  17  44
HETATM   44  C   UNL     1      -9.994   8.978  71.141  1.00  0.00    -0.365 C  
BRANCH  44  45
HETATM   45  C   UNL     1     -11.421   8.613  71.504  1.00  0.00    -0.363 A  
HETATM   46  C   UNL     1     -11.889   7.293  71.392  1.00  0.00    -0.338 A  
HETATM   47  C   UNL     1     -12.312   9.602  71.937  1.00  0.00    -0.437 A  
HETATM   48  C   UNL     1     -13.226   6.985  71.668  1.00  0.00    -0.368 A  
HETATM   49  C   UNL     1     -13.646   9.292  72.216  1.00  0.00    -0.544 A  
HETATM   50  C   UNL     1     -14.106   7.986  72.072  1.00  0.00    -0.426 A  
ENDBRANCH  44  45
ENDBRANCH  17  44
ENDBRANCH  15  17
ENDBRANCH   3  13
TORSDOF 14
ENDMDL
MODEL      136
REMARK 921   NORMALIZED FREE ENERGY PREDICTED BY IDOCK:   -4.91 KCAL/MOL
REMARK 922        TOTAL FREE ENERGY PREDICTED BY IDOCK:  -13.47 KCAL/MOL
REMARK 923 INTER-LIGAND FREE ENERGY PREDICTED BY IDOCK:  -10.98 KCAL/MOL
REMARK 924 INTRA-LIGAND FREE ENERGY PREDICTED BY IDOCK:   -2.49 KCAL/MOL
REMARK 927      BINDING AFFINITY PREDICTED BY RF-SCORE:    0.00 PKD
ROOT
HETATM    1  C   UNL     1     -10.681  15.012  64.663  1.00  0.00    -0.243 C  
HETATM    2  C   UNL     1     -11.004  14.441  66.052  1.00  0.00    -0.316 C  
HETATM    3  C   UNL     1     -11.083  15.575  67.121  1.00  0.00    -0.256 C  
HETATM    4  C   UNL     1     -12.277  13.599  65.947  1.00  0.00    -0.502 C  
ENDROOT
BRANCH   3   5
HETATM    5  N   UNL     1      -9.792  16.291  67.250  1.00  0.00    -0.239 N  
HETATM    6  H   UNL     1      -8.511  19.267  67.100  1.00  0.00     0.000 HD 
HETATM    7  O   UNL     1     -10.765  18.373  67.388  1.00  0.00    -0.416 OA 
HETATM    8  C   UNL     1      -8.558  15.554  67.489  1.00  0.00    -0.170 C  
HETATM    9  C   UNL     1      -9.767  17.669  67.274  1.00  0.00    -0.284 C  
HETATM   10  C   UNL     1      -7.474  16.093  66.575  1.00  0.00    -0.110 C  
HETATM   11  N   UNL     1      -8.542  18.248  67.099  1.00  0.00    -0.244 N  
HETATM   12  C   UNL     1      -7.283  17.557  66.912  1.00  0.00    -0.197 C  
ENDBRANCH   3   5
BRANCH   3  13
HETATM   13  C   UNL     1     -11.619  15.048  68.487  1.00  0.00    -0.326 C  
HETATM   14  O   UNL     1     -12.036  15.780  69.379  1.00  0.00    -0.370 OA 
HETATM   15  N   UNL     1     -11.508  13.683  68.661  1.00  0.00    -0.283 N  
HETATM   16  H   UNL     1     -11.169  13.150  67.860  1.00  0.00     0.000 HD 
BRANCH  15  17
HETATM   17  C   UNL     1     -11.822  12.918  69.865  1.00  0.00    -0.303 C  
BRANCH  17  18
HETATM   18  C   UNL     1     -11.421  11.429  69.782  1.00  0.00    -0.376 C  
BRANCH  18  19
HETATM   19  C   UNL     1     -10.778  10.791  68.523  1.00  0.00    -0.210 C  
HETATM   20  O   UNL     1     -11.794  10.149  67.747  1.00  0.00    -0.477 OA 
HETATM   21  H   UNL     1     -11.401   9.758  66.976  1.00  0.00     0.000 HD 
BRANCH  19  22
HETATM   22  C   UNL     1      -9.716   9.694  68.925  1.00  0.00    -0.162 C  
BRANCH  22  23
HETATM   23  N   UNL     1      -8.461   9.729  68.091  1.00  0.00    -0.114 N  
HETATM   24  C   UNL     1      -8.101   9.544  66.773  1.00  0.00    -0.109 C  
HETATM   25  H   UNL     1      -7.648   9.953  68.664  1.00  0.00     0.000 HD 
HETATM   26  O   UNL     1      -6.980   9.919  66.418  1.00  0.00    -0.089 OA 
BRANCH  24  27
HETATM   27  C   UNL     1      -9.028   8.786  65.808  1.00  0.00    -0.206 C  
BRANCH  27  28
HETATM   28  O   UNL     1      -8.965   7.382  65.617  1.00  0.00    -0.089 OA 
BRANCH  28  29
HETATM   29  C   UNL     1      -8.539   6.588  66.673  1.00  0.00    -0.118 A  
HETATM   30  C   UNL     1      -5.952   6.323  66.152  1.00  0.00    -0.029 C  
HETATM   31  C   UNL     1      -7.219   6.147  66.952  1.00  0.00    -0.074 A  
HETATM   32  C   UNL     1      -6.976   5.445  68.158  1.00  0.00    -0.061 A  
HETATM   33  C   UNL     1      -7.983   5.155  69.066  1.00  0.00    -0.085 A  
HETATM   34  C   UNL     1      -9.279   5.546  68.780  1.00  0.00    -0.142 A  
HETATM   35  C   UNL     1      -9.576   6.246  67.593  1.00  0.00    -0.118 A  
HETATM   36  C   UNL     1     -11.024   6.600  67.361  1.00  0.00    -0.434 C  
ENDBRANCH  28  29
ENDBRANCH  27  28
ENDBRANCH  24  27
ENDBRANCH  22  23
BRANCH  22  37
HETATM   37  C   UNL     1      -9.556   9.542  70.462  1.00  0.00    -0.312 C  
BRANCH  37  38
HETATM   38  C   UNL     1     -10.048   8.230  71.008  1.00  0.00    -0.230 A  
HETATM   39  C   UNL     1     -10.861   5.675  71.817  1.00  0.00    -0.301 A  
HETATM   40  C   UNL     1     -11.321   7.756  70.680  1.00  0.00    -0.275 A  
HETATM   41  C   UNL     1      -9.622   6.168  72.207  1.00  0.00    -0.162 A  
HETATM   42  C   UNL     1      -9.243   7.457  71.845  1.00  0.00    -0.151 A  
HETATM   43  C   UNL     1     -11.724   6.485  71.083  1.00  0.00    -0.392 A  
ENDBRANCH  37  38
ENDBRANCH  22  37
ENDBRANCH  19  22
ENDBRANCH  18  19
ENDBRANCH  17  18
BRANCH  17  44
HETATM   44  C   UNL     1     -13.189  13.267  70.492  1.00  0.00     0.349 C  
BRANCH  44  45
HETATM   45  C   UNL     1     -13.104  14.296  71.604  1.00  0.00    -0.417 A  
HETATM   46  C   UNL     1     -11.953  14.417  72.401  1.00  0.00     0.020 A  
HETATM   47  C   UNL     1     -14.193  15.132  71.874  1.00  0.00    -0.676 A  
HETATM   48  C   UNL     1     -11.915  15.325  73.464  1.00  0.00    -0.536 A  
HETATM   49  C   UNL     1     -14.152  16.042  72.934  1.00  0.00    -0.177 A  
HETATM   50  C   UNL     1     -13.017  16.132  73.736  1.00  0.00    -0.571 A  
ENDBRANCH  44  45
ENDBRANCH  17  44
ENDBRANCH  15  17
ENDBRANCH   3  13
TORSDOF 14
ENDMDL
MODEL      137
REMARK 921   NORMALIZED FREE ENERGY PREDICTED BY IDOCK:   -4.89 KCAL/MOL
REMARK 922        TOTAL FREE ENERGY PREDICTED BY IDOCK:  -13.45 KCAL/MOL
REMARK 923 INTER-LIGAND FREE ENERGY PREDICTED BY IDOCK:  -10.94 KCAL/MOL
REMARK 924 INTRA-LIGAND FREE ENERGY PREDICTED BY IDOCK:   -2.52 KCAL/MOL
REMARK 927      BINDING AFFINITY PREDICTED BY RF-SCORE:    0.00 PKD
ROOT
HETATM    1  C   UNL     1      -9.598   4.731  66.993  1.00  0.00    -0.187 C  
HETATM    2  C   UNL     1     -10.193   5.879  67.823  1.00  0.00    -0.223 C  
HETATM    3  C   UNL     1      -9.193   6.356  68.921  1.00  0.00    -0.128 C  
HETATM    4  C   UNL     1     -10.638   6.988  66.867  1.00  0.00    -0.372 C  
ENDROOT
BRANCH   3   5
HETATM    5  N   UNL     1      -8.875   5.268  69.876  1.00  0.00    -0.111 N  
HETATM    6  H   UNL     1      -6.407   4.005  71.560  1.00  0.00     0.000 HD 
HETATM    7  O   UNL     1      -6.825   6.143  70.456  1.00  0.00    -0.051 OA 
HETATM    8  C   UNL     1      -9.901   4.314  70.279  1.00  0.00    -0.193 C  
HETATM    9  C   UNL     1      -7.641   5.226  70.490  1.00  0.00    -0.072 C  
HETATM   10  C   UNL     1      -9.319   2.913  70.235  1.00  0.00    -0.219 C  
HETATM   11  N   UNL     1      -7.323   4.054  71.114  1.00  0.00    -0.040 N  
HETATM   12  C   UNL     1      -8.158   2.874  71.206  1.00  0.00    -0.061 C  
ENDBRANCH   3   5
BRANCH   3  13
HETATM   13  C   UNL     1      -9.685   7.654  69.630  1.00  0.00    -0.171 C  
HETATM   14  O   UNL     1      -9.002   8.668  69.736  1.00  0.00    -0.140 OA 
HETATM   15  N   UNL     1     -10.930   7.552  70.218  1.00  0.00    -0.250 N  
HETATM   16  H   UNL     1     -11.434   6.680  70.063  1.00  0.00     0.000 HD 
BRANCH  15  17
HETATM   17  C   UNL     1     -11.604   8.556  71.037  1.00  0.00    -0.279 C  
BRANCH  17  18
HETATM   18  C   UNL     1     -11.149  10.004  70.751  1.00  0.00    -0.407 C  
BRANCH  18  19
HETATM   19  C   UNL     1     -12.125  11.136  70.337  1.00  0.00    -0.385 C  
HETATM   20  O   UNL     1     -13.285  10.561  69.729  1.00  0.00    -0.497 OA 
HETATM   21  H   UNL     1     -13.883  11.254  69.475  1.00  0.00     0.000 HD 
BRANCH  19  22
HETATM   22  C   UNL     1     -11.456  12.100  69.280  1.00  0.00    -0.302 C  
BRANCH  22  23
HETATM   23  N   UNL     1     -11.301  11.486  67.912  1.00  0.00    -0.283 N  
HETATM   24  C   UNL     1     -10.280  11.171  67.041  1.00  0.00    -0.215 C  
HETATM   25  H   UNL     1     -12.207  11.232  67.520  1.00  0.00     0.000 HD 
HETATM   26  O   UNL     1     -10.534  10.424  66.092  1.00  0.00    -0.225 OA 
BRANCH  24  27
HETATM   27  C   UNL     1      -8.898  11.831  67.184  1.00  0.00    -0.173 C  
BRANCH  27  28
HETATM   28  O   UNL     1      -7.752  11.389  66.475  1.00  0.00    -0.149 OA 
BRANCH  28  29
HETATM   29  C   UNL     1      -7.250  10.124  66.748  1.00  0.00    -0.093 A  
HETATM   30  C   UNL     1      -8.059   8.742  64.634  1.00  0.00    -0.157 C  
HETATM   31  C   UNL     1      -7.334   8.960  65.939  1.00  0.00    -0.093 A  
HETATM   32  C   UNL     1      -6.641   7.795  66.348  1.00  0.00    -0.050 A  
HETATM   33  C   UNL     1      -5.900   7.741  67.518  1.00  0.00    -0.037 A  
HETATM   34  C   UNL     1      -5.848   8.859  68.332  1.00  0.00    -0.041 A  
HETATM   35  C   UNL     1      -6.520  10.045  67.973  1.00  0.00    -0.058 A  
HETATM   36  C   UNL     1      -6.426  11.196  68.944  1.00  0.00    -0.056 C  
ENDBRANCH  28  29
ENDBRANCH  27  28
ENDBRANCH  24  27
ENDBRANCH  22  23
BRANCH  22  37
HETATM   37  C   UNL     1     -11.996  13.553  69.361  1.00  0.00    -0.383 C  
BRANCH  37  38
HETATM   38  C   UNL     1     -12.293  14.026  70.757  1.00  0.00    -0.443 A  
HETATM   39  C   UNL     1     -12.988  15.092  73.252  1.00  0.00    -0.645 A  
HETATM   40  C   UNL     1     -11.468  14.968  71.378  1.00  0.00    -0.369 A  
HETATM   41  C   UNL     1     -13.773  14.103  72.673  1.00  0.00    -0.568 A  
HETATM   42  C   UNL     1     -13.397  13.541  71.457  1.00  0.00    -0.363 A  
HETATM   43  C   UNL     1     -11.815  15.497  72.619  1.00  0.00    -0.575 A  
ENDBRANCH  37  38
ENDBRANCH  22  37
ENDBRANCH  19  22
ENDBRANCH  18  19
ENDBRANCH  17  18
BRANCH  17  44
HETATM   44  C   UNL     1     -11.803   8.136  72.510  1.00  0.00    -0.438 C  
BRANCH  44  45
HETATM   45  C   UNL     1     -10.641   7.344  73.078  1.00  0.00    -0.392 A  
HETATM   46  C   UNL     1      -9.392   7.944  73.311  1.00  0.00    -0.351 A  
HETATM   47  C   UNL     1     -10.789   5.980  73.359  1.00  0.00    -0.256 A  
HETATM   48  C   UNL     1      -8.311   7.184  73.774  1.00  0.00    -0.167 A  
HETATM   49  C   UNL     1      -9.710   5.224  73.824  1.00  0.00    -0.151 A  
HETATM   50  C   UNL     1      -8.469   5.823  74.023  1.00  0.00    -0.117 A  
ENDBRANCH  44  45
ENDBRANCH  17  44
ENDBRANCH  15  17
ENDBRANCH   3  13
TORSDOF 14
ENDMDL
MODEL      138
REMARK 921   NORMALIZED FREE ENERGY PREDICTED BY IDOCK:   -4.89 KCAL/MOL
REMARK 922        TOTAL FREE ENERGY PREDICTED BY IDOCK:  -13.44 KCAL/MOL
REMARK 923 INTER-LIGAND FREE ENERGY PREDICTED BY IDOCK:  -10.58 KCAL/MOL
REMARK 924 INTRA-LIGAND FREE ENERGY PREDICTED BY IDOCK:   -2.86 KCAL/MOL
REMARK 927      BINDING AFFINITY PREDICTED BY RF-SCORE:    0.00 PKD
ROOT
HETATM    1  C   UNL     1      -7.444   5.205  70.390  1.00  0.00    -0.067 C  
HETATM    2  C   UNL     1      -7.306   6.564  69.685  1.00  0.00    -0.084 C  
HETATM    3  C   UNL     1      -8.446   6.774  68.641  1.00  0.00    -0.123 C  
HETATM    4  C   UNL     1      -7.234   7.658  70.752  1.00  0.00    -0.062 C  
ENDROOT
BRANCH   3   5
HETATM    5  N   UNL     1      -8.405   5.743  67.578  1.00  0.00    -0.105 N  
HETATM    6  H   UNL     1     -10.284   3.570  66.072  1.00  0.00     0.000 HD 
HETATM    7  O   UNL     1     -10.695   5.553  67.436  1.00  0.00    -0.228 OA 
HETATM    8  C   UNL     1      -7.157   5.440  66.888  1.00  0.00    -0.066 C  
HETATM    9  C   UNL     1      -9.573   5.154  67.142  1.00  0.00    -0.146 C  
HETATM   10  C   UNL     1      -7.001   3.934  66.787  1.00  0.00    -0.059 C  
HETATM   11  N   UNL     1      -9.428   4.024  66.387  1.00  0.00    -0.178 N  
HETATM   12  C   UNL     1      -8.178   3.409  65.992  1.00  0.00    -0.094 C  
ENDBRANCH   3   5
BRANCH   3  13
HETATM   13  C   UNL     1      -8.452   8.226  68.072  1.00  0.00    -0.132 C  
HETATM   14  O   UNL     1      -7.482   8.974  68.115  1.00  0.00    -0.083 OA 
HETATM   15  N   UNL     1      -9.674   8.648  67.588  1.00  0.00    -0.152 N  
HETATM   16  H   UNL     1     -10.421   7.954  67.573  1.00  0.00     0.000 HD 
BRANCH  15  17
HETATM   17  C   UNL     1     -10.015   9.980  67.095  1.00  0.00    -0.201 C  
BRANCH  17  18
HETATM   18  C   UNL     1     -11.115  10.688  67.917  1.00  0.00    -0.371 C  
BRANCH  18  19
HETATM   19  C   UNL     1     -10.934  11.102  69.400  1.00  0.00    -0.244 C  
HETATM   20  O   UNL     1      -9.733  10.515  69.911  1.00  0.00    -0.425 OA 
HETATM   21  H   UNL     1      -9.622  10.769  70.820  1.00  0.00     0.000 HD 
BRANCH  19  22
HETATM   22  C   UNL     1     -12.136  10.583  70.282  1.00  0.00    -0.318 C  
BRANCH  22  23
HETATM   23  N   UNL     1     -12.243   9.080  70.338  1.00  0.00    -0.451 N  
HETATM   24  C   UNL     1     -11.916   8.062  71.208  1.00  0.00    -0.296 C  
HETATM   25  H   UNL     1     -12.680   8.713  69.494  1.00  0.00     0.000 HD 
HETATM   26  O   UNL     1     -12.406   6.946  71.009  1.00  0.00    -0.381 OA 
BRANCH  24  27
HETATM   27  C   UNL     1     -10.879   8.286  72.321  1.00  0.00    -0.338 C  
BRANCH  27  28
HETATM   28  O   UNL     1     -10.843   7.518  73.513  1.00  0.00    -0.369 OA 
BRANCH  28  29
HETATM   29  C   UNL     1      -9.743   6.703  73.743  1.00  0.00    -0.224 A  
HETATM   30  C   UNL     1      -7.865   8.473  74.351  1.00  0.00    -0.174 C  
HETATM   31  C   UNL     1      -8.441   7.093  74.153  1.00  0.00    -0.196 A  
HETATM   32  C   UNL     1      -7.493   6.087  74.457  1.00  0.00    -0.093 A  
HETATM   33  C   UNL     1      -7.781   4.735  74.350  1.00  0.00    -0.092 A  
HETATM   34  C   UNL     1      -9.035   4.348  73.912  1.00  0.00    -0.102 A  
HETATM   35  C   UNL     1     -10.016   5.309  73.596  1.00  0.00    -0.194 A  
HETATM   36  C   UNL     1     -11.341   4.784  73.097  1.00  0.00    -0.380 C  
ENDBRANCH  28  29
ENDBRANCH  27  28
ENDBRANCH  24  27
ENDBRANCH  22  23
BRANCH  22  37
HETATM   37  C   UNL     1     -12.290  11.366  71.614  1.00  0.00    -0.069 C  
BRANCH  37  38
HETATM   38  C   UNL     1     -12.758  12.785  71.446  1.00  0.00    -0.353 A  
HETATM   39  C   UNL     1     -13.479  15.489  71.332  1.00  0.00    -0.583 A  
HETATM   40  C   UNL     1     -13.895  13.242  72.117  1.00  0.00    -0.555 A  
HETATM   41  C   UNL     1     -12.390  15.027  70.604  1.00  0.00    -0.404 A  
HETATM   42  C   UNL     1     -12.065  13.674  70.625  1.00  0.00    -0.398 A  
HETATM   43  C   UNL     1     -14.253  14.588  72.059  1.00  0.00    -0.630 A  
ENDBRANCH  37  38
ENDBRANCH  22  37
ENDBRANCH  19  22
ENDBRANCH  18  19
ENDBRANCH  17  18
BRANCH  17  44
HETATM   44  C   UNL     1     -10.080  10.083  65.555  1.00  0.00    -0.325 C  
BRANCH  44  45
HETATM   45  C   UNL     1      -8.730   9.934  64.878  1.00  0.00    -0.198 A  
HETATM   46  C   UNL     1      -7.560  10.451  65.460  1.00  0.00    -0.144 A  
HETATM   47  C   UNL     1      -8.633   9.296  63.636  1.00  0.00    -0.208 A  
HETATM   48  C   UNL     1      -6.334  10.364  64.792  1.00  0.00    -0.074 A  
HETATM   49  C   UNL     1      -7.407   9.206  62.972  1.00  0.00    -0.098 A  
HETATM   50  C   UNL     1      -6.259   9.748  63.544  1.00  0.00    -0.115 A  
ENDBRANCH  44  45
ENDBRANCH  17  44
ENDBRANCH  15  17
ENDBRANCH   3  13
TORSDOF 14
ENDMDL
MODEL      139
REMARK 921   NORMALIZED FREE ENERGY PREDICTED BY IDOCK:   -4.88 KCAL/MOL
REMARK 922        TOTAL FREE ENERGY PREDICTED BY IDOCK:  -13.43 KCAL/MOL
REMARK 923 INTER-LIGAND FREE ENERGY PREDICTED BY IDOCK:   -8.87 KCAL/MOL
REMARK 924 INTRA-LIGAND FREE ENERGY PREDICTED BY IDOCK:   -4.56 KCAL/MOL
REMARK 927      BINDING AFFINITY PREDICTED BY RF-SCORE:    0.00 PKD
ROOT
HETATM    1  C   UNL     1     -12.061  15.031  67.553  1.00  0.00     0.065 C  
HETATM    2  C   UNL     1     -11.533  13.639  67.931  1.00  0.00    -0.348 C  
HETATM    3  C   UNL     1     -12.246  13.095  69.207  1.00  0.00    -0.116 C  
HETATM    4  C   UNL     1     -11.663  12.723  66.712  1.00  0.00    -0.459 C  
ENDROOT
BRANCH   3   5
HETATM    5  N   UNL     1     -12.003  13.969  70.379  1.00  0.00    -0.323 N  
HETATM    6  H   UNL     1     -13.258  14.758  73.265  1.00  0.00     0.000 HD 
HETATM    7  O   UNL     1     -13.531  12.887  71.719  1.00  0.00    -0.395 OA 
HETATM    8  C   UNL     1     -10.873  14.890  70.394  1.00  0.00    -0.076 C  
HETATM    9  C   UNL     1     -12.767  13.826  71.518  1.00  0.00    -0.346 C  
HETATM   10  C   UNL     1     -11.341  16.239  70.907  1.00  0.00    -0.319 C  
HETATM   11  N   UNL     1     -12.685  14.844  72.425  1.00  0.00    -0.327 N  
HETATM   12  C   UNL     1     -11.866  16.032  72.313  1.00  0.00    -0.529 C  
ENDBRANCH   3   5
BRANCH   3  13
HETATM   13  C   UNL     1     -11.885  11.603  69.484  1.00  0.00    -0.348 C  
HETATM   14  O   UNL     1     -12.722  10.721  69.636  1.00  0.00    -0.234 OA 
HETATM   15  N   UNL     1     -10.535  11.358  69.635  1.00  0.00    -0.431 N  
HETATM   16  H   UNL     1      -9.909  12.146  69.471  1.00  0.00     0.000 HD 
BRANCH  15  17
HETATM   17  C   UNL     1      -9.904  10.092  70.003  1.00  0.00    -0.197 C  
BRANCH  17  18
HETATM   18  C   UNL     1      -8.403  10.015  69.645  1.00  0.00    -0.188 C  
BRANCH  18  19
HETATM   19  C   UNL     1      -7.871  10.097  68.192  1.00  0.00    -0.096 C  
HETATM   20  O   UNL     1      -8.832  10.771  67.374  1.00  0.00    -0.129 OA 
HETATM   21  H   UNL     1      -8.506  10.821  66.483  1.00  0.00     0.000 HD 
BRANCH  19  22
HETATM   22  C   UNL     1      -7.652   8.655  67.587  1.00  0.00    -0.098 C  
BRANCH  22  23
HETATM   23  N   UNL     1      -7.179   8.662  66.155  1.00  0.00    -0.084 N  
HETATM   24  C   UNL     1      -7.505   8.045  64.967  1.00  0.00    -0.087 C  
HETATM   25  H   UNL     1      -6.398   9.305  66.032  1.00  0.00     0.000 HD 
HETATM   26  O   UNL     1      -7.041   8.511  63.922  1.00  0.00    -0.088 OA 
BRANCH  24  27
HETATM   27  C   UNL     1      -8.325   6.743  64.960  1.00  0.00    -0.048 C  
BRANCH  27  28
HETATM   28  O   UNL     1      -7.890   5.558  64.315  1.00  0.00    -0.095 OA 
BRANCH  28  29
HETATM   29  C   UNL     1      -7.946   4.362  65.017  1.00  0.00    -0.097 A  
HETATM   30  C   UNL     1      -5.835   4.559  66.610  1.00  0.00    -0.026 C  
HETATM   31  C   UNL     1      -7.085   3.921  66.055  1.00  0.00    -0.067 A  
HETATM   32  C   UNL     1      -7.394   2.716  66.732  1.00  0.00    -0.069 A  
HETATM   33  C   UNL     1      -8.495   1.940  66.404  1.00  0.00    -0.102 A  
HETATM   34  C   UNL     1      -9.316   2.343  65.365  1.00  0.00    -0.022 A  
HETATM   35  C   UNL     1      -9.053   3.534  64.659  1.00  0.00    -0.132 A  
HETATM   36  C   UNL     1      -9.990   3.868  63.524  1.00  0.00    -0.172 C  
ENDBRANCH  28  29
ENDBRANCH  27  28
ENDBRANCH  24  27
ENDBRANCH  22  23
BRANCH  22  37
HETATM   37  C   UNL     1      -6.946   7.687  68.575  1.00  0.00    -0.072 C  
BRANCH  37  38
HETATM   38  C   UNL     1      -7.832   6.597  69.112  1.00  0.00    -0.111 A  
HETATM   39  C   UNL     1      -9.309   4.400  70.026  1.00  0.00    -0.227 A  
HETATM   40  C   UNL     1      -8.829   6.034  68.311  1.00  0.00    -0.111 A  
HETATM   41  C   UNL     1      -8.369   5.001  70.853  1.00  0.00    -0.112 A  
HETATM   42  C   UNL     1      -7.673   6.123  70.413  1.00  0.00    -0.098 A  
HETATM   43  C   UNL     1      -9.564   4.941  68.767  1.00  0.00    -0.219 A  
ENDBRANCH  37  38
ENDBRANCH  22  37
ENDBRANCH  19  22
ENDBRANCH  18  19
ENDBRANCH  17  18
BRANCH  17  44
HETATM   44  C   UNL     1     -10.780   8.850  69.730  1.00  0.00    -0.230 C  
BRANCH  44  45
HETATM   45  C   UNL     1     -10.903   7.918  70.920  1.00  0.00    -0.245 A  
HETATM   46  C   UNL     1     -11.793   6.831  70.909  1.00  0.00    -0.438 A  
HETATM   47  C   UNL     1     -10.142   8.146  72.073  1.00  0.00    -0.304 A  
HETATM   48  C   UNL     1     -11.942   6.021  72.040  1.00  0.00    -0.237 A  
HETATM   49  C   UNL     1     -10.289   7.333  73.200  1.00  0.00    -0.359 A  
HETATM   50  C   UNL     1     -11.196   6.276  73.188  1.00  0.00    -0.125 A  
ENDBRANCH  44  45
ENDBRANCH  17  44
ENDBRANCH  15  17
ENDBRANCH   3  13
TORSDOF 14
ENDMDL
MODEL      140
REMARK 921   NORMALIZED FREE ENERGY PREDICTED BY IDOCK:   -4.87 KCAL/MOL
REMARK 922        TOTAL FREE ENERGY PREDICTED BY IDOCK:  -13.41 KCAL/MOL
REMARK 923 INTER-LIGAND FREE ENERGY PREDICTED BY IDOCK:   -9.35 KCAL/MOL
REMARK 924 INTRA-LIGAND FREE ENERGY PREDICTED BY IDOCK:   -4.07 KCAL/MOL
REMARK 927      BINDING AFFINITY PREDICTED BY RF-SCORE:    0.00 PKD
ROOT
HETATM    1  C   UNL     1     -11.362  16.127  71.343  1.00  0.00    -0.325 C  
HETATM    2  C   UNL     1     -10.916  15.413  70.058  1.00  0.00    -0.313 C  
HETATM    3  C   UNL     1     -12.123  14.723  69.350  1.00  0.00    -0.270 C  
HETATM    4  C   UNL     1     -10.174  16.421  69.176  1.00  0.00    -0.280 C  
ENDROOT
BRANCH   3   5
HETATM    5  N   UNL     1     -12.739  13.689  70.213  1.00  0.00    -0.171 N  
HETATM    6  H   UNL     1     -14.555  13.356  72.881  1.00  0.00     0.000 HD 
HETATM    7  O   UNL     1     -14.102  15.179  71.320  1.00  0.00    -0.462 OA 
HETATM    8  C   UNL     1     -12.526  12.273  69.939  1.00  0.00     0.084 C  
HETATM    9  C   UNL     1     -13.623  14.054  71.206  1.00  0.00    -0.201 C  
HETATM   10  C   UNL     1     -12.210  11.558  71.239  1.00  0.00    -0.198 C  
HETATM   11  N   UNL     1     -13.913  13.093  72.133  1.00  0.00    -0.393 N  
HETATM   12  C   UNL     1     -13.400  11.740  72.158  1.00  0.00    -0.228 C  
ENDBRANCH   3   5
BRANCH   3  13
HETATM   13  C   UNL     1     -11.736  14.179  67.941  1.00  0.00    -0.367 C  
HETATM   14  O   UNL     1     -12.385  14.407  66.926  1.00  0.00    -0.371 OA 
HETATM   15  N   UNL     1     -10.643  13.337  67.930  1.00  0.00    -0.233 N  
HETATM   16  H   UNL     1     -10.151  13.219  68.816  1.00  0.00     0.000 HD 
BRANCH  15  17
HETATM   17  C   UNL     1     -10.112  12.595  66.789  1.00  0.00    -0.237 C  
BRANCH  17  18
HETATM   18  C   UNL     1     -10.651  11.152  66.676  1.00  0.00    -0.314 C  
BRANCH  18  19
HETATM   19  C   UNL     1      -9.744   9.924  66.408  1.00  0.00    -0.212 C  
HETATM   20  O   UNL     1      -9.991   9.433  65.087  1.00  0.00    -0.417 OA 
HETATM   21  H   UNL     1      -9.435   8.681  64.922  1.00  0.00     0.000 HD 
BRANCH  19  22
HETATM   22  C   UNL     1     -10.061   8.755  67.421  1.00  0.00    -0.226 C  
BRANCH  22  23
HETATM   23  N   UNL     1     -10.304   7.424  66.756  1.00  0.00    -0.440 N  
HETATM   24  C   UNL     1      -9.634   6.234  66.572  1.00  0.00    -0.146 C  
HETATM   25  H   UNL     1     -11.225   7.397  66.318  1.00  0.00     0.000 HD 
HETATM   26  O   UNL     1     -10.279   5.257  66.179  1.00  0.00    -0.200 OA 
BRANCH  24  27
HETATM   27  C   UNL     1      -8.106   6.163  66.737  1.00  0.00    -0.109 C  
BRANCH  27  28
HETATM   28  O   UNL     1      -7.465   5.263  67.626  1.00  0.00    -0.081 OA 
BRANCH  28  29
HETATM   29  C   UNL     1      -7.598   5.472  68.992  1.00  0.00    -0.087 A  
HETATM   30  C   UNL     1      -9.743   4.021  69.564  1.00  0.00    -0.227 C  
HETATM   31  C   UNL     1      -8.560   4.907  69.869  1.00  0.00    -0.102 A  
HETATM   32  C   UNL     1      -8.442   5.153  71.259  1.00  0.00    -0.124 A  
HETATM   33  C   UNL     1      -7.436   5.943  71.792  1.00  0.00    -0.095 A  
HETATM   34  C   UNL     1      -6.519   6.530  70.938  1.00  0.00    -0.049 A  
HETATM   35  C   UNL     1      -6.591   6.319  69.547  1.00  0.00    -0.048 A  
HETATM   36  C   UNL     1      -5.563   7.030  68.701  1.00  0.00    -0.018 C  
ENDBRANCH  28  29
ENDBRANCH  27  28
ENDBRANCH  24  27
ENDBRANCH  22  23
BRANCH  22  37
HETATM   37  C   UNL     1      -9.146   8.777  68.675  1.00  0.00    -0.141 C  
BRANCH  37  38
HETATM   38  C   UNL     1      -9.849   8.432  69.959  1.00  0.00    -0.182 A  
HETATM   39  C   UNL     1     -11.300   8.000  72.315  1.00  0.00    -0.413 A  
HETATM   40  C   UNL     1      -9.373   8.916  71.181  1.00  0.00    -0.326 A  
HETATM   41  C   UNL     1     -11.740   7.456  71.115  1.00  0.00    -0.322 A  
HETATM   42  C   UNL     1     -10.990   7.631  69.956  1.00  0.00    -0.237 A  
HETATM   43  C   UNL     1     -10.096   8.700  72.352  1.00  0.00    -0.321 A  
ENDBRANCH  37  38
ENDBRANCH  22  37
ENDBRANCH  19  22
ENDBRANCH  18  19
ENDBRANCH  17  18
BRANCH  17  44
HETATM   44  C   UNL     1      -8.607  12.830  66.531  1.00  0.00     0.078 C  
BRANCH  44  45
HETATM   45  C   UNL     1      -7.766  12.822  67.793  1.00  0.00    -0.152 A  
HETATM   46  C   UNL     1      -7.607  13.979  68.574  1.00  0.00    -0.130 A  
HETATM   47  C   UNL     1      -7.105  11.653  68.190  1.00  0.00    -0.078 A  
HETATM   48  C   UNL     1      -6.774  13.972  69.698  1.00  0.00    -0.064 A  
HETATM   49  C   UNL     1      -6.276  11.647  69.316  1.00  0.00    -0.086 A  
HETATM   50  C   UNL     1      -6.103  12.808  70.064  1.00  0.00    -0.112 A  
ENDBRANCH  44  45
ENDBRANCH  17  44
ENDBRANCH  15  17
ENDBRANCH   3  13
TORSDOF 14
ENDMDL
MODEL      141
REMARK 921   NORMALIZED FREE ENERGY PREDICTED BY IDOCK:   -4.86 KCAL/MOL
REMARK 922        TOTAL FREE ENERGY PREDICTED BY IDOCK:  -13.39 KCAL/MOL
REMARK 923 INTER-LIGAND FREE ENERGY PREDICTED BY IDOCK:  -10.72 KCAL/MOL
REMARK 924 INTRA-LIGAND FREE ENERGY PREDICTED BY IDOCK:   -2.67 KCAL/MOL
REMARK 927      BINDING AFFINITY PREDICTED BY RF-SCORE:    0.00 PKD
ROOT
HETATM    1  C   UNL     1      -8.953   5.697  69.100  1.00  0.00    -0.120 C  
HETATM    2  C   UNL     1      -9.665   6.730  68.213  1.00  0.00    -0.126 C  
HETATM    3  C   UNL     1      -9.677   8.136  68.887  1.00  0.00    -0.156 C  
HETATM    4  C   UNL     1      -9.014   6.712  66.828  1.00  0.00    -0.139 C  
ENDROOT
BRANCH   3   5
HETATM    5  N   UNL     1     -10.407   8.115  70.177  1.00  0.00    -0.211 N  
HETATM    6  H   UNL     1     -10.016   8.768  73.330  1.00  0.00     0.000 HD 
HETATM    7  O   UNL     1      -8.840   9.390  71.282  1.00  0.00    -0.287 OA 
HETATM    8  C   UNL     1     -11.776   7.619  70.244  1.00  0.00     0.016 C  
HETATM    9  C   UNL     1      -9.843   8.683  71.299  1.00  0.00    -0.238 C  
HETATM   10  C   UNL     1     -11.913   6.701  71.443  1.00  0.00    -0.405 C  
HETATM   11  N   UNL     1     -10.433   8.367  72.490  1.00  0.00    -0.329 N  
HETATM   12  C   UNL     1     -11.591   7.518  72.678  1.00  0.00    -0.282 C  
ENDBRANCH   3   5
BRANCH   3  13
HETATM   13  C   UNL     1     -10.199   9.241  67.918  1.00  0.00    -0.214 C  
HETATM   14  O   UNL     1     -11.167   9.092  67.181  1.00  0.00     0.174 OA 
HETATM   15  N   UNL     1      -9.429  10.386  67.884  1.00  0.00    -0.138 N  
HETATM   16  H   UNL     1      -8.654  10.432  68.545  1.00  0.00     0.000 HD 
BRANCH  15  17
HETATM   17  C   UNL     1      -9.602  11.540  67.005  1.00  0.00    -0.185 C  
BRANCH  17  18
HETATM   18  C   UNL     1     -10.718  12.509  67.458  1.00  0.00    -0.250 C  
BRANCH  18  19
HETATM   19  C   UNL     1     -10.499  14.033  67.637  1.00  0.00    -0.245 C  
HETATM   20  O   UNL     1      -9.410  14.454  66.810  1.00  0.00    -0.246 OA 
HETATM   21  H   UNL     1      -9.276  15.389  66.920  1.00  0.00     0.000 HD 
BRANCH  19  22
HETATM   22  C   UNL     1     -10.127  14.378  69.132  1.00  0.00    -0.098 C  
BRANCH  22  23
HETATM   23  N   UNL     1      -8.646  14.345  69.413  1.00  0.00    -0.359 N  
HETATM   24  C   UNL     1      -7.618  15.246  69.589  1.00  0.00    -0.176 C  
HETATM   25  H   UNL     1      -8.311  13.386  69.495  1.00  0.00     0.000 HD 
HETATM   26  O   UNL     1      -6.557  14.832  70.067  1.00  0.00    -0.163 OA 
BRANCH  24  27
HETATM   27  C   UNL     1      -7.752  16.695  69.092  1.00  0.00    -0.186 C  
BRANCH  27  28
HETATM   28  O   UNL     1      -8.405  17.041  67.881  1.00  0.00    -0.194 OA 
BRANCH  28  29
HETATM   29  C   UNL     1      -7.798  17.963  67.040  1.00  0.00    -0.214 A  
HETATM   30  C   UNL     1      -5.398  16.890  66.689  1.00  0.00    -0.095 C  
HETATM   31  C   UNL     1      -6.499  17.898  66.470  1.00  0.00    -0.245 A  
HETATM   32  C   UNL     1      -6.118  18.886  65.531  1.00  0.00    -0.273 A  
HETATM   33  C   UNL     1      -6.957  19.927  65.162  1.00  0.00    -0.204 A  
HETATM   34  C   UNL     1      -8.209  20.018  65.744  1.00  0.00    -0.092 A  
HETATM   35  C   UNL     1      -8.638  19.062  66.685  1.00  0.00    -0.319 A  
HETATM   36  C   UNL     1     -10.008  19.270  67.284  1.00  0.00    -0.456 C  
ENDBRANCH  28  29
ENDBRANCH  27  28
ENDBRANCH  24  27
ENDBRANCH  22  23
BRANCH  22  37
HETATM   37  C   UNL     1     -10.941  15.574  69.697  1.00  0.00    -0.288 C  
BRANCH  37  38
HETATM   38  C   UNL     1     -11.807  15.230  70.877  1.00  0.00    -0.387 A  
HETATM   39  C   UNL     1     -13.621  14.666  72.935  1.00  0.00    -0.463 A  
HETATM   40  C   UNL     1     -12.077  16.184  71.861  1.00  0.00    -0.548 A  
HETATM   41  C   UNL     1     -13.302  13.689  72.001  1.00  0.00    -0.548 A  
HETATM   42  C   UNL     1     -12.363  13.958  71.009  1.00  0.00    -0.453 A  
HETATM   43  C   UNL     1     -12.980  15.902  72.885  1.00  0.00    -0.595 A  
ENDBRANCH  37  38
ENDBRANCH  22  37
ENDBRANCH  19  22
ENDBRANCH  18  19
ENDBRANCH  17  18
BRANCH  17  44
HETATM   44  C   UNL     1      -9.497  11.206  65.501  1.00  0.00    -0.251 C  
BRANCH  44  45
HETATM   45  C   UNL     1      -8.358  10.262  65.166  1.00  0.00    -0.162 A  
HETATM   46  C   UNL     1      -7.054  10.495  65.635  1.00  0.00    -0.119 A  
HETATM   47  C   UNL     1      -8.586   9.146  64.353  1.00  0.00    -0.204 A  
HETATM   48  C   UNL     1      -6.002   9.652  65.262  1.00  0.00    -0.069 A  
HETATM   49  C   UNL     1      -7.534   8.302  63.985  1.00  0.00    -0.110 A  
HETATM   50  C   UNL     1      -6.241   8.560  64.431  1.00  0.00    -0.066 A  
ENDBRANCH  44  45
ENDBRANCH  17  44
ENDBRANCH  15  17
ENDBRANCH   3  13
TORSDOF 14
ENDMDL
MODEL      142
REMARK 921   NORMALIZED FREE ENERGY PREDICTED BY IDOCK:   -4.84 KCAL/MOL
REMARK 922        TOTAL FREE ENERGY PREDICTED BY IDOCK:  -13.36 KCAL/MOL
REMARK 923 INTER-LIGAND FREE ENERGY PREDICTED BY IDOCK:  -12.09 KCAL/MOL
REMARK 924 INTRA-LIGAND FREE ENERGY PREDICTED BY IDOCK:   -1.27 KCAL/MOL
REMARK 927      BINDING AFFINITY PREDICTED BY RF-SCORE:    0.00 PKD
ROOT
HETATM    1  C   UNL     1      -8.664   4.531  66.918  1.00  0.00    -0.111 C  
HETATM    2  C   UNL     1      -9.540   5.755  67.227  1.00  0.00    -0.122 C  
HETATM    3  C   UNL     1      -8.790   7.081  66.894  1.00  0.00    -0.124 C  
HETATM    4  C   UNL     1     -10.873   5.596  66.491  1.00  0.00    -0.239 C  
ENDROOT
BRANCH   3   5
HETATM    5  N   UNL     1      -7.560   7.229  67.707  1.00  0.00    -0.108 N  
HETATM    6  H   UNL     1      -4.326   7.192  67.455  1.00  0.00     0.000 HD 
HETATM    7  O   UNL     1      -6.175   7.464  65.883  1.00  0.00    -0.040 OA 
HETATM    8  C   UNL     1      -7.646   7.424  69.149  1.00  0.00    -0.105 C  
HETATM    9  C   UNL     1      -6.330   7.311  67.091  1.00  0.00    -0.051 C  
HETATM   10  C   UNL     1      -6.634   6.523  69.832  1.00  0.00    -0.048 C  
HETATM   11  N   UNL     1      -5.242   7.149  67.901  1.00  0.00    -0.018 N  
HETATM   12  C   UNL     1      -5.261   6.921  69.331  1.00  0.00    -0.014 C  
ENDBRANCH   3   5
BRANCH   3  13
HETATM   13  C   UNL     1      -9.730   8.322  66.994  1.00  0.00    -0.211 C  
HETATM   14  O   UNL     1     -10.030   9.023  66.034  1.00  0.00    -0.283 OA 
HETATM   15  N   UNL     1     -10.137   8.632  68.276  1.00  0.00    -0.185 N  
HETATM   16  H   UNL     1      -9.857   7.983  69.011  1.00  0.00     0.000 HD 
BRANCH  15  17
HETATM   17  C   UNL     1     -10.926   9.788  68.695  1.00  0.00    -0.147 C  
BRANCH  17  18
HETATM   18  C   UNL     1     -10.945  10.938  67.665  1.00  0.00    -0.350 C  
BRANCH  18  19
HETATM   19  C   UNL     1     -10.059  12.205  67.788  1.00  0.00    -0.199 C  
HETATM   20  O   UNL     1      -9.213  12.079  68.934  1.00  0.00    -0.393 OA 
HETATM   21  H   UNL     1      -8.670  12.855  69.010  1.00  0.00     0.000 HD 
BRANCH  19  22
HETATM   22  C   UNL     1     -10.945  13.497  67.985  1.00  0.00    -0.251 C  
BRANCH  22  23
HETATM   23  N   UNL     1     -11.208  14.253  66.708  1.00  0.00    -0.322 N  
HETATM   24  C   UNL     1     -10.503  15.036  65.818  1.00  0.00    -0.337 C  
HETATM   25  H   UNL     1     -12.182  14.159  66.420  1.00  0.00     0.000 HD 
HETATM   26  O   UNL     1     -11.017  15.277  64.722  1.00  0.00    -0.410 OA 
BRANCH  24  27
HETATM   27  C   UNL     1      -9.172  15.685  66.232  1.00  0.00    -0.330 C  
BRANCH  27  28
HETATM   28  O   UNL     1      -8.880  17.057  66.017  1.00  0.00    -0.477 OA 
BRANCH  28  29
HETATM   29  C   UNL     1      -8.207  17.754  67.011  1.00  0.00    -0.221 A  
HETATM   30  C   UNL     1      -5.703  16.962  66.640  1.00  0.00    -0.127 C  
HETATM   31  C   UNL     1      -6.812  17.763  67.276  1.00  0.00    -0.190 A  
HETATM   32  C   UNL     1      -6.312  18.649  68.262  1.00  0.00    -0.220 A  
HETATM   33  C   UNL     1      -7.135  19.491  68.992  1.00  0.00    -0.399 A  
HETATM   34  C   UNL     1      -8.500  19.458  68.767  1.00  0.00    -0.377 A  
HETATM   35  C   UNL     1      -9.050  18.596  67.798  1.00  0.00    -0.303 A  
HETATM   36  C   UNL     1     -10.552  18.613  67.652  1.00  0.00    -0.458 C  
ENDBRANCH  28  29
ENDBRANCH  27  28
ENDBRANCH  24  27
ENDBRANCH  22  23
BRANCH  22  37
HETATM   37  C   UNL     1     -12.144  13.267  68.946  1.00  0.00    -0.260 C  
BRANCH  37  38
HETATM   38  C   UNL     1     -12.131  14.142  70.169  1.00  0.00    -0.411 A  
HETATM   39  C   UNL     1     -11.880  15.668  72.503  1.00  0.00    -0.583 A  
HETATM   40  C   UNL     1     -12.675  13.687  71.373  1.00  0.00    -0.437 A  
HETATM   41  C   UNL     1     -11.401  16.159  71.295  1.00  0.00    -0.347 A  
HETATM   42  C   UNL     1     -11.572  15.419  70.129  1.00  0.00    -0.351 A  
HETATM   43  C   UNL     1     -12.550  14.447  72.533  1.00  0.00    -0.356 A  
ENDBRANCH  37  38
ENDBRANCH  22  37
ENDBRANCH  19  22
ENDBRANCH  18  19
ENDBRANCH  17  18
BRANCH  17  44
HETATM   44  C   UNL     1     -10.763  10.152  70.187  1.00  0.00    -0.355 C  
BRANCH  44  45
HETATM   45  C   UNL     1     -10.695   8.945  71.104  1.00  0.00    -0.333 A  
HETATM   46  C   UNL     1      -9.543   8.664  71.857  1.00  0.00    -0.377 A  
HETATM   47  C   UNL     1     -11.782   8.069  71.195  1.00  0.00    -0.307 A  
HETATM   48  C   UNL     1      -9.471   7.511  72.646  1.00  0.00    -0.212 A  
HETATM   49  C   UNL     1     -11.710   6.920  71.987  1.00  0.00    -0.336 A  
HETATM   50  C   UNL     1     -10.552   6.635  72.706  1.00  0.00    -0.260 A  
ENDBRANCH  44  45
ENDBRANCH  17  44
ENDBRANCH  15  17
ENDBRANCH   3  13
TORSDOF 14
ENDMDL
MODEL      143
REMARK 921   NORMALIZED FREE ENERGY PREDICTED BY IDOCK:   -4.84 KCAL/MOL
REMARK 922        TOTAL FREE ENERGY PREDICTED BY IDOCK:  -13.36 KCAL/MOL
REMARK 923 INTER-LIGAND FREE ENERGY PREDICTED BY IDOCK:  -10.56 KCAL/MOL
REMARK 924 INTRA-LIGAND FREE ENERGY PREDICTED BY IDOCK:   -2.80 KCAL/MOL
REMARK 927      BINDING AFFINITY PREDICTED BY RF-SCORE:    0.00 PKD
ROOT
HETATM    1  C   UNL     1      -7.877   6.965  63.252  1.00  0.00    -0.104 C  
HETATM    2  C   UNL     1      -7.520   7.152  64.735  1.00  0.00    -0.096 C  
HETATM    3  C   UNL     1      -8.658   7.899  65.496  1.00  0.00    -0.116 C  
HETATM    4  C   UNL     1      -7.174   5.784  65.327  1.00  0.00    -0.070 C  
ENDROOT
BRANCH   3   5
HETATM    5  N   UNL     1      -8.882   9.256  64.944  1.00  0.00    -0.197 N  
HETATM    6  H   UNL     1     -11.073  11.647  64.885  1.00  0.00     0.000 HD 
HETATM    7  O   UNL     1     -10.680   9.703  66.310  1.00  0.00    -0.040 OA 
HETATM    8  C   UNL     1      -7.893   9.870  64.066  1.00  0.00    -0.145 C  
HETATM    9  C   UNL     1      -9.966  10.000  65.358  1.00  0.00    -0.294 C  
HETATM   10  C   UNL     1      -8.603  10.499  62.883  1.00  0.00    -0.205 C  
HETATM   11  N   UNL     1     -10.264  11.096  64.599  1.00  0.00    -0.293 N  
HETATM   12  C   UNL     1      -9.545  11.553  63.428  1.00  0.00    -0.313 C  
ENDBRANCH   3   5
BRANCH   3  13
HETATM   13  C   UNL     1      -8.417   7.909  67.037  1.00  0.00    -0.124 C  
HETATM   14  O   UNL     1      -7.365   8.269  67.556  1.00  0.00    -0.089 OA 
HETATM   15  N   UNL     1      -9.457   7.394  67.785  1.00  0.00    -0.139 N  
HETATM   16  H   UNL     1     -10.301   7.137  67.273  1.00  0.00     0.000 HD 
BRANCH  15  17
HETATM   17  C   UNL     1      -9.481   7.175  69.229  1.00  0.00    -0.152 C  
BRANCH  17  18
HETATM   18  C   UNL     1      -9.211   8.450  70.059  1.00  0.00    -0.158 C  
BRANCH  18  19
HETATM   19  C   UNL     1     -10.334   9.410  70.531  1.00  0.00    -0.281 C  
HETATM   20  O   UNL     1     -11.607   8.833  70.227  1.00  0.00    -0.446 OA 
HETATM   21  H   UNL     1     -12.295   9.421  70.516  1.00  0.00     0.000 HD 
BRANCH  19  22
HETATM   22  C   UNL     1     -10.243  10.796  69.781  1.00  0.00     0.029 C  
BRANCH  22  23
HETATM   23  N   UNL     1      -9.123  10.869  68.773  1.00  0.00    -0.176 N  
HETATM   24  C   UNL     1      -8.595  11.791  67.895  1.00  0.00    -0.156 C  
HETATM   25  H   UNL     1      -8.613   9.988  68.729  1.00  0.00     0.000 HD 
HETATM   26  O   UNL     1      -7.486  11.560  67.406  1.00  0.00    -0.111 OA 
BRANCH  24  27
HETATM   27  C   UNL     1      -9.421  13.010  67.450  1.00  0.00    -0.210 C  
BRANCH  27  28
HETATM   28  O   UNL     1      -9.070  13.819  66.339  1.00  0.00    -0.184 OA 
BRANCH  28  29
HETATM   29  C   UNL     1      -9.076  15.198  66.494  1.00  0.00    -0.294 A  
HETATM   30  C   UNL     1      -6.957  15.588  68.040  1.00  0.00    -0.144 C  
HETATM   31  C   UNL     1      -8.139  15.999  67.197  1.00  0.00    -0.232 A  
HETATM   32  C   UNL     1      -8.258  17.409  67.126  1.00  0.00    -0.229 A  
HETATM   33  C   UNL     1      -9.269  18.035  66.413  1.00  0.00    -0.256 A  
HETATM   34  C   UNL     1     -10.209  17.259  65.759  1.00  0.00    -0.212 A  
HETATM   35  C   UNL     1     -10.137  15.853  65.798  1.00  0.00    -0.389 A  
HETATM   36  C   UNL     1     -11.229  15.099  65.078  1.00  0.00    -0.414 C  
ENDBRANCH  28  29
ENDBRANCH  27  28
ENDBRANCH  24  27
ENDBRANCH  22  23
BRANCH  22  37
HETATM   37  C   UNL     1     -11.632  11.346  69.356  1.00  0.00    -0.391 C  
BRANCH  37  38
HETATM   38  C   UNL     1     -12.226  12.336  70.319  1.00  0.00    -0.342 A  
HETATM   39  C   UNL     1     -13.556  14.146  71.991  1.00  0.00    -0.540 A  
HETATM   40  C   UNL     1     -12.228  13.701  70.023  1.00  0.00    -0.395 A  
HETATM   41  C   UNL     1     -13.497  12.800  72.329  1.00  0.00    -0.591 A  
HETATM   42  C   UNL     1     -12.793  11.912  71.520  1.00  0.00    -0.421 A  
HETATM   43  C   UNL     1     -12.889  14.601  70.856  1.00  0.00    -0.427 A  
ENDBRANCH  37  38
ENDBRANCH  22  37
ENDBRANCH  19  22
ENDBRANCH  18  19
ENDBRANCH  17  18
BRANCH  17  44
HETATM   44  C   UNL     1      -8.805   5.861  69.677  1.00  0.00    -0.131 C  
BRANCH  44  45
HETATM   45  C   UNL     1      -9.054   5.514  71.133  1.00  0.00    -0.159 A  
HETATM   46  C   UNL     1      -7.990   5.305  72.027  1.00  0.00    -0.113 A  
HETATM   47  C   UNL     1     -10.363   5.369  71.608  1.00  0.00    -0.280 A  
HETATM   48  C   UNL     1      -8.236   4.921  73.350  1.00  0.00    -0.107 A  
HETATM   49  C   UNL     1     -10.606   4.989  72.930  1.00  0.00    -0.280 A  
HETATM   50  C   UNL     1      -9.544   4.756  73.799  1.00  0.00    -0.139 A  
ENDBRANCH  44  45
ENDBRANCH  17  44
ENDBRANCH  15  17
ENDBRANCH   3  13
TORSDOF 14
ENDMDL
MODEL      144
REMARK 921   NORMALIZED FREE ENERGY PREDICTED BY IDOCK:   -4.83 KCAL/MOL
REMARK 922        TOTAL FREE ENERGY PREDICTED BY IDOCK:  -13.34 KCAL/MOL
REMARK 923 INTER-LIGAND FREE ENERGY PREDICTED BY IDOCK:  -10.71 KCAL/MOL
REMARK 924 INTRA-LIGAND FREE ENERGY PREDICTED BY IDOCK:   -2.62 KCAL/MOL
REMARK 927      BINDING AFFINITY PREDICTED BY RF-SCORE:    0.00 PKD
ROOT
HETATM    1  C   UNL     1      -9.571  11.393  63.392  1.00  0.00    -0.344 C  
HETATM    2  C   UNL     1      -9.475  10.918  64.850  1.00  0.00    -0.277 C  
HETATM    3  C   UNL     1     -10.778  11.256  65.638  1.00  0.00    -0.217 C  
HETATM    4  C   UNL     1      -9.117   9.431  64.854  1.00  0.00    -0.258 C  
ENDROOT
BRANCH   3   5
HETATM    5  N   UNL     1     -11.021  12.717  65.687  1.00  0.00    -0.274 N  
HETATM    6  H   UNL     1     -13.092  14.985  64.643  1.00  0.00     0.000 HD 
HETATM    7  O   UNL     1     -13.179  12.558  64.899  1.00  0.00    -0.787 OA 
HETATM    8  C   UNL     1     -10.080  13.602  66.363  1.00  0.00    -0.295 C  
HETATM    9  C   UNL     1     -12.203  13.237  65.205  1.00  0.00    -0.443 C  
HETATM   10  C   UNL     1      -9.823  14.814  65.488  1.00  0.00    -0.336 C  
HETATM   11  N   UNL     1     -12.228  14.590  65.014  1.00  0.00    -0.394 N  
HETATM   12  C   UNL     1     -11.150  15.517  65.287  1.00  0.00    -0.338 C  
ENDBRANCH   3   5
BRANCH   3  13
HETATM   13  C   UNL     1     -10.790  10.597  67.051  1.00  0.00    -0.238 C  
HETATM   14  O   UNL     1     -10.955   9.396  67.237  1.00  0.00    -0.183 OA 
HETATM   15  N   UNL     1     -10.686  11.487  68.102  1.00  0.00    -0.195 N  
HETATM   16  H   UNL     1     -10.532  12.464  67.855  1.00  0.00     0.000 HD 
BRANCH  15  17
HETATM   17  C   UNL     1     -10.775  11.182  69.528  1.00  0.00    -0.143 C  
BRANCH  17  18
HETATM   18  C   UNL     1      -9.937   9.958  69.958  1.00  0.00    -0.302 C  
BRANCH  18  19
HETATM   19  C   UNL     1      -8.387   9.948  69.965  1.00  0.00    -0.168 C  
HETATM   20  O   UNL     1      -7.904  11.063  69.209  1.00  0.00    -0.271 OA 
HETATM   21  H   UNL     1      -6.954  11.057  69.213  1.00  0.00     0.000 HD 
BRANCH  19  22
HETATM   22  C   UNL     1      -7.828   8.634  69.292  1.00  0.00    -0.101 C  
BRANCH  22  23
HETATM   23  N   UNL     1      -6.882   8.893  68.146  1.00  0.00    -0.068 N  
HETATM   24  C   UNL     1      -6.402   8.221  67.043  1.00  0.00    -0.056 C  
HETATM   25  H   UNL     1      -6.487   9.831  68.203  1.00  0.00     0.000 HD 
HETATM   26  O   UNL     1      -5.820   8.873  66.171  1.00  0.00    -0.049 OA 
BRANCH  24  27
HETATM   27  C   UNL     1      -6.485   6.687  66.964  1.00  0.00    -0.043 C  
BRANCH  27  28
HETATM   28  O   UNL     1      -6.117   5.950  65.809  1.00  0.00    -0.030 OA 
BRANCH  28  29
HETATM   29  C   UNL     1      -7.090   5.202  65.161  1.00  0.00    -0.063 A  
HETATM   30  C   UNL     1      -7.514   3.237  66.890  1.00  0.00    -0.075 C  
HETATM   31  C   UNL     1      -7.748   4.036  65.632  1.00  0.00    -0.089 A  
HETATM   32  C   UNL     1      -8.808   3.495  64.864  1.00  0.00    -0.122 A  
HETATM   33  C   UNL     1      -9.214   4.050  63.660  1.00  0.00    -0.138 A  
HETATM   34  C   UNL     1      -8.550   5.163  63.176  1.00  0.00    -0.091 A  
HETATM   35  C   UNL     1      -7.487   5.741  63.900  1.00  0.00    -0.069 A  
HETATM   36  C   UNL     1      -6.809   6.933  63.270  1.00  0.00    -0.048 C  
ENDBRANCH  28  29
ENDBRANCH  27  28
ENDBRANCH  24  27
ENDBRANCH  22  23
BRANCH  22  37
HETATM   37  C   UNL     1      -7.424   7.549  70.327  1.00  0.00    -0.085 C  
BRANCH  37  38
HETATM   38  C   UNL     1      -8.224   6.279  70.236  1.00  0.00    -0.125 A  
HETATM   39  C   UNL     1      -9.562   3.846  69.871  1.00  0.00    -0.270 A  
HETATM   40  C   UNL     1      -9.356   6.211  69.419  1.00  0.00    -0.147 A  
HETATM   41  C   UNL     1      -8.481   3.924  70.740  1.00  0.00    -0.099 A  
HETATM   42  C   UNL     1      -7.850   5.145  70.956  1.00  0.00    -0.097 A  
HETATM   43  C   UNL     1     -10.021   5.000  69.239  1.00  0.00    -0.277 A  
ENDBRANCH  37  38
ENDBRANCH  22  37
ENDBRANCH  19  22
ENDBRANCH  18  19
ENDBRANCH  17  18
BRANCH  17  44
HETATM   44  C   UNL     1     -12.194  11.334  70.116  1.00  0.00    -0.410 C  
BRANCH  44  45
HETATM   45  C   UNL     1     -12.511  12.741  70.586  1.00  0.00    -0.328 A  
HETATM   46  C   UNL     1     -13.206  12.973  71.785  1.00  0.00    -0.486 A  
HETATM   47  C   UNL     1     -12.134  13.844  69.810  1.00  0.00    -0.404 A  
HETATM   48  C   UNL     1     -13.548  14.274  72.171  1.00  0.00    -0.546 A  
HETATM   49  C   UNL     1     -12.473  15.142  70.199  1.00  0.00    -0.361 A  
HETATM   50  C   UNL     1     -13.188  15.358  71.374  1.00  0.00    -0.578 A  
ENDBRANCH  44  45
ENDBRANCH  17  44
ENDBRANCH  15  17
ENDBRANCH   3  13
TORSDOF 14
ENDMDL
MODEL      145
REMARK 921   NORMALIZED FREE ENERGY PREDICTED BY IDOCK:   -4.82 KCAL/MOL
REMARK 922        TOTAL FREE ENERGY PREDICTED BY IDOCK:  -13.32 KCAL/MOL
REMARK 923 INTER-LIGAND FREE ENERGY PREDICTED BY IDOCK:  -11.01 KCAL/MOL
REMARK 924 INTRA-LIGAND FREE ENERGY PREDICTED BY IDOCK:   -2.31 KCAL/MOL
REMARK 927      BINDING AFFINITY PREDICTED BY RF-SCORE:    0.00 PKD
ROOT
HETATM    1  C   UNL     1      -8.086   4.287  68.867  1.00  0.00    -0.073 C  
HETATM    2  C   UNL     1      -8.029   5.821  68.935  1.00  0.00    -0.098 C  
HETATM    3  C   UNL     1      -8.434   6.459  67.571  1.00  0.00    -0.116 C  
HETATM    4  C   UNL     1      -8.885   6.286  70.115  1.00  0.00    -0.149 C  
ENDROOT
BRANCH   3   5
HETATM    5  N   UNL     1      -7.511   6.052  66.485  1.00  0.00    -0.088 N  
HETATM    6  H   UNL     1      -4.411   6.292  65.562  1.00  0.00     0.000 HD 
HETATM    7  O   UNL     1      -5.609   6.583  67.670  1.00  0.00    -0.005 OA 
HETATM    8  C   UNL     1      -8.007   5.315  65.330  1.00  0.00    -0.106 C  
HETATM    9  C   UNL     1      -6.154   6.255  66.620  1.00  0.00    -0.029 C  
HETATM   10  C   UNL     1      -7.420   5.918  64.068  1.00  0.00    -0.078 C  
HETATM   11  N   UNL     1      -5.414   6.130  65.479  1.00  0.00    -0.016 N  
HETATM   12  C   UNL     1      -5.914   5.790  64.163  1.00  0.00    -0.025 C  
ENDBRANCH   3   5
BRANCH   3  13
HETATM   13  C   UNL     1      -8.591   8.007  67.678  1.00  0.00    -0.130 C  
HETATM   14  O   UNL     1      -7.739   8.742  68.165  1.00  0.00    -0.099 OA 
HETATM   15  N   UNL     1      -9.815   8.491  67.260  1.00  0.00    -0.181 N  
HETATM   16  H   UNL     1     -10.456   7.811  66.850  1.00  0.00     0.000 HD 
BRANCH  15  17
HETATM   17  C   UNL     1     -10.293   9.869  67.339  1.00  0.00    -0.246 C  
BRANCH  17  18
HETATM   18  C   UNL     1     -11.483  10.063  68.304  1.00  0.00     0.009 C  
BRANCH  18  19
HETATM   19  C   UNL     1     -11.379  10.851  69.635  1.00  0.00    -0.292 C  
HETATM   20  O   UNL     1     -10.242  10.388  70.370  1.00  0.00    -0.402 OA 
HETATM   21  H   UNL     1     -10.178  10.871  71.186  1.00  0.00     0.000 HD 
BRANCH  19  22
HETATM   22  C   UNL     1     -12.658  10.618  70.531  1.00  0.00    -0.348 C  
BRANCH  22  23
HETATM   23  N   UNL     1     -13.004   9.163  70.727  1.00  0.00    -0.500 N  
HETATM   24  C   UNL     1     -12.646   8.130  71.566  1.00  0.00    -0.304 C  
HETATM   25  H   UNL     1     -13.700   8.858  70.048  1.00  0.00     0.000 HD 
HETATM   26  O   UNL     1     -13.355   7.119  71.581  1.00  0.00    -0.376 OA 
BRANCH  24  27
HETATM   27  C   UNL     1     -11.335   8.192  72.369  1.00  0.00    -0.391 C  
BRANCH  27  28
HETATM   28  O   UNL     1     -11.111   7.431  73.545  1.00  0.00    -0.290 OA 
BRANCH  28  29
HETATM   29  C   UNL     1     -10.195   6.390  73.496  1.00  0.00    -0.248 A  
HETATM   30  C   UNL     1     -11.757   4.307  72.993  1.00  0.00     0.035 C  
HETATM   31  C   UNL     1     -10.447   5.021  73.214  1.00  0.00    -0.261 A  
HETATM   32  C   UNL     1      -9.347   4.138  73.087  1.00  0.00    -0.130 A  
HETATM   33  C   UNL     1      -8.035   4.555  73.248  1.00  0.00    -0.095 A  
HETATM   34  C   UNL     1      -7.785   5.879  73.564  1.00  0.00    -0.101 A  
HETATM   35  C   UNL     1      -8.843   6.800  73.702  1.00  0.00    -0.158 A  
HETATM   36  C   UNL     1      -8.465   8.212  74.078  1.00  0.00    -0.289 C  
ENDBRANCH  28  29
ENDBRANCH  27  28
ENDBRANCH  24  27
ENDBRANCH  22  23
BRANCH  22  37
HETATM   37  C   UNL     1     -12.700  11.543  71.777  1.00  0.00    -0.340 C  
BRANCH  37  38
HETATM   38  C   UNL     1     -12.839  13.006  71.456  1.00  0.00    -0.386 A  
HETATM   39  C   UNL     1     -12.942  15.776  71.059  1.00  0.00    -0.377 A  
HETATM   40  C   UNL     1     -13.864  13.763  72.028  1.00  0.00    -0.576 A  
HETATM   41  C   UNL     1     -11.963  15.018  70.430  1.00  0.00    -0.372 A  
HETATM   42  C   UNL     1     -11.945  13.635  70.591  1.00  0.00    -0.328 A  
HETATM   43  C   UNL     1     -13.915  15.141  71.829  1.00  0.00    -0.627 A  
ENDBRANCH  37  38
ENDBRANCH  22  37
ENDBRANCH  19  22
ENDBRANCH  18  19
ENDBRANCH  17  18
BRANCH  17  44
HETATM   44  C   UNL     1     -10.334  10.599  65.979  1.00  0.00    -0.290 C  
BRANCH  44  45
HETATM   45  C   UNL     1     -10.824  12.032  66.072  1.00  0.00    -0.329 A  
HETATM   46  C   UNL     1     -10.100  13.008  66.777  1.00  0.00    -0.247 A  
HETATM   47  C   UNL     1     -12.033  12.402  65.472  1.00  0.00    -0.453 A  
HETATM   48  C   UNL     1     -10.599  14.308  66.910  1.00  0.00    -0.273 A  
HETATM   49  C   UNL     1     -12.528  13.702  65.602  1.00  0.00    -0.540 A  
HETATM   50  C   UNL     1     -11.817  14.653  66.328  1.00  0.00    -0.299 A  
ENDBRANCH  44  45
ENDBRANCH  17  44
ENDBRANCH  15  17
ENDBRANCH   3  13
TORSDOF 14
ENDMDL
MODEL      146
REMARK 921   NORMALIZED FREE ENERGY PREDICTED BY IDOCK:   -4.79 KCAL/MOL
REMARK 922        TOTAL FREE ENERGY PREDICTED BY IDOCK:  -13.26 KCAL/MOL
REMARK 923 INTER-LIGAND FREE ENERGY PREDICTED BY IDOCK:  -12.01 KCAL/MOL
REMARK 924 INTRA-LIGAND FREE ENERGY PREDICTED BY IDOCK:   -1.25 KCAL/MOL
REMARK 927      BINDING AFFINITY PREDICTED BY RF-SCORE:    0.00 PKD
ROOT
HETATM    1  C   UNL     1     -12.505  14.401  73.305  1.00  0.00    -0.270 C  
HETATM    2  C   UNL     1     -11.771  14.747  72.001  1.00  0.00    -0.266 C  
HETATM    3  C   UNL     1     -12.502  14.135  70.766  1.00  0.00    -0.366 C  
HETATM    4  C   UNL     1     -11.598  16.265  71.928  1.00  0.00    -0.430 C  
ENDROOT
BRANCH   3   5
HETATM    5  N   UNL     1     -12.552  12.656  70.842  1.00  0.00    -0.309 N  
HETATM    6  H   UNL     1     -13.733  10.243  72.660  1.00  0.00     0.000 HD 
HETATM    7  O   UNL     1     -14.229  12.622  72.419  1.00  0.00    -0.255 OA 
HETATM    8  C   UNL     1     -11.846  11.840  69.861  1.00  0.00    -0.348 C  
HETATM    9  C   UNL     1     -13.372  12.038  71.763  1.00  0.00    -0.237 C  
HETATM   10  C   UNL     1     -11.111  10.726  70.582  1.00  0.00     0.075 C  
HETATM   11  N   UNL     1     -13.144  10.708  71.969  1.00  0.00    -0.472 N  
HETATM   12  C   UNL     1     -12.148   9.892  71.306  1.00  0.00    -0.394 C  
ENDBRANCH   3   5
BRANCH   3  13
HETATM   13  C   UNL     1     -11.902  14.649  69.422  1.00  0.00    -0.329 C  
HETATM   14  O   UNL     1     -12.512  14.636  68.358  1.00  0.00    -0.038 OA 
HETATM   15  N   UNL     1     -10.581  15.045  69.497  1.00  0.00    -0.255 N  
HETATM   16  H   UNL     1     -10.158  15.042  70.424  1.00  0.00     0.000 HD 
BRANCH  15  17
HETATM   17  C   UNL     1      -9.723  15.468  68.392  1.00  0.00    -0.203 C  
BRANCH  17  18
HETATM   18  C   UNL     1      -9.203  14.302  67.523  1.00  0.00    -0.197 C  
BRANCH  18  19
HETATM   19  C   UNL     1      -8.013  13.399  67.937  1.00  0.00    -0.155 C  
HETATM   20  O   UNL     1      -6.919  13.618  67.041  1.00  0.00    -0.400 OA 
HETATM   21  H   UNL     1      -6.190  13.064  67.294  1.00  0.00     0.000 HD 
BRANCH  19  22
HETATM   22  C   UNL     1      -8.406  11.872  67.849  1.00  0.00    -0.152 C  
BRANCH  22  23
HETATM   23  N   UNL     1      -8.152  11.105  69.122  1.00  0.00    -0.349 N  
HETATM   24  C   UNL     1      -7.775   9.833  69.493  1.00  0.00    -0.120 C  
HETATM   25  H   UNL     1      -8.303  11.695  69.940  1.00  0.00     0.000 HD 
HETATM   26  O   UNL     1      -7.416   9.649  70.660  1.00  0.00    -0.190 OA 
BRANCH  24  27
HETATM   27  C   UNL     1      -7.912   8.658  68.510  1.00  0.00    -0.116 C  
BRANCH  27  28
HETATM   28  O   UNL     1      -9.125   8.343  67.845  1.00  0.00    -0.133 OA 
BRANCH  28  29
HETATM   29  C   UNL     1      -9.302   7.052  67.365  1.00  0.00    -0.126 A  
HETATM   30  C   UNL     1      -7.828   7.078  65.161  1.00  0.00    -0.124 C  
HETATM   31  C   UNL     1      -8.711   6.462  66.217  1.00  0.00    -0.146 A  
HETATM   32  C   UNL     1      -8.926   5.083  65.974  1.00  0.00    -0.136 A  
HETATM   33  C   UNL     1      -9.707   4.293  66.803  1.00  0.00    -0.241 A  
HETATM   34  C   UNL     1     -10.318   4.872  67.901  1.00  0.00    -0.050 A  
HETATM   35  C   UNL     1     -10.139   6.240  68.189  1.00  0.00    -0.173 A  
HETATM   36  C   UNL     1     -10.874   6.780  69.391  1.00  0.00    -0.312 C  
ENDBRANCH  28  29
ENDBRANCH  27  28
ENDBRANCH  24  27
ENDBRANCH  22  23
BRANCH  22  37
HETATM   37  C   UNL     1      -9.759  11.637  67.124  1.00  0.00    -0.195 C  
BRANCH  37  38
HETATM   38  C   UNL     1      -9.637  11.429  65.640  1.00  0.00    -0.258 A  
HETATM   39  C   UNL     1      -9.579  10.849  62.901  1.00  0.00    -0.371 A  
HETATM   40  C   UNL     1      -8.670  10.565  65.121  1.00  0.00    -0.197 A  
HETATM   41  C   UNL     1     -10.497  11.764  63.400  1.00  0.00    -0.485 A  
HETATM   42  C   UNL     1     -10.490  12.086  64.754  1.00  0.00    -0.335 A  
HETATM   43  C   UNL     1      -8.641  10.277  63.758  1.00  0.00    -0.190 A  
ENDBRANCH  37  38
ENDBRANCH  22  37
ENDBRANCH  19  22
ENDBRANCH  18  19
ENDBRANCH  17  18
BRANCH  17  44
HETATM   44  C   UNL     1      -8.735  16.596  68.761  1.00  0.00    -0.260 C  
BRANCH  44  45
HETATM   45  C   UNL     1      -9.095  17.941  68.160  1.00  0.00    -0.278 A  
HETATM   46  C   UNL     1      -8.206  19.028  68.215  1.00  0.00    -0.364 A  
HETATM   47  C   UNL     1     -10.345  18.131  67.559  1.00  0.00    -0.405 A  
HETATM   48  C   UNL     1      -8.579  20.280  67.715  1.00  0.00    -0.277 A  
HETATM   49  C   UNL     1     -10.714  19.382  67.056  1.00  0.00    -0.582 A  
HETATM   50  C   UNL     1      -9.837  20.459  67.143  1.00  0.00    -0.601 A  
ENDBRANCH  44  45
ENDBRANCH  17  44
ENDBRANCH  15  17
ENDBRANCH   3  13
TORSDOF 14
ENDMDL
MODEL      147
REMARK 921   NORMALIZED FREE ENERGY PREDICTED BY IDOCK:   -4.78 KCAL/MOL
REMARK 922        TOTAL FREE ENERGY PREDICTED BY IDOCK:  -13.25 KCAL/MOL
REMARK 923 INTER-LIGAND FREE ENERGY PREDICTED BY IDOCK:  -10.92 KCAL/MOL
REMARK 924 INTRA-LIGAND FREE ENERGY PREDICTED BY IDOCK:   -2.33 KCAL/MOL
REMARK 927      BINDING AFFINITY PREDICTED BY RF-SCORE:    0.00 PKD
ROOT
HETATM    1  C   UNL     1     -10.377  17.474  68.745  1.00  0.00    -0.358 C  
HETATM    2  C   UNL     1     -10.656  16.021  68.328  1.00  0.00    -0.283 C  
HETATM    3  C   UNL     1      -9.490  15.079  68.761  1.00  0.00    -0.210 C  
HETATM    4  C   UNL     1     -12.022  15.611  68.882  1.00  0.00    -0.298 C  
ENDROOT
BRANCH   3   5
HETATM    5  N   UNL     1      -8.213  15.464  68.117  1.00  0.00    -0.141 N  
HETATM    6  H   UNL     1      -5.094  16.037  68.799  1.00  0.00     0.000 HD 
HETATM    7  O   UNL     1      -6.923  14.885  69.934  1.00  0.00    -0.178 OA 
HETATM    8  C   UNL     1      -8.164  15.766  66.691  1.00  0.00    -0.270 C  
HETATM    9  C   UNL     1      -7.035  15.413  68.832  1.00  0.00    -0.127 C  
HETATM   10  C   UNL     1      -7.346  17.025  66.480  1.00  0.00    -0.320 C  
HETATM   11  N   UNL     1      -5.967  16.053  68.272  1.00  0.00    -0.100 N  
HETATM   12  C   UNL     1      -5.951  16.753  67.004  1.00  0.00    -0.178 C  
ENDBRANCH   3   5
BRANCH   3  13
HETATM   13  C   UNL     1      -9.846  13.576  68.543  1.00  0.00    -0.189 C  
HETATM   14  O   UNL     1     -10.734  12.995  69.158  1.00  0.00    -0.155 OA 
HETATM   15  N   UNL     1      -9.021  12.913  67.658  1.00  0.00    -0.181 N  
HETATM   16  H   UNL     1      -8.322  13.479  67.177  1.00  0.00     0.000 HD 
BRANCH  15  17
HETATM   17  C   UNL     1      -9.038  11.488  67.334  1.00  0.00    -0.166 C  
BRANCH  17  18
HETATM   18  C   UNL     1      -8.160  10.625  68.266  1.00  0.00    -0.118 C  
BRANCH  18  19
HETATM   19  C   UNL     1      -8.472   9.143  68.596  1.00  0.00    -0.127 C  
HETATM   20  O   UNL     1      -9.558   8.696  67.779  1.00  0.00    -0.143 OA 
HETATM   21  H   UNL     1      -9.750   7.787  67.982  1.00  0.00     0.000 HD 
BRANCH  19  22
HETATM   22  C   UNL     1      -8.908   8.980  70.105  1.00  0.00    -0.182 C  
BRANCH  22  23
HETATM   23  N   UNL     1      -7.749   8.901  71.066  1.00  0.00    -0.122 N  
HETATM   24  C   UNL     1      -6.811   7.973  71.465  1.00  0.00    -0.055 C  
HETATM   25  H   UNL     1      -7.623   9.783  71.561  1.00  0.00     0.000 HD 
HETATM   26  O   UNL     1      -5.836   8.370  72.109  1.00  0.00    -0.044 OA 
BRANCH  24  27
HETATM   27  C   UNL     1      -7.039   6.472  71.215  1.00  0.00    -0.077 C  
BRANCH  27  28
HETATM   28  O   UNL     1      -7.155   5.522  72.261  1.00  0.00    -0.082 OA 
BRANCH  28  29
HETATM   29  C   UNL     1      -8.415   5.253  72.777  1.00  0.00    -0.116 A  
HETATM   30  C   UNL     1      -8.788   7.304  74.416  1.00  0.00    -0.234 C  
HETATM   31  C   UNL     1      -9.169   6.039  73.687  1.00  0.00    -0.127 A  
HETATM   32  C   UNL     1     -10.495   5.645  73.990  1.00  0.00    -0.297 A  
HETATM   33  C   UNL     1     -11.078   4.511  73.447  1.00  0.00    -0.408 A  
HETATM   34  C   UNL     1     -10.334   3.718  72.590  1.00  0.00    -0.226 A  
HETATM   35  C   UNL     1      -9.010   4.063  72.256  1.00  0.00    -0.137 A  
HETATM   36  C   UNL     1      -8.275   3.116  71.339  1.00  0.00    -0.074 C  
ENDBRANCH  28  29
ENDBRANCH  27  28
ENDBRANCH  24  27
ENDBRANCH  22  23
BRANCH  22  37
HETATM   37  C   UNL     1     -10.103   9.893  70.491  1.00  0.00    -0.207 C  
BRANCH  37  38
HETATM   38  C   UNL     1     -11.296   9.154  71.032  1.00  0.00    -0.377 A  
HETATM   39  C   UNL     1     -13.610   7.777  71.799  1.00  0.00    -0.390 A  
HETATM   40  C   UNL     1     -12.412   9.853  71.498  1.00  0.00    -0.506 A  
HETATM   41  C   UNL     1     -12.479   7.074  71.405  1.00  0.00    -0.426 A  
HETATM   42  C   UNL     1     -11.315   7.761  71.072  1.00  0.00    -0.287 A  
HETATM   43  C   UNL     1     -13.563   9.167  71.880  1.00  0.00    -0.493 A  
ENDBRANCH  37  38
ENDBRANCH  22  37
ENDBRANCH  19  22
ENDBRANCH  18  19
ENDBRANCH  17  18
BRANCH  17  44
HETATM   44  C   UNL     1      -9.003  11.188  65.819  1.00  0.00    -0.207 C  
BRANCH  44  45
HETATM   45  C   UNL     1     -10.215  11.707  65.068  1.00  0.00    -0.321 A  
HETATM   46  C   UNL     1     -11.362  12.150  65.748  1.00  0.00    -0.402 A  
HETATM   47  C   UNL     1     -10.219  11.727  63.669  1.00  0.00    -0.461 A  
HETATM   48  C   UNL     1     -12.496  12.563  65.040  1.00  0.00    -0.494 A  
HETATM   49  C   UNL     1     -11.351  12.143  62.963  1.00  0.00    -0.052 A  
HETATM   50  C   UNL     1     -12.492  12.552  63.647  1.00  0.00    -0.570 A  
ENDBRANCH  44  45
ENDBRANCH  17  44
ENDBRANCH  15  17
ENDBRANCH   3  13
TORSDOF 14
ENDMDL
MODEL      148
REMARK 921   NORMALIZED FREE ENERGY PREDICTED BY IDOCK:   -4.75 KCAL/MOL
REMARK 922        TOTAL FREE ENERGY PREDICTED BY IDOCK:  -13.20 KCAL/MOL
REMARK 923 INTER-LIGAND FREE ENERGY PREDICTED BY IDOCK:   -9.80 KCAL/MOL
REMARK 924 INTRA-LIGAND FREE ENERGY PREDICTED BY IDOCK:   -3.40 KCAL/MOL
REMARK 927      BINDING AFFINITY PREDICTED BY RF-SCORE:    0.00 PKD
ROOT
HETATM    1  C   UNL     1      -9.479   2.159  67.745  1.00  0.00    -0.140 C  
HETATM    2  C   UNL     1      -8.596   3.416  67.718  1.00  0.00    -0.118 C  
HETATM    3  C   UNL     1      -9.136   4.460  66.692  1.00  0.00    -0.127 C  
HETATM    4  C   UNL     1      -8.476   3.956  69.145  1.00  0.00    -0.102 C  
ENDROOT
BRANCH   3   5
HETATM    5  N   UNL     1      -9.136   3.917  65.314  1.00  0.00    -0.135 N  
HETATM    6  H   UNL     1     -11.149   3.092  62.907  1.00  0.00     0.000 HD 
HETATM    7  O   UNL     1     -11.331   4.480  64.908  1.00  0.00    -0.205 OA 
HETATM    8  C   UNL     1      -7.887   3.525  64.673  1.00  0.00    -0.085 C  
HETATM    9  C   UNL     1     -10.302   3.898  64.578  1.00  0.00    -0.220 C  
HETATM   10  C   UNL     1      -8.079   2.183  63.993  1.00  0.00    -0.080 C  
HETATM   11  N   UNL     1     -10.287   3.126  63.452  1.00  0.00    -0.184 N  
HETATM   12  C   UNL     1      -9.169   2.352  62.955  1.00  0.00    -0.091 C  
ENDBRANCH   3   5
BRANCH   3  13
HETATM   13  C   UNL     1      -8.388   5.824  66.802  1.00  0.00    -0.109 C  
HETATM   14  O   UNL     1      -7.189   5.957  66.583  1.00  0.00    -0.071 OA 
HETATM   15  N   UNL     1      -9.164   6.870  67.257  1.00  0.00    -0.125 N  
HETATM   16  H   UNL     1     -10.155   6.674  67.395  1.00  0.00     0.000 HD 
BRANCH  15  17
HETATM   17  C   UNL     1      -8.722   8.229  67.561  1.00  0.00    -0.129 C  
BRANCH  17  18
HETATM   18  C   UNL     1      -8.266   9.031  66.322  1.00  0.00    -0.115 C  
BRANCH  18  19
HETATM   19  C   UNL     1      -8.782  10.455  65.994  1.00  0.00    -0.152 C  
HETATM   20  O   UNL     1      -8.053  10.977  64.879  1.00  0.00    -0.366 OA 
HETATM   21  H   UNL     1      -8.370  11.850  64.677  1.00  0.00     0.000 HD 
BRANCH  19  22
HETATM   22  C   UNL     1      -8.557  11.432  67.213  1.00  0.00    -0.146 C  
BRANCH  22  23
HETATM   23  N   UNL     1      -7.416  12.398  67.015  1.00  0.00    -0.356 N  
HETATM   24  C   UNL     1      -6.776  13.387  67.731  1.00  0.00    -0.160 C  
HETATM   25  H   UNL     1      -7.001  12.288  66.091  1.00  0.00     0.000 HD 
HETATM   26  O   UNL     1      -5.688  13.794  67.315  1.00  0.00    -0.326 OA 
BRANCH  24  27
HETATM   27  C   UNL     1      -7.459  14.042  68.943  1.00  0.00    -0.095 C  
BRANCH  27  28
HETATM   28  O   UNL     1      -7.511  15.447  69.137  1.00  0.00    -0.155 OA 
BRANCH  28  29
HETATM   29  C   UNL     1      -8.338  16.199  68.315  1.00  0.00    -0.171 A  
HETATM   30  C   UNL     1      -6.630  17.111  66.502  1.00  0.00    -0.277 C  
HETATM   31  C   UNL     1      -7.985  16.901  67.133  1.00  0.00    -0.210 A  
HETATM   32  C   UNL     1      -9.012  17.506  66.367  1.00  0.00    -0.264 A  
HETATM   33  C   UNL     1     -10.346  17.455  66.740  1.00  0.00    -0.305 A  
HETATM   34  C   UNL     1     -10.692  16.808  67.913  1.00  0.00    -0.347 A  
HETATM   35  C   UNL     1      -9.709  16.190  68.712  1.00  0.00    -0.233 A  
HETATM   36  C   UNL     1     -10.187  15.538  69.987  1.00  0.00    -0.286 C  
ENDBRANCH  28  29
ENDBRANCH  27  28
ENDBRANCH  24  27
ENDBRANCH  22  23
BRANCH  22  37
HETATM   37  C   UNL     1      -9.885  11.995  67.791  1.00  0.00    -0.190 C  
BRANCH  37  38
HETATM   38  C   UNL     1     -10.597  12.955  66.879  1.00  0.00    -0.262 A  
HETATM   39  C   UNL     1     -11.977  14.542  65.029  1.00  0.00    -0.399 A  
HETATM   40  C   UNL     1      -9.908  13.599  65.848  1.00  0.00    -0.263 A  
HETATM   41  C   UNL     1     -12.656  13.962  66.093  1.00  0.00    -0.426 A  
HETATM   42  C   UNL     1     -11.958  13.215  67.038  1.00  0.00    -0.412 A  
HETATM   43  C   UNL     1     -10.595  14.389  64.929  1.00  0.00    -0.456 A  
ENDBRANCH  37  38
ENDBRANCH  22  37
ENDBRANCH  19  22
ENDBRANCH  18  19
ENDBRANCH  17  18
BRANCH  17  44
HETATM   44  C   UNL     1      -7.878   8.342  68.850  1.00  0.00    -0.111 C  
BRANCH  44  45
HETATM   45  C   UNL     1      -8.707   8.360  70.120  1.00  0.00    -0.136 A  
HETATM   46  C   UNL     1      -9.949   9.014  70.174  1.00  0.00    -0.216 A  
HETATM   47  C   UNL     1      -8.229   7.740  71.281  1.00  0.00    -0.105 A  
HETATM   48  C   UNL     1     -10.670   9.079  71.371  1.00  0.00    -0.401 A  
HETATM   49  C   UNL     1      -8.953   7.801  72.475  1.00  0.00    -0.213 A  
HETATM   50  C   UNL     1     -10.168   8.478  72.523  1.00  0.00    -0.323 A  
ENDBRANCH  44  45
ENDBRANCH  17  44
ENDBRANCH  15  17
ENDBRANCH   3  13
TORSDOF 14
ENDMDL
MODEL      149
REMARK 921   NORMALIZED FREE ENERGY PREDICTED BY IDOCK:   -4.74 KCAL/MOL
REMARK 922        TOTAL FREE ENERGY PREDICTED BY IDOCK:  -13.18 KCAL/MOL
REMARK 923 INTER-LIGAND FREE ENERGY PREDICTED BY IDOCK:   -9.75 KCAL/MOL
REMARK 924 INTRA-LIGAND FREE ENERGY PREDICTED BY IDOCK:   -3.43 KCAL/MOL
REMARK 927      BINDING AFFINITY PREDICTED BY RF-SCORE:    0.00 PKD
ROOT
HETATM    1  C   UNL     1     -11.315  15.298  65.154  1.00  0.00    -0.321 C  
HETATM    2  C   UNL     1     -10.636  13.946  65.420  1.00  0.00    -0.344 C  
HETATM    3  C   UNL     1     -11.091  13.348  66.787  1.00  0.00    -0.292 C  
HETATM    4  C   UNL     1     -10.899  13.028  64.224  1.00  0.00    -0.430 C  
ENDROOT
BRANCH   3   5
HETATM    5  N   UNL     1     -10.721  14.233  67.917  1.00  0.00    -0.238 N  
HETATM    6  H   UNL     1     -11.895  15.438  70.690  1.00  0.00     0.000 HD 
HETATM    7  O   UNL     1     -12.478  13.559  69.244  1.00  0.00    -0.179 OA 
HETATM    8  C   UNL     1      -9.434  14.916  67.931  1.00  0.00    -0.200 C  
HETATM    9  C   UNL     1     -11.538  14.317  69.024  1.00  0.00    -0.305 C  
HETATM   10  C   UNL     1      -9.644  16.361  68.343  1.00  0.00    -0.219 C  
HETATM   11  N   UNL     1     -11.288  15.356  69.875  1.00  0.00    -0.278 N  
HETATM   12  C   UNL     1     -10.248  16.353  69.733  1.00  0.00    -0.142 C  
ENDBRANCH   3   5
BRANCH   3  13
HETATM   13  C   UNL     1     -10.586  11.885  66.978  1.00  0.00    -0.227 C  
HETATM   14  O   UNL     1     -11.333  10.929  67.154  1.00  0.00    -0.394 OA 
HETATM   15  N   UNL     1      -9.212  11.753  67.024  1.00  0.00    -0.182 N  
HETATM   16  H   UNL     1      -8.669  12.598  66.849  1.00  0.00     0.000 HD 
BRANCH  15  17
HETATM   17  C   UNL     1      -8.452  10.536  67.297  1.00  0.00    -0.122 C  
BRANCH  17  18
HETATM   18  C   UNL     1      -8.226  10.264  68.801  1.00  0.00    -0.119 C  
BRANCH  18  19
HETATM   19  C   UNL     1      -8.348   8.855  69.437  1.00  0.00    -0.112 C  
HETATM   20  O   UNL     1      -8.904   7.950  68.479  1.00  0.00    -0.134 OA 
HETATM   21  H   UNL     1      -8.979   7.087  68.869  1.00  0.00     0.000 HD 
BRANCH  19  22
HETATM   22  C   UNL     1      -9.311   8.882  70.688  1.00  0.00    -0.212 C  
BRANCH  22  23
HETATM   23  N   UNL     1      -8.590   8.821  72.011  1.00  0.00    -0.132 N  
HETATM   24  C   UNL     1      -7.401   8.330  72.507  1.00  0.00    -0.109 C  
HETATM   25  H   UNL     1      -9.135   9.271  72.746  1.00  0.00     0.000 HD 
HETATM   26  O   UNL     1      -7.037   8.708  73.625  1.00  0.00    -0.311 OA 
BRANCH  24  27
HETATM   27  C   UNL     1      -6.618   7.253  71.738  1.00  0.00    -0.047 C  
BRANCH  27  28
HETATM   28  O   UNL     1      -6.940   5.873  71.794  1.00  0.00    -0.069 OA 
BRANCH  28  29
HETATM   29  C   UNL     1      -8.045   5.421  71.086  1.00  0.00    -0.111 A  
HETATM   30  C   UNL     1      -9.999   5.742  72.849  1.00  0.00    -0.194 C  
HETATM   31  C   UNL     1      -9.400   5.394  71.509  1.00  0.00    -0.177 A  
HETATM   32  C   UNL     1     -10.397   5.010  70.579  1.00  0.00    -0.285 A  
HETATM   33  C   UNL     1     -10.097   4.640  69.277  1.00  0.00    -0.170 A  
HETATM   34  C   UNL     1      -8.775   4.626  68.870  1.00  0.00    -0.110 A  
HETATM   35  C   UNL     1      -7.744   4.998  69.755  1.00  0.00    -0.064 A  
HETATM   36  C   UNL     1      -6.334   4.917  69.223  1.00  0.00    -0.031 C  
ENDBRANCH  28  29
ENDBRANCH  27  28
ENDBRANCH  24  27
ENDBRANCH  22  23
BRANCH  22  37
HETATM   37  C   UNL     1     -10.463   9.913  70.543  1.00  0.00    -0.330 C  
BRANCH  37  38
HETATM   38  C   UNL     1     -11.788   9.438  71.072  1.00  0.00    -0.396 A  
HETATM   39  C   UNL     1     -14.146   8.546  72.292  1.00  0.00    -0.446 A  
HETATM   40  C   UNL     1     -12.083   8.074  71.126  1.00  0.00    -0.284 A  
HETATM   41  C   UNL     1     -13.892   9.907  72.177  1.00  0.00    -0.182 A  
HETATM   42  C   UNL     1     -12.743  10.347  71.527  1.00  0.00    -0.564 A  
HETATM   43  C   UNL     1     -13.257   7.631  71.733  1.00  0.00    -0.360 A  
ENDBRANCH  37  38
ENDBRANCH  22  37
ENDBRANCH  19  22
ENDBRANCH  18  19
ENDBRANCH  17  18
BRANCH  17  44
HETATM   44  C   UNL     1      -7.269  10.304  66.332  1.00  0.00    -0.113 C  
BRANCH  44  45
HETATM   45  C   UNL     1      -7.667   9.630  65.033  1.00  0.00    -0.119 A  
HETATM   46  C   UNL     1      -8.384  10.319  64.041  1.00  0.00    -0.165 A  
HETATM   47  C   UNL     1      -7.344   8.286  64.810  1.00  0.00    -0.088 A  
HETATM   48  C   UNL     1      -8.801   9.664  62.877  1.00  0.00    -0.252 A  
HETATM   49  C   UNL     1      -7.758   7.634  63.645  1.00  0.00    -0.123 A  
HETATM   50  C   UNL     1      -8.494   8.319  62.683  1.00  0.00    -0.072 A  
ENDBRANCH  44  45
ENDBRANCH  17  44
ENDBRANCH  15  17
ENDBRANCH   3  13
TORSDOF 14
ENDMDL
MODEL      150
REMARK 921   NORMALIZED FREE ENERGY PREDICTED BY IDOCK:   -4.74 KCAL/MOL
REMARK 922        TOTAL FREE ENERGY PREDICTED BY IDOCK:  -13.17 KCAL/MOL
REMARK 923 INTER-LIGAND FREE ENERGY PREDICTED BY IDOCK:   -9.20 KCAL/MOL
REMARK 924 INTRA-LIGAND FREE ENERGY PREDICTED BY IDOCK:   -3.97 KCAL/MOL
REMARK 927      BINDING AFFINITY PREDICTED BY RF-SCORE:    0.00 PKD
ROOT
HETATM    1  C   UNL     1      -9.262   1.627  67.247  1.00  0.00    -0.101 C  
HETATM    2  C   UNL     1      -8.762   3.069  67.431  1.00  0.00    -0.139 C  
HETATM    3  C   UNL     1      -9.361   4.014  66.344  1.00  0.00    -0.177 C  
HETATM    4  C   UNL     1      -9.063   3.507  68.866  1.00  0.00    -0.205 C  
ENDROOT
BRANCH   3   5
HETATM    5  N   UNL     1      -8.955   3.599  64.980  1.00  0.00    -0.126 N  
HETATM    6  H   UNL     1     -10.193   2.593  62.156  1.00  0.00     0.000 HD 
HETATM    7  O   UNL     1     -11.084   3.744  64.117  1.00  0.00    -0.334 OA 
HETATM    8  C   UNL     1      -7.545   3.520  64.620  1.00  0.00    -0.077 C  
HETATM    9  C   UNL     1      -9.909   3.410  64.003  1.00  0.00    -0.170 C  
HETATM   10  C   UNL     1      -7.299   2.229  63.864  1.00  0.00    -0.057 C  
HETATM   11  N   UNL     1      -9.493   2.753  62.880  1.00  0.00    -0.093 N  
HETATM   12  C   UNL     1      -8.156   2.263  62.616  1.00  0.00    -0.068 C  
ENDBRANCH   3   5
BRANCH   3  13
HETATM   13  C   UNL     1      -9.042   5.512  66.637  1.00  0.00    -0.126 C  
HETATM   14  O   UNL     1      -7.917   5.993  66.560  1.00  0.00    -0.103 OA 
HETATM   15  N   UNL     1     -10.119   6.252  67.083  1.00  0.00    -0.150 N  
HETATM   16  H   UNL     1     -11.021   5.777  67.098  1.00  0.00     0.000 HD 
BRANCH  15  17
HETATM   17  C   UNL     1     -10.108   7.641  67.536  1.00  0.00    -0.202 C  
BRANCH  17  18
HETATM   18  C   UNL     1     -11.142   7.945  68.643  1.00  0.00     0.278 C  
BRANCH  18  19
HETATM   19  C   UNL     1     -11.019   7.405  70.092  1.00  0.00    -0.255 C  
HETATM   20  O   UNL     1     -12.301   6.951  70.537  1.00  0.00    -0.593 OA 
HETATM   21  H   UNL     1     -12.226   6.621  71.424  1.00  0.00     0.000 HD 
BRANCH  19  22
HETATM   22  C   UNL     1     -10.543   8.541  71.079  1.00  0.00    -0.216 C  
BRANCH  22  23
HETATM   23  N   UNL     1     -11.671   9.221  71.812  1.00  0.00    -0.380 N  
HETATM   24  C   UNL     1     -12.482  10.323  71.646  1.00  0.00    -0.392 C  
HETATM   25  H   UNL     1     -11.899   8.726  72.674  1.00  0.00     0.000 HD 
HETATM   26  O   UNL     1     -13.491  10.415  72.352  1.00  0.00    -0.282 OA 
BRANCH  24  27
HETATM   27  C   UNL     1     -12.074  11.460  70.694  1.00  0.00    -0.372 C  
BRANCH  27  28
HETATM   28  O   UNL     1     -12.669  12.747  70.724  1.00  0.00    -0.244 OA 
BRANCH  28  29
HETATM   29  C   UNL     1     -12.100  13.759  69.963  1.00  0.00    -0.349 A  
HETATM   30  C   UNL     1     -12.160  12.715  67.526  1.00  0.00    -0.170 C  
HETATM   31  C   UNL     1     -11.905  13.786  68.557  1.00  0.00    -0.406 A  
HETATM   32  C   UNL     1     -11.420  14.975  67.960  1.00  0.00    -0.357 A  
HETATM   33  C   UNL     1     -11.107  16.106  68.699  1.00  0.00    -0.356 A  
HETATM   34  C   UNL     1     -11.256  16.071  70.074  1.00  0.00    -0.362 A  
HETATM   35  C   UNL     1     -11.735  14.914  70.719  1.00  0.00    -0.364 A  
HETATM   36  C   UNL     1     -11.830  14.969  72.224  1.00  0.00    -0.441 C  
ENDBRANCH  28  29
ENDBRANCH  27  28
ENDBRANCH  24  27
ENDBRANCH  22  23
BRANCH  22  37
HETATM   37  C   UNL     1      -9.288   8.141  71.901  1.00  0.00    -0.251 C  
BRANCH  37  38
HETATM   38  C   UNL     1      -7.994   8.238  71.141  1.00  0.00    -0.112 A  
HETATM   39  C   UNL     1      -5.710   8.565  69.554  1.00  0.00    -0.030 A  
HETATM   40  C   UNL     1      -7.673   7.294  70.162  1.00  0.00    -0.091 A  
HETATM   41  C   UNL     1      -5.985   9.467  70.573  1.00  0.00    -0.060 A  
HETATM   42  C   UNL     1      -7.094   9.274  71.391  1.00  0.00     0.031 A  
HETATM   43  C   UNL     1      -6.536   7.458  69.373  1.00  0.00    -0.037 A  
ENDBRANCH  37  38
ENDBRANCH  22  37
ENDBRANCH  19  22
ENDBRANCH  18  19
ENDBRANCH  17  18
BRANCH  17  44
HETATM   44  C   UNL     1      -9.938   8.672  66.399  1.00  0.00    -0.331 C  
BRANCH  44  45
HETATM   45  C   UNL     1      -9.443  10.025  66.874  1.00  0.00    -0.203 A  
HETATM   46  C   UNL     1      -9.348  11.118  65.996  1.00  0.00    -0.228 A  
HETATM   47  C   UNL     1      -9.043  10.200  68.204  1.00  0.00    -0.128 A  
HETATM   48  C   UNL     1      -8.827  12.340  66.433  1.00  0.00    -0.072 A  
HETATM   49  C   UNL     1      -8.527  11.424  68.640  1.00  0.00    -0.131 A  
HETATM   50  C   UNL     1      -8.409  12.491  67.754  1.00  0.00    -0.170 A  
ENDBRANCH  44  45
ENDBRANCH  17  44
ENDBRANCH  15  17
ENDBRANCH   3  13
TORSDOF 14
ENDMDL
MODEL      151
REMARK 921   NORMALIZED FREE ENERGY PREDICTED BY IDOCK:   -4.72 KCAL/MOL
REMARK 922        TOTAL FREE ENERGY PREDICTED BY IDOCK:  -13.14 KCAL/MOL
REMARK 923 INTER-LIGAND FREE ENERGY PREDICTED BY IDOCK:   -9.06 KCAL/MOL
REMARK 924 INTRA-LIGAND FREE ENERGY PREDICTED BY IDOCK:   -4.08 KCAL/MOL
REMARK 927      BINDING AFFINITY PREDICTED BY RF-SCORE:    0.00 PKD
ROOT
HETATM    1  C   UNL     1     -11.113  16.277  64.686  1.00  0.00    -0.259 C  
HETATM    2  C   UNL     1     -10.485  15.063  65.388  1.00  0.00    -0.406 C  
HETATM    3  C   UNL     1     -10.268  15.342  66.907  1.00  0.00    -0.273 C  
HETATM    4  C   UNL     1     -11.352  13.835  65.101  1.00  0.00    -0.317 C  
ENDROOT
BRANCH   3   5
HETATM    5  N   UNL     1      -9.342  16.478  67.124  1.00  0.00    -0.229 N  
HETATM    6  H   UNL     1      -9.308  19.590  68.039  1.00  0.00     0.000 HD 
HETATM    7  O   UNL     1     -10.888  17.742  68.271  1.00  0.00    -0.300 OA 
HETATM    8  C   UNL     1      -7.919  16.338  66.839  1.00  0.00    -0.243 C  
HETATM    9  C   UNL     1      -9.796  17.636  67.719  1.00  0.00    -0.292 C  
HETATM   10  C   UNL     1      -7.444  17.563  66.079  1.00  0.00    -0.274 C  
HETATM   11  N   UNL     1      -8.976  18.724  67.616  1.00  0.00    -0.278 N  
HETATM   12  C   UNL     1      -7.684  18.767  66.965  1.00  0.00    -0.235 C  
ENDBRANCH   3   5
BRANCH   3  13
HETATM   13  C   UNL     1      -9.836  14.057  67.678  1.00  0.00    -0.233 C  
HETATM   14  O   UNL     1     -10.126  13.841  68.850  1.00  0.00    -0.180 OA 
HETATM   15  N   UNL     1      -9.016  13.207  66.964  1.00  0.00    -0.226 N  
HETATM   16  H   UNL     1      -8.842  13.456  65.990  1.00  0.00     0.000 HD 
BRANCH  15  17
HETATM   17  C   UNL     1      -8.368  11.991  67.450  1.00  0.00    -0.171 C  
BRANCH  17  18
HETATM   18  C   UNL     1      -9.319  11.036  68.204  1.00  0.00    -0.173 C  
BRANCH  18  19
HETATM   19  C   UNL     1     -10.349  10.122  67.490  1.00  0.00    -0.230 C  
HETATM   20  O   UNL     1     -11.583  10.830  67.338  1.00  0.00    -0.485 OA 
HETATM   21  H   UNL     1     -12.214  10.270  66.900  1.00  0.00     0.000 HD 
BRANCH  19  22
HETATM   22  C   UNL     1     -10.640   8.826  68.344  1.00  0.00    -0.137 C  
BRANCH  22  23
HETATM   23  N   UNL     1     -11.478   9.083  69.571  1.00  0.00    -0.397 N  
HETATM   24  C   UNL     1     -11.767   8.455  70.763  1.00  0.00    -0.202 C  
HETATM   25  H   UNL     1     -11.969   9.974  69.499  1.00  0.00     0.000 HD 
HETATM   26  O   UNL     1     -12.314   9.115  71.652  1.00  0.00    -0.317 OA 
BRANCH  24  27
HETATM   27  C   UNL     1     -11.521   6.946  70.932  1.00  0.00    -0.323 C  
BRANCH  27  28
HETATM   28  O   UNL     1     -10.888   6.388  72.073  1.00  0.00    -0.224 OA 
BRANCH  28  29
HETATM   29  C   UNL     1      -9.537   6.080  71.997  1.00  0.00    -0.152 A  
HETATM   30  C   UNL     1      -9.563   3.830  70.594  1.00  0.00    -0.259 C  
HETATM   31  C   UNL     1      -8.929   4.991  71.319  1.00  0.00    -0.164 A  
HETATM   32  C   UNL     1      -7.515   4.930  71.259  1.00  0.00    -0.077 A  
HETATM   33  C   UNL     1      -6.703   5.883  71.854  1.00  0.00    -0.063 A  
HETATM   34  C   UNL     1      -7.289   6.925  72.550  1.00  0.00    -0.085 A  
HETATM   35  C   UNL     1      -8.691   7.033  72.642  1.00  0.00    -0.135 A  
HETATM   36  C   UNL     1      -9.229   8.188  73.451  1.00  0.00    -0.291 C  
ENDBRANCH  28  29
ENDBRANCH  27  28
ENDBRANCH  24  27
ENDBRANCH  22  23
BRANCH  22  37
HETATM   37  C   UNL     1     -11.003   7.595  67.469  1.00  0.00    -0.086 C  
BRANCH  37  38
HETATM   38  C   UNL     1      -9.898   6.583  67.339  1.00  0.00    -0.163 A  
HETATM   39  C   UNL     1      -7.912   4.609  67.326  1.00  0.00    -0.101 A  
HETATM   40  C   UNL     1      -8.613   6.871  67.806  1.00  0.00    -0.122 A  
HETATM   41  C   UNL     1      -9.167   4.339  66.795  1.00  0.00    -0.156 A  
HETATM   42  C   UNL     1     -10.135   5.338  66.758  1.00  0.00    -0.255 A  
HETATM   43  C   UNL     1      -7.626   5.888  67.798  1.00  0.00    -0.089 A  
ENDBRANCH  37  38
ENDBRANCH  22  37
ENDBRANCH  19  22
ENDBRANCH  18  19
ENDBRANCH  17  18
BRANCH  17  44
HETATM   44  C   UNL     1      -6.957  12.219  68.032  1.00  0.00    -0.093 C  
BRANCH  44  45
HETATM   45  C   UNL     1      -6.360  10.986  68.684  1.00  0.00    -0.047 A  
HETATM   46  C   UNL     1      -5.869   9.918  67.914  1.00  0.00    -0.039 A  
HETATM   47  C   UNL     1      -6.314  10.880  70.079  1.00  0.00    -0.142 A  
HETATM   48  C   UNL     1      -5.384   8.760  68.531  1.00  0.00    -0.037 A  
HETATM   49  C   UNL     1      -5.825   9.724  70.693  1.00  0.00    -0.072 A  
HETATM   50  C   UNL     1      -5.368   8.660  69.920  1.00  0.00    -0.029 A  
ENDBRANCH  44  45
ENDBRANCH  17  44
ENDBRANCH  15  17
ENDBRANCH   3  13
TORSDOF 14
ENDMDL
MODEL      152
REMARK 921   NORMALIZED FREE ENERGY PREDICTED BY IDOCK:   -4.72 KCAL/MOL
REMARK 922        TOTAL FREE ENERGY PREDICTED BY IDOCK:  -13.13 KCAL/MOL
REMARK 923 INTER-LIGAND FREE ENERGY PREDICTED BY IDOCK:  -10.64 KCAL/MOL
REMARK 924 INTRA-LIGAND FREE ENERGY PREDICTED BY IDOCK:   -2.50 KCAL/MOL
REMARK 927      BINDING AFFINITY PREDICTED BY RF-SCORE:    0.00 PKD
ROOT
HETATM    1  C   UNL     1      -7.912   6.318  63.144  1.00  0.00    -0.098 C  
HETATM    2  C   UNL     1      -8.534   7.545  63.828  1.00  0.00     0.294 C  
HETATM    3  C   UNL     1      -8.118   7.622  65.329  1.00  0.00    -0.133 C  
HETATM    4  C   UNL     1      -8.167   8.790  63.019  1.00  0.00    -0.188 C  
ENDROOT
BRANCH   3   5
HETATM    5  N   UNL     1      -8.587   6.436  66.085  1.00  0.00    -0.139 N  
HETATM    6  H   UNL     1      -7.483   3.779  67.584  1.00  0.00     0.000 HD 
HETATM    7  O   UNL     1      -6.490   5.891  66.864  1.00  0.00    -0.046 OA 
HETATM    8  C   UNL     1     -10.011   6.202  66.286  1.00  0.00    -0.002 C  
HETATM    9  C   UNL     1      -7.676   5.615  66.714  1.00  0.00    -0.100 C  
HETATM   10  C   UNL     1     -10.316   4.742  66.011  1.00  0.00    -0.328 C  
HETATM   11  N   UNL     1      -8.151   4.403  67.130  1.00  0.00    -0.101 N  
HETATM   12  C   UNL     1      -9.507   3.917  66.990  1.00  0.00    -0.200 C  
ENDBRANCH   3   5
BRANCH   3  13
HETATM   13  C   UNL     1      -8.559   8.966  65.986  1.00  0.00    -0.145 C  
HETATM   14  O   UNL     1      -7.773   9.770  66.475  1.00  0.00    -0.103 OA 
HETATM   15  N   UNL     1      -9.925   9.151  66.057  1.00  0.00    -0.366 N  
HETATM   16  H   UNL     1     -10.503   8.441  65.607  1.00  0.00     0.000 HD 
BRANCH  15  17
HETATM   17  C   UNL     1     -10.634  10.251  66.706  1.00  0.00    -0.185 C  
BRANCH  17  18
HETATM   18  C   UNL     1      -9.914  11.612  66.593  1.00  0.00    -0.230 C  
BRANCH  18  19
HETATM   19  C   UNL     1     -10.352  12.727  65.609  1.00  0.00    -0.279 C  
HETATM   20  O   UNL     1      -9.200  13.244  64.937  1.00  0.00     0.044 OA 
HETATM   21  H   UNL     1      -9.469  13.928  64.334  1.00  0.00     0.000 HD 
BRANCH  19  22
HETATM   22  C   UNL     1     -11.036  13.923  66.379  1.00  0.00    -0.309 C  
BRANCH  22  23
HETATM   23  N   UNL     1     -11.358  15.106  65.501  1.00  0.00    -0.314 N  
HETATM   24  C   UNL     1     -10.762  16.289  65.120  1.00  0.00    -0.331 C  
HETATM   25  H   UNL     1     -12.274  15.001  65.067  1.00  0.00     0.000 HD 
HETATM   26  O   UNL     1     -11.241  16.898  64.158  1.00  0.00    -1.176 OA 
BRANCH  24  27
HETATM   27  C   UNL     1      -9.611  16.888  65.946  1.00  0.00    -0.138 C  
BRANCH  27  28
HETATM   28  O   UNL     1      -9.668  17.042  67.354  1.00  0.00    -0.244 OA 
BRANCH  28  29
HETATM   29  C   UNL     1      -8.493  17.322  68.038  1.00  0.00    -0.229 A  
HETATM   30  C   UNL     1      -7.111  15.085  67.698  1.00  0.00    -0.206 C  
HETATM   31  C   UNL     1      -7.343  16.500  68.167  1.00  0.00    -0.163 A  
HETATM   32  C   UNL     1      -6.194  17.029  68.804  1.00  0.00    -0.167 A  
HETATM   33  C   UNL     1      -6.157  18.313  69.326  1.00  0.00    -0.244 A  
HETATM   34  C   UNL     1      -7.288  19.106  69.240  1.00  0.00    -0.252 A  
HETATM   35  C   UNL     1      -8.458  18.628  68.616  1.00  0.00    -0.337 A  
HETATM   36  C   UNL     1      -9.646  19.559  68.603  1.00  0.00    -0.483 C  
ENDBRANCH  28  29
ENDBRANCH  27  28
ENDBRANCH  24  27
ENDBRANCH  22  23
BRANCH  22  37
HETATM   37  C   UNL     1     -12.126  13.453  67.381  1.00  0.00    -0.338 C  
BRANCH  37  38
HETATM   38  C   UNL     1     -11.928  13.950  68.787  1.00  0.00    -0.393 A  
HETATM   39  C   UNL     1     -11.806  14.953  71.399  1.00  0.00    -0.404 A  
HETATM   40  C   UNL     1     -11.486  15.254  69.023  1.00  0.00    -0.338 A  
HETATM   41  C   UNL     1     -12.177  13.634  71.176  1.00  0.00    -0.326 A  
HETATM   42  C   UNL     1     -12.189  13.125  69.880  1.00  0.00    -0.293 A  
HETATM   43  C   UNL     1     -11.425  15.752  70.323  1.00  0.00    -0.369 A  
ENDBRANCH  37  38
ENDBRANCH  22  37
ENDBRANCH  19  22
ENDBRANCH  18  19
ENDBRANCH  17  18
BRANCH  17  44
HETATM   44  C   UNL     1     -11.268   9.875  68.063  1.00  0.00    -0.129 C  
BRANCH  44  45
HETATM   45  C   UNL     1     -10.282   9.285  69.053  1.00  0.00    -0.217 A  
HETATM   46  C   UNL     1      -9.344  10.092  69.719  1.00  0.00    -0.233 A  
HETATM   47  C   UNL     1     -10.273   7.908  69.301  1.00  0.00    -0.216 A  
HETATM   48  C   UNL     1      -8.397   9.523  70.579  1.00  0.00    -0.203 A  
HETATM   49  C   UNL     1      -9.330   7.342  70.163  1.00  0.00    -0.158 A  
HETATM   50  C   UNL     1      -8.386   8.147  70.795  1.00  0.00    -0.120 A  
ENDBRANCH  44  45
ENDBRANCH  17  44
ENDBRANCH  15  17
ENDBRANCH   3  13
TORSDOF 14
ENDMDL
MODEL      153
REMARK 921   NORMALIZED FREE ENERGY PREDICTED BY IDOCK:   -4.71 KCAL/MOL
REMARK 922        TOTAL FREE ENERGY PREDICTED BY IDOCK:  -13.11 KCAL/MOL
REMARK 923 INTER-LIGAND FREE ENERGY PREDICTED BY IDOCK:  -10.25 KCAL/MOL
REMARK 924 INTRA-LIGAND FREE ENERGY PREDICTED BY IDOCK:   -2.86 KCAL/MOL
REMARK 927      BINDING AFFINITY PREDICTED BY RF-SCORE:    0.00 PKD
ROOT
HETATM    1  C   UNL     1     -10.103   6.400  74.262  1.00  0.00    -0.365 C  
HETATM    2  C   UNL     1     -10.270   7.097  72.903  1.00  0.00    -0.266 C  
HETATM    3  C   UNL     1     -10.257   6.062  71.736  1.00  0.00    -0.202 C  
HETATM    4  C   UNL     1     -11.533   7.959  72.951  1.00  0.00    -0.357 C  
ENDROOT
BRANCH   3   5
HETATM    5  N   UNL     1      -8.972   5.326  71.676  1.00  0.00    -0.134 N  
HETATM    6  H   UNL     1      -7.771   2.315  71.545  1.00  0.00     0.000 HD 
HETATM    7  O   UNL     1      -9.948   3.324  71.091  1.00  0.00    -0.133 OA 
HETATM    8  C   UNL     1      -7.705   6.045  71.723  1.00  0.00    -0.101 C  
HETATM    9  C   UNL     1      -8.965   3.967  71.446  1.00  0.00    -0.107 C  
HETATM   10  C   UNL     1      -6.769   5.336  72.684  1.00  0.00    -0.074 C  
HETATM   11  N   UNL     1      -7.786   3.324  71.697  1.00  0.00    -0.052 N  
HETATM   12  C   UNL     1      -6.555   3.933  72.157  1.00  0.00    -0.018 C  
ENDBRANCH   3   5
BRANCH   3  13
HETATM   13  C   UNL     1     -10.639   6.717  70.373  1.00  0.00    -0.227 C  
HETATM   14  O   UNL     1     -11.457   6.237  69.596  1.00  0.00    -0.432 OA 
HETATM   15  N   UNL     1      -9.916   7.850  70.058  1.00  0.00    -0.189 N  
HETATM   16  H   UNL     1      -9.271   8.191  70.771  1.00  0.00     0.000 HD 
BRANCH  15  17
HETATM   17  C   UNL     1      -9.972   8.616  68.815  1.00  0.00    -0.183 C  
BRANCH  17  18
HETATM   18  C   UNL     1     -10.928   9.828  68.870  1.00  0.00    -0.183 C  
BRANCH  18  19
HETATM   19  C   UNL     1     -10.496  11.229  69.374  1.00  0.00    -0.050 C  
HETATM   20  O   UNL     1     -11.547  11.793  70.162  1.00  0.00    -0.457 OA 
HETATM   21  H   UNL     1     -11.283  12.652  70.471  1.00  0.00     0.000 HD 
BRANCH  19  22
HETATM   22  C   UNL     1     -10.227  12.206  68.163  1.00  0.00    -0.203 C  
BRANCH  22  23
HETATM   23  N   UNL     1      -8.812  12.154  67.643  1.00  0.00    -0.164 N  
HETATM   24  C   UNL     1      -7.758  13.022  67.456  1.00  0.00    -0.168 C  
HETATM   25  H   UNL     1      -8.566  11.210  67.347  1.00  0.00     0.000 HD 
HETATM   26  O   UNL     1      -6.641  12.543  67.237  1.00  0.00    -0.157 OA 
BRANCH  24  27
HETATM   27  C   UNL     1      -7.995  14.541  67.404  1.00  0.00    -0.200 C  
BRANCH  27  28
HETATM   28  O   UNL     1      -8.327  15.312  68.547  1.00  0.00    -0.140 OA 
BRANCH  28  29
HETATM   29  C   UNL     1      -8.907  16.559  68.359  1.00  0.00    -0.218 A  
HETATM   30  C   UNL     1     -11.400  15.915  67.722  1.00  0.00    -0.199 C  
HETATM   31  C   UNL     1     -10.260  16.850  68.041  1.00  0.00    -0.310 A  
HETATM   32  C   UNL     1     -10.678  18.203  68.019  1.00  0.00    -0.297 A  
HETATM   33  C   UNL     1      -9.812  19.255  68.277  1.00  0.00    -0.482 A  
HETATM   34  C   UNL     1      -8.483  18.980  68.548  1.00  0.00    -0.387 A  
HETATM   35  C   UNL     1      -8.014  17.651  68.582  1.00  0.00    -0.275 A  
HETATM   36  C   UNL     1      -6.543  17.460  68.856  1.00  0.00    -0.218 C  
ENDBRANCH  28  29
ENDBRANCH  27  28
ENDBRANCH  24  27
ENDBRANCH  22  23
BRANCH  22  37
HETATM   37  C   UNL     1     -11.377  12.207  67.120  1.00  0.00    -0.393 C  
BRANCH  37  38
HETATM   38  C   UNL     1     -10.939  11.894  65.716  1.00  0.00    -0.359 A  
HETATM   39  C   UNL     1      -9.898  11.420  63.159  1.00  0.00    -0.413 A  
HETATM   40  C   UNL     1     -11.158  12.809  64.683  1.00  0.00    -0.349 A  
HETATM   41  C   UNL     1      -9.739  10.473  64.163  1.00  0.00    -0.388 A  
HETATM   42  C   UNL     1     -10.301  10.690  65.418  1.00  0.00    -0.303 A  
HETATM   43  C   UNL     1     -10.640  12.572  63.412  1.00  0.00    -0.294 A  
ENDBRANCH  37  38
ENDBRANCH  22  37
ENDBRANCH  19  22
ENDBRANCH  18  19
ENDBRANCH  17  18
BRANCH  17  44
HETATM   44  C   UNL     1      -9.978   7.744  67.540  1.00  0.00    -0.242 C  
BRANCH  44  45
HETATM   45  C   UNL     1      -8.729   7.898  66.692  1.00  0.00    -0.154 A  
HETATM   46  C   UNL     1      -8.529   7.122  65.539  1.00  0.00    -0.114 A  
HETATM   47  C   UNL     1      -7.734   8.808  67.066  1.00  0.00    -0.095 A  
HETATM   48  C   UNL     1      -7.342   7.228  64.805  1.00  0.00    -0.081 A  
HETATM   49  C   UNL     1      -6.551   8.916  66.329  1.00  0.00    -0.066 A  
HETATM   50  C   UNL     1      -6.350   8.121  65.205  1.00  0.00    -0.048 A  
ENDBRANCH  44  45
ENDBRANCH  17  44
ENDBRANCH  15  17
ENDBRANCH   3  13
TORSDOF 14
ENDMDL
MODEL      154
REMARK 921   NORMALIZED FREE ENERGY PREDICTED BY IDOCK:   -4.69 KCAL/MOL
REMARK 922        TOTAL FREE ENERGY PREDICTED BY IDOCK:  -13.09 KCAL/MOL
REMARK 923 INTER-LIGAND FREE ENERGY PREDICTED BY IDOCK:   -9.61 KCAL/MOL
REMARK 924 INTRA-LIGAND FREE ENERGY PREDICTED BY IDOCK:   -3.48 KCAL/MOL
REMARK 927      BINDING AFFINITY PREDICTED BY RF-SCORE:    0.00 PKD
ROOT
HETATM    1  C   UNL     1     -10.211   6.796  74.090  1.00  0.00    -0.370 C  
HETATM    2  C   UNL     1      -9.433   7.109  72.803  1.00  0.00    -0.176 C  
HETATM    3  C   UNL     1     -10.018   8.363  72.083  1.00  0.00    -0.306 C  
HETATM    4  C   UNL     1      -7.948   7.231  73.151  1.00  0.00    -0.120 C  
ENDROOT
BRANCH   3   5
HETATM    5  N   UNL     1     -11.428   8.149  71.681  1.00  0.00    -0.262 N  
HETATM    6  H   UNL     1     -14.287   9.675  71.532  1.00  0.00     0.000 HD 
HETATM    7  O   UNL     1     -11.960  10.389  71.729  1.00  0.00    -0.214 OA 
HETATM    8  C   UNL     1     -11.871   6.848  71.196  1.00  0.00    -0.349 C  
HETATM    9  C   UNL     1     -12.303   9.214  71.638  1.00  0.00    -0.360 C  
HETATM   10  C   UNL     1     -13.189   6.495  71.859  1.00  0.00     0.033 C  
HETATM   11  N   UNL     1     -13.628   8.897  71.549  1.00  0.00    -0.357 N  
HETATM   12  C   UNL     1     -14.190   7.564  71.476  1.00  0.00    -0.445 C  
ENDBRANCH   3   5
BRANCH   3  13
HETATM   13  C   UNL     1      -9.117   8.825  70.898  1.00  0.00    -0.208 C  
HETATM   14  O   UNL     1      -8.850  10.000  70.669  1.00  0.00     0.017 OA 
HETATM   15  N   UNL     1      -8.705   7.810  70.058  1.00  0.00    -0.140 N  
HETATM   16  H   UNL     1      -8.957   6.861  70.336  1.00  0.00     0.000 HD 
BRANCH  15  17
HETATM   17  C   UNL     1      -7.949   7.944  68.815  1.00  0.00    -0.124 C  
BRANCH  17  18
HETATM   18  C   UNL     1      -8.833   7.998  67.549  1.00  0.00    -0.129 C  
BRANCH  18  19
HETATM   19  C   UNL     1      -9.680   9.235  67.156  1.00  0.00    -0.172 C  
HETATM   20  O   UNL     1     -11.050   8.845  67.018  1.00  0.00    -0.242 OA 
HETATM   21  H   UNL     1     -11.569   9.603  66.777  1.00  0.00     0.000 HD 
BRANCH  19  22
HETATM   22  C   UNL     1      -9.207   9.827  65.771  1.00  0.00    -0.191 C  
BRANCH  22  23
HETATM   23  N   UNL     1     -10.275  10.607  65.048  1.00  0.00    -0.317 N  
HETATM   24  C   UNL     1     -11.079  11.702  65.283  1.00  0.00    -0.236 C  
HETATM   25  H   UNL     1     -10.453  10.214  64.124  1.00  0.00     0.000 HD 
HETATM   26  O   UNL     1     -11.667  12.209  64.323  1.00  0.00    -0.350 OA 
BRANCH  24  27
HETATM   27  C   UNL     1     -11.327  12.198  66.717  1.00  0.00    -0.342 C  
BRANCH  27  28
HETATM   28  O   UNL     1     -12.087  13.358  67.015  1.00  0.00    -0.381 OA 
BRANCH  28  29
HETATM   29  C   UNL     1     -11.415  14.509  67.405  1.00  0.00    -0.368 A  
HETATM   30  C   UNL     1     -10.459  15.396  65.096  1.00  0.00    -0.439 C  
HETATM   31  C   UNL     1     -10.732  15.440  66.579  1.00  0.00    -0.308 A  
HETATM   32  C   UNL     1     -10.220  16.622  67.166  1.00  0.00    -0.290 A  
HETATM   33  C   UNL     1     -10.341  16.895  68.520  1.00  0.00    -0.336 A  
HETATM   34  C   UNL     1     -10.970  15.972  69.337  1.00  0.00    -0.321 A  
HETATM   35  C   UNL     1     -11.498  14.779  68.805  1.00  0.00    -0.324 A  
HETATM   36  C   UNL     1     -12.136  13.825  69.785  1.00  0.00    -0.400 C  
ENDBRANCH  28  29
ENDBRANCH  27  28
ENDBRANCH  24  27
ENDBRANCH  22  23
BRANCH  22  37
HETATM   37  C   UNL     1      -7.782  10.441  65.831  1.00  0.00    -0.145 C  
BRANCH  37  38
HETATM   38  C   UNL     1      -7.550  11.350  67.006  1.00  0.00    -0.151 A  
HETATM   39  C   UNL     1      -6.933  13.157  69.055  1.00  0.00    -0.063 A  
HETATM   40  C   UNL     1      -6.634  11.003  68.002  1.00  0.00    -0.062 A  
HETATM   41  C   UNL     1      -7.897  13.479  68.108  1.00  0.00    -0.144 A  
HETATM   42  C   UNL     1      -8.236  12.559  67.121  1.00  0.00    -0.168 A  
HETATM   43  C   UNL     1      -6.329  11.902  69.021  1.00  0.00    -0.080 A  
ENDBRANCH  37  38
ENDBRANCH  22  37
ENDBRANCH  19  22
ENDBRANCH  18  19
ENDBRANCH  17  18
BRANCH  17  44
HETATM   44  C   UNL     1      -6.663   7.091  68.767  1.00  0.00    -0.060 C  
BRANCH  44  45
HETATM   45  C   UNL     1      -6.291   6.629  67.370  1.00  0.00    -0.044 A  
HETATM   46  C   UNL     1      -5.635   7.483  66.468  1.00  0.00    -0.025 A  
HETATM   47  C   UNL     1      -6.624   5.338  66.945  1.00  0.00    -0.053 A  
HETATM   48  C   UNL     1      -5.359   7.065  65.162  1.00  0.00    -0.028 A  
HETATM   49  C   UNL     1      -6.343   4.920  65.641  1.00  0.00    -0.035 A  
HETATM   50  C   UNL     1      -5.720   5.785  64.747  1.00  0.00    -0.024 A  
ENDBRANCH  44  45
ENDBRANCH  17  44
ENDBRANCH  15  17
ENDBRANCH   3  13
TORSDOF 14
ENDMDL
MODEL      155
REMARK 921   NORMALIZED FREE ENERGY PREDICTED BY IDOCK:   -4.69 KCAL/MOL
REMARK 922        TOTAL FREE ENERGY PREDICTED BY IDOCK:  -13.09 KCAL/MOL
REMARK 923 INTER-LIGAND FREE ENERGY PREDICTED BY IDOCK:   -9.83 KCAL/MOL
REMARK 924 INTRA-LIGAND FREE ENERGY PREDICTED BY IDOCK:   -3.26 KCAL/MOL
REMARK 927      BINDING AFFINITY PREDICTED BY RF-SCORE:    0.00 PKD
ROOT
HETATM    1  C   UNL     1      -7.922   7.052  63.370  1.00  0.00    -0.062 C  
HETATM    2  C   UNL     1      -7.488   7.432  64.794  1.00  0.00    -0.088 C  
HETATM    3  C   UNL     1      -8.625   8.191  65.544  1.00  0.00    -0.149 C  
HETATM    4  C   UNL     1      -7.011   6.166  65.510  1.00  0.00    -0.060 C  
ENDROOT
BRANCH   3   5
HETATM    5  N   UNL     1      -8.976   9.458  64.859  1.00  0.00    -0.213 N  
HETATM    6  H   UNL     1     -11.290  11.728  64.745  1.00  0.00     0.000 HD 
HETATM    7  O   UNL     1     -10.653   9.995  66.343  1.00  0.00    -0.166 OA 
HETATM    8  C   UNL     1      -8.113  10.000  63.817  1.00  0.00    -0.158 C  
HETATM    9  C   UNL     1     -10.053  10.201  65.292  1.00  0.00    -0.274 C  
HETATM   10  C   UNL     1      -8.969  10.446  62.647  1.00  0.00    -0.277 C  
HETATM   11  N   UNL     1     -10.484  11.181  64.443  1.00  0.00    -0.338 N  
HETATM   12  C   UNL     1      -9.910  11.518  63.157  1.00  0.00    -0.390 C  
ENDBRANCH   3   5
BRANCH   3  13
HETATM   13  C   UNL     1      -8.289   8.396  67.053  1.00  0.00    -0.114 C  
HETATM   14  O   UNL     1      -7.271   8.951  67.451  1.00  0.00    -0.079 OA 
HETATM   15  N   UNL     1      -9.191   7.820  67.925  1.00  0.00    -0.137 N  
HETATM   16  H   UNL     1     -10.019   7.396  67.508  1.00  0.00     0.000 HD 
BRANCH  15  17
HETATM   17  C   UNL     1      -9.090   7.752  69.381  1.00  0.00    -0.146 C  
BRANCH  17  18
HETATM   18  C   UNL     1      -9.157   9.129  70.077  1.00  0.00    -0.207 C  
BRANCH  18  19
HETATM   19  C   UNL     1     -10.447   9.986  70.144  1.00  0.00    -0.284 C  
HETATM   20  O   UNL     1     -11.472   9.359  69.366  1.00  0.00    -0.441 OA 
HETATM   21  H   UNL     1     -12.262   9.885  69.407  1.00  0.00     0.000 HD 
BRANCH  19  22
HETATM   22  C   UNL     1     -10.201  11.425  69.543  1.00  0.00     0.250 C  
BRANCH  22  23
HETATM   23  N   UNL     1      -9.014  11.501  68.616  1.00  0.00    -0.303 N  
HETATM   24  C   UNL     1      -8.373  12.450  67.849  1.00  0.00    -0.165 C  
HETATM   25  H   UNL     1      -8.556  10.594  68.533  1.00  0.00     0.000 HD 
HETATM   26  O   UNL     1      -7.249  12.184  67.413  1.00  0.00    -0.125 OA 
BRANCH  24  27
HETATM   27  C   UNL     1      -9.091  13.752  67.453  1.00  0.00    -0.221 C  
BRANCH  27  28
HETATM   28  O   UNL     1      -8.474  14.774  66.688  1.00  0.00    -0.199 OA 
BRANCH  28  29
HETATM   29  C   UNL     1      -8.519  16.077  67.165  1.00  0.00    -0.196 A  
HETATM   30  C   UNL     1     -10.785  16.969  66.116  1.00  0.00    -0.099 C  
HETATM   31  C   UNL     1      -9.540  17.043  66.964  1.00  0.00    -0.257 A  
HETATM   32  C   UNL     1      -9.451  18.280  67.648  1.00  0.00    -0.275 A  
HETATM   33  C   UNL     1      -8.394  18.592  68.489  1.00  0.00    -0.359 A  
HETATM   34  C   UNL     1      -7.375  17.671  68.657  1.00  0.00    -0.257 A  
HETATM   35  C   UNL     1      -7.414  16.425  68.000  1.00  0.00    -0.151 A  
HETATM   36  C   UNL     1      -6.239  15.505  68.225  1.00  0.00    -0.123 C  
ENDBRANCH  28  29
ENDBRANCH  27  28
ENDBRANCH  24  27
ENDBRANCH  22  23
BRANCH  22  37
HETATM   37  C   UNL     1     -11.512  12.125  69.094  1.00  0.00    -0.352 C  
BRANCH  37  38
HETATM   38  C   UNL     1     -12.011  13.174  70.049  1.00  0.00    -0.391 A  
HETATM   39  C   UNL     1     -13.169  15.108  71.711  1.00  0.00    -0.484 A  
HETATM   40  C   UNL     1     -11.922  14.530  69.724  1.00  0.00    -0.383 A  
HETATM   41  C   UNL     1     -13.198  13.768  72.075  1.00  0.00    -0.520 A  
HETATM   42  C   UNL     1     -12.579  12.816  71.271  1.00  0.00    -0.347 A  
HETATM   43  C   UNL     1     -12.498  15.492  70.552  1.00  0.00    -0.472 A  
ENDBRANCH  37  38
ENDBRANCH  22  37
ENDBRANCH  19  22
ENDBRANCH  18  19
ENDBRANCH  17  18
BRANCH  17  44
HETATM   44  C   UNL     1      -8.052   6.730  69.892  1.00  0.00    -0.126 C  
BRANCH  44  45
HETATM   45  C   UNL     1      -8.155   5.372  69.224  1.00  0.00    -0.093 A  
HETATM   46  C   UNL     1      -7.010   4.617  68.921  1.00  0.00    -0.052 A  
HETATM   47  C   UNL     1      -9.408   4.855  68.871  1.00  0.00    -0.180 A  
HETATM   48  C   UNL     1      -7.119   3.396  68.245  1.00  0.00    -0.050 A  
HETATM   49  C   UNL     1      -9.515   3.634  68.199  1.00  0.00    -0.215 A  
HETATM   50  C   UNL     1      -8.371   2.909  67.877  1.00  0.00    -0.094 A  
ENDBRANCH  44  45
ENDBRANCH  17  44
ENDBRANCH  15  17
ENDBRANCH   3  13
TORSDOF 14
ENDMDL
MODEL      156
REMARK 921   NORMALIZED FREE ENERGY PREDICTED BY IDOCK:   -4.68 KCAL/MOL
REMARK 922        TOTAL FREE ENERGY PREDICTED BY IDOCK:  -13.06 KCAL/MOL
REMARK 923 INTER-LIGAND FREE ENERGY PREDICTED BY IDOCK:  -11.08 KCAL/MOL
REMARK 924 INTRA-LIGAND FREE ENERGY PREDICTED BY IDOCK:   -1.98 KCAL/MOL
REMARK 927      BINDING AFFINITY PREDICTED BY RF-SCORE:    0.00 PKD
ROOT
HETATM    1  C   UNL     1     -12.785  14.028  72.374  1.00  0.00    -0.336 C  
HETATM    2  C   UNL     1     -11.966  14.346  71.113  1.00  0.00    -0.383 C  
HETATM    3  C   UNL     1     -12.353  13.396  69.938  1.00  0.00    -0.195 C  
HETATM    4  C   UNL     1     -12.132  15.832  70.788  1.00  0.00    -0.448 C  
ENDROOT
BRANCH   3   5
HETATM    5  N   UNL     1     -12.077  11.979  70.271  1.00  0.00    -0.340 N  
HETATM    6  H   UNL     1     -12.757   9.712  72.490  1.00  0.00     0.000 HD 
HETATM    7  O   UNL     1     -13.757  11.843  71.840  1.00  0.00    -0.142 OA 
HETATM    8  C   UNL     1     -11.176  11.186  69.445  1.00  0.00    -0.270 C  
HETATM    9  C   UNL     1     -12.771  11.362  71.290  1.00  0.00    -0.393 C  
HETATM   10  C   UNL     1     -10.238  10.404  70.344  1.00  0.00     0.173 C  
HETATM   11  N   UNL     1     -12.262  10.171  71.725  1.00  0.00    -0.330 N  
HETATM   12  C   UNL     1     -11.089   9.497  71.209  1.00  0.00    -0.379 C  
ENDBRANCH   3   5
BRANCH   3  13
HETATM   13  C   UNL     1     -11.695  13.837  68.594  1.00  0.00    -0.356 C  
HETATM   14  O   UNL     1     -12.268  13.787  67.511  1.00  0.00    -0.355 OA 
HETATM   15  N   UNL     1     -10.370  14.212  68.698  1.00  0.00    -0.241 N  
HETATM   16  H   UNL     1      -9.980  14.243  69.640  1.00  0.00     0.000 HD 
BRANCH  15  17
HETATM   17  C   UNL     1      -9.466  14.569  67.608  1.00  0.00    -0.209 C  
BRANCH  17  18
HETATM   18  C   UNL     1      -8.754  13.357  66.966  1.00  0.00    -0.195 C  
BRANCH  18  19
HETATM   19  C   UNL     1      -7.578  12.607  67.642  1.00  0.00    -0.152 C  
HETATM   20  O   UNL     1      -6.374  12.858  66.911  1.00  0.00    -0.474 OA 
HETATM   21  H   UNL     1      -5.653  12.398  67.325  1.00  0.00     0.000 HD 
BRANCH  19  22
HETATM   22  C   UNL     1      -7.826  11.047  67.637  1.00  0.00    -0.114 C  
BRANCH  22  23
HETATM   23  N   UNL     1      -8.592  10.558  66.434  1.00  0.00    -0.140 N  
HETATM   24  C   UNL     1      -9.676   9.749  66.170  1.00  0.00    -0.246 C  
HETATM   25  H   UNL     1      -8.196  10.932  65.572  1.00  0.00     0.000 HD 
HETATM   26  O   UNL     1     -10.175   9.793  65.042  1.00  0.00    -0.126 OA 
BRANCH  24  27
HETATM   27  C   UNL     1     -10.170   8.736  67.217  1.00  0.00    -0.263 C  
BRANCH  27  28
HETATM   28  O   UNL     1     -10.686   7.460  66.876  1.00  0.00    -0.346 OA 
BRANCH  28  29
HETATM   29  C   UNL     1     -10.209   6.348  67.556  1.00  0.00    -0.170 A  
HETATM   30  C   UNL     1     -11.624   6.425  69.797  1.00  0.00    -0.397 C  
HETATM   31  C   UNL     1     -10.633   5.850  68.816  1.00  0.00    -0.340 A  
HETATM   32  C   UNL     1     -10.101   4.621  69.276  1.00  0.00    -0.170 A  
HETATM   33  C   UNL     1      -9.166   3.896  68.553  1.00  0.00    -0.212 A  
HETATM   34  C   UNL     1      -8.718   4.397  67.344  1.00  0.00    -0.110 A  
HETATM   35  C   UNL     1      -9.214   5.616  66.839  1.00  0.00    -0.120 A  
HETATM   36  C   UNL     1      -8.638   6.090  65.528  1.00  0.00    -0.145 C  
ENDBRANCH  28  29
ENDBRANCH  27  28
ENDBRANCH  24  27
ENDBRANCH  22  23
BRANCH  22  37
HETATM   37  C   UNL     1      -6.577  10.235  68.075  1.00  0.00    -0.061 C  
BRANCH  37  38
HETATM   38  C   UNL     1      -6.822   9.299  69.227  1.00  0.00    -0.049 A  
HETATM   39  C   UNL     1      -7.519   7.642  71.374  1.00  0.00    -0.079 A  
HETATM   40  C   UNL     1      -6.627   9.727  70.542  1.00  0.00    -0.117 A  
HETATM   41  C   UNL     1      -7.648   7.183  70.069  1.00  0.00    -0.091 A  
HETATM   42  C   UNL     1      -7.254   7.992  69.007  1.00  0.00    -0.078 A  
HETATM   43  C   UNL     1      -6.973   8.902  71.610  1.00  0.00    -0.058 A  
ENDBRANCH  37  38
ENDBRANCH  22  37
ENDBRANCH  19  22
ENDBRANCH  18  19
ENDBRANCH  17  18
BRANCH  17  44
HETATM   44  C   UNL     1      -8.635  15.843  67.871  1.00  0.00    -0.164 C  
BRANCH  44  45
HETATM   45  C   UNL     1      -9.400  17.130  67.624  1.00  0.00    -0.239 A  
HETATM   46  C   UNL     1      -9.882  17.459  66.346  1.00  0.00    -0.311 A  
HETATM   47  C   UNL     1      -9.617  18.032  68.672  1.00  0.00    -0.335 A  
HETATM   48  C   UNL     1     -10.527  18.680  66.120  1.00  0.00    -0.473 A  
HETATM   49  C   UNL     1     -10.265  19.249  68.445  1.00  0.00    -0.503 A  
HETATM   50  C   UNL     1     -10.712  19.578  67.169  1.00  0.00    -0.599 A  
ENDBRANCH  44  45
ENDBRANCH  17  44
ENDBRANCH  15  17
ENDBRANCH   3  13
TORSDOF 14
ENDMDL
MODEL      157
REMARK 921   NORMALIZED FREE ENERGY PREDICTED BY IDOCK:   -4.66 KCAL/MOL
REMARK 922        TOTAL FREE ENERGY PREDICTED BY IDOCK:  -13.02 KCAL/MOL
REMARK 923 INTER-LIGAND FREE ENERGY PREDICTED BY IDOCK:   -8.23 KCAL/MOL
REMARK 924 INTRA-LIGAND FREE ENERGY PREDICTED BY IDOCK:   -4.79 KCAL/MOL
REMARK 927      BINDING AFFINITY PREDICTED BY RF-SCORE:    0.00 PKD
ROOT
HETATM    1  C   UNL     1      -8.849  13.817  66.730  1.00  0.00    -0.156 C  
HETATM    2  C   UNL     1      -9.734  12.907  67.596  1.00  0.00    -0.212 C  
HETATM    3  C   UNL     1     -10.133  11.612  66.824  1.00  0.00    -0.213 C  
HETATM    4  C   UNL     1      -9.011  12.641  68.918  1.00  0.00     0.315 C  
ENDROOT
BRANCH   3   5
HETATM    5  N   UNL     1     -10.917  11.925  65.606  1.00  0.00    -0.297 N  
HETATM    6  H   UNL     1     -10.982  11.365  62.411  1.00  0.00     0.000 HD 
HETATM    7  O   UNL     1      -9.900  10.304  64.326  1.00  0.00    -0.329 OA 
HETATM    8  C   UNL     1     -12.072  12.812  65.677  1.00  0.00    -0.459 C  
HETATM    9  C   UNL     1     -10.639  11.279  64.420  1.00  0.00    -0.345 C  
HETATM   10  C   UNL     1     -12.013  13.795  64.523  1.00  0.00    -0.458 C  
HETATM   11  N   UNL     1     -11.192  11.825  63.297  1.00  0.00    -0.326 N  
HETATM   12  C   UNL     1     -12.048  12.992  63.240  1.00  0.00    -0.422 C  
ENDBRANCH   3   5
BRANCH   3  13
HETATM   13  C   UNL     1     -10.847  10.580  67.750  1.00  0.00    -0.294 C  
HETATM   14  O   UNL     1     -11.980  10.737  68.192  1.00  0.00    -0.527 OA 
HETATM   15  N   UNL     1     -10.068   9.500  68.114  1.00  0.00    -0.173 N  
HETATM   16  H   UNL     1      -9.146   9.440  67.684  1.00  0.00     0.000 HD 
BRANCH  15  17
HETATM   17  C   UNL     1     -10.420   8.434  69.049  1.00  0.00    -0.201 C  
BRANCH  17  18
HETATM   18  C   UNL     1     -11.077   7.207  68.379  1.00  0.00     0.003 C  
BRANCH  18  19
HETATM   19  C   UNL     1     -10.472   5.781  68.436  1.00  0.00    -0.222 C  
HETATM   20  O   UNL     1     -10.236   5.422  69.801  1.00  0.00    -0.229 OA 
HETATM   21  H   UNL     1      -9.865   4.548  69.836  1.00  0.00     0.000 HD 
BRANCH  19  22
HETATM   22  C   UNL     1      -9.087   5.725  67.679  1.00  0.00    -0.106 C  
BRANCH  22  23
HETATM   23  N   UNL     1      -7.902   5.550  68.595  1.00  0.00    -0.091 N  
HETATM   24  C   UNL     1      -6.872   6.319  69.095  1.00  0.00    -0.062 C  
HETATM   25  H   UNL     1      -7.846   4.593  68.942  1.00  0.00     0.000 HD 
HETATM   26  O   UNL     1      -6.223   5.874  70.046  1.00  0.00    -0.025 OA 
BRANCH  24  27
HETATM   27  C   UNL     1      -6.473   7.635  68.407  1.00  0.00    -0.052 C  
BRANCH  27  28
HETATM   28  O   UNL     1      -7.091   8.879  68.698  1.00  0.00    -0.069 OA 
BRANCH  28  29
HETATM   29  C   UNL     1      -6.449  10.046  68.308  1.00  0.00    -0.054 A  
HETATM   30  C   UNL     1      -6.909  10.081  65.697  1.00  0.00    -0.114 C  
HETATM   31  C   UNL     1      -6.391  10.615  67.009  1.00  0.00    -0.073 A  
HETATM   32  C   UNL     1      -5.787  11.886  66.849  1.00  0.00    -0.118 A  
HETATM   33  C   UNL     1      -5.231  12.585  67.910  1.00  0.00    -0.091 A  
HETATM   34  C   UNL     1      -5.248  12.017  69.171  1.00  0.00    -0.055 A  
HETATM   35  C   UNL     1      -5.836  10.755  69.386  1.00  0.00    -0.040 A  
HETATM   36  C   UNL     1      -5.774  10.210  70.792  1.00  0.00    -0.089 C  
ENDBRANCH  28  29
ENDBRANCH  27  28
ENDBRANCH  24  27
ENDBRANCH  22  23
BRANCH  22  37
HETATM   37  C   UNL     1      -9.137   4.859  66.391  1.00  0.00    -0.127 C  
BRANCH  37  38
HETATM   38  C   UNL     1      -8.011   5.118  65.429  1.00  0.00    -0.110 A  
HETATM   39  C   UNL     1      -6.087   5.582  63.447  1.00  0.00    -0.021 A  
HETATM   40  C   UNL     1      -7.267   4.058  64.904  1.00  0.00    -0.067 A  
HETATM   41  C   UNL     1      -6.772   6.648  64.017  1.00  0.00    -0.044 A  
HETATM   42  C   UNL     1      -7.691   6.417  65.036  1.00  0.00    -0.098 A  
HETATM   43  C   UNL     1      -6.310   4.290  63.919  1.00  0.00    -0.030 A  
ENDBRANCH  37  38
ENDBRANCH  22  37
ENDBRANCH  19  22
ENDBRANCH  18  19
ENDBRANCH  17  18
BRANCH  17  44
HETATM   44  C   UNL     1     -11.014   8.938  70.383  1.00  0.00    -0.275 C  
BRANCH  44  45
HETATM   45  C   UNL     1     -10.279   8.426  71.608  1.00  0.00    -0.310 A  
HETATM   46  C   UNL     1      -8.885   8.549  71.728  1.00  0.00    -0.278 A  
HETATM   47  C   UNL     1     -10.985   7.792  72.637  1.00  0.00    -0.422 A  
HETATM   48  C   UNL     1      -8.215   8.012  72.833  1.00  0.00    -0.221 A  
HETATM   49  C   UNL     1     -10.315   7.261  73.742  1.00  0.00    -0.360 A  
HETATM   50  C   UNL     1      -8.929   7.362  73.837  1.00  0.00    -0.281 A  
ENDBRANCH  44  45
ENDBRANCH  17  44
ENDBRANCH  15  17
ENDBRANCH   3  13
TORSDOF 14
ENDMDL
MODEL      158
REMARK 921   NORMALIZED FREE ENERGY PREDICTED BY IDOCK:   -4.65 KCAL/MOL
REMARK 922        TOTAL FREE ENERGY PREDICTED BY IDOCK:  -13.00 KCAL/MOL
REMARK 923 INTER-LIGAND FREE ENERGY PREDICTED BY IDOCK:  -10.35 KCAL/MOL
REMARK 924 INTRA-LIGAND FREE ENERGY PREDICTED BY IDOCK:   -2.65 KCAL/MOL
REMARK 927      BINDING AFFINITY PREDICTED BY RF-SCORE:    0.00 PKD
ROOT
HETATM    1  C   UNL     1      -8.038   7.462  64.238  1.00  0.00    -0.055 C  
HETATM    2  C   UNL     1      -7.974   7.562  65.770  1.00  0.00    -0.117 C  
HETATM    3  C   UNL     1      -7.295   6.300  66.388  1.00  0.00    -0.085 C  
HETATM    4  C   UNL     1      -7.288   8.878  66.142  1.00  0.00    -0.090 C  
ENDROOT
BRANCH   3   5
HETATM    5  N   UNL     1      -8.057   5.067  66.078  1.00  0.00    -0.107 N  
HETATM    6  H   UNL     1      -7.686   1.859  65.775  1.00  0.00     0.000 HD 
HETATM    7  O   UNL     1      -6.402   3.651  66.825  1.00  0.00    -0.034 OA 
HETATM    8  C   UNL     1      -9.470   5.139  65.726  1.00  0.00    -0.141 C  
HETATM    9  C   UNL     1      -7.470   3.831  66.247  1.00  0.00    -0.080 C  
HETATM   10  C   UNL     1      -9.727   4.247  64.527  1.00  0.00    -0.137 C  
HETATM   11  N   UNL     1      -8.119   2.777  65.670  1.00  0.00    -0.086 N  
HETATM   12  C   UNL     1      -9.359   2.833  64.925  1.00  0.00    -0.139 C  
ENDBRANCH   3   5
BRANCH   3  13
HETATM   13  C   UNL     1      -7.025   6.474  67.914  1.00  0.00    -0.079 C  
HETATM   14  O   UNL     1      -5.906   6.430  68.412  1.00  0.00    -0.015 OA 
HETATM   15  N   UNL     1      -8.161   6.595  68.688  1.00  0.00    -0.119 N  
HETATM   16  H   UNL     1      -9.049   6.642  68.188  1.00  0.00     0.000 HD 
BRANCH  15  17
HETATM   17  C   UNL     1      -8.232   6.663  70.146  1.00  0.00    -0.133 C  
BRANCH  17  18
HETATM   18  C   UNL     1      -7.657   7.969  70.739  1.00  0.00    -0.077 C  
BRANCH  18  19
HETATM   19  C   UNL     1      -8.094   9.380  70.269  1.00  0.00    -0.164 C  
HETATM   20  O   UNL     1      -7.264  10.364  70.893  1.00  0.00    -0.367 OA 
HETATM   21  H   UNL     1      -7.532  11.229  70.605  1.00  0.00     0.000 HD 
BRANCH  19  22
HETATM   22  C   UNL     1      -9.587   9.677  70.686  1.00  0.00    -0.147 C  
BRANCH  22  23
HETATM   23  N   UNL     1     -10.552   9.682  69.528  1.00  0.00    -0.218 N  
HETATM   24  C   UNL     1     -10.970  10.556  68.547  1.00  0.00    -0.252 C  
HETATM   25  H   UNL     1     -11.031   8.785  69.447  1.00  0.00     0.000 HD 
HETATM   26  O   UNL     1     -11.609  10.099  67.594  1.00  0.00    -0.204 OA 
BRANCH  24  27
HETATM   27  C   UNL     1     -10.748  12.070  68.702  1.00  0.00    -0.236 C  
BRANCH  27  28
HETATM   28  O   UNL     1     -11.799  13.019  68.619  1.00  0.00    -0.305 OA 
BRANCH  28  29
HETATM   29  C   UNL     1     -11.900  13.984  69.611  1.00  0.00    -0.330 A  
HETATM   30  C   UNL     1     -12.886  12.590  71.639  1.00  0.00    -0.368 C  
HETATM   31  C   UNL     1     -12.332  13.813  70.952  1.00  0.00    -0.456 A  
HETATM   32  C   UNL     1     -12.238  14.910  71.844  1.00  0.00    -0.424 A  
HETATM   33  C   UNL     1     -11.760  16.150  71.450  1.00  0.00    -0.506 A  
HETATM   34  C   UNL     1     -11.376  16.335  70.134  1.00  0.00    -0.292 A  
HETATM   35  C   UNL     1     -11.449  15.277  69.205  1.00  0.00    -0.334 A  
HETATM   36  C   UNL     1     -11.037  15.592  67.788  1.00  0.00    -0.315 C  
ENDBRANCH  28  29
ENDBRANCH  27  28
ENDBRANCH  24  27
ENDBRANCH  22  23
BRANCH  22  37
HETATM   37  C   UNL     1     -10.015   8.927  71.977  1.00  0.00    -0.338 C  
BRANCH  37  38
HETATM   38  C   UNL     1     -11.469   8.545  72.017  1.00  0.00    -0.431 A  
HETATM   39  C   UNL     1     -14.184   7.881  71.838  1.00  0.00    -0.508 A  
HETATM   40  C   UNL     1     -12.450   9.511  72.256  1.00  0.00    -0.299 A  
HETATM   41  C   UNL     1     -13.214   6.901  71.670  1.00  0.00    -0.315 A  
HETATM   42  C   UNL     1     -11.868   7.226  71.808  1.00  0.00    -0.330 A  
HETATM   43  C   UNL     1     -13.800   9.179  72.168  1.00  0.00    -0.508 A  
ENDBRANCH  37  38
ENDBRANCH  22  37
ENDBRANCH  19  22
ENDBRANCH  18  19
ENDBRANCH  17  18
BRANCH  17  44
HETATM   44  C   UNL     1      -7.895   5.334  70.855  1.00  0.00    -0.098 C  
BRANCH  44  45
HETATM   45  C   UNL     1      -8.809   5.018  72.023  1.00  0.00    -0.139 A  
HETATM   46  C   UNL     1      -8.504   5.445  73.327  1.00  0.00    -0.117 A  
HETATM   47  C   UNL     1      -9.972   4.264  71.823  1.00  0.00    -0.254 A  
HETATM   48  C   UNL     1      -9.323   5.089  74.404  1.00  0.00    -0.129 A  
HETATM   49  C   UNL     1     -10.791   3.913  72.900  1.00  0.00    -0.170 A  
HETATM   50  C   UNL     1     -10.463   4.316  74.191  1.00  0.00    -0.307 A  
ENDBRANCH  44  45
ENDBRANCH  17  44
ENDBRANCH  15  17
ENDBRANCH   3  13
TORSDOF 14
ENDMDL
MODEL      159
REMARK 921   NORMALIZED FREE ENERGY PREDICTED BY IDOCK:   -4.64 KCAL/MOL
REMARK 922        TOTAL FREE ENERGY PREDICTED BY IDOCK:  -12.99 KCAL/MOL
REMARK 923 INTER-LIGAND FREE ENERGY PREDICTED BY IDOCK:  -10.32 KCAL/MOL
REMARK 924 INTRA-LIGAND FREE ENERGY PREDICTED BY IDOCK:   -2.66 KCAL/MOL
REMARK 927      BINDING AFFINITY PREDICTED BY RF-SCORE:    0.00 PKD
ROOT
HETATM    1  C   UNL     1      -8.523   1.472  65.828  1.00  0.00    -0.100 C  
HETATM    2  C   UNL     1      -8.224   2.495  66.935  1.00  0.00    -0.084 C  
HETATM    3  C   UNL     1      -8.195   3.947  66.365  1.00  0.00    -0.104 C  
HETATM    4  C   UNL     1      -9.233   2.294  68.067  1.00  0.00    -0.248 C  
ENDROOT
BRANCH   3   5
HETATM    5  N   UNL     1      -7.133   4.109  65.344  1.00  0.00    -0.062 N  
HETATM    6  H   UNL     1      -6.657   5.184  62.321  1.00  0.00     0.000 HD 
HETATM    7  O   UNL     1      -8.388   5.508  64.014  1.00  0.00    -0.132 OA 
HETATM    8  C   UNL     1      -5.777   3.641  65.605  1.00  0.00    -0.018 C  
HETATM    9  C   UNL     1      -7.387   4.820  64.191  1.00  0.00    -0.059 C  
HETATM   10  C   UNL     1      -5.267   2.897  64.386  1.00  0.00    -0.009 C  
HETATM   11  N   UNL     1      -6.473   4.675  63.186  1.00  0.00    -0.026 N  
HETATM   12  C   UNL     1      -5.269   3.872  63.227  1.00  0.00    -0.005 C  
ENDBRANCH   3   5
BRANCH   3  13
HETATM   13  C   UNL     1      -8.107   5.014  67.499  1.00  0.00    -0.099 C  
HETATM   14  O   UNL     1      -7.460   4.856  68.529  1.00  0.00    -0.068 OA 
HETATM   15  N   UNL     1      -8.894   6.130  67.300  1.00  0.00    -0.108 N  
HETATM   16  H   UNL     1      -9.384   6.187  66.407  1.00  0.00     0.000 HD 
BRANCH  15  17
HETATM   17  C   UNL     1      -9.103   7.240  68.227  1.00  0.00    -0.134 C  
BRANCH  17  18
HETATM   18  C   UNL     1     -10.569   7.403  68.686  1.00  0.00    -0.182 C  
BRANCH  18  19
HETATM   19  C   UNL     1     -11.080   6.946  70.076  1.00  0.00    -0.299 C  
HETATM   20  O   UNL     1     -12.510   6.965  70.083  1.00  0.00    -0.602 OA 
HETATM   21  H   UNL     1     -12.824   6.685  70.935  1.00  0.00     0.000 HD 
BRANCH  19  22
HETATM   22  C   UNL     1     -10.581   7.924  71.211  1.00  0.00    -0.211 C  
BRANCH  22  23
HETATM   23  N   UNL     1     -11.687   8.724  71.852  1.00  0.00    -0.335 N  
HETATM   24  C   UNL     1     -12.400   9.875  71.592  1.00  0.00    -0.406 C  
HETATM   25  H   UNL     1     -11.993   8.293  72.723  1.00  0.00     0.000 HD 
HETATM   26  O   UNL     1     -13.432  10.079  72.240  1.00  0.00    -0.417 OA 
BRANCH  24  27
HETATM   27  C   UNL     1     -11.859  10.926  70.609  1.00  0.00    -0.352 C  
BRANCH  27  28
HETATM   28  O   UNL     1     -12.635  12.015  70.135  1.00  0.00    -0.081 OA 
BRANCH  28  29
HETATM   29  C   UNL     1     -12.082  13.287  70.166  1.00  0.00    -0.333 A  
HETATM   30  C   UNL     1     -10.293  13.157  68.213  1.00  0.00    -0.256 C  
HETATM   31  C   UNL     1     -11.087  13.825  69.308  1.00  0.00    -0.253 A  
HETATM   32  C   UNL     1     -10.751  15.195  69.429  1.00  0.00    -0.269 A  
HETATM   33  C   UNL     1     -11.343  16.026  70.368  1.00  0.00    -0.405 A  
HETATM   34  C   UNL     1     -12.284  15.499  71.234  1.00  0.00    -0.447 A  
HETATM   35  C   UNL     1     -12.654  14.141  71.157  1.00  0.00    -0.439 A  
HETATM   36  C   UNL     1     -13.666  13.658  72.167  1.00  0.00    -0.649 C  
ENDBRANCH  28  29
ENDBRANCH  27  28
ENDBRANCH  24  27
ENDBRANCH  22  23
BRANCH  22  37
HETATM   37  C   UNL     1      -9.526   7.275  72.147  1.00  0.00    -0.157 C  
BRANCH  37  38
HETATM   38  C   UNL     1      -9.747   5.810  72.407  1.00  0.00    -0.178 A  
HETATM   39  C   UNL     1     -10.362   3.098  72.734  1.00  0.00    -0.238 A  
HETATM   40  C   UNL     1     -10.548   5.391  73.472  1.00  0.00    -0.310 A  
HETATM   41  C   UNL     1      -9.508   3.501  71.716  1.00  0.00    -0.212 A  
HETATM   42  C   UNL     1      -9.165   4.844  71.587  1.00  0.00    -0.179 A  
HETATM   43  C   UNL     1     -10.852   4.042  73.634  1.00  0.00    -0.338 A  
ENDBRANCH  37  38
ENDBRANCH  22  37
ENDBRANCH  19  22
ENDBRANCH  18  19
ENDBRANCH  17  18
BRANCH  17  44
HETATM   44  C   UNL     1      -8.307   8.515  67.871  1.00  0.00    -0.126 C  
BRANCH  44  45
HETATM   45  C   UNL     1      -8.833   9.237  66.645  1.00  0.00    -0.146 A  
HETATM   46  C   UNL     1     -10.015   9.994  66.693  1.00  0.00    -0.274 A  
HETATM   47  C   UNL     1      -8.154   9.138  65.425  1.00  0.00    -0.124 A  
HETATM   48  C   UNL     1     -10.523  10.600  65.538  1.00  0.00    -0.246 A  
HETATM   49  C   UNL     1      -8.660   9.747  64.273  1.00  0.00    -0.202 A  
HETATM   50  C   UNL     1      -9.848  10.469  64.327  1.00  0.00    -0.402 A  
ENDBRANCH  44  45
ENDBRANCH  17  44
ENDBRANCH  15  17
ENDBRANCH   3  13
TORSDOF 14
ENDMDL
MODEL      160
REMARK 921   NORMALIZED FREE ENERGY PREDICTED BY IDOCK:   -4.61 KCAL/MOL
REMARK 922        TOTAL FREE ENERGY PREDICTED BY IDOCK:  -12.94 KCAL/MOL
REMARK 923 INTER-LIGAND FREE ENERGY PREDICTED BY IDOCK:   -9.63 KCAL/MOL
REMARK 924 INTRA-LIGAND FREE ENERGY PREDICTED BY IDOCK:   -3.31 KCAL/MOL
REMARK 927      BINDING AFFINITY PREDICTED BY RF-SCORE:    0.00 PKD
ROOT
HETATM    1  C   UNL     1     -10.315  17.939  68.787  1.00  0.00    -0.311 C  
HETATM    2  C   UNL     1     -10.548  16.495  68.318  1.00  0.00    -0.326 C  
HETATM    3  C   UNL     1      -9.299  15.604  68.600  1.00  0.00    -0.201 C  
HETATM    4  C   UNL     1     -11.836  15.978  68.962  1.00  0.00    -0.258 C  
ENDROOT
BRANCH   3   5
HETATM    5  N   UNL     1      -8.106  16.095  67.871  1.00  0.00    -0.144 N  
HETATM    6  H   UNL     1      -5.035  17.020  68.355  1.00  0.00     0.000 HD 
HETATM    7  O   UNL     1      -6.668  15.729  69.631  1.00  0.00    -0.181 OA 
HETATM    8  C   UNL     1      -8.166  16.343  66.436  1.00  0.00    -0.331 C  
HETATM    9  C   UNL     1      -6.894  16.198  68.520  1.00  0.00    -0.135 C  
HETATM   10  C   UNL     1      -7.500  17.672  66.135  1.00  0.00    -0.334 C  
HETATM   11  N   UNL     1      -5.932  16.924  67.878  1.00  0.00    -0.126 N  
HETATM   12  C   UNL     1      -6.058  17.570  66.589  1.00  0.00    -0.199 C  
ENDBRANCH   3   5
BRANCH   3  13
HETATM   13  C   UNL     1      -9.590  14.095  68.332  1.00  0.00    -0.225 C  
HETATM   14  O   UNL     1     -10.433  13.449  68.944  1.00  0.00    -0.208 OA 
HETATM   15  N   UNL     1      -8.757  13.506  67.402  1.00  0.00    -0.209 N  
HETATM   16  H   UNL     1      -8.098  14.122  66.928  1.00  0.00     0.000 HD 
BRANCH  15  17
HETATM   17  C   UNL     1      -8.715  12.095  67.024  1.00  0.00    -0.190 C  
BRANCH  17  18
HETATM   18  C   UNL     1      -7.361  11.410  67.312  1.00  0.00    -0.130 C  
BRANCH  18  19
HETATM   19  C   UNL     1      -7.181  10.298  68.377  1.00  0.00    -0.080 C  
HETATM   20  O   UNL     1      -5.863   9.752  68.271  1.00  0.00    -0.043 OA 
HETATM   21  H   UNL     1      -5.752   9.070  68.923  1.00  0.00     0.000 HD 
BRANCH  19  22
HETATM   22  C   UNL     1      -8.208   9.122  68.144  1.00  0.00    -0.116 C  
BRANCH  22  23
HETATM   23  N   UNL     1      -9.620   9.458  68.555  1.00  0.00    -0.145 N  
HETATM   24  C   UNL     1     -10.300   9.785  69.708  1.00  0.00    -0.246 C  
HETATM   25  H   UNL     1     -10.248   9.439  67.752  1.00  0.00     0.000 HD 
HETATM   26  O   UNL     1     -11.437  10.254  69.601  1.00  0.00    -0.248 OA 
BRANCH  24  27
HETATM   27  C   UNL     1      -9.702   9.460  71.088  1.00  0.00    -0.187 C  
BRANCH  27  28
HETATM   28  O   UNL     1      -9.963   8.249  71.779  1.00  0.00    -0.181 OA 
BRANCH  28  29
HETATM   29  C   UNL     1      -9.649   7.049  71.157  1.00  0.00    -0.165 A  
HETATM   30  C   UNL     1      -6.998   7.113  71.146  1.00  0.00    -0.061 C  
HETATM   31  C   UNL     1      -8.360   6.510  70.907  1.00  0.00    -0.126 A  
HETATM   32  C   UNL     1      -8.261   5.203  70.370  1.00  0.00    -0.098 A  
HETATM   33  C   UNL     1      -9.375   4.439  70.060  1.00  0.00    -0.227 A  
HETATM   34  C   UNL     1     -10.635   4.975  70.263  1.00  0.00    -0.134 A  
HETATM   35  C   UNL     1     -10.790   6.271  70.794  1.00  0.00    -0.339 A  
HETATM   36  C   UNL     1     -12.205   6.774  70.947  1.00  0.00    -0.386 C  
ENDBRANCH  28  29
ENDBRANCH  27  28
ENDBRANCH  24  27
ENDBRANCH  22  23
BRANCH  22  37
HETATM   37  C   UNL     1      -8.006   8.403  66.783  1.00  0.00    -0.098 C  
BRANCH  37  38
HETATM   38  C   UNL     1      -8.690   7.067  66.681  1.00  0.00    -0.131 A  
HETATM   39  C   UNL     1      -9.961   4.573  66.750  1.00  0.00    -0.240 A  
HETATM   40  C   UNL     1      -7.942   5.891  66.598  1.00  0.00    -0.102 A  
HETATM   41  C   UNL     1     -10.715   5.739  66.761  1.00  0.00    -0.369 A  
HETATM   42  C   UNL     1     -10.082   6.976  66.677  1.00  0.00    -0.219 A  
HETATM   43  C   UNL     1      -8.575   4.650  66.632  1.00  0.00    -0.108 A  
ENDBRANCH  37  38
ENDBRANCH  22  37
ENDBRANCH  19  22
ENDBRANCH  18  19
ENDBRANCH  17  18
BRANCH  17  44
HETATM   44  C   UNL     1      -9.416  11.783  65.683  1.00  0.00    -0.209 C  
BRANCH  44  45
HETATM   45  C   UNL     1     -10.564  12.722  65.364  1.00  0.00    -0.309 A  
HETATM   46  C   UNL     1     -10.371  13.873  64.582  1.00  0.00    -0.366 A  
HETATM   47  C   UNL     1     -11.843  12.467  65.872  1.00  0.00    -0.489 A  
HETATM   48  C   UNL     1     -11.425  14.764  64.351  1.00  0.00    -0.261 A  
HETATM   49  C   UNL     1     -12.896  13.356  65.638  1.00  0.00    -0.310 A  
HETATM   50  C   UNL     1     -12.686  14.509  64.886  1.00  0.00    -0.131 A  
ENDBRANCH  44  45
ENDBRANCH  17  44
ENDBRANCH  15  17
ENDBRANCH   3  13
TORSDOF 14
ENDMDL
MODEL      161
REMARK 921   NORMALIZED FREE ENERGY PREDICTED BY IDOCK:   -4.61 KCAL/MOL
REMARK 922        TOTAL FREE ENERGY PREDICTED BY IDOCK:  -12.93 KCAL/MOL
REMARK 923 INTER-LIGAND FREE ENERGY PREDICTED BY IDOCK:   -8.77 KCAL/MOL
REMARK 924 INTRA-LIGAND FREE ENERGY PREDICTED BY IDOCK:   -4.16 KCAL/MOL
REMARK 927      BINDING AFFINITY PREDICTED BY RF-SCORE:    0.00 PKD
ROOT
HETATM    1  C   UNL     1     -12.178  14.037  69.004  1.00  0.00    -0.280 C  
HETATM    2  C   UNL     1     -11.859  12.631  68.472  1.00  0.00    -0.342 C  
HETATM    3  C   UNL     1     -10.639  12.661  67.502  1.00  0.00    -0.221 C  
HETATM    4  C   UNL     1     -11.679  11.691  69.666  1.00  0.00    -0.418 C  
ENDROOT
BRANCH   3   5
HETATM    5  N   UNL     1     -10.908  13.507  66.316  1.00  0.00    -0.288 N  
HETATM    6  H   UNL     1      -9.889  16.209  64.837  1.00  0.00     0.000 HD 
HETATM    7  O   UNL     1      -8.943  14.694  66.503  1.00  0.00    -0.255 OA 
HETATM    8  C   UNL     1     -12.002  13.184  65.408  1.00  0.00    -0.406 C  
HETATM    9  C   UNL     1     -10.046  14.533  65.989  1.00  0.00    -0.318 C  
HETATM   10  C   UNL     1     -12.767  14.453  65.082  1.00  0.00    -0.262 C  
HETATM   11  N   UNL     1     -10.511  15.437  65.076  1.00  0.00    -0.408 N  
HETATM   12  C   UNL     1     -11.798  15.407  64.415  1.00  0.00    -0.256 C  
ENDBRANCH   3   5
BRANCH   3  13
HETATM   13  C   UNL     1     -10.164  11.225  67.121  1.00  0.00    -0.201 C  
HETATM   14  O   UNL     1     -10.816  10.461  66.417  1.00  0.00    -0.119 OA 
HETATM   15  N   UNL     1      -8.980  10.835  67.714  1.00  0.00    -0.136 N  
HETATM   16  H   UNL     1      -8.496  11.541  68.268  1.00  0.00     0.000 HD 
BRANCH  15  17
HETATM   17  C   UNL     1      -8.344   9.522  67.635  1.00  0.00    -0.125 C  
BRANCH  17  18
HETATM   18  C   UNL     1      -9.153   8.395  68.316  1.00  0.00    -0.139 C  
BRANCH  18  19
HETATM   19  C   UNL     1      -9.823   7.237  67.532  1.00  0.00    -0.155 C  
HETATM   20  O   UNL     1     -10.960   7.742  66.825  1.00  0.00    -0.428 OA 
HETATM   21  H   UNL     1     -11.372   7.033  66.345  1.00  0.00     0.000 HD 
BRANCH  19  22
HETATM   22  C   UNL     1     -10.331   6.110  68.514  1.00  0.00    -0.207 C  
BRANCH  22  23
HETATM   23  N   UNL     1     -11.504   6.528  69.364  1.00  0.00    -0.623 N  
HETATM   24  C   UNL     1     -11.811   6.637  70.703  1.00  0.00    -0.383 C  
HETATM   25  H   UNL     1     -12.294   6.809  68.784  1.00  0.00     0.000 HD 
HETATM   26  O   UNL     1     -12.818   7.277  71.020  1.00  0.00    -0.315 OA 
BRANCH  24  27
HETATM   27  C   UNL     1     -10.986   5.881  71.759  1.00  0.00    -0.269 C  
BRANCH  27  28
HETATM   28  O   UNL     1     -10.522   4.553  71.575  1.00  0.00    -0.113 OA 
BRANCH  28  29
HETATM   29  C   UNL     1      -9.211   4.255  71.919  1.00  0.00    -0.126 A  
HETATM   30  C   UNL     1      -7.969   6.536  71.384  1.00  0.00    -0.108 C  
HETATM   31  C   UNL     1      -8.085   5.118  71.886  1.00  0.00    -0.116 A  
HETATM   32  C   UNL     1      -6.853   4.650  72.404  1.00  0.00    -0.056 A  
HETATM   33  C   UNL     1      -6.700   3.373  72.922  1.00  0.00    -0.033 A  
HETATM   34  C   UNL     1      -7.784   2.513  72.920  1.00  0.00    -0.046 A  
HETATM   35  C   UNL     1      -9.033   2.929  72.417  1.00  0.00    -0.116 A  
HETATM   36  C   UNL     1     -10.142   1.905  72.431  1.00  0.00    -0.220 C  
ENDBRANCH  28  29
ENDBRANCH  27  28
ENDBRANCH  24  27
ENDBRANCH  22  23
BRANCH  22  37
HETATM   37  C   UNL     1     -10.386   4.708  67.849  1.00  0.00     0.067 C  
BRANCH  37  38
HETATM   38  C   UNL     1      -9.266   3.789  68.250  1.00  0.00    -0.215 A  
HETATM   39  C   UNL     1      -7.228   2.143  69.242  1.00  0.00    -0.043 A  
HETATM   40  C   UNL     1      -7.955   4.263  68.339  1.00  0.00    -0.078 A  
HETATM   41  C   UNL     1      -8.515   1.643  69.088  1.00  0.00    -0.078 A  
HETATM   42  C   UNL     1      -9.513   2.449  68.549  1.00  0.00    -0.209 A  
HETATM   43  C   UNL     1      -6.942   3.444  68.832  1.00  0.00    -0.045 A  
ENDBRANCH  37  38
ENDBRANCH  22  37
ENDBRANCH  19  22
ENDBRANCH  18  19
ENDBRANCH  17  18
BRANCH  17  44
HETATM   44  C   UNL     1      -6.815   9.550  67.849  1.00  0.00    -0.074 C  
BRANCH  44  45
HETATM   45  C   UNL     1      -6.298  10.878  68.367  1.00  0.00    -0.053 A  
HETATM   46  C   UNL     1      -6.334  11.194  69.736  1.00  0.00    -0.130 A  
HETATM   47  C   UNL     1      -5.794  11.833  67.475  1.00  0.00    -0.088 A  
HETATM   48  C   UNL     1      -5.915  12.449  70.189  1.00  0.00    -0.143 A  
HETATM   49  C   UNL     1      -5.372  13.085  67.931  1.00  0.00    -0.113 A  
HETATM   50  C   UNL     1      -5.441  13.397  69.286  1.00  0.00    -0.076 A  
ENDBRANCH  44  45
ENDBRANCH  17  44
ENDBRANCH  15  17
ENDBRANCH   3  13
TORSDOF 14
ENDMDL
MODEL      162
REMARK 921   NORMALIZED FREE ENERGY PREDICTED BY IDOCK:   -4.60 KCAL/MOL
REMARK 922        TOTAL FREE ENERGY PREDICTED BY IDOCK:  -12.92 KCAL/MOL
REMARK 923 INTER-LIGAND FREE ENERGY PREDICTED BY IDOCK:  -11.99 KCAL/MOL
REMARK 924 INTRA-LIGAND FREE ENERGY PREDICTED BY IDOCK:   -0.93 KCAL/MOL
REMARK 927      BINDING AFFINITY PREDICTED BY RF-SCORE:    0.00 PKD
ROOT
HETATM    1  C   UNL     1      -8.845   5.994  68.766  1.00  0.00    -0.116 C  
HETATM    2  C   UNL     1      -9.622   7.158  68.132  1.00  0.00    -0.134 C  
HETATM    3  C   UNL     1      -9.492   8.454  68.990  1.00  0.00    -0.151 C  
HETATM    4  C   UNL     1      -9.152   7.323  66.685  1.00  0.00    -0.181 C  
ENDROOT
BRANCH   3   5
HETATM    5  N   UNL     1     -10.052   8.265  70.348  1.00  0.00    -0.189 N  
HETATM    6  H   UNL     1      -9.274   8.563  73.483  1.00  0.00     0.000 HD 
HETATM    7  O   UNL     1      -8.375   9.447  71.392  1.00  0.00    -0.295 OA 
HETATM    8  C   UNL     1     -11.396   7.728  70.527  1.00  0.00    -0.241 C  
HETATM    9  C   UNL     1      -9.358   8.715  71.451  1.00  0.00    -0.236 C  
HETATM   10  C   UNL     1     -11.368   6.675  71.618  1.00  0.00    -0.319 C  
HETATM   11  N   UNL     1      -9.788   8.249  72.661  1.00  0.00    -0.288 N  
HETATM   12  C   UNL     1     -10.903   7.353  72.890  1.00  0.00    -0.354 C  
ENDBRANCH   3   5
BRANCH   3  13
HETATM   13  C   UNL     1     -10.088   9.696  68.260  1.00  0.00    -0.177 C  
HETATM   14  O   UNL     1     -11.161   9.682  67.666  1.00  0.00    -0.132 OA 
HETATM   15  N   UNL     1      -9.269  10.807  68.254  1.00  0.00    -0.151 N  
HETATM   16  H   UNL     1      -8.404  10.737  68.789  1.00  0.00     0.000 HD 
BRANCH  15  17
HETATM   17  C   UNL     1      -9.506  12.074  67.565  1.00  0.00    -0.178 C  
BRANCH  17  18
HETATM   18  C   UNL     1     -10.811  12.782  67.990  1.00  0.00    -0.254 C  
BRANCH  18  19
HETATM   19  C   UNL     1     -10.886  14.293  68.329  1.00  0.00    -0.246 C  
HETATM   20  O   UNL     1     -10.279  15.045  67.275  1.00  0.00    -0.239 OA 
HETATM   21  H   UNL     1     -10.325  15.971  67.482  1.00  0.00     0.000 HD 
BRANCH  19  22
HETATM   22  C   UNL     1     -10.100  14.613  69.661  1.00  0.00     0.092 C  
BRANCH  22  23
HETATM   23  N   UNL     1      -8.617  14.359  69.566  1.00  0.00    -0.285 N  
HETATM   24  C   UNL     1      -7.468  15.081  69.325  1.00  0.00    -0.188 C  
HETATM   25  H   UNL     1      -8.404  13.375  69.726  1.00  0.00     0.000 HD 
HETATM   26  O   UNL     1      -6.383  14.554  69.589  1.00  0.00    -0.120 OA 
BRANCH  24  27
HETATM   27  C   UNL     1      -7.537  16.455  68.637  1.00  0.00    -0.197 C  
BRANCH  27  28
HETATM   28  O   UNL     1      -8.237  17.560  69.185  1.00  0.00    -0.116 OA 
BRANCH  28  29
HETATM   29  C   UNL     1      -8.599  18.600  68.339  1.00  0.00    -0.337 A  
HETATM   30  C   UNL     1     -11.171  18.105  67.927  1.00  0.00     0.327 C  
HETATM   31  C   UNL     1      -9.885  18.885  67.810  1.00  0.00    -0.389 A  
HETATM   32  C   UNL     1     -10.066  20.076  67.065  1.00  0.00    -0.594 A  
HETATM   33  C   UNL     1      -9.031  20.963  66.816  1.00  0.00     0.065 A  
HETATM   34  C   UNL     1      -7.766  20.671  67.294  1.00  0.00    -0.359 A  
HETATM   35  C   UNL     1      -7.530  19.499  68.041  1.00  0.00    -0.321 A  
HETATM   36  C   UNL     1      -6.109  19.258  68.489  1.00  0.00    -0.253 C  
ENDBRANCH  28  29
ENDBRANCH  27  28
ENDBRANCH  24  27
ENDBRANCH  22  23
BRANCH  22  37
HETATM   37  C   UNL     1     -10.563  15.933  70.334  1.00  0.00    -0.193 C  
BRANCH  37  38
HETATM   38  C   UNL     1     -11.789  15.791  71.195  1.00  0.00    -0.471 A  
HETATM   39  C   UNL     1     -14.116  15.776  72.751  1.00  0.00    -0.425 A  
HETATM   40  C   UNL     1     -11.719  16.019  72.571  1.00  0.00    -0.547 A  
HETATM   41  C   UNL     1     -14.182  15.478  71.396  1.00  0.00    -0.399 A  
HETATM   42  C   UNL     1     -13.017  15.438  70.637  1.00  0.00    -0.450 A  
HETATM   43  C   UNL     1     -12.878  16.011  73.345  1.00  0.00    -0.671 A  
ENDBRANCH  37  38
ENDBRANCH  22  37
ENDBRANCH  19  22
ENDBRANCH  18  19
ENDBRANCH  17  18
BRANCH  17  44
HETATM   44  C   UNL     1      -9.150  12.048  66.063  1.00  0.00    -0.092 C  
BRANCH  44  45
HETATM   45  C   UNL     1     -10.315  12.396  65.156  1.00  0.00    -0.313 A  
HETATM   46  C   UNL     1     -11.126  11.398  64.591  1.00  0.00    -0.277 A  
HETATM   47  C   UNL     1     -10.586  13.733  64.842  1.00  0.00    -0.427 A  
HETATM   48  C   UNL     1     -12.155  11.732  63.704  1.00  0.00    -0.486 A  
HETATM   49  C   UNL     1     -11.617  14.066  63.959  1.00  0.00    -0.204 A  
HETATM   50  C   UNL     1     -12.396  13.066  63.382  1.00  0.00    -0.478 A  
ENDBRANCH  44  45
ENDBRANCH  17  44
ENDBRANCH  15  17
ENDBRANCH   3  13
TORSDOF 14
ENDMDL
MODEL      163
REMARK 921   NORMALIZED FREE ENERGY PREDICTED BY IDOCK:   -4.59 KCAL/MOL
REMARK 922        TOTAL FREE ENERGY PREDICTED BY IDOCK:  -12.90 KCAL/MOL
REMARK 923 INTER-LIGAND FREE ENERGY PREDICTED BY IDOCK:  -11.13 KCAL/MOL
REMARK 924 INTRA-LIGAND FREE ENERGY PREDICTED BY IDOCK:   -1.77 KCAL/MOL
REMARK 927      BINDING AFFINITY PREDICTED BY RF-SCORE:    0.00 PKD
ROOT
HETATM    1  C   UNL     1      -6.694   4.292  68.071  1.00  0.00    -0.047 C  
HETATM    2  C   UNL     1      -7.546   5.516  68.439  1.00  0.00    -0.084 C  
HETATM    3  C   UNL     1      -8.662   5.765  67.377  1.00  0.00    -0.107 C  
HETATM    4  C   UNL     1      -8.076   5.328  69.862  1.00  0.00    -0.084 C  
ENDROOT
BRANCH   3   5
HETATM    5  N   UNL     1      -8.088   6.039  66.040  1.00  0.00    -0.108 N  
HETATM    6  H   UNL     1      -8.087   4.919  62.995  1.00  0.00     0.000 HD 
HETATM    7  O   UNL     1      -9.538   4.630  64.938  1.00  0.00    -0.144 OA 
HETATM    8  C   UNL     1      -7.142   7.133  65.850  1.00  0.00    -0.069 C  
HETATM    9  C   UNL     1      -8.540   5.346  64.938  1.00  0.00    -0.131 C  
HETATM   10  C   UNL     1      -5.984   6.645  65.002  1.00  0.00    -0.035 C  
HETATM   11  N   UNL     1      -7.771   5.440  63.813  1.00  0.00    -0.077 N  
HETATM   12  C   UNL     1      -6.551   6.207  63.668  1.00  0.00    -0.033 C  
ENDBRANCH   3   5
BRANCH   3  13
HETATM   13  C   UNL     1      -9.668   6.864  67.838  1.00  0.00    -0.122 C  
HETATM   14  O   UNL     1     -10.841   6.899  67.484  1.00  0.00    -0.266 OA 
HETATM   15  N   UNL     1      -9.113   7.861  68.615  1.00  0.00    -0.137 N  
HETATM   16  H   UNL     1      -8.135   7.741  68.877  1.00  0.00     0.000 HD 
BRANCH  15  17
HETATM   17  C   UNL     1      -9.774   9.070  69.103  1.00  0.00    -0.167 C  
BRANCH  17  18
HETATM   18  C   UNL     1      -8.799  10.214  69.458  1.00  0.00    -0.198 C  
BRANCH  18  19
HETATM   19  C   UNL     1      -8.058  11.062  68.392  1.00  0.00    -0.134 C  
HETATM   20  O   UNL     1      -6.841  11.565  68.951  1.00  0.00    -0.080 OA 
HETATM   21  H   UNL     1      -6.387  12.085  68.297  1.00  0.00     0.000 HD 
BRANCH  19  22
HETATM   22  C   UNL     1      -8.932  12.300  67.949  1.00  0.00    -0.186 C  
BRANCH  22  23
HETATM   23  N   UNL     1      -8.844  13.473  68.892  1.00  0.00    -0.371 N  
HETATM   24  C   UNL     1      -8.331  14.752  68.890  1.00  0.00    -0.163 C  
HETATM   25  H   UNL     1      -9.292  13.260  69.783  1.00  0.00     0.000 HD 
HETATM   26  O   UNL     1      -8.689  15.525  69.784  1.00  0.00    -0.220 OA 
BRANCH  24  27
HETATM   27  C   UNL     1      -7.253  15.161  67.872  1.00  0.00    -0.144 C  
BRANCH  27  28
HETATM   28  O   UNL     1      -7.359  16.315  67.054  1.00  0.00    -0.185 OA 
BRANCH  28  29
HETATM   29  C   UNL     1      -8.375  17.224  67.317  1.00  0.00    -0.201 A  
HETATM   30  C   UNL     1     -10.384  16.228  65.902  1.00  0.00    -0.381 C  
HETATM   31  C   UNL     1      -9.718  17.184  66.860  1.00  0.00    -0.270 A  
HETATM   32  C   UNL     1     -10.634  18.146  67.352  1.00  0.00    -0.406 A  
HETATM   33  C   UNL     1     -10.262  19.138  68.246  1.00  0.00    -0.486 A  
HETATM   34  C   UNL     1      -8.945  19.207  68.664  1.00  0.00    -0.411 A  
HETATM   35  C   UNL     1      -7.993  18.275  68.206  1.00  0.00    -0.312 A  
HETATM   36  C   UNL     1      -6.578  18.456  68.697  1.00  0.00    -0.241 C  
ENDBRANCH  28  29
ENDBRANCH  27  28
ENDBRANCH  24  27
ENDBRANCH  22  23
BRANCH  22  37
HETATM   37  C   UNL     1      -8.839  12.591  66.426  1.00  0.00    -0.018 C  
BRANCH  37  38
HETATM   38  C   UNL     1     -10.137  12.426  65.685  1.00  0.00    -0.277 A  
HETATM   39  C   UNL     1     -12.508  12.347  64.198  1.00  0.00    -0.534 A  
HETATM   40  C   UNL     1     -11.334  12.889  66.238  1.00  0.00    -0.364 A  
HETATM   41  C   UNL     1     -11.337  11.819  63.670  1.00  0.00    -0.525 A  
HETATM   42  C   UNL     1     -10.172  11.816  64.432  1.00  0.00    -0.332 A  
HETATM   43  C   UNL     1     -12.513  12.848  65.497  1.00  0.00    -0.462 A  
ENDBRANCH  37  38
ENDBRANCH  22  37
ENDBRANCH  19  22
ENDBRANCH  18  19
ENDBRANCH  17  18
BRANCH  17  44
HETATM   44  C   UNL     1     -10.954   8.798  70.060  1.00  0.00    -0.216 C  
BRANCH  44  45
HETATM   45  C   UNL     1     -11.698  10.052  70.480  1.00  0.00    -0.400 A  
HETATM   46  C   UNL     1     -11.573  11.252  69.759  1.00  0.00    -0.408 A  
HETATM   47  C   UNL     1     -12.509  10.040  71.621  1.00  0.00    -0.513 A  
HETATM   48  C   UNL     1     -12.213  12.416  70.197  1.00  0.00    -0.303 A  
HETATM   49  C   UNL     1     -13.150  11.204  72.055  1.00  0.00    -0.433 A  
HETATM   50  C   UNL     1     -12.996  12.394  71.349  1.00  0.00    -0.348 A  
ENDBRANCH  44  45
ENDBRANCH  17  44
ENDBRANCH  15  17
ENDBRANCH   3  13
TORSDOF 14
ENDMDL
MODEL      164
REMARK 921   NORMALIZED FREE ENERGY PREDICTED BY IDOCK:   -4.56 KCAL/MOL
REMARK 922        TOTAL FREE ENERGY PREDICTED BY IDOCK:  -12.84 KCAL/MOL
REMARK 923 INTER-LIGAND FREE ENERGY PREDICTED BY IDOCK:  -10.48 KCAL/MOL
REMARK 924 INTRA-LIGAND FREE ENERGY PREDICTED BY IDOCK:   -2.36 KCAL/MOL
REMARK 927      BINDING AFFINITY PREDICTED BY RF-SCORE:    0.00 PKD
ROOT
HETATM    1  C   UNL     1     -10.894   4.090  72.742  1.00  0.00    -0.135 C  
HETATM    2  C   UNL     1      -9.959   4.597  71.633  1.00  0.00    -0.262 C  
HETATM    3  C   UNL     1      -9.624   6.108  71.829  1.00  0.00    -0.150 C  
HETATM    4  C   UNL     1      -8.727   3.690  71.585  1.00  0.00    -0.124 C  
ENDROOT
BRANCH   3   5
HETATM    5  N   UNL     1     -10.843   6.947  71.767  1.00  0.00    -0.223 N  
HETATM    6  H   UNL     1     -12.283   9.450  73.246  1.00  0.00     0.000 HD 
HETATM    7  O   UNL     1     -10.007   8.566  73.176  1.00  0.00    -0.079 OA 
HETATM    8  C   UNL     1     -11.885   6.668  70.787  1.00  0.00    -0.383 C  
HETATM    9  C   UNL     1     -10.944   8.077  72.550  1.00  0.00    -0.364 C  
HETATM   10  C   UNL     1     -13.238   6.738  71.468  1.00  0.00    -0.222 C  
HETATM   11  N   UNL     1     -12.192   8.622  72.657  1.00  0.00    -0.308 N  
HETATM   12  C   UNL     1     -13.398   8.141  72.017  1.00  0.00    -0.282 C  
ENDBRANCH   3   5
BRANCH   3  13
HETATM   13  C   UNL     1      -8.512   6.588  70.846  1.00  0.00    -0.134 C  
HETATM   14  O   UNL     1      -7.322   6.632  71.140  1.00  0.00    -0.077 OA 
HETATM   15  N   UNL     1      -8.979   7.049  69.632  1.00  0.00    -0.141 N  
HETATM   16  H   UNL     1      -9.980   6.957  69.466  1.00  0.00     0.000 HD 
BRANCH  15  17
HETATM   17  C   UNL     1      -8.195   7.657  68.559  1.00  0.00    -0.125 C  
BRANCH  17  18
HETATM   18  C   UNL     1      -8.923   8.806  67.827  1.00  0.00    -0.140 C  
BRANCH  18  19
HETATM   19  C   UNL     1     -10.305   9.354  68.268  1.00  0.00    -0.212 C  
HETATM   20  O   UNL     1     -11.111   9.590  67.110  1.00  0.00    -0.266 OA 
HETATM   21  H   UNL     1     -11.958   9.925  67.380  1.00  0.00     0.000 HD 
BRANCH  19  22
HETATM   22  C   UNL     1     -10.151  10.726  69.034  1.00  0.00    -0.211 C  
BRANCH  22  23
HETATM   23  N   UNL     1      -8.728  11.220  69.114  1.00  0.00    -0.379 N  
HETATM   24  C   UNL     1      -7.988  12.289  68.655  1.00  0.00    -0.050 C  
HETATM   25  H   UNL     1      -8.150  10.583  69.662  1.00  0.00     0.000 HD 
HETATM   26  O   UNL     1      -6.876  12.484  69.155  1.00  0.00    -0.103 OA 
BRANCH  24  27
HETATM   27  C   UNL     1      -8.488  13.137  67.474  1.00  0.00    -0.198 C  
BRANCH  27  28
HETATM   28  O   UNL     1      -9.084  14.414  67.636  1.00  0.00    -0.182 OA 
BRANCH  28  29
HETATM   29  C   UNL     1      -9.757  14.973  66.558  1.00  0.00    -0.266 A  
HETATM   30  C   UNL     1     -10.539  12.820  65.221  1.00  0.00    -0.312 C  
HETATM   31  C   UNL     1     -10.438  14.297  65.512  1.00  0.00    -0.361 A  
HETATM   32  C   UNL     1     -11.173  15.061  64.573  1.00  0.00    -0.276 A  
HETATM   33  C   UNL     1     -11.235  16.445  64.624  1.00  0.00    -0.201 A  
HETATM   34  C   UNL     1     -10.540  17.112  65.617  1.00  0.00    -0.187 A  
HETATM   35  C   UNL     1      -9.792  16.400  66.577  1.00  0.00    -0.290 A  
HETATM   36  C   UNL     1      -9.045  17.223  67.598  1.00  0.00    -0.228 C  
ENDBRANCH  28  29
ENDBRANCH  27  28
ENDBRANCH  24  27
ENDBRANCH  22  23
BRANCH  22  37
HETATM   37  C   UNL     1     -11.250  11.755  68.657  1.00  0.00    -0.312 C  
BRANCH  37  38
HETATM   38  C   UNL     1     -11.923  12.401  69.838  1.00  0.00    -0.369 A  
HETATM   39  C   UNL     1     -13.398  13.564  71.914  1.00  0.00    -0.529 A  
HETATM   40  C   UNL     1     -12.137  13.781  69.865  1.00  0.00    -0.412 A  
HETATM   41  C   UNL     1     -13.127  12.202  71.930  1.00  0.00    -0.475 A  
HETATM   42  C   UNL     1     -12.351  11.637  70.922  1.00  0.00    -0.436 A  
HETATM   43  C   UNL     1     -12.871  14.359  70.899  1.00  0.00    -0.419 A  
ENDBRANCH  37  38
ENDBRANCH  22  37
ENDBRANCH  19  22
ENDBRANCH  18  19
ENDBRANCH  17  18
BRANCH  17  44
HETATM   44  C   UNL     1      -7.402   6.642  67.708  1.00  0.00    -0.096 C  
BRANCH  44  45
HETATM   45  C   UNL     1      -8.262   5.544  67.112  1.00  0.00    -0.101 A  
HETATM   46  C   UNL     1      -9.247   5.827  66.151  1.00  0.00    -0.169 A  
HETATM   47  C   UNL     1      -8.105   4.219  67.536  1.00  0.00    -0.099 A  
HETATM   48  C   UNL     1     -10.077   4.813  65.660  1.00  0.00    -0.198 A  
HETATM   49  C   UNL     1      -8.932   3.206  67.042  1.00  0.00    -0.181 A  
HETATM   50  C   UNL     1      -9.924   3.504  66.112  1.00  0.00     0.182 A  
ENDBRANCH  44  45
ENDBRANCH  17  44
ENDBRANCH  15  17
ENDBRANCH   3  13
TORSDOF 14
ENDMDL
MODEL      165
REMARK 921   NORMALIZED FREE ENERGY PREDICTED BY IDOCK:   -4.56 KCAL/MOL
REMARK 922        TOTAL FREE ENERGY PREDICTED BY IDOCK:  -12.84 KCAL/MOL
REMARK 923 INTER-LIGAND FREE ENERGY PREDICTED BY IDOCK:  -10.81 KCAL/MOL
REMARK 924 INTRA-LIGAND FREE ENERGY PREDICTED BY IDOCK:   -2.03 KCAL/MOL
REMARK 927      BINDING AFFINITY PREDICTED BY RF-SCORE:    0.00 PKD
ROOT
HETATM    1  C   UNL     1      -8.261   3.824  65.952  1.00  0.00    -0.101 C  
HETATM    2  C   UNL     1      -8.505   5.240  66.496  1.00  0.00    -0.112 C  
HETATM    3  C   UNL     1      -7.544   5.560  67.682  1.00  0.00    -0.088 C  
HETATM    4  C   UNL     1      -8.405   6.230  65.333  1.00  0.00    -0.148 C  
ENDROOT
BRANCH   3   5
HETATM    5  N   UNL     1      -7.754   4.632  68.818  1.00  0.00    -0.071 N  
HETATM    6  H   UNL     1      -6.172   2.506  70.689  1.00  0.00     0.000 HD 
HETATM    7  O   UNL     1      -5.505   4.335  69.214  1.00  0.00    -0.011 OA 
HETATM    8  C   UNL     1      -9.081   4.458  69.395  1.00  0.00    -0.113 C  
HETATM    9  C   UNL     1      -6.674   4.023  69.421  1.00  0.00    -0.041 C  
HETATM   10  C   UNL     1      -9.339   2.978  69.605  1.00  0.00    -0.214 C  
HETATM   11  N   UNL     1      -6.963   2.975  70.248  1.00  0.00    -0.034 N  
HETATM   12  C   UNL     1      -8.281   2.464  70.560  1.00  0.00    -0.045 C  
ENDBRANCH   3   5
BRANCH   3  13
HETATM   13  C   UNL     1      -7.624   7.059  68.106  1.00  0.00    -0.108 C  
HETATM   14  O   UNL     1      -6.663   7.820  68.085  1.00  0.00    -0.062 OA 
HETATM   15  N   UNL     1      -8.852   7.451  68.599  1.00  0.00    -0.127 N  
HETATM   16  H   UNL     1      -9.599   6.759  68.561  1.00  0.00     0.000 HD 
BRANCH  15  17
HETATM   17  C   UNL     1      -9.199   8.751  69.168  1.00  0.00    -0.149 C  
BRANCH  17  18
HETATM   18  C   UNL     1      -9.309   9.883  68.122  1.00  0.00    -0.138 C  
BRANCH  18  19
HETATM   19  C   UNL     1     -10.610  10.189  67.336  1.00  0.00    -0.272 C  
HETATM   20  O   UNL     1     -10.294  10.367  65.952  1.00  0.00    -0.245 OA 
HETATM   21  H   UNL     1     -11.091  10.555  65.469  1.00  0.00     0.000 HD 
BRANCH  19  22
HETATM   22  C   UNL     1     -11.279  11.523  67.850  1.00  0.00    -0.279 C  
BRANCH  22  23
HETATM   23  N   UNL     1     -12.145  12.204  66.820  1.00  0.00    -0.079 N  
HETATM   24  C   UNL     1     -12.044  12.616  65.509  1.00  0.00    -0.458 C  
HETATM   25  H   UNL     1     -13.065  12.421  67.202  1.00  0.00     0.000 HD 
HETATM   26  O   UNL     1     -13.082  12.917  64.911  1.00  0.00    -0.799 OA 
BRANCH  24  27
HETATM   27  C   UNL     1     -10.666  12.809  64.853  1.00  0.00    -0.305 C  
BRANCH  27  28
HETATM   28  O   UNL     1     -10.095  14.085  64.611  1.00  0.00    -0.358 OA 
BRANCH  28  29
HETATM   29  C   UNL     1      -9.897  14.938  65.688  1.00  0.00    -0.337 A  
HETATM   30  C   UNL     1      -8.201  13.551  67.182  1.00  0.00    -0.126 C  
HETATM   31  C   UNL     1      -9.040  14.746  66.803  1.00  0.00    -0.291 A  
HETATM   32  C   UNL     1      -8.887  15.803  67.734  1.00  0.00    -0.173 A  
HETATM   33  C   UNL     1      -9.558  17.009  67.607  1.00  0.00    -0.249 A  
HETATM   34  C   UNL     1     -10.425  17.187  66.544  1.00  0.00    -0.255 A  
HETATM   35  C   UNL     1     -10.615  16.168  65.590  1.00  0.00    -0.377 A  
HETATM   36  C   UNL     1     -11.606  16.450  64.487  1.00  0.00     0.021 C  
ENDBRANCH  28  29
ENDBRANCH  27  28
ENDBRANCH  24  27
ENDBRANCH  22  23
BRANCH  22  37
HETATM   37  C   UNL     1     -11.838  11.402  69.294  1.00  0.00    -0.417 C  
BRANCH  37  38
HETATM   38  C   UNL     1     -12.008  12.717  70.003  1.00  0.00    -0.371 A  
HETATM   39  C   UNL     1     -12.104  15.116  71.445  1.00  0.00    -0.397 A  
HETATM   40  C   UNL     1     -12.697  12.785  71.217  1.00  0.00    -0.364 A  
HETATM   41  C   UNL     1     -11.479  15.073  70.205  1.00  0.00    -0.314 A  
HETATM   42  C   UNL     1     -11.477  13.891  69.470  1.00  0.00    -0.332 A  
HETATM   43  C   UNL     1     -12.744  13.979  71.933  1.00  0.00    -0.388 A  
ENDBRANCH  37  38
ENDBRANCH  22  37
ENDBRANCH  19  22
ENDBRANCH  18  19
ENDBRANCH  17  18
BRANCH  17  44
HETATM   44  C   UNL     1      -8.488   9.063  70.503  1.00  0.00    -0.226 C  
BRANCH  44  45
HETATM   45  C   UNL     1      -9.148   8.421  71.709  1.00  0.00    -0.283 A  
HETATM   46  C   UNL     1      -8.400   8.042  72.836  1.00  0.00    -0.229 A  
HETATM   47  C   UNL     1     -10.525   8.168  71.705  1.00  0.00    -0.304 A  
HETATM   48  C   UNL     1      -9.013   7.391  73.912  1.00  0.00    -0.281 A  
HETATM   49  C   UNL     1     -11.136   7.521  72.783  1.00  0.00    -0.416 A  
HETATM   50  C   UNL     1     -10.379   7.124  73.882  1.00  0.00    -0.339 A  
ENDBRANCH  44  45
ENDBRANCH  17  44
ENDBRANCH  15  17
ENDBRANCH   3  13
TORSDOF 14
ENDMDL
MODEL      166
REMARK 921   NORMALIZED FREE ENERGY PREDICTED BY IDOCK:   -4.56 KCAL/MOL
REMARK 922        TOTAL FREE ENERGY PREDICTED BY IDOCK:  -12.84 KCAL/MOL
REMARK 923 INTER-LIGAND FREE ENERGY PREDICTED BY IDOCK:   -8.28 KCAL/MOL
REMARK 924 INTRA-LIGAND FREE ENERGY PREDICTED BY IDOCK:   -4.56 KCAL/MOL
REMARK 927      BINDING AFFINITY PREDICTED BY RF-SCORE:    0.00 PKD
ROOT
HETATM    1  C   UNL     1      -5.156  11.939  70.487  1.00  0.00    -0.109 C  
HETATM    2  C   UNL     1      -6.053  10.712  70.710  1.00  0.00    -0.023 C  
HETATM    3  C   UNL     1      -6.417  10.029  69.356  1.00  0.00    -0.048 C  
HETATM    4  C   UNL     1      -5.363   9.781  71.708  1.00  0.00    -0.065 C  
ENDROOT
BRANCH   3   5
HETATM    5  N   UNL     1      -7.171  10.946  68.470  1.00  0.00    -0.085 N  
HETATM    6  H   UNL     1      -7.455  11.810  65.356  1.00  0.00     0.000 HD 
HETATM    7  O   UNL     1      -6.524   9.883  66.533  1.00  0.00    -0.068 OA 
HETATM    8  C   UNL     1      -8.136  11.887  69.026  1.00  0.00     0.172 C  
HETATM    9  C   UNL     1      -7.063  10.829  67.100  1.00  0.00    -0.099 C  
HETATM   10  C   UNL     1      -7.934  13.244  68.379  1.00  0.00    -0.132 C  
HETATM   11  N   UNL     1      -7.544  11.878  66.369  1.00  0.00     0.130 N  
HETATM   12  C   UNL     1      -8.166  13.076  66.892  1.00  0.00     0.021 C  
ENDBRANCH   3   5
BRANCH   3  13
HETATM   13  C   UNL     1      -7.144   8.666  69.570  1.00  0.00    -0.055 C  
HETATM   14  O   UNL     1      -8.136   8.531  70.278  1.00  0.00    -0.097 OA 
HETATM   15  N   UNL     1      -6.531   7.587  68.966  1.00  0.00    -0.039 N  
HETATM   16  H   UNL     1      -5.722   7.793  68.379  1.00  0.00     0.000 HD 
BRANCH  15  17
HETATM   17  C   UNL     1      -6.912   6.180  69.074  1.00  0.00    -0.068 C  
BRANCH  17  18
HETATM   18  C   UNL     1      -7.812   5.687  67.920  1.00  0.00    -0.097 C  
BRANCH  18  19
HETATM   19  C   UNL     1      -9.327   5.401  68.086  1.00  0.00    -0.114 C  
HETATM   20  O   UNL     1      -9.841   4.856  66.867  1.00  0.00    -0.162 OA 
HETATM   21  H   UNL     1     -10.770   4.682  66.968  1.00  0.00     0.000 HD 
BRANCH  19  22
HETATM   22  C   UNL     1     -10.122   6.731  68.390  1.00  0.00    -0.162 C  
BRANCH  22  23
HETATM   23  N   UNL     1     -10.228   7.660  67.207  1.00  0.00    -0.243 N  
HETATM   24  C   UNL     1     -10.342   9.014  66.975  1.00  0.00    -0.269 C  
HETATM   25  H   UNL     1     -10.209   7.139  66.331  1.00  0.00     0.000 HD 
HETATM   26  O   UNL     1     -10.139   9.427  65.829  1.00  0.00    -0.288 OA 
BRANCH  24  27
HETATM   27  C   UNL     1     -10.824   9.960  68.087  1.00  0.00    -0.234 C  
BRANCH  27  28
HETATM   28  O   UNL     1     -11.999  10.748  67.978  1.00  0.00    -0.537 OA 
BRANCH  28  29
HETATM   29  C   UNL     1     -12.007  12.010  68.556  1.00  0.00    -0.214 A  
HETATM   30  C   UNL     1     -12.412  11.440  71.114  1.00  0.00    -0.465 C  
HETATM   31  C   UNL     1     -12.143  12.336  69.931  1.00  0.00    -0.319 A  
HETATM   32  C   UNL     1     -11.996  13.688  70.328  1.00  0.00    -0.397 A  
HETATM   33  C   UNL     1     -11.746  14.707  69.421  1.00  0.00    -0.355 A  
HETATM   34  C   UNL     1     -11.653  14.401  68.075  1.00  0.00    -0.357 A  
HETATM   35  C   UNL     1     -11.792  13.072  67.627  1.00  0.00    -0.401 A  
HETATM   36  C   UNL     1     -11.705  12.849  66.136  1.00  0.00    -0.451 C  
ENDBRANCH  28  29
ENDBRANCH  27  28
ENDBRANCH  24  27
ENDBRANCH  22  23
BRANCH  22  37
HETATM   37  C   UNL     1     -11.404   6.490  69.233  1.00  0.00    -0.359 C  
BRANCH  37  38
HETATM   38  C   UNL     1     -11.213   6.673  70.714  1.00  0.00    -0.366 A  
HETATM   39  C   UNL     1     -10.612   7.070  73.420  1.00  0.00    -0.399 A  
HETATM   40  C   UNL     1     -10.834   5.596  71.519  1.00  0.00    -0.297 A  
HETATM   41  C   UNL     1     -11.057   8.131  72.642  1.00  0.00    -0.450 A  
HETATM   42  C   UNL     1     -11.402   7.919  71.310  1.00  0.00    -0.289 A  
HETATM   43  C   UNL     1     -10.536   5.795  72.865  1.00  0.00    -0.264 A  
ENDBRANCH  37  38
ENDBRANCH  22  37
ENDBRANCH  19  22
ENDBRANCH  18  19
ENDBRANCH  17  18
BRANCH  17  44
HETATM   44  C   UNL     1      -7.263   5.733  70.510  1.00  0.00    -0.078 C  
BRANCH  44  45
HETATM   45  C   UNL     1      -6.883   4.295  70.809  1.00  0.00    -0.036 A  
HETATM   46  C   UNL     1      -5.541   3.911  70.965  1.00  0.00    -0.012 A  
HETATM   47  C   UNL     1      -7.875   3.312  70.909  1.00  0.00    -0.046 A  
HETATM   48  C   UNL     1      -5.203   2.569  71.174  1.00  0.00    -0.004 A  
HETATM   49  C   UNL     1      -7.536   1.973  71.122  1.00  0.00    -0.032 A  
HETATM   50  C   UNL     1      -6.201   1.599  71.245  1.00  0.00    -0.018 A  
ENDBRANCH  44  45
ENDBRANCH  17  44
ENDBRANCH  15  17
ENDBRANCH   3  13
TORSDOF 14
ENDMDL
MODEL      167
REMARK 921   NORMALIZED FREE ENERGY PREDICTED BY IDOCK:   -4.55 KCAL/MOL
REMARK 922        TOTAL FREE ENERGY PREDICTED BY IDOCK:  -12.82 KCAL/MOL
REMARK 923 INTER-LIGAND FREE ENERGY PREDICTED BY IDOCK:   -9.93 KCAL/MOL
REMARK 924 INTRA-LIGAND FREE ENERGY PREDICTED BY IDOCK:   -2.90 KCAL/MOL
REMARK 927      BINDING AFFINITY PREDICTED BY RF-SCORE:    0.00 PKD
ROOT
HETATM    1  C   UNL     1      -9.698   4.011  65.558  1.00  0.00    -0.194 C  
HETATM    2  C   UNL     1     -10.188   4.847  66.751  1.00  0.00    -0.274 C  
HETATM    3  C   UNL     1      -8.987   5.388  67.588  1.00  0.00    -0.108 C  
HETATM    4  C   UNL     1     -11.120   5.941  66.227  1.00  0.00     0.273 C  
ENDROOT
BRANCH   3   5
HETATM    5  N   UNL     1      -8.177   4.284  68.153  1.00  0.00    -0.092 N  
HETATM    6  H   UNL     1      -5.100   3.401  68.678  1.00  0.00     0.000 HD 
HETATM    7  O   UNL     1      -6.232   5.515  68.218  1.00  0.00    -0.028 OA 
HETATM    8  C   UNL     1      -8.820   3.078  68.659  1.00  0.00    -0.119 C  
HETATM    9  C   UNL     1      -6.818   4.442  68.324  1.00  0.00    -0.051 C  
HETATM   10  C   UNL     1      -8.065   1.864  68.152  1.00  0.00    -0.067 C  
HETATM   11  N   UNL     1      -6.109   3.300  68.565  1.00  0.00    -0.027 N  
HETATM   12  C   UNL     1      -6.647   1.960  68.677  1.00  0.00    -0.029 C  
ENDBRANCH   3   5
BRANCH   3  13
HETATM   13  C   UNL     1      -9.449   6.412  68.671  1.00  0.00    -0.122 C  
HETATM   14  O   UNL     1     -10.290   6.158  69.526  1.00  0.00    -0.183 OA 
HETATM   15  N   UNL     1      -8.900   7.671  68.542  1.00  0.00    -0.131 N  
HETATM   16  H   UNL     1      -8.194   7.787  67.814  1.00  0.00     0.000 HD 
BRANCH  15  17
HETATM   17  C   UNL     1      -9.218   8.858  69.333  1.00  0.00    -0.146 C  
BRANCH  17  18
HETATM   18  C   UNL     1      -8.421  10.115  68.921  1.00  0.00    -0.139 C  
BRANCH  18  19
HETATM   19  C   UNL     1      -7.612  10.214  67.602  1.00  0.00    -0.090 C  
HETATM   20  O   UNL     1      -6.232  10.432  67.910  1.00  0.00    -0.058 OA 
HETATM   21  H   UNL     1      -5.735  10.493  67.102  1.00  0.00     0.000 HD 
BRANCH  19  22
HETATM   22  C   UNL     1      -8.106  11.431  66.726  1.00  0.00    -0.161 C  
BRANCH  22  23
HETATM   23  N   UNL     1      -7.171  12.615  66.749  1.00  0.00    -0.317 N  
HETATM   24  C   UNL     1      -6.717  13.543  67.661  1.00  0.00    -0.167 C  
HETATM   25  H   UNL     1      -6.759  12.772  65.830  1.00  0.00     0.000 HD 
HETATM   26  O   UNL     1      -5.733  14.224  67.357  1.00  0.00    -0.344 OA 
BRANCH  24  27
HETATM   27  C   UNL     1      -7.490  13.802  68.965  1.00  0.00     0.002 C  
BRANCH  27  28
HETATM   28  O   UNL     1      -8.271  14.966  69.184  1.00  0.00    -0.169 OA 
BRANCH  28  29
HETATM   29  C   UNL     1      -8.950  15.521  68.108  1.00  0.00    -0.179 A  
HETATM   30  C   UNL     1      -7.190  17.281  67.194  1.00  0.00    -0.202 C  
HETATM   31  C   UNL     1      -8.483  16.504  67.197  1.00  0.00    -0.205 A  
HETATM   32  C   UNL     1      -9.293  16.843  66.086  1.00  0.00    -0.268 A  
HETATM   33  C   UNL     1     -10.534  16.266  65.866  1.00  0.00    -0.359 A  
HETATM   34  C   UNL     1     -11.013  15.337  66.772  1.00  0.00    -0.306 A  
HETATM   35  C   UNL     1     -10.248  14.964  67.895  1.00  0.00    -0.228 A  
HETATM   36  C   UNL     1     -10.874  13.967  68.840  1.00  0.00    -0.278 C  
ENDBRANCH  28  29
ENDBRANCH  27  28
ENDBRANCH  24  27
ENDBRANCH  22  23
BRANCH  22  37
HETATM   37  C   UNL     1      -8.681  10.994  65.352  1.00  0.00    -0.122 C  
BRANCH  37  38
HETATM   38  C   UNL     1     -10.065  11.508  65.068  1.00  0.00    -0.315 A  
HETATM   39  C   UNL     1     -12.550  12.703  64.580  1.00  0.00    -0.491 A  
HETATM   40  C   UNL     1     -10.990  11.662  66.104  1.00  0.00    -0.339 A  
HETATM   41  C   UNL     1     -11.663  12.486  63.533  1.00  0.00    -0.595 A  
HETATM   42  C   UNL     1     -10.450  11.848  63.772  1.00  0.00    -0.468 A  
HETATM   43  C   UNL     1     -12.227  12.256  65.859  1.00  0.00    -0.097 A  
ENDBRANCH  37  38
ENDBRANCH  22  37
ENDBRANCH  19  22
ENDBRANCH  18  19
ENDBRANCH  17  18
BRANCH  17  44
HETATM   44  C   UNL     1      -9.403   8.577  70.840  1.00  0.00    -0.214 C  
BRANCH  44  45
HETATM   45  C   UNL     1     -10.787   8.922  71.358  1.00  0.00    -0.378 A  
HETATM   46  C   UNL     1     -11.446   8.098  72.285  1.00  0.00    -0.435 A  
HETATM   47  C   UNL     1     -11.447  10.066  70.893  1.00  0.00    -0.452 A  
HETATM   48  C   UNL     1     -12.749   8.394  72.702  1.00  0.00    -0.197 A  
HETATM   49  C   UNL     1     -12.746  10.362  71.314  1.00  0.00    -0.536 A  
HETATM   50  C   UNL     1     -13.401   9.522  72.210  1.00  0.00    -0.526 A  
ENDBRANCH  44  45
ENDBRANCH  17  44
ENDBRANCH  15  17
ENDBRANCH   3  13
TORSDOF 14
ENDMDL
MODEL      168
REMARK 921   NORMALIZED FREE ENERGY PREDICTED BY IDOCK:   -4.54 KCAL/MOL
REMARK 922        TOTAL FREE ENERGY PREDICTED BY IDOCK:  -12.81 KCAL/MOL
REMARK 923 INTER-LIGAND FREE ENERGY PREDICTED BY IDOCK:   -9.28 KCAL/MOL
REMARK 924 INTRA-LIGAND FREE ENERGY PREDICTED BY IDOCK:   -3.53 KCAL/MOL
REMARK 927      BINDING AFFINITY PREDICTED BY RF-SCORE:    0.00 PKD
ROOT
HETATM    1  C   UNL     1     -12.106  15.127  69.989  1.00  0.00    -0.384 C  
HETATM    2  C   UNL     1     -12.152  13.629  69.652  1.00  0.00    -0.378 C  
HETATM    3  C   UNL     1     -10.797  13.148  69.046  1.00  0.00    -0.161 C  
HETATM    4  C   UNL     1     -12.576  12.862  70.906  1.00  0.00    -0.355 C  
ENDROOT
BRANCH   3   5
HETATM    5  N   UNL     1     -10.486  13.854  67.781  1.00  0.00    -0.240 N  
HETATM    6  H   UNL     1      -8.229  15.739  66.411  1.00  0.00     0.000 HD 
HETATM    7  O   UNL     1      -8.284  14.235  68.335  1.00  0.00    -0.133 OA 
HETATM    8  C   UNL     1     -11.432  13.836  66.671  1.00  0.00    -0.345 C  
HETATM    9  C   UNL     1      -9.246  14.426  67.596  1.00  0.00    -0.196 C  
HETATM   10  C   UNL     1     -11.558  15.238  66.106  1.00  0.00     0.008 C  
HETATM   11  N   UNL     1      -9.138  15.297  66.549  1.00  0.00    -0.280 N  
HETATM   12  C   UNL     1     -10.187  15.656  65.618  1.00  0.00    -0.375 C  
ENDBRANCH   3   5
BRANCH   3  13
HETATM   13  C   UNL     1     -10.746  11.596  68.897  1.00  0.00    -0.207 C  
HETATM   14  O   UNL     1     -10.967  10.820  69.820  1.00  0.00    -0.252 OA 
HETATM   15  N   UNL     1     -10.342  11.151  67.654  1.00  0.00    -0.186 N  
HETATM   16  H   UNL     1     -10.198  11.866  66.941  1.00  0.00     0.000 HD 
BRANCH  15  17
HETATM   17  C   UNL     1     -10.097   9.769  67.249  1.00  0.00    -0.207 C  
BRANCH  17  18
HETATM   18  C   UNL     1     -10.937   8.732  68.026  1.00  0.00     0.066 C  
BRANCH  18  19
HETATM   19  C   UNL     1     -10.641   7.210  68.004  1.00  0.00    -0.196 C  
HETATM   20  O   UNL     1     -11.683   6.537  67.291  1.00  0.00    -0.632 OA 
HETATM   21  H   UNL     1     -11.501   5.604  67.278  1.00  0.00     0.000 HD 
BRANCH  19  22
HETATM   22  C   UNL     1     -10.603   6.621  69.468  1.00  0.00    -0.241 C  
BRANCH  22  23
HETATM   23  N   UNL     1     -11.792   7.011  70.310  1.00  0.00    -0.567 N  
HETATM   24  C   UNL     1     -12.072   7.868  71.353  1.00  0.00    -0.307 C  
HETATM   25  H   UNL     1     -12.625   6.493  70.029  1.00  0.00     0.000 HD 
HETATM   26  O   UNL     1     -13.256   8.100  71.614  1.00  0.00    -0.333 OA 
BRANCH  24  27
HETATM   27  C   UNL     1     -10.941   8.422  72.235  1.00  0.00    -0.361 C  
BRANCH  27  28
HETATM   28  O   UNL     1     -10.493   7.776  73.416  1.00  0.00    -0.338 OA 
BRANCH  28  29
HETATM   29  C   UNL     1      -9.706   6.640  73.293  1.00  0.00    -0.170 A  
HETATM   30  C   UNL     1     -11.528   4.718  73.160  1.00  0.00    -0.348 C  
HETATM   31  C   UNL     1     -10.135   5.296  73.136  1.00  0.00    -0.205 A  
HETATM   32  C   UNL     1      -9.163   4.294  72.898  1.00  0.00    -0.129 A  
HETATM   33  C   UNL     1      -7.806   4.573  72.833  1.00  0.00    -0.088 A  
HETATM   34  C   UNL     1      -7.378   5.874  73.026  1.00  0.00    -0.094 A  
HETATM   35  C   UNL     1      -8.303   6.910  73.267  1.00  0.00    -0.131 A  
HETATM   36  C   UNL     1      -7.732   8.288  73.495  1.00  0.00    -0.193 C  
ENDBRANCH  28  29
ENDBRANCH  27  28
ENDBRANCH  24  27
ENDBRANCH  22  23
BRANCH  22  37
HETATM   37  C   UNL     1     -10.144   5.139  69.512  1.00  0.00    -0.316 C  
BRANCH  37  38
HETATM   38  C   UNL     1      -8.658   4.947  69.380  1.00  0.00    -0.100 A  
HETATM   39  C   UNL     1      -5.922   4.619  68.881  1.00  0.00    -0.025 A  
HETATM   40  C   UNL     1      -8.120   3.670  69.211  1.00  0.00    -0.063 A  
HETATM   41  C   UNL     1      -6.440   5.886  69.120  1.00  0.00    -0.042 A  
HETATM   42  C   UNL     1      -7.792   6.039  69.416  1.00  0.00    -0.099 A  
HETATM   43  C   UNL     1      -6.758   3.508  68.964  1.00  0.00    -0.044 A  
ENDBRANCH  37  38
ENDBRANCH  22  37
ENDBRANCH  19  22
ENDBRANCH  18  19
ENDBRANCH  17  18
BRANCH  17  44
HETATM   44  C   UNL     1      -8.610   9.446  66.982  1.00  0.00    -0.131 C  
BRANCH  44  45
HETATM   45  C   UNL     1      -7.687   9.854  68.115  1.00  0.00    -0.082 A  
HETATM   46  C   UNL     1      -6.617  10.740  67.902  1.00  0.00    -0.063 A  
HETATM   47  C   UNL     1      -7.873   9.327  69.398  1.00  0.00    -0.083 A  
HETATM   48  C   UNL     1      -5.735  11.054  68.942  1.00  0.00    -0.039 A  
HETATM   49  C   UNL     1      -6.993   9.646  70.436  1.00  0.00    -0.128 A  
HETATM   50  C   UNL     1      -5.918  10.501  70.207  1.00  0.00    -0.104 A  
ENDBRANCH  44  45
ENDBRANCH  17  44
ENDBRANCH  15  17
ENDBRANCH   3  13
TORSDOF 14
ENDMDL
MODEL      169
REMARK 921   NORMALIZED FREE ENERGY PREDICTED BY IDOCK:   -4.54 KCAL/MOL
REMARK 922        TOTAL FREE ENERGY PREDICTED BY IDOCK:  -12.81 KCAL/MOL
REMARK 923 INTER-LIGAND FREE ENERGY PREDICTED BY IDOCK:  -10.65 KCAL/MOL
REMARK 924 INTRA-LIGAND FREE ENERGY PREDICTED BY IDOCK:   -2.16 KCAL/MOL
REMARK 927      BINDING AFFINITY PREDICTED BY RF-SCORE:    0.00 PKD
ROOT
HETATM    1  C   UNL     1      -8.083   6.068  63.484  1.00  0.00    -0.078 C  
HETATM    2  C   UNL     1      -7.782   7.261  64.404  1.00  0.00    -0.120 C  
HETATM    3  C   UNL     1      -7.104   6.793  65.728  1.00  0.00    -0.072 C  
HETATM    4  C   UNL     1      -6.963   8.286  63.617  1.00  0.00    -0.084 C  
ENDROOT
BRANCH   3   5
HETATM    5  N   UNL     1      -7.983   5.881  66.497  1.00  0.00    -0.101 N  
HETATM    6  H   UNL     1      -7.956   3.033  68.049  1.00  0.00     0.000 HD 
HETATM    7  O   UNL     1      -6.244   4.609  67.307  1.00  0.00    -0.036 OA 
HETATM    8  C   UNL     1      -9.394   6.198  66.685  1.00  0.00    -0.146 C  
HETATM    9  C   UNL     1      -7.447   4.791  67.149  1.00  0.00    -0.086 C  
HETATM   10  C   UNL     1     -10.220   4.952  66.430  1.00  0.00    -0.313 C  
HETATM   11  N   UNL     1      -8.341   3.852  67.578  1.00  0.00    -0.094 N  
HETATM   12  C   UNL     1      -9.781   3.903  67.431  1.00  0.00    -0.124 C  
ENDBRANCH   3   5
BRANCH   3  13
HETATM   13  C   UNL     1      -6.596   7.998  66.578  1.00  0.00    -0.055 C  
HETATM   14  O   UNL     1      -5.475   8.053  67.073  1.00  0.00    -0.031 OA 
HETATM   15  N   UNL     1      -7.542   8.975  66.812  1.00  0.00    -0.090 N  
HETATM   16  H   UNL     1      -8.441   8.858  66.346  1.00  0.00     0.000 HD 
BRANCH  15  17
HETATM   17  C   UNL     1      -7.397  10.160  67.655  1.00  0.00    -0.089 C  
BRANCH  17  18
HETATM   18  C   UNL     1      -8.610  10.426  68.573  1.00  0.00    -0.134 C  
BRANCH  18  19
HETATM   19  C   UNL     1      -9.070   9.443  69.681  1.00  0.00    -0.181 C  
HETATM   20  O   UNL     1      -8.403   8.190  69.506  1.00  0.00    -0.119 OA 
HETATM   21  H   UNL     1      -8.685   7.587  70.185  1.00  0.00     0.000 HD 
BRANCH  19  22
HETATM   22  C   UNL     1     -10.623   9.178  69.591  1.00  0.00    -0.228 C  
BRANCH  22  23
HETATM   23  N   UNL     1     -11.328  10.033  68.568  1.00  0.00    -0.509 N  
HETATM   24  C   UNL     1     -11.604  11.368  68.366  1.00  0.00    -0.315 C  
HETATM   25  H   UNL     1     -11.706   9.463  67.813  1.00  0.00     0.000 HD 
HETATM   26  O   UNL     1     -11.995  11.719  67.249  1.00  0.00    -0.618 OA 
BRANCH  24  27
HETATM   27  C   UNL     1     -11.540  12.367  69.534  1.00  0.00    -0.286 C  
BRANCH  27  28
HETATM   28  O   UNL     1     -12.455  13.439  69.687  1.00  0.00    -0.184 OA 
BRANCH  28  29
HETATM   29  C   UNL     1     -12.308  14.286  70.777  1.00  0.00    -0.357 A  
HETATM   30  C   UNL     1     -11.051  16.357  69.700  1.00  0.00    -0.306 C  
HETATM   31  C   UNL     1     -11.736  15.585  70.800  1.00  0.00    -0.397 A  
HETATM   32  C   UNL     1     -11.800  16.336  71.999  1.00  0.00    -0.568 A  
HETATM   33  C   UNL     1     -12.381  15.843  73.157  1.00  0.00    -0.619 A  
HETATM   34  C   UNL     1     -12.903  14.562  73.153  1.00  0.00    -0.547 A  
HETATM   35  C   UNL     1     -12.866  13.771  71.987  1.00  0.00    -0.383 A  
HETATM   36  C   UNL     1     -13.434  12.377  72.097  1.00  0.00    -0.481 C  
ENDBRANCH  28  29
ENDBRANCH  27  28
ENDBRANCH  24  27
ENDBRANCH  22  23
BRANCH  22  37
HETATM   37  C   UNL     1     -10.983   7.668  69.637  1.00  0.00    -0.145 C  
BRANCH  37  38
HETATM   38  C   UNL     1     -10.815   7.034  70.991  1.00  0.00    -0.264 A  
HETATM   39  C   UNL     1     -10.758   5.817  73.513  1.00  0.00    -0.300 A  
HETATM   40  C   UNL     1     -10.884   7.809  72.151  1.00  0.00    -0.310 A  
HETATM   41  C   UNL     1     -10.617   5.048  72.364  1.00  0.00    -0.275 A  
HETATM   42  C   UNL     1     -10.596   5.663  71.116  1.00  0.00    -0.312 A  
HETATM   43  C   UNL     1     -10.854   7.203  73.405  1.00  0.00    -0.360 A  
ENDBRANCH  37  38
ENDBRANCH  22  37
ENDBRANCH  19  22
ENDBRANCH  18  19
ENDBRANCH  17  18
BRANCH  17  44
HETATM   44  C   UNL     1      -6.750  11.366  66.939  1.00  0.00    -0.145 C  
BRANCH  44  45
HETATM   45  C   UNL     1      -7.162  12.707  67.514  1.00  0.00    -0.155 A  
HETATM   46  C   UNL     1      -6.431  13.315  68.548  1.00  0.00    -0.085 A  
HETATM   47  C   UNL     1      -8.307  13.356  67.036  1.00  0.00    -0.089 A  
HETATM   48  C   UNL     1      -6.861  14.521  69.113  1.00  0.00    -0.123 A  
HETATM   49  C   UNL     1      -8.733  14.562  67.598  1.00  0.00    -0.186 A  
HETATM   50  C   UNL     1      -8.017  15.140  68.643  1.00  0.00    -0.151 A  
ENDBRANCH  44  45
ENDBRANCH  17  44
ENDBRANCH  15  17
ENDBRANCH   3  13
TORSDOF 14
ENDMDL
MODEL      170
REMARK 921   NORMALIZED FREE ENERGY PREDICTED BY IDOCK:   -4.53 KCAL/MOL
REMARK 922        TOTAL FREE ENERGY PREDICTED BY IDOCK:  -12.79 KCAL/MOL
REMARK 923 INTER-LIGAND FREE ENERGY PREDICTED BY IDOCK:  -10.39 KCAL/MOL
REMARK 924 INTRA-LIGAND FREE ENERGY PREDICTED BY IDOCK:   -2.41 KCAL/MOL
REMARK 927      BINDING AFFINITY PREDICTED BY RF-SCORE:    0.00 PKD
ROOT
HETATM    1  C   UNL     1     -11.408  16.765  68.675  1.00  0.00    -0.062 C  
HETATM    2  C   UNL     1     -10.870  15.355  68.389  1.00  0.00    -0.268 C  
HETATM    3  C   UNL     1     -11.812  14.263  68.986  1.00  0.00    -0.335 C  
HETATM    4  C   UNL     1     -10.641  15.218  66.882  1.00  0.00    -0.304 C  
ENDROOT
BRANCH   3   5
HETATM    5  N   UNL     1     -11.917  14.383  70.459  1.00  0.00    -0.306 N  
HETATM    6  H   UNL     1     -13.625  13.272  72.983  1.00  0.00     0.000 HD 
HETATM    7  O   UNL     1     -13.265  12.530  70.685  1.00  0.00     0.246 OA 
HETATM    8  C   UNL     1     -11.057  15.305  71.190  1.00  0.00    -0.278 C  
HETATM    9  C   UNL     1     -12.739  13.530  71.164  1.00  0.00    -0.344 C  
HETATM   10  C   UNL     1     -11.894  16.068  72.200  1.00  0.00    -0.623 C  
HETATM   11  N   UNL     1     -13.006  13.887  72.455  1.00  0.00    -0.380 N  
HETATM   12  C   UNL     1     -12.497  15.053  73.148  1.00  0.00    -0.435 C  
ENDBRANCH   3   5
BRANCH   3  13
HETATM   13  C   UNL     1     -11.404  12.830  68.526  1.00  0.00    -0.291 C  
HETATM   14  O   UNL     1     -12.157  12.073  67.922  1.00  0.00    -0.531 OA 
HETATM   15  N   UNL     1     -10.145  12.434  68.929  1.00  0.00    -0.428 N  
HETATM   16  H   UNL     1      -9.580  13.134  69.410  1.00  0.00     0.000 HD 
BRANCH  15  17
HETATM   17  C   UNL     1      -9.532  11.120  68.744  1.00  0.00    -0.165 C  
BRANCH  17  18
HETATM   18  C   UNL     1      -9.855  10.116  69.872  1.00  0.00    -0.223 C  
BRANCH  18  19
HETATM   19  C   UNL     1      -9.323   8.659  69.891  1.00  0.00    -0.159 C  
HETATM   20  O   UNL     1     -10.199   7.826  69.126  1.00  0.00    -0.198 OA 
HETATM   21  H   UNL     1      -9.873   6.934  69.137  1.00  0.00     0.000 HD 
BRANCH  19  22
HETATM   22  C   UNL     1      -9.286   8.091  71.364  1.00  0.00    -0.144 C  
BRANCH  22  23
HETATM   23  N   UNL     1      -7.894   7.804  71.869  1.00  0.00    -0.090 N  
HETATM   24  C   UNL     1      -6.683   7.396  71.354  1.00  0.00    -0.050 C  
HETATM   25  H   UNL     1      -7.832   7.955  72.875  1.00  0.00     0.000 HD 
HETATM   26  O   UNL     1      -5.678   7.523  72.060  1.00  0.00    -0.036 OA 
BRANCH  24  27
HETATM   27  C   UNL     1      -6.609   6.693  69.988  1.00  0.00    -0.048 C  
BRANCH  27  28
HETATM   28  O   UNL     1      -7.416   5.578  69.647  1.00  0.00    -0.067 OA 
BRANCH  28  29
HETATM   29  C   UNL     1      -7.993   5.539  68.385  1.00  0.00    -0.096 A  
HETATM   30  C   UNL     1      -6.394   7.137  66.999  1.00  0.00    -0.053 C  
HETATM   31  C   UNL     1      -7.540   6.177  67.200  1.00  0.00    -0.092 A  
HETATM   32  C   UNL     1      -8.207   5.903  65.981  1.00  0.00    -0.123 A  
HETATM   33  C   UNL     1      -9.297   5.050  65.904  1.00  0.00    -0.165 A  
HETATM   34  C   UNL     1      -9.769   4.457  67.062  1.00  0.00    -0.232 A  
HETATM   35  C   UNL     1      -9.143   4.696  68.302  1.00  0.00    -0.151 A  
HETATM   36  C   UNL     1      -9.754   4.026  69.508  1.00  0.00    -0.227 C  
ENDBRANCH  28  29
ENDBRANCH  27  28
ENDBRANCH  24  27
ENDBRANCH  22  23
BRANCH  22  37
HETATM   37  C   UNL     1     -10.262   8.828  72.321  1.00  0.00    -0.310 C  
BRANCH  37  38
HETATM   38  C   UNL     1     -11.697   8.398  72.191  1.00  0.00    -0.442 A  
HETATM   39  C   UNL     1     -14.348   7.644  71.696  1.00  0.00    -0.613 A  
HETATM   40  C   UNL     1     -12.730   9.331  72.306  1.00  0.00    -0.435 A  
HETATM   41  C   UNL     1     -13.334   6.696  71.650  1.00  0.00    -0.073 A  
HETATM   42  C   UNL     1     -12.025   7.065  71.945  1.00  0.00    -0.355 A  
HETATM   43  C   UNL     1     -14.049   8.954  72.060  1.00  0.00    -0.477 A  
ENDBRANCH  37  38
ENDBRANCH  22  37
ENDBRANCH  19  22
ENDBRANCH  18  19
ENDBRANCH  17  18
BRANCH  17  44
HETATM   44  C   UNL     1      -8.084  11.172  68.211  1.00  0.00    -0.131 C  
BRANCH  44  45
HETATM   45  C   UNL     1      -7.922  10.567  66.829  1.00  0.00    -0.121 A  
HETATM   46  C   UNL     1      -8.927   9.768  66.259  1.00  0.00    -0.180 A  
HETATM   47  C   UNL     1      -6.743  10.776  66.103  1.00  0.00    -0.126 A  
HETATM   48  C   UNL     1      -8.735   9.163  65.012  1.00  0.00    -0.222 A  
HETATM   49  C   UNL     1      -6.555  10.174  64.856  1.00  0.00    -0.127 A  
HETATM   50  C   UNL     1      -7.546   9.360  64.314  1.00  0.00    -0.115 A  
ENDBRANCH  44  45
ENDBRANCH  17  44
ENDBRANCH  15  17
ENDBRANCH   3  13
TORSDOF 14
ENDMDL
MODEL      171
REMARK 921   NORMALIZED FREE ENERGY PREDICTED BY IDOCK:   -4.52 KCAL/MOL
REMARK 922        TOTAL FREE ENERGY PREDICTED BY IDOCK:  -12.77 KCAL/MOL
REMARK 923 INTER-LIGAND FREE ENERGY PREDICTED BY IDOCK:   -8.97 KCAL/MOL
REMARK 924 INTRA-LIGAND FREE ENERGY PREDICTED BY IDOCK:   -3.80 KCAL/MOL
REMARK 927      BINDING AFFINITY PREDICTED BY RF-SCORE:    0.00 PKD
ROOT
HETATM    1  C   UNL     1     -11.997  14.242  69.431  1.00  0.00    -0.381 C  
HETATM    2  C   UNL     1     -12.032  12.738  69.114  1.00  0.00    -0.296 C  
HETATM    3  C   UNL     1     -10.823  12.325  68.220  1.00  0.00    -0.225 C  
HETATM    4  C   UNL     1     -12.120  11.967  70.432  1.00  0.00    -0.421 C  
ENDROOT
BRANCH   3   5
HETATM    5  N   UNL     1     -10.844  13.029  66.916  1.00  0.00    -0.262 N  
HETATM    6  H   UNL     1      -9.156  15.169  65.157  1.00  0.00     0.000 HD 
HETATM    7  O   UNL     1      -8.656  13.731  67.066  1.00  0.00    -0.214 OA 
HETATM    8  C   UNL     1     -11.958  12.846  65.994  1.00  0.00    -0.446 C  
HETATM    9  C   UNL     1      -9.750  13.763  66.510  1.00  0.00    -0.293 C  
HETATM   10  C   UNL     1     -12.381  14.199  65.454  1.00  0.00    -0.475 C  
HETATM   11  N   UNL     1      -9.954  14.609  65.457  1.00  0.00    -0.361 N  
HETATM   12  C   UNL     1     -11.191  14.790  64.726  1.00  0.00    -0.385 C  
ENDBRANCH   3   5
BRANCH   3  13
HETATM   13  C   UNL     1     -10.718  10.776  68.065  1.00  0.00    -0.228 C  
HETATM   14  O   UNL     1     -11.449  10.118  67.332  1.00  0.00    -0.212 OA 
HETATM   15  N   UNL     1      -9.787  10.178  68.890  1.00  0.00    -0.180 N  
HETATM   16  H   UNL     1      -9.210  10.803  69.452  1.00  0.00     0.000 HD 
BRANCH  15  17
HETATM   17  C   UNL     1      -9.538   8.747  69.048  1.00  0.00    -0.162 C  
BRANCH  17  18
HETATM   18  C   UNL     1      -8.664   8.138  67.929  1.00  0.00    -0.128 C  
BRANCH  18  19
HETATM   19  C   UNL     1      -9.196   7.106  66.902  1.00  0.00    -0.148 C  
HETATM   20  O   UNL     1      -9.854   6.043  67.598  1.00  0.00    -0.115 OA 
HETATM   21  H   UNL     1     -10.180   5.410  66.968  1.00  0.00     0.000 HD 
BRANCH  19  22
HETATM   22  C   UNL     1      -8.011   6.474  66.071  1.00  0.00    -0.112 C  
BRANCH  22  23
HETATM   23  N   UNL     1      -7.658   5.069  66.488  1.00  0.00    -0.087 N  
HETATM   24  C   UNL     1      -7.397   4.383  67.655  1.00  0.00    -0.069 C  
HETATM   25  H   UNL     1      -7.594   4.452  65.679  1.00  0.00     0.000 HD 
HETATM   26  O   UNL     1      -7.396   3.149  67.617  1.00  0.00    -0.054 OA 
BRANCH  24  27
HETATM   27  C   UNL     1      -7.001   5.138  68.935  1.00  0.00    -0.052 C  
BRANCH  27  28
HETATM   28  O   UNL     1      -7.944   5.561  69.907  1.00  0.00    -0.080 OA 
BRANCH  28  29
HETATM   29  C   UNL     1      -7.719   5.231  71.236  1.00  0.00    -0.102 A  
HETATM   30  C   UNL     1      -6.019   7.120  71.993  1.00  0.00    -0.037 C  
HETATM   31  C   UNL     1      -6.916   5.922  72.181  1.00  0.00    -0.078 A  
HETATM   32  C   UNL     1      -6.923   5.487  73.529  1.00  0.00    -0.085 A  
HETATM   33  C   UNL     1      -7.668   4.399  73.956  1.00  0.00    -0.085 A  
HETATM   34  C   UNL     1      -8.422   3.696  73.032  1.00  0.00    -0.090 A  
HETATM   35  C   UNL     1      -8.450   4.087  71.678  1.00  0.00    -0.106 A  
HETATM   36  C   UNL     1      -9.277   3.235  70.746  1.00  0.00    -0.208 C  
ENDBRANCH  28  29
ENDBRANCH  27  28
ENDBRANCH  24  27
ENDBRANCH  22  23
BRANCH  22  37
HETATM   37  C   UNL     1      -8.116   6.769  64.550  1.00  0.00    -0.070 C  
BRANCH  37  38
HETATM   38  C   UNL     1      -7.379   8.003  64.107  1.00  0.00    -0.096 A  
HETATM   39  C   UNL     1      -5.975  10.186  63.055  1.00  0.00    -0.136 A  
HETATM   40  C   UNL     1      -5.996   8.105  64.283  1.00  0.00    -0.057 A  
HETATM   41  C   UNL     1      -7.358  10.126  62.941  1.00  0.00    -0.141 A  
HETATM   42  C   UNL     1      -8.056   9.064  63.508  1.00  0.00    -0.164 A  
HETATM   43  C   UNL     1      -5.299   9.192  63.759  1.00  0.00    -0.062 A  
ENDBRANCH  37  38
ENDBRANCH  22  37
ENDBRANCH  19  22
ENDBRANCH  18  19
ENDBRANCH  17  18
BRANCH  17  44
HETATM   44  C   UNL     1     -10.767   7.944  69.527  1.00  0.00    -0.195 C  
BRANCH  44  45
HETATM   45  C   UNL     1     -10.672   7.491  70.972  1.00  0.00    -0.243 A  
HETATM   46  C   UNL     1     -11.425   6.405  71.448  1.00  0.00    -0.363 A  
HETATM   47  C   UNL     1      -9.841   8.172  71.869  1.00  0.00    -0.276 A  
HETATM   48  C   UNL     1     -11.377   6.041  72.798  1.00  0.00    -0.282 A  
HETATM   49  C   UNL     1      -9.791   7.804  73.217  1.00  0.00    -0.362 A  
HETATM   50  C   UNL     1     -10.565   6.746  73.684  1.00  0.00    -0.347 A  
ENDBRANCH  44  45
ENDBRANCH  17  44
ENDBRANCH  15  17
ENDBRANCH   3  13
TORSDOF 14
ENDMDL
MODEL      172
REMARK 921   NORMALIZED FREE ENERGY PREDICTED BY IDOCK:   -4.51 KCAL/MOL
REMARK 922        TOTAL FREE ENERGY PREDICTED BY IDOCK:  -12.76 KCAL/MOL
REMARK 923 INTER-LIGAND FREE ENERGY PREDICTED BY IDOCK:   -9.92 KCAL/MOL
REMARK 924 INTRA-LIGAND FREE ENERGY PREDICTED BY IDOCK:   -2.85 KCAL/MOL
REMARK 927      BINDING AFFINITY PREDICTED BY RF-SCORE:    0.00 PKD
ROOT
HETATM    1  C   UNL     1      -9.777   5.147  74.154  1.00  0.00    -0.165 C  
HETATM    2  C   UNL     1      -9.612   5.280  72.632  1.00  0.00    -0.168 C  
HETATM    3  C   UNL     1      -8.105   5.295  72.229  1.00  0.00    -0.110 C  
HETATM    4  C   UNL     1     -10.421   4.170  71.957  1.00  0.00    -0.068 C  
ENDROOT
BRANCH   3   5
HETATM    5  N   UNL     1      -7.394   6.448  72.831  1.00  0.00    -0.093 N  
HETATM    6  H   UNL     1      -4.757   7.178  74.574  1.00  0.00     0.000 HD 
HETATM    7  O   UNL     1      -5.457   5.266  73.226  1.00  0.00    -0.020 OA 
HETATM    8  C   UNL     1      -7.951   7.792  72.739  1.00  0.00    -0.118 C  
HETATM    9  C   UNL     1      -6.136   6.278  73.371  1.00  0.00    -0.062 C  
HETATM   10  C   UNL     1      -7.846   8.465  74.094  1.00  0.00    -0.230 C  
HETATM   11  N   UNL     1      -5.680   7.298  74.156  1.00  0.00    -0.058 N  
HETATM   12  C   UNL     1      -6.376   8.532  74.455  1.00  0.00    -0.133 C  
ENDBRANCH   3   5
BRANCH   3  13
HETATM   13  C   UNL     1      -7.916   5.212  70.683  1.00  0.00    -0.088 C  
HETATM   14  O   UNL     1      -7.051   4.530  70.143  1.00  0.00    -0.046 OA 
HETATM   15  N   UNL     1      -8.747   6.040  69.957  1.00  0.00    -0.134 N  
HETATM   16  H   UNL     1      -9.449   6.557  70.487  1.00  0.00     0.000 HD 
BRANCH  15  17
HETATM   17  C   UNL     1      -8.731   6.260  68.513  1.00  0.00    -0.112 C  
BRANCH  17  18
HETATM   18  C   UNL     1      -8.805   7.748  68.106  1.00  0.00    -0.125 C  
BRANCH  18  19
HETATM   19  C   UNL     1     -10.126   8.457  67.711  1.00  0.00    -0.207 C  
HETATM   20  O   UNL     1     -10.208   8.544  66.285  1.00  0.00    -0.424 OA 
HETATM   21  H   UNL     1     -11.017   8.979  66.043  1.00  0.00     0.000 HD 
BRANCH  19  22
HETATM   22  C   UNL     1     -10.172   9.926  68.286  1.00  0.00    -0.176 C  
BRANCH  22  23
HETATM   23  N   UNL     1     -11.227  10.795  67.648  1.00  0.00    -0.317 N  
HETATM   24  C   UNL     1     -11.387  12.118  67.295  1.00  0.00    -0.334 C  
HETATM   25  H   UNL     1     -12.055  10.250  67.409  1.00  0.00     0.000 HD 
HETATM   26  O   UNL     1     -12.319  12.410  66.539  1.00  0.00    -0.511 OA 
BRANCH  24  27
HETATM   27  C   UNL     1     -10.503  13.208  67.923  1.00  0.00    -0.240 C  
BRANCH  27  28
HETATM   28  O   UNL     1      -9.482  13.885  67.207  1.00  0.00    -0.223 OA 
BRANCH  28  29
HETATM   29  C   UNL     1      -9.644  15.238  66.942  1.00  0.00    -0.233 A  
HETATM   30  C   UNL     1     -11.110  15.195  64.734  1.00  0.00    -0.395 C  
HETATM   31  C   UNL     1     -10.387  15.836  65.891  1.00  0.00    -0.372 A  
HETATM   32  C   UNL     1     -10.529  17.245  65.875  1.00  0.00    -0.267 A  
HETATM   33  C   UNL     1      -9.952  18.063  66.834  1.00  0.00    -0.340 A  
HETATM   34  C   UNL     1      -9.192  17.489  67.838  1.00  0.00    -0.265 A  
HETATM   35  C   UNL     1      -9.018  16.092  67.901  1.00  0.00    -0.183 A  
HETATM   36  C   UNL     1      -8.146  15.569  69.016  1.00  0.00    -0.220 C  
ENDBRANCH  28  29
ENDBRANCH  27  28
ENDBRANCH  24  27
ENDBRANCH  22  23
BRANCH  22  37
HETATM   37  C   UNL     1     -10.038   9.976  69.832  1.00  0.00    -0.289 C  
BRANCH  37  38
HETATM   38  C   UNL     1     -11.289   9.592  70.574  1.00  0.00    -0.343 A  
HETATM   39  C   UNL     1     -13.480   8.894  72.171  1.00  0.00    -0.497 A  
HETATM   40  C   UNL     1     -11.581   8.249  70.824  1.00  0.00    -0.250 A  
HETATM   41  C   UNL     1     -13.236  10.227  71.866  1.00  0.00    -0.550 A  
HETATM   42  C   UNL     1     -12.175  10.566  71.032  1.00  0.00    -0.505 A  
HETATM   43  C   UNL     1     -12.672   7.903  71.619  1.00  0.00    -0.352 A  
ENDBRANCH  37  38
ENDBRANCH  22  37
ENDBRANCH  19  22
ENDBRANCH  18  19
ENDBRANCH  17  18
BRANCH  17  44
HETATM   44  C   UNL     1      -9.579   5.246  67.714  1.00  0.00    -0.157 C  
BRANCH  44  45
HETATM   45  C   UNL     1      -8.760   4.352  66.802  1.00  0.00    -0.112 A  
HETATM   46  C   UNL     1      -9.325   3.224  66.185  1.00  0.00    -0.130 A  
HETATM   47  C   UNL     1      -7.405   4.626  66.581  1.00  0.00    -0.081 A  
HETATM   48  C   UNL     1      -8.539   2.372  65.400  1.00  0.00    -0.113 A  
HETATM   49  C   UNL     1      -6.623   3.777  65.794  1.00  0.00    -0.040 A  
HETATM   50  C   UNL     1      -7.186   2.645  65.211  1.00  0.00    -0.062 A  
ENDBRANCH  44  45
ENDBRANCH  17  44
ENDBRANCH  15  17
ENDBRANCH   3  13
TORSDOF 14
ENDMDL
MODEL      173
REMARK 921   NORMALIZED FREE ENERGY PREDICTED BY IDOCK:   -4.50 KCAL/MOL
REMARK 922        TOTAL FREE ENERGY PREDICTED BY IDOCK:  -12.74 KCAL/MOL
REMARK 923 INTER-LIGAND FREE ENERGY PREDICTED BY IDOCK:   -9.74 KCAL/MOL
REMARK 924 INTRA-LIGAND FREE ENERGY PREDICTED BY IDOCK:   -3.00 KCAL/MOL
REMARK 927      BINDING AFFINITY PREDICTED BY RF-SCORE:    0.00 PKD
ROOT
HETATM    1  C   UNL     1      -9.495   3.546  67.770  1.00  0.00    -0.230 C  
HETATM    2  C   UNL     1     -10.034   4.890  68.284  1.00  0.00    -0.177 C  
HETATM    3  C   UNL     1      -9.026   5.560  69.268  1.00  0.00    -0.112 C  
HETATM    4  C   UNL     1     -10.395   5.761  67.079  1.00  0.00    -0.303 C  
ENDROOT
BRANCH   3   5
HETATM    5  N   UNL     1      -8.791   4.716  70.464  1.00  0.00    -0.100 N  
HETATM    6  H   UNL     1      -6.426   3.729  72.453  1.00  0.00     0.000 HD 
HETATM    7  O   UNL     1      -6.685   5.560  70.857  1.00  0.00    -0.041 OA 
HETATM    8  C   UNL     1      -9.885   3.962  71.064  1.00  0.00    -0.149 C  
HETATM    9  C   UNL     1      -7.566   4.738  71.095  1.00  0.00    -0.081 C  
HETATM   10  C   UNL     1      -9.406   2.556  71.371  1.00  0.00    -0.202 C  
HETATM   11  N   UNL     1      -7.335   3.733  71.991  1.00  0.00    -0.054 N  
HETATM   12  C   UNL     1      -8.254   2.672  72.347  1.00  0.00    -0.055 C  
ENDBRANCH   3   5
BRANCH   3  13
HETATM   13  C   UNL     1      -9.450   7.015  69.633  1.00  0.00    -0.147 C  
HETATM   14  O   UNL     1      -8.725   7.991  69.476  1.00  0.00    -0.135 OA 
HETATM   15  N   UNL     1     -10.687   7.119  70.237  1.00  0.00    -0.231 N  
HETATM   16  H   UNL     1     -11.231   6.259  70.310  1.00  0.00     0.000 HD 
BRANCH  15  17
HETATM   17  C   UNL     1     -11.304   8.326  70.783  1.00  0.00    -0.266 C  
BRANCH  17  18
HETATM   18  C   UNL     1     -10.765   9.636  70.168  1.00  0.00    -0.321 C  
BRANCH  18  19
HETATM   19  C   UNL     1     -11.653  10.879  69.904  1.00  0.00    -0.331 C  
HETATM   20  O   UNL     1     -13.012  10.463  69.743  1.00  0.00    -0.592 OA 
HETATM   21  H   UNL     1     -13.557  11.225  69.581  1.00  0.00     0.000 HD 
BRANCH  19  22
HETATM   22  C   UNL     1     -11.215  11.613  68.576  1.00  0.00    -0.256 C  
BRANCH  22  23
HETATM   23  N   UNL     1     -10.973  10.679  67.417  1.00  0.00    -0.301 N  
HETATM   24  C   UNL     1      -9.904  10.226  66.674  1.00  0.00    -0.204 C  
HETATM   25  H   UNL     1     -11.846  10.266  67.092  1.00  0.00     0.000 HD 
HETATM   26  O   UNL     1     -10.075   9.242  65.949  1.00  0.00    -0.293 OA 
BRANCH  24  27
HETATM   27  C   UNL     1      -8.576  11.001  66.661  1.00  0.00    -0.157 C  
BRANCH  27  28
HETATM   28  O   UNL     1      -7.358  10.441  66.196  1.00  0.00    -0.118 OA 
BRANCH  28  29
HETATM   29  C   UNL     1      -6.793   9.394  66.912  1.00  0.00    -0.080 A  
HETATM   30  C   UNL     1      -7.498   7.291  65.460  1.00  0.00    -0.085 C  
HETATM   31  C   UNL     1      -6.804   8.012  66.588  1.00  0.00    -0.068 A  
HETATM   32  C   UNL     1      -6.054   7.119  67.391  1.00  0.00    -0.037 A  
HETATM   33  C   UNL     1      -5.328   7.539  68.494  1.00  0.00    -0.026 A  
HETATM   34  C   UNL     1      -5.346   8.879  68.839  1.00  0.00    -0.037 A  
HETATM   35  C   UNL     1      -6.076   9.811  68.075  1.00  0.00    -0.054 A  
HETATM   36  C   UNL     1      -6.057  11.242  68.554  1.00  0.00    -0.042 C  
ENDBRANCH  28  29
ENDBRANCH  27  28
ENDBRANCH  24  27
ENDBRANCH  22  23
BRANCH  22  37
HETATM   37  C   UNL     1     -12.033  12.905  68.302  1.00  0.00    -0.297 C  
BRANCH  37  38
HETATM   38  C   UNL     1     -11.527  13.722  67.146  1.00  0.00    -0.365 A  
HETATM   39  C   UNL     1     -10.732  15.437  65.079  1.00  0.00    -0.460 A  
HETATM   40  C   UNL     1     -12.195  13.708  65.919  1.00  0.00    -0.502 A  
HETATM   41  C   UNL     1     -10.019  15.404  66.270  1.00  0.00    -0.308 A  
HETATM   42  C   UNL     1     -10.387  14.516  67.276  1.00  0.00    -0.260 A  
HETATM   43  C   UNL     1     -11.799  14.560  64.891  1.00  0.00    -0.417 A  
ENDBRANCH  37  38
ENDBRANCH  22  37
ENDBRANCH  19  22
ENDBRANCH  18  19
ENDBRANCH  17  18
BRANCH  17  44
HETATM   44  C   UNL     1     -11.531   8.279  72.310  1.00  0.00    -0.452 C  
BRANCH  44  45
HETATM   45  C   UNL     1     -10.423   7.574  73.068  1.00  0.00    -0.396 A  
HETATM   46  C   UNL     1      -9.134   8.126  73.162  1.00  0.00    -0.335 A  
HETATM   47  C   UNL     1     -10.663   6.333  73.672  1.00  0.00    -0.229 A  
HETATM   48  C   UNL     1      -8.106   7.431  73.808  1.00  0.00    -0.156 A  
HETATM   49  C   UNL     1      -9.635   5.643  74.320  1.00  0.00    -0.162 A  
HETATM   50  C   UNL     1      -8.355   6.186  74.381  1.00  0.00    -0.117 A  
ENDBRANCH  44  45
ENDBRANCH  17  44
ENDBRANCH  15  17
ENDBRANCH   3  13
TORSDOF 14
ENDMDL
MODEL      174
REMARK 921   NORMALIZED FREE ENERGY PREDICTED BY IDOCK:   -4.50 KCAL/MOL
REMARK 922        TOTAL FREE ENERGY PREDICTED BY IDOCK:  -12.74 KCAL/MOL
REMARK 923 INTER-LIGAND FREE ENERGY PREDICTED BY IDOCK:   -9.12 KCAL/MOL
REMARK 924 INTRA-LIGAND FREE ENERGY PREDICTED BY IDOCK:   -3.62 KCAL/MOL
REMARK 927      BINDING AFFINITY PREDICTED BY RF-SCORE:    0.00 PKD
ROOT
HETATM    1  C   UNL     1     -12.101  12.944  70.122  1.00  0.00    -0.373 C  
HETATM    2  C   UNL     1     -12.155  11.499  69.601  1.00  0.00    -0.363 C  
HETATM    3  C   UNL     1     -10.839  11.123  68.853  1.00  0.00    -0.216 C  
HETATM    4  C   UNL     1     -12.488  10.573  70.772  1.00  0.00    -0.472 C  
ENDROOT
BRANCH   3   5
HETATM    5  N   UNL     1     -10.620  11.988  67.670  1.00  0.00    -0.206 N  
HETATM    6  H   UNL     1      -8.532  14.156  66.460  1.00  0.00     0.000 HD 
HETATM    7  O   UNL     1      -8.424  12.442  68.195  1.00  0.00    -0.167 OA 
HETATM    8  C   UNL     1     -11.604  12.038  66.596  1.00  0.00    -0.319 C  
HETATM    9  C   UNL     1      -9.423  12.655  67.515  1.00  0.00    -0.186 C  
HETATM   10  C   UNL     1     -11.835  13.484  66.203  1.00  0.00    -0.426 C  
HETATM   11  N   UNL     1      -9.407  13.645  66.574  1.00  0.00    -0.257 N  
HETATM   12  C   UNL     1     -10.511  14.041  65.724  1.00  0.00    -0.309 C  
ENDBRANCH   3   5
BRANCH   3  13
HETATM   13  C   UNL     1     -10.783   9.603  68.506  1.00  0.00    -0.200 C  
HETATM   14  O   UNL     1     -10.745   9.172  67.359  1.00  0.00    -0.277 OA 
HETATM   15  N   UNL     1     -10.868   8.761  69.596  1.00  0.00    -0.347 N  
HETATM   16  H   UNL     1     -10.876   9.206  70.514  1.00  0.00     0.000 HD 
BRANCH  15  17
HETATM   17  C   UNL     1     -10.949   7.303  69.581  1.00  0.00    -0.186 C  
BRANCH  17  18
HETATM   18  C   UNL     1     -10.934   6.691  68.162  1.00  0.00    -0.323 C  
BRANCH  18  19
HETATM   19  C   UNL     1     -10.108   5.434  67.787  1.00  0.00    -0.171 C  
HETATM   20  O   UNL     1      -9.878   4.652  68.963  1.00  0.00    -0.175 OA 
HETATM   21  H   UNL     1      -9.371   3.881  68.733  1.00  0.00     0.000 HD 
BRANCH  19  22
HETATM   22  C   UNL     1      -8.700   5.838  67.197  1.00  0.00    -0.108 C  
BRANCH  22  23
HETATM   23  N   UNL     1      -7.622   4.814  67.442  1.00  0.00    -0.085 N  
HETATM   24  C   UNL     1      -6.806   4.415  68.480  1.00  0.00    -0.051 C  
HETATM   25  H   UNL     1      -7.446   4.260  66.605  1.00  0.00     0.000 HD 
HETATM   26  O   UNL     1      -6.210   3.339  68.371  1.00  0.00    -0.030 OA 
BRANCH  24  27
HETATM   27  C   UNL     1      -6.557   5.342  69.681  1.00  0.00    -0.046 C  
BRANCH  27  28
HETATM   28  O   UNL     1      -7.597   5.822  70.517  1.00  0.00    -0.085 OA 
BRANCH  28  29
HETATM   29  C   UNL     1      -7.294   6.146  71.832  1.00  0.00    -0.093 A  
HETATM   30  C   UNL     1      -7.284   3.764  72.997  1.00  0.00    -0.059 C  
HETATM   31  C   UNL     1      -7.109   5.261  72.927  1.00  0.00    -0.088 A  
HETATM   32  C   UNL     1      -6.677   5.792  74.166  1.00  0.00    -0.080 A  
HETATM   33  C   UNL     1      -6.448   7.145  74.358  1.00  0.00    -0.082 A  
HETATM   34  C   UNL     1      -6.666   8.019  73.307  1.00  0.00    -0.113 A  
HETATM   35  C   UNL     1      -7.097   7.543  72.052  1.00  0.00    -0.064 A  
HETATM   36  C   UNL     1      -7.335   8.580  70.982  1.00  0.00    -0.074 C  
ENDBRANCH  28  29
ENDBRANCH  27  28
ENDBRANCH  24  27
ENDBRANCH  22  23
BRANCH  22  37
HETATM   37  C   UNL     1      -8.796   6.457  65.775  1.00  0.00    -0.111 C  
BRANCH  37  38
HETATM   38  C   UNL     1      -8.107   7.786  65.632  1.00  0.00    -0.129 A  
HETATM   39  C   UNL     1      -7.047  10.370  65.431  1.00  0.00    -0.117 A  
HETATM   40  C   UNL     1      -8.103   8.454  64.405  1.00  0.00    -0.158 A  
HETATM   41  C   UNL     1      -6.983   9.682  66.637  1.00  0.00    -0.085 A  
HETATM   42  C   UNL     1      -7.467   8.380  66.719  1.00  0.00    -0.083 A  
HETATM   43  C   UNL     1      -7.575   9.740  64.307  1.00  0.00    -0.135 A  
ENDBRANCH  37  38
ENDBRANCH  22  37
ENDBRANCH  19  22
ENDBRANCH  18  19
ENDBRANCH  17  18
BRANCH  17  44
HETATM   44  C   UNL     1     -11.936   6.717  70.613  1.00  0.00    -0.404 C  
BRANCH  44  45
HETATM   45  C   UNL     1     -11.304   6.419  71.959  1.00  0.00    -0.338 A  
HETATM   46  C   UNL     1     -11.250   5.111  72.469  1.00  0.00    -0.229 A  
HETATM   47  C   UNL     1     -10.781   7.460  72.736  1.00  0.00    -0.362 A  
HETATM   48  C   UNL     1     -10.723   4.862  73.741  1.00  0.00    -0.361 A  
HETATM   49  C   UNL     1     -10.251   7.209  74.005  1.00  0.00    -0.284 A  
HETATM   50  C   UNL     1     -10.230   5.912  74.512  1.00  0.00    -0.293 A  
ENDBRANCH  44  45
ENDBRANCH  17  44
ENDBRANCH  15  17
ENDBRANCH   3  13
TORSDOF 14
ENDMDL
MODEL      175
REMARK 921   NORMALIZED FREE ENERGY PREDICTED BY IDOCK:   -4.50 KCAL/MOL
REMARK 922        TOTAL FREE ENERGY PREDICTED BY IDOCK:  -12.74 KCAL/MOL
REMARK 923 INTER-LIGAND FREE ENERGY PREDICTED BY IDOCK:  -10.34 KCAL/MOL
REMARK 924 INTRA-LIGAND FREE ENERGY PREDICTED BY IDOCK:   -2.40 KCAL/MOL
REMARK 927      BINDING AFFINITY PREDICTED BY RF-SCORE:    0.00 PKD
ROOT
HETATM    1  C   UNL     1     -12.779  15.057  69.736  1.00  0.00    -0.062 C  
HETATM    2  C   UNL     1     -12.218  13.697  69.293  1.00  0.00    -0.283 C  
HETATM    3  C   UNL     1     -10.899  13.872  68.479  1.00  0.00    -0.259 C  
HETATM    4  C   UNL     1     -12.069  12.809  70.530  1.00  0.00    -0.369 C  
ENDROOT
BRANCH   3   5
HETATM    5  N   UNL     1     -11.124  14.656  67.242  1.00  0.00    -0.317 N  
HETATM    6  H   UNL     1     -12.507  14.444  64.316  1.00  0.00     0.000 HD 
HETATM    7  O   UNL     1     -12.721  13.218  66.416  1.00  0.00    -0.252 OA 
HETATM    8  C   UNL     1     -10.566  15.995  67.103  1.00  0.00    -0.305 C  
HETATM    9  C   UNL     1     -11.971  14.177  66.265  1.00  0.00    -0.429 C  
HETATM   10  C   UNL     1      -9.940  16.131  65.727  1.00  0.00    -0.370 C  
HETATM   11  N   UNL     1     -11.897  14.799  65.051  1.00  0.00    -0.364 N  
HETATM   12  C   UNL     1     -11.038  15.912  64.707  1.00  0.00    -0.384 C  
ENDBRANCH   3   5
BRANCH   3  13
HETATM   13  C   UNL     1     -10.199  12.505  68.206  1.00  0.00    -0.234 C  
HETATM   14  O   UNL     1     -10.775  11.532  67.731  1.00  0.00    -0.190 OA 
HETATM   15  N   UNL     1      -8.886  12.438  68.625  1.00  0.00    -0.378 N  
HETATM   16  H   UNL     1      -8.481  13.300  68.991  1.00  0.00     0.000 HD 
BRANCH  15  17
HETATM   17  C   UNL     1      -8.011  11.268  68.603  1.00  0.00    -0.145 C  
BRANCH  17  18
HETATM   18  C   UNL     1      -8.362  10.206  69.668  1.00  0.00    -0.174 C  
BRANCH  18  19
HETATM   19  C   UNL     1      -8.922   8.803  69.317  1.00  0.00    -0.144 C  
HETATM   20  O   UNL     1     -10.062   8.950  68.465  1.00  0.00    -0.177 OA 
HETATM   21  H   UNL     1     -10.405   8.090  68.250  1.00  0.00     0.000 HD 
BRANCH  19  22
HETATM   22  C   UNL     1      -9.390   8.040  70.618  1.00  0.00    -0.158 C  
BRANCH  22  23
HETATM   23  N   UNL     1      -8.325   7.160  71.221  1.00  0.00    -0.112 N  
HETATM   24  C   UNL     1      -7.542   6.092  70.839  1.00  0.00    -0.097 C  
HETATM   25  H   UNL     1      -8.129   7.431  72.184  1.00  0.00     0.000 HD 
HETATM   26  O   UNL     1      -6.576   5.795  71.548  1.00  0.00    -0.049 OA 
BRANCH  24  27
HETATM   27  C   UNL     1      -7.934   5.227  69.629  1.00  0.00    -0.084 C  
BRANCH  27  28
HETATM   28  O   UNL     1      -7.759   5.650  68.286  1.00  0.00    -0.087 OA 
BRANCH  28  29
HETATM   29  C   UNL     1      -8.548   5.072  67.301  1.00  0.00    -0.104 A  
HETATM   30  C   UNL     1     -10.962   5.973  67.931  1.00  0.00    -0.334 C  
HETATM   31  C   UNL     1      -9.944   5.232  67.099  1.00  0.00    -0.211 A  
HETATM   32  C   UNL     1     -10.537   4.652  65.951  1.00  0.00    -0.265 A  
HETATM   33  C   UNL     1      -9.810   3.916  65.029  1.00  0.00    -0.192 A  
HETATM   34  C   UNL     1      -8.456   3.721  65.242  1.00  0.00    -0.105 A  
HETATM   35  C   UNL     1      -7.817   4.276  66.368  1.00  0.00    -0.094 A  
HETATM   36  C   UNL     1      -6.345   3.979  66.525  1.00  0.00    -0.036 C  
ENDBRANCH  28  29
ENDBRANCH  27  28
ENDBRANCH  24  27
ENDBRANCH  22  23
BRANCH  22  37
HETATM   37  C   UNL     1     -10.215   8.937  71.581  1.00  0.00    -0.415 C  
BRANCH  37  38
HETATM   38  C   UNL     1     -11.687   8.631  71.602  1.00  0.00    -0.380 A  
HETATM   39  C   UNL     1     -14.390   7.950  71.869  1.00  0.00    -0.549 A  
HETATM   40  C   UNL     1     -12.171   7.435  71.064  1.00  0.00    -0.315 A  
HETATM   41  C   UNL     1     -13.929   9.172  72.342  1.00  0.00    -0.488 A  
HETATM   42  C   UNL     1     -12.595   9.527  72.163  1.00  0.00    -0.411 A  
HETATM   43  C   UNL     1     -13.516   7.098  71.197  1.00  0.00    -0.217 A  
ENDBRANCH  37  38
ENDBRANCH  22  37
ENDBRANCH  19  22
ENDBRANCH  18  19
ENDBRANCH  17  18
BRANCH  17  44
HETATM   44  C   UNL     1      -6.521  11.602  68.374  1.00  0.00    -0.052 C  
BRANCH  44  45
HETATM   45  C   UNL     1      -6.051  12.835  69.123  1.00  0.00    -0.092 A  
HETATM   46  C   UNL     1      -5.885  12.825  70.518  1.00  0.00    -0.132 A  
HETATM   47  C   UNL     1      -5.799  14.025  68.429  1.00  0.00    -0.103 A  
HETATM   48  C   UNL     1      -5.516  13.989  71.201  1.00  0.00    -0.191 A  
HETATM   49  C   UNL     1      -5.426  15.186  69.113  1.00  0.00    -0.094 A  
HETATM   50  C   UNL     1      -5.294  15.171  70.499  1.00  0.00    -0.133 A  
ENDBRANCH  44  45
ENDBRANCH  17  44
ENDBRANCH  15  17
ENDBRANCH   3  13
TORSDOF 14
ENDMDL
MODEL      176
REMARK 921   NORMALIZED FREE ENERGY PREDICTED BY IDOCK:   -4.46 KCAL/MOL
REMARK 922        TOTAL FREE ENERGY PREDICTED BY IDOCK:  -12.66 KCAL/MOL
REMARK 923 INTER-LIGAND FREE ENERGY PREDICTED BY IDOCK:  -10.04 KCAL/MOL
REMARK 924 INTRA-LIGAND FREE ENERGY PREDICTED BY IDOCK:   -2.63 KCAL/MOL
REMARK 927      BINDING AFFINITY PREDICTED BY RF-SCORE:    0.00 PKD
ROOT
HETATM    1  C   UNL     1      -9.561  11.338  62.734  1.00  0.00    -0.327 C  
HETATM    2  C   UNL     1      -9.360  10.744  64.137  1.00  0.00    -0.286 C  
HETATM    3  C   UNL     1     -10.658  10.875  64.993  1.00  0.00    -0.217 C  
HETATM    4  C   UNL     1      -8.859   9.306  63.988  1.00  0.00    -0.168 C  
ENDROOT
BRANCH   3   5
HETATM    5  N   UNL     1     -11.040  12.293  65.188  1.00  0.00    -0.308 N  
HETATM    6  H   UNL     1     -13.393  14.411  64.480  1.00  0.00     0.000 HD 
HETATM    7  O   UNL     1     -13.221  11.975  64.521  1.00  0.00    -0.606 OA 
HETATM    8  C   UNL     1     -10.147  13.211  65.883  1.00  0.00    -0.290 C  
HETATM    9  C   UNL     1     -12.299  12.725  64.827  1.00  0.00    -0.478 C  
HETATM   10  C   UNL     1     -10.073  14.513  65.107  1.00  0.00    -0.361 C  
HETATM   11  N   UNL     1     -12.471  14.078  64.761  1.00  0.00    -0.394 N  
HETATM   12  C   UNL     1     -11.473  15.087  65.050  1.00  0.00    -0.364 C  
ENDBRANCH   3   5
BRANCH   3  13
HETATM   13  C   UNL     1     -10.549  10.091  66.337  1.00  0.00    -0.068 C  
HETATM   14  O   UNL     1     -10.676   8.874  66.423  1.00  0.00    -0.032 OA 
HETATM   15  N   UNL     1     -10.383  10.885  67.454  1.00  0.00    -0.201 N  
HETATM   16  H   UNL     1     -10.267  11.884  67.287  1.00  0.00     0.000 HD 
BRANCH  15  17
HETATM   17  C   UNL     1     -10.357  10.451  68.849  1.00  0.00    -0.209 C  
BRANCH  17  18
HETATM   18  C   UNL     1      -9.335   9.329  69.134  1.00  0.00    -0.157 C  
BRANCH  18  19
HETATM   19  C   UNL     1      -7.989   9.570  69.866  1.00  0.00    -0.149 C  
HETATM   20  O   UNL     1      -7.878  10.956  70.205  1.00  0.00    -0.330 OA 
HETATM   21  H   UNL     1      -7.053  11.104  70.653  1.00  0.00     0.000 HD 
BRANCH  19  22
HETATM   22  C   UNL     1      -6.767   9.204  68.935  1.00  0.00    -0.052 C  
BRANCH  22  23
HETATM   23  N   UNL     1      -6.814   9.867  67.582  1.00  0.00    -0.083 N  
HETATM   24  C   UNL     1      -6.305  10.996  66.977  1.00  0.00    -0.088 C  
HETATM   25  H   UNL     1      -7.384   9.329  66.930  1.00  0.00     0.000 HD 
HETATM   26  O   UNL     1      -6.357  11.071  65.746  1.00  0.00    -0.088 OA 
BRANCH  24  27
HETATM   27  C   UNL     1      -5.796  12.175  67.823  1.00  0.00    -0.089 C  
BRANCH  27  28
HETATM   28  O   UNL     1      -6.633  12.924  68.690  1.00  0.00    -0.078 OA 
BRANCH  28  29
HETATM   29  C   UNL     1      -6.252  14.216  69.026  1.00  0.00    -0.094 A  
HETATM   30  C   UNL     1      -7.162  15.612  66.963  1.00  0.00    -0.175 C  
HETATM   31  C   UNL     1      -6.510  15.414  68.309  1.00  0.00    -0.120 A  
HETATM   32  C   UNL     1      -6.143  16.650  68.894  1.00  0.00    -0.154 A  
HETATM   33  C   UNL     1      -5.522  16.733  70.131  1.00  0.00    -0.209 A  
HETATM   34  C   UNL     1      -5.232  15.567  70.817  1.00  0.00    -0.149 A  
HETATM   35  C   UNL     1      -5.575  14.310  70.280  1.00  0.00    -0.123 A  
HETATM   36  C   UNL     1      -5.186  13.099  71.092  1.00  0.00    -0.178 C  
ENDBRANCH  28  29
ENDBRANCH  27  28
ENDBRANCH  24  27
ENDBRANCH  22  23
BRANCH  22  37
HETATM   37  C   UNL     1      -5.411   9.204  69.691  1.00  0.00    -0.034 C  
BRANCH  37  38
HETATM   38  C   UNL     1      -5.486   8.673  71.096  1.00  0.00    -0.034 A  
HETATM   39  C   UNL     1      -5.874   7.747  73.710  1.00  0.00    -0.061 A  
HETATM   40  C   UNL     1      -5.245   9.513  72.186  1.00  0.00    -0.076 A  
HETATM   41  C   UNL     1      -6.046   6.887  72.634  1.00  0.00    -0.045 A  
HETATM   42  C   UNL     1      -5.803   7.337  71.339  1.00  0.00    -0.036 A  
HETATM   43  C   UNL     1      -5.438   9.051  73.486  1.00  0.00    -0.102 A  
ENDBRANCH  37  38
ENDBRANCH  22  37
ENDBRANCH  19  22
ENDBRANCH  18  19
ENDBRANCH  17  18
BRANCH  17  44
HETATM   44  C   UNL     1     -11.752  10.346  69.501  1.00  0.00    -0.259 C  
BRANCH  44  45
HETATM   45  C   UNL     1     -12.144  11.574  70.301  1.00  0.00    -0.444 A  
HETATM   46  C   UNL     1     -12.875  11.466  71.496  1.00  0.00    -0.508 A  
HETATM   47  C   UNL     1     -11.802  12.851  69.841  1.00  0.00    -0.373 A  
HETATM   48  C   UNL     1     -13.286  12.611  72.187  1.00  0.00    -0.570 A  
HETATM   49  C   UNL     1     -12.210  13.994  70.535  1.00  0.00    -0.435 A  
HETATM   50  C   UNL     1     -12.960  13.875  71.702  1.00  0.00    -0.433 A  
ENDBRANCH  44  45
ENDBRANCH  17  44
ENDBRANCH  15  17
ENDBRANCH   3  13
TORSDOF 14
ENDMDL
MODEL      177
REMARK 921   NORMALIZED FREE ENERGY PREDICTED BY IDOCK:   -4.44 KCAL/MOL
REMARK 922        TOTAL FREE ENERGY PREDICTED BY IDOCK:  -12.63 KCAL/MOL
REMARK 923 INTER-LIGAND FREE ENERGY PREDICTED BY IDOCK:  -11.30 KCAL/MOL
REMARK 924 INTRA-LIGAND FREE ENERGY PREDICTED BY IDOCK:   -1.33 KCAL/MOL
REMARK 927      BINDING AFFINITY PREDICTED BY RF-SCORE:    0.00 PKD
ROOT
HETATM    1  C   UNL     1     -10.681   7.639  73.097  1.00  0.00    -0.445 C  
HETATM    2  C   UNL     1     -10.583   8.156  71.653  1.00  0.00    -0.292 C  
HETATM    3  C   UNL     1     -10.586   6.976  70.633  1.00  0.00    -0.225 C  
HETATM    4  C   UNL     1     -11.702   9.174  71.426  1.00  0.00    -0.413 C  
ENDROOT
BRANCH   3   5
HETATM    5  N   UNL     1      -9.425   6.078  70.837  1.00  0.00    -0.167 N  
HETATM    6  H   UNL     1      -6.186   6.032  70.665  1.00  0.00     0.000 HD 
HETATM    7  O   UNL     1      -7.880   7.785  70.805  1.00  0.00    -0.095 OA 
HETATM    8  C   UNL     1      -9.625   4.683  71.209  1.00  0.00    -0.172 C  
HETATM    9  C   UNL     1      -8.144   6.586  70.804  1.00  0.00    -0.120 C  
HETATM   10  C   UNL     1      -8.716   3.810  70.365  1.00  0.00    -0.129 C  
HETATM   11  N   UNL     1      -7.138   5.668  70.706  1.00  0.00    -0.067 N  
HETATM   12  C   UNL     1      -7.289   4.229  70.654  1.00  0.00    -0.048 C  
ENDBRANCH   3   5
BRANCH   3  13
HETATM   13  C   UNL     1     -10.704   7.481  69.162  1.00  0.00    -0.151 C  
HETATM   14  O   UNL     1     -11.222   6.828  68.262  1.00  0.00    -0.176 OA 
HETATM   15  N   UNL     1     -10.097   8.697  68.921  1.00  0.00    -0.197 N  
HETATM   16  H   UNL     1      -9.709   9.179  69.731  1.00  0.00     0.000 HD 
BRANCH  15  17
HETATM   17  C   UNL     1      -9.950   9.370  67.632  1.00  0.00    -0.190 C  
BRANCH  17  18
HETATM   18  C   UNL     1     -10.752  10.685  67.520  1.00  0.00    -0.321 C  
BRANCH  18  19
HETATM   19  C   UNL     1     -10.738  11.786  68.612  1.00  0.00    -0.220 C  
HETATM   20  O   UNL     1     -12.074  12.014  69.070  1.00  0.00    -0.271 OA 
HETATM   21  H   UNL     1     -12.065  12.689  69.739  1.00  0.00     0.000 HD 
BRANCH  19  22
HETATM   22  C   UNL     1     -10.188  13.148  68.034  1.00  0.00    -0.233 C  
BRANCH  22  23
HETATM   23  N   UNL     1      -8.756  13.076  67.567  1.00  0.00    -0.185 N  
HETATM   24  C   UNL     1      -7.730  13.949  67.275  1.00  0.00    -0.084 C  
HETATM   25  H   UNL     1      -8.465  12.109  67.428  1.00  0.00     0.000 HD 
HETATM   26  O   UNL     1      -6.590  13.489  67.163  1.00  0.00    -0.190 OA 
BRANCH  24  27
HETATM   27  C   UNL     1      -8.022  15.430  66.980  1.00  0.00    -0.224 C  
BRANCH  27  28
HETATM   28  O   UNL     1      -8.959  16.196  67.719  1.00  0.00    -0.190 OA 
BRANCH  28  29
HETATM   29  C   UNL     1      -9.324  17.445  67.233  1.00  0.00    -0.238 A  
HETATM   30  C   UNL     1     -10.905  16.805  65.204  1.00  0.00    -0.150 C  
HETATM   31  C   UNL     1     -10.208  17.737  66.162  1.00  0.00    -0.339 A  
HETATM   32  C   UNL     1     -10.546  19.089  65.908  1.00  0.00    -0.466 A  
HETATM   33  C   UNL     1     -10.030  20.138  66.654  1.00  0.00    -0.595 A  
HETATM   34  C   UNL     1      -9.137  19.862  67.673  1.00  0.00    -0.431 A  
HETATM   35  C   UNL     1      -8.765  18.535  67.967  1.00  0.00    -0.313 A  
HETATM   36  C   UNL     1      -7.761  18.344  69.077  1.00  0.00    -0.163 C  
ENDBRANCH  28  29
ENDBRANCH  27  28
ENDBRANCH  24  27
ENDBRANCH  22  23
BRANCH  22  37
HETATM   37  C   UNL     1     -11.210  13.871  67.115  1.00  0.00    -0.328 C  
BRANCH  37  38
HETATM   38  C   UNL     1     -11.346  13.265  65.745  1.00  0.00    -0.328 A  
HETATM   39  C   UNL     1     -11.566  11.907  63.306  1.00  0.00    -0.380 A  
HETATM   40  C   UNL     1     -10.222  13.079  64.937  1.00  0.00    -0.304 A  
HETATM   41  C   UNL     1     -12.699  12.153  64.071  1.00  0.00    -0.452 A  
HETATM   42  C   UNL     1     -12.592  12.871  65.259  1.00  0.00    -0.502 A  
HETATM   43  C   UNL     1     -10.333  12.404  63.723  1.00  0.00    -0.454 A  
ENDBRANCH  37  38
ENDBRANCH  22  37
ENDBRANCH  19  22
ENDBRANCH  18  19
ENDBRANCH  17  18
BRANCH  17  44
HETATM   44  C   UNL     1      -9.950   8.413  66.420  1.00  0.00    -0.291 C  
BRANCH  44  45
HETATM   45  C   UNL     1      -8.730   8.558  65.531  1.00  0.00    -0.208 A  
HETATM   46  C   UNL     1      -8.312   9.814  65.061  1.00  0.00    -0.149 A  
HETATM   47  C   UNL     1      -8.007   7.424  65.139  1.00  0.00    -0.128 A  
HETATM   48  C   UNL     1      -7.224   9.923  64.188  1.00  0.00    -0.134 A  
HETATM   49  C   UNL     1      -6.918   7.535  64.271  1.00  0.00    -0.060 A  
HETATM   50  C   UNL     1      -6.531   8.783  63.787  1.00  0.00    -0.087 A  
ENDBRANCH  44  45
ENDBRANCH  17  44
ENDBRANCH  15  17
ENDBRANCH   3  13
TORSDOF 14
ENDMDL
MODEL      178
REMARK 921   NORMALIZED FREE ENERGY PREDICTED BY IDOCK:   -4.42 KCAL/MOL
REMARK 922        TOTAL FREE ENERGY PREDICTED BY IDOCK:  -12.59 KCAL/MOL
REMARK 923 INTER-LIGAND FREE ENERGY PREDICTED BY IDOCK:   -9.99 KCAL/MOL
REMARK 924 INTRA-LIGAND FREE ENERGY PREDICTED BY IDOCK:   -2.60 KCAL/MOL
REMARK 927      BINDING AFFINITY PREDICTED BY RF-SCORE:    0.00 PKD
ROOT
HETATM    1  C   UNL     1      -9.790   7.241  73.747  1.00  0.00    -0.358 C  
HETATM    2  C   UNL     1      -9.403   7.807  72.371  1.00  0.00    -0.224 C  
HETATM    3  C   UNL     1     -10.417   8.896  71.906  1.00  0.00    -0.345 C  
HETATM    4  C   UNL     1      -7.955   8.297  72.439  1.00  0.00    -0.194 C  
ENDROOT
BRANCH   3   5
HETATM    5  N   UNL     1     -11.783   8.340  71.762  1.00  0.00    -0.284 N  
HETATM    6  H   UNL     1     -14.885   9.018  72.427  1.00  0.00     0.000 HD 
HETATM    7  O   UNL     1     -12.830  10.328  72.269  1.00  0.00    -0.349 OA 
HETATM    8  C   UNL     1     -11.988   7.022  71.175  1.00  0.00    -0.356 C  
HETATM    9  C   UNL     1     -12.881   9.119  72.063  1.00  0.00    -0.408 C  
HETATM   10  C   UNL     1     -12.984   6.252  72.021  1.00  0.00     0.200 C  
HETATM   11  N   UNL     1     -14.068   8.456  72.189  1.00  0.00    -0.399 N  
HETATM   12  C   UNL     1     -14.282   7.034  72.018  1.00  0.00    -0.154 C  
ENDBRANCH   3   5
BRANCH   3  13
HETATM   13  C   UNL     1      -9.929   9.633  70.621  1.00  0.00    -0.231 C  
HETATM   14  O   UNL     1     -10.534  10.567  70.105  1.00  0.00    -0.207 OA 
HETATM   15  N   UNL     1      -8.795   9.095  70.046  1.00  0.00    -0.165 N  
HETATM   16  H   UNL     1      -8.346   8.333  70.553  1.00  0.00     0.000 HD 
BRANCH  15  17
HETATM   17  C   UNL     1      -8.167   9.498  68.790  1.00  0.00    -0.112 C  
BRANCH  17  18
HETATM   18  C   UNL     1      -8.812   8.865  67.538  1.00  0.00    -0.135 C  
BRANCH  18  19
HETATM   19  C   UNL     1     -10.099   9.417  66.873  1.00  0.00    -0.248 C  
HETATM   20  O   UNL     1     -11.023   8.344  66.667  1.00  0.00    -0.141 OA 
HETATM   21  H   UNL     1     -11.812   8.683  66.259  1.00  0.00     0.000 HD 
BRANCH  19  22
HETATM   22  C   UNL     1      -9.779  10.052  65.463  1.00  0.00    -0.289 C  
BRANCH  22  23
HETATM   23  N   UNL     1     -10.889  10.916  64.920  1.00  0.00    -0.168 N  
HETATM   24  C   UNL     1     -11.597  12.034  65.305  1.00  0.00    -0.279 C  
HETATM   25  H   UNL     1     -11.204  10.578  64.011  1.00  0.00     0.000 HD 
HETATM   26  O   UNL     1     -12.277  12.615  64.452  1.00  0.00    -0.396 OA 
BRANCH  24  27
HETATM   27  C   UNL     1     -11.632  12.470  66.779  1.00  0.00    -0.382 C  
BRANCH  27  28
HETATM   28  O   UNL     1     -12.244  13.672  67.217  1.00  0.00    -0.366 OA 
BRANCH  28  29
HETATM   29  C   UNL     1     -11.431  14.713  67.644  1.00  0.00    -0.346 A  
HETATM   30  C   UNL     1     -10.331  15.521  65.370  1.00  0.00    -0.422 C  
HETATM   31  C   UNL     1     -10.618  15.564  66.851  1.00  0.00    -0.307 A  
HETATM   32  C   UNL     1      -9.960  16.653  67.474  1.00  0.00    -0.264 A  
HETATM   33  C   UNL     1     -10.064  16.906  68.833  1.00  0.00    -0.297 A  
HETATM   34  C   UNL     1     -10.822  16.056  69.619  1.00  0.00    -0.329 A  
HETATM   35  C   UNL     1     -11.497  14.958  69.049  1.00  0.00    -0.322 A  
HETATM   36  C   UNL     1     -12.270  14.074  69.997  1.00  0.00    -0.414 C  
ENDBRANCH  28  29
ENDBRANCH  27  28
ENDBRANCH  24  27
ENDBRANCH  22  23
BRANCH  22  37
HETATM   37  C   UNL     1      -8.327  10.595  65.360  1.00  0.00    -0.142 C  
BRANCH  37  38
HETATM   38  C   UNL     1      -7.427   9.786  64.467  1.00  0.00    -0.135 A  
HETATM   39  C   UNL     1      -5.772   8.091  62.975  1.00  0.00    -0.064 A  
HETATM   40  C   UNL     1      -6.040   9.833  64.627  1.00  0.00    -0.095 A  
HETATM   41  C   UNL     1      -7.144   8.091  62.759  1.00  0.00    -0.087 A  
HETATM   42  C   UNL     1      -7.957   8.971  63.468  1.00  0.00    -0.150 A  
HETATM   43  C   UNL     1      -5.218   8.989  63.884  1.00  0.00    -0.060 A  
ENDBRANCH  37  38
ENDBRANCH  22  37
ENDBRANCH  19  22
ENDBRANCH  18  19
ENDBRANCH  17  18
BRANCH  17  44
HETATM   44  C   UNL     1      -6.626   9.573  68.853  1.00  0.00    -0.047 C  
BRANCH  44  45
HETATM   45  C   UNL     1      -6.090  10.987  68.977  1.00  0.00    -0.043 A  
HETATM   46  C   UNL     1      -5.660  11.500  70.212  1.00  0.00    -0.135 A  
HETATM   47  C   UNL     1      -6.040  11.821  67.854  1.00  0.00    -0.050 A  
HETATM   48  C   UNL     1      -5.231  12.827  70.322  1.00  0.00    -0.110 A  
HETATM   49  C   UNL     1      -5.607  13.145  67.965  1.00  0.00    -0.110 A  
HETATM   50  C   UNL     1      -5.212  13.652  69.200  1.00  0.00    -0.073 A  
ENDBRANCH  44  45
ENDBRANCH  17  44
ENDBRANCH  15  17
ENDBRANCH   3  13
TORSDOF 14
ENDMDL
MODEL      179
REMARK 921   NORMALIZED FREE ENERGY PREDICTED BY IDOCK:   -4.36 KCAL/MOL
REMARK 922        TOTAL FREE ENERGY PREDICTED BY IDOCK:  -12.48 KCAL/MOL
REMARK 923 INTER-LIGAND FREE ENERGY PREDICTED BY IDOCK:  -10.34 KCAL/MOL
REMARK 924 INTRA-LIGAND FREE ENERGY PREDICTED BY IDOCK:   -2.14 KCAL/MOL
REMARK 927      BINDING AFFINITY PREDICTED BY RF-SCORE:    0.00 PKD
ROOT
HETATM    1  C   UNL     1      -9.857   4.737  71.444  1.00  0.00    -0.255 C  
HETATM    2  C   UNL     1      -8.523   5.275  70.904  1.00  0.00    -0.121 C  
HETATM    3  C   UNL     1      -8.755   6.293  69.745  1.00  0.00    -0.137 C  
HETATM    4  C   UNL     1      -7.719   5.844  72.076  1.00  0.00    -0.102 C  
ENDROOT
BRANCH   3   5
HETATM    5  N   UNL     1      -9.449   5.661  68.598  1.00  0.00    -0.122 N  
HETATM    6  H   UNL     1      -9.010   3.443  66.272  1.00  0.00     0.000 HD 
HETATM    7  O   UNL     1      -7.925   3.946  68.401  1.00  0.00    -0.074 OA 
HETATM    8  C   UNL     1     -10.787   6.093  68.213  1.00  0.00    -0.306 C  
HETATM    9  C   UNL     1      -8.887   4.572  67.966  1.00  0.00    -0.107 C  
HETATM   10  C   UNL     1     -10.841   6.252  66.705  1.00  0.00    -0.367 C  
HETATM   11  N   UNL     1      -9.427   4.238  66.757  1.00  0.00    -0.171 N  
HETATM   12  C   UNL     1     -10.531   4.900  66.095  1.00  0.00    -0.302 C  
ENDBRANCH   3   5
BRANCH   3  13
HETATM   13  C   UNL     1      -7.435   7.011  69.329  1.00  0.00    -0.094 C  
HETATM   14  O   UNL     1      -6.324   6.663  69.715  1.00  0.00    -0.039 OA 
HETATM   15  N   UNL     1      -7.614   8.138  68.553  1.00  0.00    -0.102 N  
HETATM   16  H   UNL     1      -8.570   8.342  68.262  1.00  0.00     0.000 HD 
BRANCH  15  17
HETATM   17  C   UNL     1      -6.584   9.072  68.102  1.00  0.00    -0.060 C  
BRANCH  17  18
HETATM   18  C   UNL     1      -7.065  10.537  68.014  1.00  0.00    -0.086 C  
BRANCH  18  19
HETATM   19  C   UNL     1      -8.561  10.938  67.943  1.00  0.00    -0.130 C  
HETATM   20  O   UNL     1      -9.255  10.022  67.091  1.00  0.00    -0.140 OA 
HETATM   21  H   UNL     1     -10.172  10.268  67.047  1.00  0.00     0.000 HD 
BRANCH  19  22
HETATM   22  C   UNL     1      -8.729  12.384  67.332  1.00  0.00    -0.183 C  
BRANCH  22  23
HETATM   23  N   UNL     1     -10.037  12.590  66.610  1.00  0.00    -0.227 N  
HETATM   24  C   UNL     1     -11.369  12.747  66.929  1.00  0.00    -0.321 C  
HETATM   25  H   UNL     1      -9.896  12.621  65.601  1.00  0.00     0.000 HD 
HETATM   26  O   UNL     1     -12.133  13.157  66.050  1.00  0.00    -0.410 OA 
BRANCH  24  27
HETATM   27  C   UNL     1     -11.901  12.310  68.304  1.00  0.00    -0.310 C  
BRANCH  27  28
HETATM   28  O   UNL     1     -11.399  12.822  69.527  1.00  0.00    -0.231 OA 
BRANCH  28  29
HETATM   29  C   UNL     1     -12.301  13.316  70.460  1.00  0.00    -0.316 A  
HETATM   30  C   UNL     1     -13.044  11.108  71.728  1.00  0.00    -0.536 C  
HETATM   31  C   UNL     1     -13.001  12.592  71.461  1.00  0.00    -0.380 A  
HETATM   32  C   UNL     1     -13.782  13.310  72.399  1.00  0.00    -0.678 A  
HETATM   33  C   UNL     1     -13.906  14.691  72.364  1.00  0.00    -0.580 A  
HETATM   34  C   UNL     1     -13.259  15.398  71.365  1.00  0.00    -0.578 A  
HETATM   35  C   UNL     1     -12.469  14.733  70.406  1.00  0.00    -0.405 A  
HETATM   36  C   UNL     1     -11.832  15.592  69.342  1.00  0.00    -0.392 C  
ENDBRANCH  28  29
ENDBRANCH  27  28
ENDBRANCH  24  27
ENDBRANCH  22  23
BRANCH  22  37
HETATM   37  C   UNL     1      -8.254  13.506  68.295  1.00  0.00    -0.157 C  
BRANCH  37  38
HETATM   38  C   UNL     1      -7.939  14.811  67.616  1.00  0.00    -0.191 A  
HETATM   39  C   UNL     1      -7.257  17.101  66.156  1.00  0.00    -0.253 A  
HETATM   40  C   UNL     1      -6.705  15.435  67.817  1.00  0.00    -0.187 A  
HETATM   41  C   UNL     1      -8.513  16.526  66.005  1.00  0.00    -0.206 A  
HETATM   42  C   UNL     1      -8.865  15.417  66.768  1.00  0.00    -0.300 A  
HETATM   43  C   UNL     1      -6.368  16.575  67.090  1.00  0.00    -0.220 A  
ENDBRANCH  37  38
ENDBRANCH  22  37
ENDBRANCH  19  22
ENDBRANCH  18  19
ENDBRANCH  17  18
BRANCH  17  44
HETATM   44  C   UNL     1      -5.700   8.528  66.958  1.00  0.00    -0.042 C  
BRANCH  44  45
HETATM   45  C   UNL     1      -6.456   8.291  65.665  1.00  0.00    -0.052 A  
HETATM   46  C   UNL     1      -6.529   9.279  64.669  1.00  0.00    -0.077 A  
HETATM   47  C   UNL     1      -7.124   7.079  65.452  1.00  0.00    -0.068 A  
HETATM   48  C   UNL     1      -7.286   9.070  63.511  1.00  0.00    -0.097 A  
HETATM   49  C   UNL     1      -7.876   6.870  64.293  1.00  0.00    -0.104 A  
HETATM   50  C   UNL     1      -7.965   7.868  63.327  1.00  0.00    -0.125 A  
ENDBRANCH  44  45
ENDBRANCH  17  44
ENDBRANCH  15  17
ENDBRANCH   3  13
TORSDOF 14
ENDMDL
MODEL      180
REMARK 921   NORMALIZED FREE ENERGY PREDICTED BY IDOCK:   -4.33 KCAL/MOL
REMARK 922        TOTAL FREE ENERGY PREDICTED BY IDOCK:  -12.43 KCAL/MOL
REMARK 923 INTER-LIGAND FREE ENERGY PREDICTED BY IDOCK:  -10.17 KCAL/MOL
REMARK 924 INTRA-LIGAND FREE ENERGY PREDICTED BY IDOCK:   -2.26 KCAL/MOL
REMARK 927      BINDING AFFINITY PREDICTED BY RF-SCORE:    0.00 PKD
ROOT
HETATM    1  C   UNL     1     -10.827   5.888  73.888  1.00  0.00    -0.055 C  
HETATM    2  C   UNL     1     -10.549   6.013  72.382  1.00  0.00    -0.254 C  
HETATM    3  C   UNL     1      -9.585   4.888  71.893  1.00  0.00    -0.154 C  
HETATM    4  C   UNL     1     -11.888   6.047  71.642  1.00  0.00    -0.142 C  
ENDROOT
BRANCH   3   5
HETATM    5  N   UNL     1      -8.270   4.967  72.571  1.00  0.00    -0.114 N  
HETATM    6  H   UNL     1      -6.300   3.257  74.500  1.00  0.00     0.000 HD 
HETATM    7  O   UNL     1      -8.194   2.717  73.056  1.00  0.00    -0.067 OA 
HETATM    8  C   UNL     1      -7.461   6.176  72.481  1.00  0.00    -0.097 C  
HETATM    9  C   UNL     1      -7.742   3.851  73.185  1.00  0.00    -0.075 C  
HETATM   10  C   UNL     1      -6.924   6.517  73.858  1.00  0.00    -0.081 C  
HETATM   11  N   UNL     1      -6.689   4.073  74.027  1.00  0.00    -0.054 N  
HETATM   12  C   UNL     1      -6.072   5.351  74.314  1.00  0.00    -0.058 C  
ENDBRANCH   3   5
BRANCH   3  13
HETATM   13  C   UNL     1      -9.460   4.866  70.338  1.00  0.00    -0.167 C  
HETATM   14  O   UNL     1      -9.107   3.879  69.702  1.00  0.00    -0.094 OA 
HETATM   15  N   UNL     1      -9.695   6.080  69.725  1.00  0.00    -0.155 N  
HETATM   16  H   UNL     1     -10.003   6.842  70.329  1.00  0.00     0.000 HD 
BRANCH  15  17
HETATM   17  C   UNL     1      -9.550   6.394  68.306  1.00  0.00    -0.123 C  
BRANCH  17  18
HETATM   18  C   UNL     1      -9.327   7.895  68.018  1.00  0.00    -0.152 C  
BRANCH  18  19
HETATM   19  C   UNL     1     -10.271   8.739  67.123  1.00  0.00    -0.276 C  
HETATM   20  O   UNL     1      -9.872   8.604  65.756  1.00  0.00    -0.466 OA 
HETATM   21  H   UNL     1     -10.450   9.122  65.208  1.00  0.00     0.000 HD 
BRANCH  19  22
HETATM   22  C   UNL     1     -10.187  10.270  67.500  1.00  0.00    -0.210 C  
BRANCH  22  23
HETATM   23  N   UNL     1     -11.296  11.103  66.909  1.00  0.00    -0.190 N  
HETATM   24  C   UNL     1     -11.490  12.401  66.489  1.00  0.00    -0.371 C  
HETATM   25  H   UNL     1     -12.143  10.548  66.784  1.00  0.00     0.000 HD 
HETATM   26  O   UNL     1     -12.488  12.650  65.807  1.00  0.00    -0.607 OA 
BRANCH  24  27
HETATM   27  C   UNL     1     -10.551  13.524  66.962  1.00  0.00    -0.269 C  
BRANCH  27  28
HETATM   28  O   UNL     1      -9.566  14.112  66.127  1.00  0.00    -0.291 OA 
BRANCH  28  29
HETATM   29  C   UNL     1      -8.846  15.195  66.612  1.00  0.00    -0.286 A  
HETATM   30  C   UNL     1     -10.362  17.241  65.874  1.00  0.00    -0.287 C  
HETATM   31  C   UNL     1      -9.194  16.570  66.552  1.00  0.00    -0.300 A  
HETATM   32  C   UNL     1      -8.376  17.509  67.226  1.00  0.00    -0.225 A  
HETATM   33  C   UNL     1      -7.237  17.140  67.924  1.00  0.00    -0.177 A  
HETATM   34  C   UNL     1      -6.869  15.806  67.952  1.00  0.00    -0.161 A  
HETATM   35  C   UNL     1      -7.647  14.830  67.298  1.00  0.00    -0.195 A  
HETATM   36  C   UNL     1      -7.143  13.409  67.363  1.00  0.00    -0.108 C  
ENDBRANCH  28  29
ENDBRANCH  27  28
ENDBRANCH  24  27
ENDBRANCH  22  23
BRANCH  22  37
HETATM   37  C   UNL     1      -9.824  10.507  68.991  1.00  0.00    -0.224 C  
BRANCH  37  38
HETATM   38  C   UNL     1     -11.011  10.573  69.912  1.00  0.00    -0.359 A  
HETATM   39  C   UNL     1     -13.058  10.767  71.814  1.00  0.00    -0.573 A  
HETATM   40  C   UNL     1     -11.410   9.448  70.638  1.00  0.00    -0.352 A  
HETATM   41  C   UNL     1     -12.715  11.871  71.044  1.00  0.00    -0.354 A  
HETATM   42  C   UNL     1     -11.731  11.757  70.066  1.00  0.00    -0.386 A  
HETATM   43  C   UNL     1     -12.429   9.546  71.583  1.00  0.00    -0.476 A  
ENDBRANCH  37  38
ENDBRANCH  22  37
ENDBRANCH  19  22
ENDBRANCH  18  19
ENDBRANCH  17  18
BRANCH  17  44
HETATM   44  C   UNL     1     -10.517   5.615  67.388  1.00  0.00    -0.306 C  
BRANCH  44  45
HETATM   45  C   UNL     1      -9.834   4.951  66.208  1.00  0.00    -0.225 A  
HETATM   46  C   UNL     1      -8.434   4.936  66.088  1.00  0.00    -0.112 A  
HETATM   47  C   UNL     1     -10.597   4.359  65.195  1.00  0.00    -0.166 A  
HETATM   48  C   UNL     1      -7.821   4.378  64.960  1.00  0.00    -0.089 A  
HETATM   49  C   UNL     1      -9.983   3.798  64.071  1.00  0.00    -0.190 A  
HETATM   50  C   UNL     1      -8.596   3.815  63.949  1.00  0.00    -0.093 A  
ENDBRANCH  44  45
ENDBRANCH  17  44
ENDBRANCH  15  17
ENDBRANCH   3  13
TORSDOF 14
ENDMDL
MODEL      181
REMARK 921   NORMALIZED FREE ENERGY PREDICTED BY IDOCK:   -4.33 KCAL/MOL
REMARK 922        TOTAL FREE ENERGY PREDICTED BY IDOCK:  -12.42 KCAL/MOL
REMARK 923 INTER-LIGAND FREE ENERGY PREDICTED BY IDOCK:  -10.27 KCAL/MOL
REMARK 924 INTRA-LIGAND FREE ENERGY PREDICTED BY IDOCK:   -2.14 KCAL/MOL
REMARK 927      BINDING AFFINITY PREDICTED BY RF-SCORE:    0.00 PKD
ROOT
HETATM    1  C   UNL     1     -11.175   7.567  73.074  1.00  0.00    -0.373 C  
HETATM    2  C   UNL     1     -10.913   7.316  71.581  1.00  0.00    -0.253 C  
HETATM    3  C   UNL     1      -9.961   6.098  71.374  1.00  0.00    -0.187 C  
HETATM    4  C   UNL     1     -12.260   7.176  70.869  1.00  0.00    -0.354 C  
ENDROOT
BRANCH   3   5
HETATM    5  N   UNL     1      -8.638   6.330  71.999  1.00  0.00    -0.131 N  
HETATM    6  H   UNL     1      -6.589   5.048  74.163  1.00  0.00     0.000 HD 
HETATM    7  O   UNL     1      -8.490   4.208  72.881  1.00  0.00    -0.098 OA 
HETATM    8  C   UNL     1      -7.865   7.523  71.675  1.00  0.00    -0.086 C  
HETATM    9  C   UNL     1      -8.068   5.358  72.794  1.00  0.00    -0.109 C  
HETATM   10  C   UNL     1      -7.316   8.121  72.956  1.00  0.00    -0.161 C  
HETATM   11  N   UNL     1      -7.009   5.755  73.559  1.00  0.00    -0.084 N  
HETATM   12  C   UNL     1      -6.424   7.079  73.598  1.00  0.00    -0.066 C  
ENDBRANCH   3   5
BRANCH   3  13
HETATM   13  C   UNL     1      -9.854   5.692  69.872  1.00  0.00    -0.189 C  
HETATM   14  O   UNL     1      -9.855   4.529  69.483  1.00  0.00    -0.204 OA 
HETATM   15  N   UNL     1      -9.667   6.749  69.004  1.00  0.00    -0.145 N  
HETATM   16  H   UNL     1      -9.699   7.683  69.411  1.00  0.00     0.000 HD 
BRANCH  15  17
HETATM   17  C   UNL     1      -9.427   6.676  67.564  1.00  0.00    -0.126 C  
BRANCH  17  18
HETATM   18  C   UNL     1      -8.911   7.996  66.950  1.00  0.00    -0.146 C  
BRANCH  18  19
HETATM   19  C   UNL     1      -9.834   9.028  66.254  1.00  0.00    -0.291 C  
HETATM   20  O   UNL     1      -9.344   9.288  64.935  1.00  0.00    -0.416 OA 
HETATM   21  H   UNL     1      -9.910   9.921  64.509  1.00  0.00     0.000 HD 
BRANCH  19  22
HETATM   22  C   UNL     1      -9.844  10.397  67.041  1.00  0.00    -0.191 C  
BRANCH  22  23
HETATM   23  N   UNL     1      -8.623  11.248  66.794  1.00  0.00    -0.153 N  
HETATM   24  C   UNL     1      -7.912  12.232  67.447  1.00  0.00    -0.171 C  
HETATM   25  H   UNL     1      -8.205  11.034  65.889  1.00  0.00     0.000 HD 
HETATM   26  O   UNL     1      -6.788  12.515  67.024  1.00  0.00    -0.097 OA 
BRANCH  24  27
HETATM   27  C   UNL     1      -8.555  13.032  68.593  1.00  0.00     0.045 C  
BRANCH  27  28
HETATM   28  O   UNL     1      -8.192  14.367  68.903  1.00  0.00    -0.141 OA 
BRANCH  28  29
HETATM   29  C   UNL     1      -8.964  15.400  68.388  1.00  0.00    -0.189 A  
HETATM   30  C   UNL     1     -11.355  14.857  69.399  1.00  0.00    -0.312 C  
HETATM   31  C   UNL     1     -10.339  15.660  68.625  1.00  0.00    -0.216 A  
HETATM   32  C   UNL     1     -10.907  16.847  68.101  1.00  0.00    -0.351 A  
HETATM   33  C   UNL     1     -10.177  17.754  67.349  1.00  0.00    -0.353 A  
HETATM   34  C   UNL     1      -8.846  17.486  67.080  1.00  0.00    -0.246 A  
HETATM   35  C   UNL     1      -8.231  16.319  67.577  1.00  0.00    -0.165 A  
HETATM   36  C   UNL     1      -6.785  16.104  67.201  1.00  0.00    -0.227 C  
ENDBRANCH  28  29
ENDBRANCH  27  28
ENDBRANCH  24  27
ENDBRANCH  22  23
BRANCH  22  37
HETATM   37  C   UNL     1     -11.228  11.100  67.015  1.00  0.00    -0.291 C  
BRANCH  37  38
HETATM   38  C   UNL     1     -11.403  12.079  65.886  1.00  0.00    -0.391 A  
HETATM   39  C   UNL     1     -11.973  13.819  63.767  1.00  0.00    -0.365 A  
HETATM   40  C   UNL     1     -11.140  11.697  64.569  1.00  0.00    -0.365 A  
HETATM   41  C   UNL     1     -12.169  14.231  65.079  1.00  0.00    -0.438 A  
HETATM   42  C   UNL     1     -11.838  13.381  66.131  1.00  0.00    -0.427 A  
HETATM   43  C   UNL     1     -11.423  12.563  63.515  1.00  0.00    -0.570 A  
ENDBRANCH  37  38
ENDBRANCH  22  37
ENDBRANCH  19  22
ENDBRANCH  18  19
ENDBRANCH  17  18
BRANCH  17  44
HETATM   44  C   UNL     1     -10.503   5.886  66.787  1.00  0.00    -0.344 C  
BRANCH  44  45
HETATM   45  C   UNL     1      -9.939   4.752  65.951  1.00  0.00    -0.245 A  
HETATM   46  C   UNL     1      -8.694   4.173  66.249  1.00  0.00    -0.115 A  
HETATM   47  C   UNL     1     -10.647   4.279  64.840  1.00  0.00    -0.160 A  
HETATM   48  C   UNL     1      -8.158   3.174  65.429  1.00  0.00    -0.086 A  
HETATM   49  C   UNL     1     -10.111   3.279  64.024  1.00  0.00    -0.188 A  
HETATM   50  C   UNL     1      -8.864   2.733  64.312  1.00  0.00    -0.102 A  
ENDBRANCH  44  45
ENDBRANCH  17  44
ENDBRANCH  15  17
ENDBRANCH   3  13
TORSDOF 14
ENDMDL
MODEL      182
REMARK 921   NORMALIZED FREE ENERGY PREDICTED BY IDOCK:   -4.32 KCAL/MOL
REMARK 922        TOTAL FREE ENERGY PREDICTED BY IDOCK:  -12.41 KCAL/MOL
REMARK 923 INTER-LIGAND FREE ENERGY PREDICTED BY IDOCK:   -9.11 KCAL/MOL
REMARK 924 INTRA-LIGAND FREE ENERGY PREDICTED BY IDOCK:   -3.30 KCAL/MOL
REMARK 927      BINDING AFFINITY PREDICTED BY RF-SCORE:    0.00 PKD
ROOT
HETATM    1  C   UNL     1      -8.451   5.697  64.741  1.00  0.00    -0.102 C  
HETATM    2  C   UNL     1      -7.978   6.610  65.883  1.00  0.00    -0.112 C  
HETATM    3  C   UNL     1      -7.076   5.831  66.889  1.00  0.00    -0.070 C  
HETATM    4  C   UNL     1      -7.306   7.841  65.273  1.00  0.00    -0.078 C  
ENDROOT
BRANCH   3   5
HETATM    5  N   UNL     1      -7.810   4.710  67.523  1.00  0.00    -0.089 N  
HETATM    6  H   UNL     1     -10.448   4.086  69.304  1.00  0.00     0.000 HD 
HETATM    7  O   UNL     1      -9.712   5.949  67.907  1.00  0.00    -0.113 OA 
HETATM    8  C   UNL     1      -7.287   3.351  67.456  1.00  0.00    -0.059 C  
HETATM    9  C   UNL     1      -9.057   4.924  68.069  1.00  0.00    -0.114 C  
HETATM   10  C   UNL     1      -7.397   2.711  68.827  1.00  0.00    -0.048 C  
HETATM   11  N   UNL     1      -9.532   3.934  68.881  1.00  0.00    -0.170 N  
HETATM   12  C   UNL     1      -8.864   2.690  69.202  1.00  0.00    -0.097 C  
ENDBRANCH   3   5
BRANCH   3  13
HETATM   13  C   UNL     1      -6.412   6.782  67.931  1.00  0.00    -0.050 C  
HETATM   14  O   UNL     1      -5.272   6.631  68.356  1.00  0.00    -0.010 OA 
HETATM   15  N   UNL     1      -7.243   7.772  68.416  1.00  0.00    -0.090 N  
HETATM   16  H   UNL     1      -8.168   7.837  67.992  1.00  0.00     0.000 HD 
BRANCH  15  17
HETATM   17  C   UNL     1      -6.942   8.739  69.470  1.00  0.00    -0.055 C  
BRANCH  17  18
HETATM   18  C   UNL     1      -8.172   9.149  70.310  1.00  0.00    -0.170 C  
BRANCH  18  19
HETATM   19  C   UNL     1      -9.220   8.135  70.833  1.00  0.00    -0.151 C  
HETATM   20  O   UNL     1      -8.842   6.814  70.432  1.00  0.00    -0.149 OA 
HETATM   21  H   UNL     1      -9.485   6.192  70.753  1.00  0.00     0.000 HD 
BRANCH  19  22
HETATM   22  C   UNL     1     -10.646   8.431  70.224  1.00  0.00    -0.227 C  
BRANCH  22  23
HETATM   23  N   UNL     1     -10.642   8.602  68.726  1.00  0.00    -0.361 N  
HETATM   24  C   UNL     1     -10.765   9.627  67.812  1.00  0.00    -0.257 C  
HETATM   25  H   UNL     1     -10.513   7.707  68.256  1.00  0.00     0.000 HD 
HETATM   26  O   UNL     1     -10.446   9.404  66.641  1.00  0.00    -0.233 OA 
BRANCH  24  27
HETATM   27  C   UNL     1     -11.393  10.970  68.222  1.00  0.00    -0.299 C  
BRANCH  27  28
HETATM   28  O   UNL     1     -12.182  11.756  67.343  1.00  0.00    -0.501 OA 
BRANCH  28  29
HETATM   29  C   UNL     1     -11.734  13.026  67.007  1.00  0.00    -0.383 A  
HETATM   30  C   UNL     1     -11.845  14.283  69.339  1.00  0.00    -0.372 C  
HETATM   31  C   UNL     1     -11.537  14.136  67.870  1.00  0.00    -0.370 A  
HETATM   32  C   UNL     1     -10.948  15.312  67.344  1.00  0.00    -0.321 A  
HETATM   33  C   UNL     1     -10.576  15.427  66.013  1.00  0.00    -0.330 A  
HETATM   34  C   UNL     1     -10.803  14.363  65.158  1.00  0.00    -0.397 A  
HETATM   35  C   UNL     1     -11.387  13.170  65.630  1.00  0.00    -0.328 A  
HETATM   36  C   UNL     1     -11.620  12.083  64.610  1.00  0.00    -0.364 C  
ENDBRANCH  28  29
ENDBRANCH  27  28
ENDBRANCH  24  27
ENDBRANCH  22  23
BRANCH  22  37
HETATM   37  C   UNL     1     -11.765   7.551  70.845  1.00  0.00    -0.307 C  
BRANCH  37  38
HETATM   38  C   UNL     1     -11.352   6.815  72.090  1.00  0.00    -0.307 A  
HETATM   39  C   UNL     1     -10.345   5.439  74.312  1.00  0.00    -0.302 A  
HETATM   40  C   UNL     1     -11.404   5.420  72.140  1.00  0.00    -0.149 A  
HETATM   41  C   UNL     1     -10.357   6.828  74.299  1.00  0.00    -0.234 A  
HETATM   42  C   UNL     1     -10.903   7.508  73.214  1.00  0.00    -0.409 A  
HETATM   43  C   UNL     1     -10.903   4.737  73.246  1.00  0.00    -0.351 A  
ENDBRANCH  37  38
ENDBRANCH  22  37
ENDBRANCH  19  22
ENDBRANCH  18  19
ENDBRANCH  17  18
BRANCH  17  44
HETATM   44  C   UNL     1      -5.951   9.844  69.045  1.00  0.00    -0.034 C  
BRANCH  44  45
HETATM   45  C   UNL     1      -6.626  11.093  68.511  1.00  0.00    -0.060 A  
HETATM   46  C   UNL     1      -6.610  12.298  69.233  1.00  0.00    -0.099 A  
HETATM   47  C   UNL     1      -7.305  11.057  67.287  1.00  0.00    -0.106 A  
HETATM   48  C   UNL     1      -7.293  13.423  68.758  1.00  0.00    -0.076 A  
HETATM   49  C   UNL     1      -7.983  12.183  66.813  1.00  0.00    -0.023 A  
HETATM   50  C   UNL     1      -7.986  13.363  67.551  1.00  0.00    -0.186 A  
ENDBRANCH  44  45
ENDBRANCH  17  44
ENDBRANCH  15  17
ENDBRANCH   3  13
TORSDOF 14
ENDMDL
MODEL      183
REMARK 921   NORMALIZED FREE ENERGY PREDICTED BY IDOCK:   -4.29 KCAL/MOL
REMARK 922        TOTAL FREE ENERGY PREDICTED BY IDOCK:  -12.36 KCAL/MOL
REMARK 923 INTER-LIGAND FREE ENERGY PREDICTED BY IDOCK:  -10.82 KCAL/MOL
REMARK 924 INTRA-LIGAND FREE ENERGY PREDICTED BY IDOCK:   -1.54 KCAL/MOL
REMARK 927      BINDING AFFINITY PREDICTED BY RF-SCORE:    0.00 PKD
ROOT
HETATM    1  C   UNL     1      -5.908   5.153  67.140  1.00  0.00    -0.025 C  
HETATM    2  C   UNL     1      -6.669   6.468  67.372  1.00  0.00    -0.067 C  
HETATM    3  C   UNL     1      -8.190   6.205  67.593  1.00  0.00    -0.113 C  
HETATM    4  C   UNL     1      -5.997   7.221  68.523  1.00  0.00    -0.027 C  
ENDROOT
BRANCH   3   5
HETATM    5  N   UNL     1      -8.808   5.565  66.408  1.00  0.00    -0.122 N  
HETATM    6  H   UNL     1     -10.855   3.188  65.581  1.00  0.00     0.000 HD 
HETATM    7  O   UNL     1     -10.389   4.426  67.634  1.00  0.00     0.034 OA 
HETATM    8  C   UNL     1      -8.459   6.004  65.062  1.00  0.00    -0.089 C  
HETATM    9  C   UNL     1      -9.815   4.637  66.570  1.00  0.00    -0.223 C  
HETATM   10  C   UNL     1      -8.221   4.786  64.190  1.00  0.00    -0.118 C  
HETATM   11  N   UNL     1     -10.122   3.888  65.470  1.00  0.00    -0.123 N  
HETATM   12  C   UNL     1      -9.510   3.990  64.162  1.00  0.00    -0.160 C  
ENDBRANCH   3   5
BRANCH   3  13
HETATM   13  C   UNL     1      -8.943   7.494  68.042  1.00  0.00    -0.129 C  
HETATM   14  O   UNL     1      -9.799   8.050  67.362  1.00  0.00    -0.159 OA 
HETATM   15  N   UNL     1      -8.510   8.025  69.241  1.00  0.00    -0.134 N  
HETATM   16  H   UNL     1      -7.808   7.486  69.748  1.00  0.00     0.000 HD 
BRANCH  15  17
HETATM   17  C   UNL     1      -8.945   9.273  69.862  1.00  0.00    -0.183 C  
BRANCH  17  18
HETATM   18  C   UNL     1      -8.171  10.517  69.373  1.00  0.00    -0.128 C  
BRANCH  18  19
HETATM   19  C   UNL     1      -8.861  11.855  69.001  1.00  0.00     0.311 C  
HETATM   20  O   UNL     1     -10.280  11.683  69.044  1.00  0.00    -0.361 OA 
HETATM   21  H   UNL     1     -10.703  12.503  68.816  1.00  0.00     0.000 HD 
BRANCH  19  22
HETATM   22  C   UNL     1      -8.475  12.301  67.536  1.00  0.00    -0.172 C  
BRANCH  22  23
HETATM   23  N   UNL     1      -7.159  13.031  67.450  1.00  0.00    -0.274 N  
HETATM   24  C   UNL     1      -6.714  14.333  67.374  1.00  0.00     0.031 C  
HETATM   25  H   UNL     1      -6.377  12.376  67.446  1.00  0.00     0.000 HD 
HETATM   26  O   UNL     1      -5.516  14.552  67.581  1.00  0.00    -0.312 OA 
BRANCH  24  27
HETATM   27  C   UNL     1      -7.661  15.460  66.927  1.00  0.00    -0.124 C  
BRANCH  27  28
HETATM   28  O   UNL     1      -8.157  16.450  67.813  1.00  0.00    -0.153 OA 
BRANCH  28  29
HETATM   29  C   UNL     1      -8.778  17.569  67.275  1.00  0.00    -0.230 A  
HETATM   30  C   UNL     1     -10.695  16.479  65.801  1.00  0.00    -0.232 C  
HETATM   31  C   UNL     1      -9.916  17.610  66.427  1.00  0.00    -0.337 A  
HETATM   32  C   UNL     1     -10.471  18.869  66.092  1.00  0.00    -0.521 A  
HETATM   33  C   UNL     1      -9.932  20.064  66.543  1.00  0.00    -0.603 A  
HETATM   34  C   UNL     1      -8.799  20.033  67.336  1.00  0.00    -0.428 A  
HETATM   35  C   UNL     1      -8.206  18.807  67.699  1.00  0.00    -0.282 A  
HETATM   36  C   UNL     1      -6.956  18.883  68.540  1.00  0.00    -0.299 C  
ENDBRANCH  28  29
ENDBRANCH  27  28
ENDBRANCH  24  27
ENDBRANCH  22  23
BRANCH  22  37
HETATM   37  C   UNL     1      -8.761  11.203  66.475  1.00  0.00    -0.174 C  
BRANCH  37  38
HETATM   38  C   UNL     1      -9.886  11.532  65.533  1.00  0.00    -0.269 A  
HETATM   39  C   UNL     1     -11.863  12.370  63.735  1.00  0.00    -0.587 A  
HETATM   40  C   UNL     1     -11.033  12.181  65.996  1.00  0.00    -0.332 A  
HETATM   41  C   UNL     1     -10.759  11.662  63.277  1.00  0.00    -0.404 A  
HETATM   42  C   UNL     1      -9.804  11.205  64.180  1.00  0.00    -0.340 A  
HETATM   43  C   UNL     1     -12.016  12.597  65.101  1.00  0.00    -0.474 A  
ENDBRANCH  37  38
ENDBRANCH  22  37
ENDBRANCH  19  22
ENDBRANCH  18  19
ENDBRANCH  17  18
BRANCH  17  44
HETATM   44  C   UNL     1      -9.246   9.153  71.372  1.00  0.00    -0.208 C  
BRANCH  44  45
HETATM   45  C   UNL     1     -10.726   9.061  71.691  1.00  0.00    -0.441 A  
HETATM   46  C   UNL     1     -11.267   7.934  72.333  1.00  0.00    -0.409 A  
HETATM   47  C   UNL     1     -11.591  10.098  71.323  1.00  0.00    -0.387 A  
HETATM   48  C   UNL     1     -12.644   7.836  72.562  1.00  0.00    -0.009 A  
HETATM   49  C   UNL     1     -12.966  10.000  71.556  1.00  0.00    -0.535 A  
HETATM   50  C   UNL     1     -13.494   8.866  72.166  1.00  0.00    -0.497 A  
ENDBRANCH  44  45
ENDBRANCH  17  44
ENDBRANCH  15  17
ENDBRANCH   3  13
TORSDOF 14
ENDMDL
MODEL      184
REMARK 921   NORMALIZED FREE ENERGY PREDICTED BY IDOCK:   -4.23 KCAL/MOL
REMARK 922        TOTAL FREE ENERGY PREDICTED BY IDOCK:  -12.24 KCAL/MOL
REMARK 923 INTER-LIGAND FREE ENERGY PREDICTED BY IDOCK:  -10.15 KCAL/MOL
REMARK 924 INTRA-LIGAND FREE ENERGY PREDICTED BY IDOCK:   -2.10 KCAL/MOL
REMARK 927      BINDING AFFINITY PREDICTED BY RF-SCORE:    0.00 PKD
ROOT
HETATM    1  C   UNL     1     -10.446  17.300  69.879  1.00  0.00     0.285 C  
HETATM    2  C   UNL     1     -10.300  15.813  69.519  1.00  0.00    -0.272 C  
HETATM    3  C   UNL     1     -11.668  15.072  69.631  1.00  0.00    -0.321 C  
HETATM    4  C   UNL     1      -9.652  15.710  68.136  1.00  0.00    -0.196 C  
ENDROOT
BRANCH   3   5
HETATM    5  N   UNL     1     -12.199  15.119  71.014  1.00  0.00    -0.305 N  
HETATM    6  H   UNL     1     -14.877  15.875  72.682  1.00  0.00     0.000 HD 
HETATM    7  O   UNL     1     -14.390  15.356  70.346  1.00  0.00     0.248 OA 
HETATM    8  C   UNL     1     -11.348  14.778  72.146  1.00  0.00     0.254 C  
HETATM    9  C   UNL     1     -13.539  15.361  71.230  1.00  0.00    -0.505 C  
HETATM   10  C   UNL     1     -11.543  15.809  73.241  1.00  0.00    -0.151 C  
HETATM   11  N   UNL     1     -13.890  15.679  72.512  1.00  0.00    -0.566 N  
HETATM   12  C   UNL     1     -13.001  15.765  73.651  1.00  0.00    -0.549 C  
ENDBRANCH   3   5
BRANCH   3  13
HETATM   13  C   UNL     1     -11.590  13.620  69.066  1.00  0.00    -0.312 C  
HETATM   14  O   UNL     1     -12.359  12.724  69.394  1.00  0.00    -0.128 OA 
HETATM   15  N   UNL     1     -10.522  13.389  68.222  1.00  0.00    -0.244 N  
HETATM   16  H   UNL     1      -9.945  14.196  67.988  1.00  0.00     0.000 HD 
BRANCH  15  17
HETATM   17  C   UNL     1     -10.128  12.114  67.627  1.00  0.00    -0.199 C  
BRANCH  17  18
HETATM   18  C   UNL     1      -9.428  11.154  68.614  1.00  0.00    -0.196 C  
BRANCH  18  19
HETATM   19  C   UNL     1      -9.065   9.689  68.262  1.00  0.00    -0.123 C  
HETATM   20  O   UNL     1     -10.074   9.144  67.407  1.00  0.00    -0.197 OA 
HETATM   21  H   UNL     1      -9.852   8.246  67.191  1.00  0.00     0.000 HD 
BRANCH  19  22
HETATM   22  C   UNL     1      -9.001   8.794  69.561  1.00  0.00    -0.145 C  
BRANCH  22  23
HETATM   23  N   UNL     1      -7.800   7.884  69.614  1.00  0.00    -0.103 N  
HETATM   24  C   UNL     1      -7.286   6.825  68.897  1.00  0.00    -0.094 C  
HETATM   25  H   UNL     1      -7.198   8.119  70.402  1.00  0.00     0.000 HD 
HETATM   26  O   UNL     1      -6.115   6.495  69.105  1.00  0.00    -0.023 OA 
BRANCH  24  27
HETATM   27  C   UNL     1      -8.186   6.007  67.955  1.00  0.00    -0.112 C  
BRANCH  27  28
HETATM   28  O   UNL     1      -8.803   4.788  68.338  1.00  0.00    -0.100 OA 
BRANCH  28  29
HETATM   29  C   UNL     1      -8.937   4.510  69.691  1.00  0.00    -0.096 A  
HETATM   30  C   UNL     1      -6.803   3.006  70.158  1.00  0.00    -0.034 C  
HETATM   31  C   UNL     1      -8.054   3.769  70.519  1.00  0.00    -0.060 A  
HETATM   32  C   UNL     1      -8.313   3.710  71.910  1.00  0.00    -0.083 A  
HETATM   33  C   UNL     1      -9.409   4.330  72.491  1.00  0.00    -0.155 A  
HETATM   34  C   UNL     1     -10.296   5.020  71.683  1.00  0.00    -0.262 A  
HETATM   35  C   UNL     1     -10.085   5.110  70.293  1.00  0.00    -0.338 A  
HETATM   36  C   UNL     1     -11.128   5.857  69.498  1.00  0.00    -0.403 C  
ENDBRANCH  28  29
ENDBRANCH  27  28
ENDBRANCH  24  27
ENDBRANCH  22  23
BRANCH  22  37
HETATM   37  C   UNL     1      -9.371   9.575  70.851  1.00  0.00    -0.157 C  
BRANCH  37  38
HETATM   38  C   UNL     1     -10.743   9.271  71.387  1.00  0.00    -0.432 A  
HETATM   39  C   UNL     1     -13.314   8.520  72.205  1.00  0.00    -0.382 A  
HETATM   40  C   UNL     1     -11.866   9.919  70.869  1.00  0.00    -0.443 A  
HETATM   41  C   UNL     1     -12.198   7.921  72.776  1.00  0.00    -0.081 A  
HETATM   42  C   UNL     1     -10.922   8.332  72.402  1.00  0.00    -0.438 A  
HETATM   43  C   UNL     1     -13.145   9.545  71.277  1.00  0.00    -0.402 A  
ENDBRANCH  37  38
ENDBRANCH  22  37
ENDBRANCH  19  22
ENDBRANCH  18  19
ENDBRANCH  17  18
BRANCH  17  44
HETATM   44  C   UNL     1      -9.548  12.239  66.201  1.00  0.00    -0.248 C  
BRANCH  44  45
HETATM   45  C   UNL     1     -10.586  12.583  65.150  1.00  0.00    -0.322 A  
HETATM   46  C   UNL     1     -11.230  13.832  65.141  1.00  0.00    -0.320 A  
HETATM   47  C   UNL     1     -10.942  11.641  64.178  1.00  0.00    -0.442 A  
HETATM   48  C   UNL     1     -12.233  14.109  64.205  1.00  0.00    -0.449 A  
HETATM   49  C   UNL     1     -11.941  11.922  63.242  1.00  0.00    -0.441 A  
HETATM   50  C   UNL     1     -12.593  13.151  63.260  1.00  0.00    -0.105 A  
ENDBRANCH  44  45
ENDBRANCH  17  44
ENDBRANCH  15  17
ENDBRANCH   3  13
TORSDOF 14
ENDMDL
MODEL      185
REMARK 921   NORMALIZED FREE ENERGY PREDICTED BY IDOCK:   -4.23 KCAL/MOL
REMARK 922        TOTAL FREE ENERGY PREDICTED BY IDOCK:  -12.24 KCAL/MOL
REMARK 923 INTER-LIGAND FREE ENERGY PREDICTED BY IDOCK:  -11.80 KCAL/MOL
REMARK 924 INTRA-LIGAND FREE ENERGY PREDICTED BY IDOCK:   -0.44 KCAL/MOL
REMARK 927      BINDING AFFINITY PREDICTED BY RF-SCORE:    0.00 PKD
ROOT
HETATM    1  C   UNL     1      -7.681   6.987  65.570  1.00  0.00    -0.105 C  
HETATM    2  C   UNL     1      -8.594   8.222  65.581  1.00  0.00    -0.189 C  
HETATM    3  C   UNL     1      -8.896   8.685  67.040  1.00  0.00    -0.132 C  
HETATM    4  C   UNL     1      -7.956   9.305  64.708  1.00  0.00    -0.123 C  
ENDROOT
BRANCH   3   5
HETATM    5  N   UNL     1      -9.602   7.633  67.808  1.00  0.00    -0.142 N  
HETATM    6  H   UNL     1      -9.492   6.042  70.633  1.00  0.00     0.000 HD 
HETATM    7  O   UNL     1      -8.542   8.128  69.791  1.00  0.00    -0.130 OA 
HETATM    8  C   UNL     1     -10.743   6.934  67.230  1.00  0.00    -0.351 C  
HETATM    9  C   UNL     1      -9.268   7.396  69.125  1.00  0.00    -0.147 C  
HETATM   10  C   UNL     1     -10.599   5.447  67.495  1.00  0.00    -0.204 C  
HETATM   11  N   UNL     1      -9.745   6.236  69.665  1.00  0.00    -0.151 N  
HETATM   12  C   UNL     1     -10.575   5.255  68.998  1.00  0.00    -0.079 C  
ENDBRANCH   3   5
BRANCH   3  13
HETATM   13  C   UNL     1      -9.639  10.055  67.073  1.00  0.00    -0.172 C  
HETATM   14  O   UNL     1     -10.843  10.178  66.878  1.00  0.00    -0.201 OA 
HETATM   15  N   UNL     1      -8.817  11.150  67.254  1.00  0.00    -0.143 N  
HETATM   16  H   UNL     1      -7.832  10.954  67.429  1.00  0.00     0.000 HD 
BRANCH  15  17
HETATM   17  C   UNL     1      -9.204  12.559  67.223  1.00  0.00    -0.190 C  
BRANCH  17  18
HETATM   18  C   UNL     1     -10.382  12.904  68.161  1.00  0.00    -0.243 C  
BRANCH  18  19
HETATM   19  C   UNL     1     -10.817  14.357  68.479  1.00  0.00    -0.251 C  
HETATM   20  O   UNL     1     -10.468  15.206  67.382  1.00  0.00    -0.256 OA 
HETATM   21  H   UNL     1     -10.734  16.097  67.577  1.00  0.00     0.000 HD 
BRANCH  19  22
HETATM   22  C   UNL     1     -10.075  14.900  69.762  1.00  0.00    -0.003 C  
BRANCH  22  23
HETATM   23  N   UNL     1      -8.571  14.829  69.669  1.00  0.00    -0.417 N  
HETATM   24  C   UNL     1      -7.571  15.318  68.856  1.00  0.00    -0.152 C  
HETATM   25  H   UNL     1      -8.185  14.257  70.420  1.00  0.00     0.000 HD 
HETATM   26  O   UNL     1      -6.407  15.249  69.260  1.00  0.00    -0.113 OA 
BRANCH  24  27
HETATM   27  C   UNL     1      -7.892  15.824  67.439  1.00  0.00    -0.175 C  
BRANCH  27  28
HETATM   28  O   UNL     1      -7.638  17.154  67.016  1.00  0.00    -0.165 OA 
BRANCH  28  29
HETATM   29  C   UNL     1      -8.560  18.139  67.339  1.00  0.00    -0.244 A  
HETATM   30  C   UNL     1     -10.427  17.773  65.492  1.00  0.00    -0.023 C  
HETATM   31  C   UNL     1      -9.808  18.403  66.715  1.00  0.00    -0.351 A  
HETATM   32  C   UNL     1     -10.661  19.380  67.283  1.00  0.00    -0.603 A  
HETATM   33  C   UNL     1     -10.315  20.103  68.414  1.00  0.00    -0.401 A  
HETATM   34  C   UNL     1      -9.083  19.880  69.004  1.00  0.00    -0.027 A  
HETATM   35  C   UNL     1      -8.196  18.920  68.478  1.00  0.00    -0.388 A  
HETATM   36  C   UNL     1      -6.865  18.776  69.176  1.00  0.00    -0.299 C  
ENDBRANCH  28  29
ENDBRANCH  27  28
ENDBRANCH  24  27
ENDBRANCH  22  23
BRANCH  22  37
HETATM   37  C   UNL     1     -10.700  16.210  70.314  1.00  0.00    -0.235 C  
BRANCH  37  38
HETATM   38  C   UNL     1     -11.925  16.000  71.162  1.00  0.00    -0.443 A  
HETATM   39  C   UNL     1     -14.116  15.373  72.789  1.00  0.00    -0.393 A  
HETATM   40  C   UNL     1     -13.097  15.486  70.601  1.00  0.00    -0.361 A  
HETATM   41  C   UNL     1     -12.981  15.950  73.342  1.00  0.00    -0.693 A  
HETATM   42  C   UNL     1     -11.913  16.306  72.522  1.00  0.00    -0.648 A  
HETATM   43  C   UNL     1     -14.187  15.175  71.411  1.00  0.00    -0.597 A  
ENDBRANCH  37  38
ENDBRANCH  22  37
ENDBRANCH  19  22
ENDBRANCH  18  19
ENDBRANCH  17  18
BRANCH  17  44
HETATM   44  C   UNL     1      -9.194  13.182  65.810  1.00  0.00     0.267 C  
BRANCH  44  45
HETATM   45  C   UNL     1     -10.387  12.783  64.961  1.00  0.00    -0.323 A  
HETATM   46  C   UNL     1     -11.683  13.230  65.266  1.00  0.00    -0.357 A  
HETATM   47  C   UNL     1     -10.215  11.933  63.862  1.00  0.00    -0.420 A  
HETATM   48  C   UNL     1     -12.781  12.800  64.513  1.00  0.00    -0.405 A  
HETATM   49  C   UNL     1     -11.312  11.508  63.109  1.00  0.00    -0.068 A  
HETATM   50  C   UNL     1     -12.596  11.933  63.439  1.00  0.00    -0.555 A  
ENDBRANCH  44  45
ENDBRANCH  17  44
ENDBRANCH  15  17
ENDBRANCH   3  13
TORSDOF 14
ENDMDL
MODEL      186
REMARK 921   NORMALIZED FREE ENERGY PREDICTED BY IDOCK:   -4.23 KCAL/MOL
REMARK 922        TOTAL FREE ENERGY PREDICTED BY IDOCK:  -12.24 KCAL/MOL
REMARK 923 INTER-LIGAND FREE ENERGY PREDICTED BY IDOCK:   -9.32 KCAL/MOL
REMARK 924 INTRA-LIGAND FREE ENERGY PREDICTED BY IDOCK:   -2.92 KCAL/MOL
REMARK 927      BINDING AFFINITY PREDICTED BY RF-SCORE:    0.00 PKD
ROOT
HETATM    1  C   UNL     1      -8.609   2.099  63.818  1.00  0.00    -0.085 C  
HETATM    2  C   UNL     1      -8.244   2.668  65.198  1.00  0.00    -0.091 C  
HETATM    3  C   UNL     1      -8.538   4.198  65.270  1.00  0.00    -0.119 C  
HETATM    4  C   UNL     1      -8.966   1.847  66.268  1.00  0.00    -0.099 C  
ENDROOT
BRANCH   3   5
HETATM    5  N   UNL     1      -7.737   4.953  64.278  1.00  0.00    -0.077 N  
HETATM    6  H   UNL     1      -4.680   5.791  63.588  1.00  0.00     0.000 HD 
HETATM    7  O   UNL     1      -5.726   4.081  64.983  1.00  0.00    -0.013 OA 
HETATM    8  C   UNL     1      -8.390   5.663  63.186  1.00  0.00    -0.056 C  
HETATM    9  C   UNL     1      -6.360   4.884  64.305  1.00  0.00    -0.033 C  
HETATM   10  C   UNL     1      -7.774   7.043  63.053  1.00  0.00    -0.115 C  
HETATM   11  N   UNL     1      -5.699   5.822  63.564  1.00  0.00    -0.017 N  
HETATM   12  C   UNL     1      -6.303   6.855  62.749  1.00  0.00    -0.044 C  
ENDBRANCH   3   5
BRANCH   3  13
HETATM   13  C   UNL     1      -8.379   4.752  66.720  1.00  0.00    -0.106 C  
HETATM   14  O   UNL     1      -7.737   4.183  67.595  1.00  0.00    -0.078 OA 
HETATM   15  N   UNL     1      -9.096   5.903  66.977  1.00  0.00    -0.115 N  
HETATM   16  H   UNL     1      -9.587   6.319  66.185  1.00  0.00     0.000 HD 
BRANCH  15  17
HETATM   17  C   UNL     1      -9.231   6.591  68.259  1.00  0.00    -0.116 C  
BRANCH  17  18
HETATM   18  C   UNL     1     -10.694   6.881  68.661  1.00  0.00    -0.256 C  
BRANCH  18  19
HETATM   19  C   UNL     1     -11.134   7.164  70.121  1.00  0.00    -0.272 C  
HETATM   20  O   UNL     1     -12.536   6.909  70.250  1.00  0.00    -0.613 OA 
HETATM   21  H   UNL     1     -12.805   7.082  71.144  1.00  0.00     0.000 HD 
BRANCH  19  22
HETATM   22  C   UNL     1     -10.884   8.676  70.503  1.00  0.00    -0.228 C  
BRANCH  22  23
HETATM   23  N   UNL     1     -11.540   9.656  69.563  1.00  0.00    -0.444 N  
HETATM   24  C   UNL     1     -11.155  10.573  68.609  1.00  0.00    -0.267 C  
HETATM   25  H   UNL     1     -12.554   9.633  69.660  1.00  0.00     0.000 HD 
HETATM   26  O   UNL     1     -12.019  11.018  67.847  1.00  0.00    -0.620 OA 
BRANCH  24  27
HETATM   27  C   UNL     1      -9.715  11.112  68.577  1.00  0.00    -0.196 C  
BRANCH  27  28
HETATM   28  O   UNL     1      -8.957  11.227  67.384  1.00  0.00    -0.142 OA 
BRANCH  28  29
HETATM   29  C   UNL     1      -9.592  11.684  66.237  1.00  0.00    -0.221 A  
HETATM   30  C   UNL     1     -10.023  14.234  66.823  1.00  0.00    -0.266 C  
HETATM   31  C   UNL     1     -10.029  13.003  65.950  1.00  0.00    -0.270 A  
HETATM   32  C   UNL     1     -10.543  13.286  64.661  1.00  0.00    -0.421 A  
HETATM   33  C   UNL     1     -10.655  12.317  63.675  1.00  0.00    -0.501 A  
HETATM   34  C   UNL     1     -10.269  11.020  63.962  1.00  0.00    -0.420 A  
HETATM   35  C   UNL     1      -9.751  10.684  65.229  1.00  0.00    -0.315 A  
HETATM   36  C   UNL     1      -9.389   9.236  65.450  1.00  0.00    -0.292 C  
ENDBRANCH  28  29
ENDBRANCH  27  28
ENDBRANCH  24  27
ENDBRANCH  22  23
BRANCH  22  37
HETATM   37  C   UNL     1     -11.012   8.943  72.027  1.00  0.00    -0.412 C  
BRANCH  37  38
HETATM   38  C   UNL     1     -10.263   7.966  72.891  1.00  0.00    -0.397 A  
HETATM   39  C   UNL     1      -8.806   6.023  74.284  1.00  0.00    -0.128 A  
HETATM   40  C   UNL     1     -10.904   6.834  73.400  1.00  0.00    -0.282 A  
HETATM   41  C   UNL     1      -8.179   7.181  73.843  1.00  0.00    -0.156 A  
HETATM   42  C   UNL     1      -8.917   8.166  73.194  1.00  0.00    -0.330 A  
HETATM   43  C   UNL     1     -10.178   5.868  74.094  1.00  0.00    -0.291 A  
ENDBRANCH  37  38
ENDBRANCH  22  37
ENDBRANCH  19  22
ENDBRANCH  18  19
ENDBRANCH  17  18
BRANCH  17  44
HETATM   44  C   UNL     1      -8.181   7.699  68.491  1.00  0.00    -0.125 C  
BRANCH  44  45
HETATM   45  C   UNL     1      -7.263   7.430  69.668  1.00  0.00    -0.078 A  
HETATM   46  C   UNL     1      -6.606   8.476  70.337  1.00  0.00    -0.036 A  
HETATM   47  C   UNL     1      -7.033   6.117  70.095  1.00  0.00    -0.062 A  
HETATM   48  C   UNL     1      -5.711   8.206  71.378  1.00  0.00    -0.034 A  
HETATM   49  C   UNL     1      -6.142   5.849  71.138  1.00  0.00    -0.038 A  
HETATM   50  C   UNL     1      -5.473   6.892  71.773  1.00  0.00    -0.036 A  
ENDBRANCH  44  45
ENDBRANCH  17  44
ENDBRANCH  15  17
ENDBRANCH   3  13
TORSDOF 14
ENDMDL
MODEL      187
REMARK 921   NORMALIZED FREE ENERGY PREDICTED BY IDOCK:   -4.18 KCAL/MOL
REMARK 922        TOTAL FREE ENERGY PREDICTED BY IDOCK:  -12.15 KCAL/MOL
REMARK 923 INTER-LIGAND FREE ENERGY PREDICTED BY IDOCK:  -10.23 KCAL/MOL
REMARK 924 INTRA-LIGAND FREE ENERGY PREDICTED BY IDOCK:   -1.92 KCAL/MOL
REMARK 927      BINDING AFFINITY PREDICTED BY RF-SCORE:    0.00 PKD
ROOT
HETATM    1  C   UNL     1     -12.349  14.781  69.232  1.00  0.00    -0.148 C  
HETATM    2  C   UNL     1     -12.076  13.279  69.056  1.00  0.00    -0.268 C  
HETATM    3  C   UNL     1     -10.821  13.037  68.162  1.00  0.00    -0.247 C  
HETATM    4  C   UNL     1     -11.982  12.637  70.442  1.00  0.00    -0.331 C  
ENDROOT
BRANCH   3   5
HETATM    5  N   UNL     1     -11.008  13.593  66.801  1.00  0.00    -0.290 N  
HETATM    6  H   UNL     1      -9.788  15.810  64.772  1.00  0.00     0.000 HD 
HETATM    7  O   UNL     1      -8.979  14.682  66.781  1.00  0.00    -0.246 OA 
HETATM    8  C   UNL     1     -12.097  13.124  65.953  1.00  0.00    -0.444 C  
HETATM    9  C   UNL     1     -10.077  14.464  66.277  1.00  0.00    -0.297 C  
HETATM   10  C   UNL     1     -12.774  14.320  65.310  1.00  0.00    -0.358 C  
HETATM   11  N   UNL     1     -10.462  15.151  65.161  1.00  0.00    -0.401 N  
HETATM   12  C   UNL     1     -11.732  15.036  64.475  1.00  0.00    -0.368 C  
ENDBRANCH   3   5
BRANCH   3  13
HETATM   13  C   UNL     1     -10.400  11.535  68.146  1.00  0.00    -0.195 C  
HETATM   14  O   UNL     1     -11.073  10.649  67.630  1.00  0.00    -0.294 OA 
HETATM   15  N   UNL     1      -9.241  11.256  68.840  1.00  0.00    -0.366 N  
HETATM   16  H   UNL     1      -8.735  12.056  69.220  1.00  0.00     0.000 HD 
BRANCH  15  17
HETATM   17  C   UNL     1      -8.657   9.940  69.092  1.00  0.00    -0.157 C  
BRANCH  17  18
HETATM   18  C   UNL     1      -9.253   9.218  70.320  1.00  0.00    -0.273 C  
BRANCH  18  19
HETATM   19  C   UNL     1      -9.202   7.680  70.509  1.00  0.00    -0.159 C  
HETATM   20  O   UNL     1      -7.946   7.186  70.035  1.00  0.00    -0.113 OA 
HETATM   21  H   UNL     1      -7.915   6.244  70.151  1.00  0.00     0.000 HD 
BRANCH  19  22
HETATM   22  C   UNL     1     -10.341   6.971  69.675  1.00  0.00    -0.209 C  
BRANCH  22  23
HETATM   23  N   UNL     1     -11.663   6.893  70.396  1.00  0.00    -0.489 N  
HETATM   24  C   UNL     1     -12.215   7.352  71.573  1.00  0.00    -0.337 C  
HETATM   25  H   UNL     1     -12.338   6.346  69.863  1.00  0.00     0.000 HD 
HETATM   26  O   UNL     1     -13.442   7.294  71.701  1.00  0.00    -0.375 OA 
BRANCH  24  27
HETATM   27  C   UNL     1     -11.316   7.810  72.734  1.00  0.00    -0.389 C  
BRANCH  27  28
HETATM   28  O   UNL     1     -10.857   6.933  73.749  1.00  0.00    -0.289 OA 
BRANCH  28  29
HETATM   29  C   UNL     1      -9.596   6.368  73.618  1.00  0.00    -0.164 A  
HETATM   30  C   UNL     1      -8.016   8.390  74.288  1.00  0.00    -0.232 C  
HETATM   31  C   UNL     1      -8.340   6.972  73.889  1.00  0.00    -0.164 A  
HETATM   32  C   UNL     1      -7.171   6.176  73.811  1.00  0.00    -0.084 A  
HETATM   33  C   UNL     1      -7.205   4.835  73.460  1.00  0.00    -0.081 A  
HETATM   34  C   UNL     1      -8.422   4.252  73.154  1.00  0.00    -0.090 A  
HETATM   35  C   UNL     1      -9.616   4.998  73.216  1.00  0.00    -0.153 A  
HETATM   36  C   UNL     1     -10.885   4.277  72.833  1.00  0.00    -0.230 C  
ENDBRANCH  28  29
ENDBRANCH  27  28
ENDBRANCH  24  27
ENDBRANCH  22  23
BRANCH  22  37
HETATM   37  C   UNL     1     -10.358   7.406  68.184  1.00  0.00    -0.235 C  
BRANCH  37  38
HETATM   38  C   UNL     1      -9.940   6.329  67.221  1.00  0.00    -0.180 A  
HETATM   39  C   UNL     1      -9.189   4.498  65.240  1.00  0.00    -0.156 A  
HETATM   40  C   UNL     1     -10.893   5.490  66.638  1.00  0.00    -0.257 A  
HETATM   41  C   UNL     1      -8.227   5.279  65.868  1.00  0.00    -0.117 A  
HETATM   42  C   UNL     1      -8.598   6.152  66.886  1.00  0.00    -0.109 A  
HETATM   43  C   UNL     1     -10.518   4.579  65.653  1.00  0.00    -0.261 A  
ENDBRANCH  37  38
ENDBRANCH  22  37
ENDBRANCH  19  22
ENDBRANCH  18  19
ENDBRANCH  17  18
BRANCH  17  44
HETATM   44  C   UNL     1      -7.128   9.881  68.885  1.00  0.00    -0.071 C  
BRANCH  44  45
HETATM   45  C   UNL     1      -6.447  11.232  68.988  1.00  0.00    -0.069 A  
HETATM   46  C   UNL     1      -6.109  11.787  70.234  1.00  0.00    -0.116 A  
HETATM   47  C   UNL     1      -6.165  11.968  67.831  1.00  0.00    -0.073 A  
HETATM   48  C   UNL     1      -5.542  13.064  70.315  1.00  0.00    -0.145 A  
HETATM   49  C   UNL     1      -5.595  13.241  67.914  1.00  0.00    -0.125 A  
HETATM   50  C   UNL     1      -5.292  13.794  69.155  1.00  0.00    -0.077 A  
ENDBRANCH  44  45
ENDBRANCH  17  44
ENDBRANCH  15  17
ENDBRANCH   3  13
TORSDOF 14
ENDMDL
MODEL      188
REMARK 921   NORMALIZED FREE ENERGY PREDICTED BY IDOCK:   -4.18 KCAL/MOL
REMARK 922        TOTAL FREE ENERGY PREDICTED BY IDOCK:  -12.15 KCAL/MOL
REMARK 923 INTER-LIGAND FREE ENERGY PREDICTED BY IDOCK:   -8.33 KCAL/MOL
REMARK 924 INTRA-LIGAND FREE ENERGY PREDICTED BY IDOCK:   -3.82 KCAL/MOL
REMARK 927      BINDING AFFINITY PREDICTED BY RF-SCORE:    0.00 PKD
ROOT
HETATM    1  C   UNL     1     -11.774  13.176  69.496  1.00  0.00    -0.382 C  
HETATM    2  C   UNL     1     -10.845  12.154  68.822  1.00  0.00    -0.265 C  
HETATM    3  C   UNL     1     -11.504  10.741  68.776  1.00  0.00    -0.295 C  
HETATM    4  C   UNL     1     -10.445  12.696  67.448  1.00  0.00    -0.233 C  
ENDROOT
BRANCH   3   5
HETATM    5  N   UNL     1     -11.778  10.225  70.138  1.00  0.00    -0.278 N  
HETATM    6  H   UNL     1     -10.406   8.520  72.533  1.00  0.00     0.000 HD 
HETATM    7  O   UNL     1      -9.574   9.720  70.575  1.00  0.00    -0.239 OA 
HETATM    8  C   UNL     1     -13.081  10.429  70.759  1.00  0.00    -0.286 C  
HETATM    9  C   UNL     1     -10.762   9.662  70.880  1.00  0.00    -0.332 C  
HETATM   10  C   UNL     1     -13.532   9.130  71.400  1.00  0.00    -0.358 C  
HETATM   11  N   UNL     1     -11.148   8.955  71.984  1.00  0.00    -0.371 N  
HETATM   12  C   UNL     1     -12.505   8.762  72.450  1.00  0.00    -0.352 C  
ENDBRANCH   3   5
BRANCH   3  13
HETATM   13  C   UNL     1     -10.677   9.743  67.909  1.00  0.00    -0.258 C  
HETATM   14  O   UNL     1     -11.150   8.728  67.410  1.00  0.00     0.016 OA 
HETATM   15  N   UNL     1      -9.333  10.041  67.815  1.00  0.00    -0.140 N  
HETATM   16  H   UNL     1      -9.030  10.915  68.244  1.00  0.00     0.000 HD 
BRANCH  15  17
HETATM   17  C   UNL     1      -8.295   9.241  67.167  1.00  0.00    -0.124 C  
BRANCH  17  18
HETATM   18  C   UNL     1      -7.559   8.279  68.125  1.00  0.00    -0.098 C  
BRANCH  18  19
HETATM   19  C   UNL     1      -6.840   6.991  67.649  1.00  0.00    -0.074 C  
HETATM   20  O   UNL     1      -7.569   6.419  66.558  1.00  0.00    -0.091 OA 
HETATM   21  H   UNL     1      -7.128   5.629  66.266  1.00  0.00     0.000 HD 
BRANCH  19  22
HETATM   22  C   UNL     1      -6.783   5.916  68.804  1.00  0.00    -0.064 C  
BRANCH  22  23
HETATM   23  N   UNL     1      -6.685   4.496  68.308  1.00  0.00    -0.046 N  
HETATM   24  C   UNL     1      -7.223   3.265  68.616  1.00  0.00    -0.050 C  
HETATM   25  H   UNL     1      -6.039   4.426  67.522  1.00  0.00     0.000 HD 
HETATM   26  O   UNL     1      -7.091   2.350  67.797  1.00  0.00    -0.047 OA 
BRANCH  24  27
HETATM   27  C   UNL     1      -7.863   3.012  69.991  1.00  0.00    -0.043 C  
BRANCH  27  28
HETATM   28  O   UNL     1      -9.262   2.886  70.183  1.00  0.00    -0.110 OA 
BRANCH  28  29
HETATM   29  C   UNL     1      -9.870   3.661  71.161  1.00  0.00    -0.130 A  
HETATM   30  C   UNL     1     -10.229   5.963  69.895  1.00  0.00    -0.280 C  
HETATM   31  C   UNL     1     -10.341   4.995  71.046  1.00  0.00    -0.254 A  
HETATM   32  C   UNL     1     -11.050   5.563  72.133  1.00  0.00    -0.272 A  
HETATM   33  C   UNL     1     -11.284   4.872  73.312  1.00  0.00    -0.423 A  
HETATM   34  C   UNL     1     -10.792   3.586  73.445  1.00  0.00    -0.312 A  
HETATM   35  C   UNL     1     -10.079   2.974  72.395  1.00  0.00    -0.229 A  
HETATM   36  C   UNL     1      -9.558   1.581  72.653  1.00  0.00    -0.127 C  
ENDBRANCH  28  29
ENDBRANCH  27  28
ENDBRANCH  24  27
ENDBRANCH  22  23
BRANCH  22  37
HETATM   37  C   UNL     1      -5.853   6.336  69.974  1.00  0.00    -0.018 C  
BRANCH  37  38
HETATM   38  C   UNL     1      -6.519   6.338  71.323  1.00  0.00    -0.050 A  
HETATM   39  C   UNL     1      -7.971   6.255  73.716  1.00  0.00    -0.099 A  
HETATM   40  C   UNL     1      -7.193   7.473  71.780  1.00  0.00    -0.063 A  
HETATM   41  C   UNL     1      -7.243   5.146  73.303  1.00  0.00    -0.086 A  
HETATM   42  C   UNL     1      -6.484   5.208  72.139  1.00  0.00    -0.039 A  
HETATM   43  C   UNL     1      -7.914   7.431  72.971  1.00  0.00    -0.125 A  
ENDBRANCH  37  38
ENDBRANCH  22  37
ENDBRANCH  19  22
ENDBRANCH  18  19
ENDBRANCH  17  18
BRANCH  17  44
HETATM   44  C   UNL     1      -7.454  10.022  66.133  1.00  0.00    -0.109 C  
BRANCH  44  45
HETATM   45  C   UNL     1      -8.180  10.276  64.826  1.00  0.00    -0.163 A  
HETATM   46  C   UNL     1      -9.186  11.251  64.726  1.00  0.00    -0.107 A  
HETATM   47  C   UNL     1      -7.873   9.515  63.691  1.00  0.00    -0.132 A  
HETATM   48  C   UNL     1      -9.892  11.427  63.530  1.00  0.00    -0.404 A  
HETATM   49  C   UNL     1      -8.577   9.695  62.497  1.00  0.00    -0.208 A  
HETATM   50  C   UNL     1      -9.592  10.644  62.418  1.00  0.00    -0.181 A  
ENDBRANCH  44  45
ENDBRANCH  17  44
ENDBRANCH  15  17
ENDBRANCH   3  13
TORSDOF 14
ENDMDL
MODEL      189
REMARK 921   NORMALIZED FREE ENERGY PREDICTED BY IDOCK:   -4.17 KCAL/MOL
REMARK 922        TOTAL FREE ENERGY PREDICTED BY IDOCK:  -12.14 KCAL/MOL
REMARK 923 INTER-LIGAND FREE ENERGY PREDICTED BY IDOCK:   -8.21 KCAL/MOL
REMARK 924 INTRA-LIGAND FREE ENERGY PREDICTED BY IDOCK:   -3.93 KCAL/MOL
REMARK 927      BINDING AFFINITY PREDICTED BY RF-SCORE:    0.00 PKD
ROOT
HETATM    1  C   UNL     1     -11.798  15.935  69.058  1.00  0.00    -0.328 C  
HETATM    2  C   UNL     1     -11.479  14.526  68.532  1.00  0.00    -0.327 C  
HETATM    3  C   UNL     1      -9.941  14.269  68.513  1.00  0.00    -0.235 C  
HETATM    4  C   UNL     1     -12.268  13.509  69.360  1.00  0.00    -0.278 C  
ENDROOT
BRANCH   3   5
HETATM    5  N   UNL     1      -9.242  15.220  67.617  1.00  0.00    -0.186 N  
HETATM    6  H   UNL     1      -6.483  16.906  67.358  1.00  0.00     0.000 HD 
HETATM    7  O   UNL     1      -7.205  14.972  68.662  1.00  0.00    -0.106 OA 
HETATM    8  C   UNL     1      -9.888  15.706  66.404  1.00  0.00    -0.274 C  
HETATM    9  C   UNL     1      -7.926  15.553  67.856  1.00  0.00    -0.136 C  
HETATM   10  C   UNL     1      -9.679  17.204  66.298  1.00  0.00    -0.296 C  
HETATM   11  N   UNL     1      -7.451  16.640  67.179  1.00  0.00    -0.164 N  
HETATM   12  C   UNL     1      -8.186  17.451  66.231  1.00  0.00    -0.253 C  
ENDBRANCH   3   5
BRANCH   3  13
HETATM   13  C   UNL     1      -9.606  12.780  68.190  1.00  0.00    -0.223 C  
HETATM   14  O   UNL     1      -8.938  12.062  68.926  1.00  0.00     0.023 OA 
HETATM   15  N   UNL     1     -10.047  12.347  66.956  1.00  0.00    -0.213 N  
HETATM   16  H   UNL     1     -10.611  13.004  66.418  1.00  0.00     0.000 HD 
BRANCH  15  17
HETATM   17  C   UNL     1      -9.793  11.049  66.334  1.00  0.00    -0.212 C  
BRANCH  17  18
HETATM   18  C   UNL     1     -10.793   9.949  66.754  1.00  0.00    -0.085 C  
BRANCH  18  19
HETATM   19  C   UNL     1     -10.359   8.598  67.377  1.00  0.00    -0.284 C  
HETATM   20  O   UNL     1     -11.371   7.617  67.132  1.00  0.00    -0.330 OA 
HETATM   21  H   UNL     1     -11.105   6.789  67.514  1.00  0.00     0.000 HD 
BRANCH  19  22
HETATM   22  C   UNL     1     -10.185   8.727  68.941  1.00  0.00    -0.207 C  
BRANCH  22  23
HETATM   23  N   UNL     1     -11.261   8.027  69.732  1.00  0.00    -0.451 N  
HETATM   24  C   UNL     1     -11.699   7.970  71.037  1.00  0.00    -0.277 C  
HETATM   25  H   UNL     1     -11.824   7.426  69.131  1.00  0.00     0.000 HD 
HETATM   26  O   UNL     1     -12.803   7.464  71.260  1.00  0.00    -0.351 OA 
BRANCH  24  27
HETATM   27  C   UNL     1     -10.784   8.417  72.190  1.00  0.00    -0.337 C  
BRANCH  27  28
HETATM   28  O   UNL     1     -10.156   7.505  73.077  1.00  0.00    -0.231 OA 
BRANCH  28  29
HETATM   29  C   UNL     1      -9.019   6.837  72.645  1.00  0.00    -0.129 A  
HETATM   30  C   UNL     1      -7.242   8.800  72.511  1.00  0.00     0.076 C  
HETATM   31  C   UNL     1      -7.722   7.372  72.431  1.00  0.00    -0.097 A  
HETATM   32  C   UNL     1      -6.664   6.487  72.110  1.00  0.00    -0.063 A  
HETATM   33  C   UNL     1      -6.851   5.121  71.975  1.00  0.00    -0.061 A  
HETATM   34  C   UNL     1      -8.121   4.597  72.142  1.00  0.00    -0.102 A  
HETATM   35  C   UNL     1      -9.210   5.433  72.462  1.00  0.00    -0.145 A  
HETATM   36  C   UNL     1     -10.558   4.768  72.592  1.00  0.00    -0.271 C  
ENDBRANCH  28  29
ENDBRANCH  27  28
ENDBRANCH  24  27
ENDBRANCH  22  23
BRANCH  22  37
HETATM   37  C   UNL     1      -8.714   8.539  69.404  1.00  0.00    -0.136 C  
BRANCH  37  38
HETATM   38  C   UNL     1      -8.045   7.311  68.852  1.00  0.00    -0.128 A  
HETATM   39  C   UNL     1      -6.720   4.973  68.065  1.00  0.00    -0.055 A  
HETATM   40  C   UNL     1      -6.726   7.366  68.393  1.00  0.00    -0.054 A  
HETATM   41  C   UNL     1      -8.053   4.922  68.451  1.00  0.00    -0.085 A  
HETATM   42  C   UNL     1      -8.722   6.093  68.795  1.00  0.00    -0.119 A  
HETATM   43  C   UNL     1      -6.068   6.203  68.001  1.00  0.00    -0.024 A  
ENDBRANCH  37  38
ENDBRANCH  22  37
ENDBRANCH  19  22
ENDBRANCH  18  19
ENDBRANCH  17  18
BRANCH  17  44
HETATM   44  C   UNL     1      -8.297  10.675  66.248  1.00  0.00    -0.155 C  
BRANCH  44  45
HETATM   45  C   UNL     1      -7.875  10.171  64.880  1.00  0.00    -0.147 A  
HETATM   46  C   UNL     1      -8.817   9.930  63.867  1.00  0.00    -0.250 A  
HETATM   47  C   UNL     1      -6.525   9.910  64.613  1.00  0.00    -0.119 A  
HETATM   48  C   UNL     1      -8.418   9.402  62.634  1.00  0.00    -0.199 A  
HETATM   49  C   UNL     1      -6.129   9.387  63.379  1.00  0.00    -0.092 A  
HETATM   50  C   UNL     1      -7.075   9.124  62.393  1.00  0.00    -0.097 A  
ENDBRANCH  44  45
ENDBRANCH  17  44
ENDBRANCH  15  17
ENDBRANCH   3  13
TORSDOF 14
ENDMDL
MODEL      190
REMARK 921   NORMALIZED FREE ENERGY PREDICTED BY IDOCK:   -4.16 KCAL/MOL
REMARK 922        TOTAL FREE ENERGY PREDICTED BY IDOCK:  -12.12 KCAL/MOL
REMARK 923 INTER-LIGAND FREE ENERGY PREDICTED BY IDOCK:  -10.60 KCAL/MOL
REMARK 924 INTRA-LIGAND FREE ENERGY PREDICTED BY IDOCK:   -1.52 KCAL/MOL
REMARK 927      BINDING AFFINITY PREDICTED BY RF-SCORE:    0.00 PKD
ROOT
HETATM    1  C   UNL     1     -10.893   7.694  72.967  1.00  0.00    -0.457 C  
HETATM    2  C   UNL     1     -10.640   8.707  71.840  1.00  0.00    -0.411 C  
HETATM    3  C   UNL     1     -10.229   7.986  70.519  1.00  0.00    -0.198 C  
HETATM    4  C   UNL     1     -11.876   9.598  71.702  1.00  0.00    -0.457 C  
ENDROOT
BRANCH   3   5
HETATM    5  N   UNL     1      -8.972   7.220  70.686  1.00  0.00    -0.155 N  
HETATM    6  H   UNL     1      -5.784   7.631  71.116  1.00  0.00     0.000 HD 
HETATM    7  O   UNL     1      -7.758   9.039  71.406  1.00  0.00    -0.247 OA 
HETATM    8  C   UNL     1      -8.979   5.764  70.621  1.00  0.00    -0.140 C  
HETATM    9  C   UNL     1      -7.807   7.871  71.031  1.00  0.00    -0.089 C  
HETATM   10  C   UNL     1      -7.821   5.301  69.758  1.00  0.00    -0.073 C  
HETATM   11  N   UNL     1      -6.654   7.156  70.878  1.00  0.00    -0.047 N  
HETATM   12  C   UNL     1      -6.545   5.789  70.410  1.00  0.00    -0.044 C  
ENDBRANCH   3   5
BRANCH   3  13
HETATM   13  C   UNL     1     -10.178   8.973  69.312  1.00  0.00    -0.205 C  
HETATM   14  O   UNL     1     -11.079   9.758  69.040  1.00  0.00    -0.196 OA 
HETATM   15  N   UNL     1      -9.066   8.835  68.505  1.00  0.00    -0.138 N  
HETATM   16  H   UNL     1      -8.358   8.171  68.817  1.00  0.00     0.000 HD 
BRANCH  15  17
HETATM   17  C   UNL     1      -8.792   9.537  67.253  1.00  0.00    -0.128 C  
BRANCH  17  18
HETATM   18  C   UNL     1      -8.253  10.972  67.446  1.00  0.00    -0.122 C  
BRANCH  18  19
HETATM   19  C   UNL     1      -9.124  12.144  67.967  1.00  0.00    -0.190 C  
HETATM   20  O   UNL     1     -10.459  11.995  67.476  1.00  0.00    -0.207 OA 
HETATM   21  H   UNL     1     -10.993  12.714  67.795  1.00  0.00     0.000 HD 
BRANCH  19  22
HETATM   22  C   UNL     1      -8.573  13.530  67.449  1.00  0.00    -0.208 C  
BRANCH  22  23
HETATM   23  N   UNL     1      -9.313  14.722  68.001  1.00  0.00    -0.192 N  
HETATM   24  C   UNL     1     -10.011  15.808  67.517  1.00  0.00    -0.236 C  
HETATM   25  H   UNL     1      -9.290  14.726  69.020  1.00  0.00     0.000 HD 
HETATM   26  O   UNL     1     -10.711  16.449  68.307  1.00  0.00    -0.306 OA 
BRANCH  24  27
HETATM   27  C   UNL     1      -9.826  16.272  66.063  1.00  0.00    -0.343 C  
BRANCH  27  28
HETATM   28  O   UNL     1      -9.458  17.597  65.714  1.00  0.00    -0.516 OA 
BRANCH  28  29
HETATM   29  C   UNL     1      -8.644  18.310  66.585  1.00  0.00    -0.273 A  
HETATM   30  C   UNL     1      -6.337  17.023  66.359  1.00  0.00    -0.149 C  
HETATM   31  C   UNL     1      -7.265  18.105  66.851  1.00  0.00    -0.229 A  
HETATM   32  C   UNL     1      -6.588  19.030  67.683  1.00  0.00    -0.216 A  
HETATM   33  C   UNL     1      -7.226  20.116  68.263  1.00  0.00    -0.280 A  
HETATM   34  C   UNL     1      -8.579  20.298  68.040  1.00  0.00    -0.138 A  
HETATM   35  C   UNL     1      -9.301  19.407  67.221  1.00  0.00    -0.386 A  
HETATM   36  C   UNL     1     -10.778  19.675  67.067  1.00  0.00    -0.575 C  
ENDBRANCH  28  29
ENDBRANCH  27  28
ENDBRANCH  24  27
ENDBRANCH  22  23
BRANCH  22  37
HETATM   37  C   UNL     1      -7.022  13.593  67.424  1.00  0.00    -0.075 C  
BRANCH  37  38
HETATM   38  C   UNL     1      -6.396  13.932  68.749  1.00  0.00    -0.091 A  
HETATM   39  C   UNL     1      -5.468  14.570  71.313  1.00  0.00    -0.158 A  
HETATM   40  C   UNL     1      -6.175  15.264  69.110  1.00  0.00    -0.108 A  
HETATM   41  C   UNL     1      -5.617  13.241  70.936  1.00  0.00    -0.195 A  
HETATM   42  C   UNL     1      -6.031  12.928  69.645  1.00  0.00    -0.120 A  
HETATM   43  C   UNL     1      -5.713  15.580  70.386  1.00  0.00    -0.121 A  
ENDBRANCH  37  38
ENDBRANCH  22  37
ENDBRANCH  19  22
ENDBRANCH  18  19
ENDBRANCH  17  18
BRANCH  17  44
HETATM   44  C   UNL     1      -9.853   9.302  66.156  1.00  0.00    -0.363 C  
BRANCH  44  45
HETATM   45  C   UNL     1      -9.458   9.854  64.799  1.00  0.00    -0.356 A  
HETATM   46  C   UNL     1      -8.343   9.356  64.104  1.00  0.00    -0.170 A  
HETATM   47  C   UNL     1     -10.191  10.898  64.224  1.00  0.00    -0.430 A  
HETATM   48  C   UNL     1      -7.952   9.920  62.885  1.00  0.00    -0.135 A  
HETATM   49  C   UNL     1      -9.802  11.458  63.004  1.00  0.00    -0.373 A  
HETATM   50  C   UNL     1      -8.678  10.976  62.338  1.00  0.00    -0.356 A  
ENDBRANCH  44  45
ENDBRANCH  17  44
ENDBRANCH  15  17
ENDBRANCH   3  13
TORSDOF 14
ENDMDL
MODEL      191
REMARK 921   NORMALIZED FREE ENERGY PREDICTED BY IDOCK:   -4.16 KCAL/MOL
REMARK 922        TOTAL FREE ENERGY PREDICTED BY IDOCK:  -12.11 KCAL/MOL
REMARK 923 INTER-LIGAND FREE ENERGY PREDICTED BY IDOCK:  -10.21 KCAL/MOL
REMARK 924 INTRA-LIGAND FREE ENERGY PREDICTED BY IDOCK:   -1.90 KCAL/MOL
REMARK 927      BINDING AFFINITY PREDICTED BY RF-SCORE:    0.00 PKD
ROOT
HETATM    1  C   UNL     1     -11.237  16.339  68.695  1.00  0.00    -0.354 C  
HETATM    2  C   UNL     1     -10.672  14.930  68.457  1.00  0.00    -0.245 C  
HETATM    3  C   UNL     1     -11.668  13.835  68.947  1.00  0.00    -0.336 C  
HETATM    4  C   UNL     1     -10.289  14.804  66.981  1.00  0.00    -0.255 C  
ENDROOT
BRANCH   3   5
HETATM    5  N   UNL     1     -11.924  13.945  70.402  1.00  0.00    -0.326 N  
HETATM    6  H   UNL     1     -13.641  12.578  72.791  1.00  0.00     0.000 HD 
HETATM    7  O   UNL     1     -12.954  11.891  70.550  1.00  0.00     0.033 OA 
HETATM    8  C   UNL     1     -11.302  15.005  71.185  1.00  0.00    -0.270 C  
HETATM    9  C   UNL     1     -12.650  12.969  71.051  1.00  0.00    -0.299 C  
HETATM   10  C   UNL     1     -12.343  15.622  72.100  1.00  0.00    -0.517 C  
HETATM   11  N   UNL     1     -13.089  13.285  72.306  1.00  0.00    -0.390 N  
HETATM   12  C   UNL     1     -12.849  14.525  73.014  1.00  0.00    -0.453 C  
ENDBRANCH   3   5
BRANCH   3  13
HETATM   13  C   UNL     1     -11.214  12.405  68.522  1.00  0.00    -0.279 C  
HETATM   14  O   UNL     1     -11.912  11.640  67.865  1.00  0.00    -0.599 OA 
HETATM   15  N   UNL     1      -9.986  12.020  69.021  1.00  0.00    -0.415 N  
HETATM   16  H   UNL     1      -9.465  12.726  69.541  1.00  0.00     0.000 HD 
BRANCH  15  17
HETATM   17  C   UNL     1      -9.349  10.712  68.885  1.00  0.00    -0.184 C  
BRANCH  17  18
HETATM   18  C   UNL     1      -9.530   9.799  70.118  1.00  0.00    -0.277 C  
BRANCH  18  19
HETATM   19  C   UNL     1      -8.903   8.385  70.227  1.00  0.00    -0.142 C  
HETATM   20  O   UNL     1      -9.481   7.534  69.234  1.00  0.00    -0.155 OA 
HETATM   21  H   UNL     1      -9.097   6.667  69.301  1.00  0.00     0.000 HD 
BRANCH  19  22
HETATM   22  C   UNL     1      -9.198   7.744  71.640  1.00  0.00    -0.136 C  
BRANCH  22  23
HETATM   23  N   UNL     1      -7.970   7.208  72.331  1.00  0.00    -0.096 N  
HETATM   24  C   UNL     1      -6.962   6.305  72.072  1.00  0.00    -0.077 C  
HETATM   25  H   UNL     1      -7.853   7.633  73.251  1.00  0.00     0.000 HD 
HETATM   26  O   UNL     1      -5.964   6.323  72.799  1.00  0.00    -0.040 OA 
BRANCH  24  27
HETATM   27  C   UNL     1      -7.133   5.231  70.985  1.00  0.00    -0.064 C  
BRANCH  27  28
HETATM   28  O   UNL     1      -7.487   3.887  71.273  1.00  0.00    -0.043 OA 
BRANCH  28  29
HETATM   29  C   UNL     1      -8.428   3.647  72.264  1.00  0.00    -0.085 A  
HETATM   30  C   UNL     1      -6.902   2.906  74.303  1.00  0.00    -0.035 C  
HETATM   31  C   UNL     1      -8.195   3.259  73.610  1.00  0.00    -0.074 A  
HETATM   32  C   UNL     1      -9.295   3.190  74.499  1.00  0.00    -0.110 A  
HETATM   33  C   UNL     1     -10.593   3.467  74.100  1.00  0.00    -0.269 A  
HETATM   34  C   UNL     1     -10.832   3.807  72.780  1.00  0.00    -0.096 A  
HETATM   35  C   UNL     1      -9.774   3.889  71.854  1.00  0.00    -0.239 A  
HETATM   36  C   UNL     1     -10.145   4.237  70.432  1.00  0.00    -0.116 C  
ENDBRANCH  28  29
ENDBRANCH  27  28
ENDBRANCH  24  27
ENDBRANCH  22  23
BRANCH  22  37
HETATM   37  C   UNL     1     -10.195   8.581  72.487  1.00  0.00    -0.323 C  
BRANCH  37  38
HETATM   38  C   UNL     1     -11.643   8.287  72.207  1.00  0.00    -0.449 A  
HETATM   39  C   UNL     1     -14.310   7.865  71.465  1.00  0.00    -0.563 A  
HETATM   40  C   UNL     1     -12.640   9.173  72.622  1.00  0.00    -0.204 A  
HETATM   41  C   UNL     1     -13.334   6.942  71.110  1.00  0.00    -0.114 A  
HETATM   42  C   UNL     1     -12.018   7.131  71.524  1.00  0.00    -0.361 A  
HETATM   43  C   UNL     1     -13.967   8.961  72.253  1.00  0.00    -0.531 A  
ENDBRANCH  37  38
ENDBRANCH  22  37
ENDBRANCH  19  22
ENDBRANCH  18  19
ENDBRANCH  17  18
BRANCH  17  44
HETATM   44  C   UNL     1      -7.960  10.756  68.212  1.00  0.00    -0.118 C  
BRANCH  44  45
HETATM   45  C   UNL     1      -7.748   9.663  67.182  1.00  0.00    -0.091 A  
HETATM   46  C   UNL     1      -8.772   9.282  66.299  1.00  0.00    -0.160 A  
HETATM   47  C   UNL     1      -6.522   8.990  67.112  1.00  0.00    -0.061 A  
HETATM   48  C   UNL     1      -8.583   8.227  65.400  1.00  0.00    -0.176 A  
HETATM   49  C   UNL     1      -6.333   7.939  66.210  1.00  0.00    -0.046 A  
HETATM   50  C   UNL     1      -7.366   7.551  65.361  1.00  0.00    -0.071 A  
ENDBRANCH  44  45
ENDBRANCH  17  44
ENDBRANCH  15  17
ENDBRANCH   3  13
TORSDOF 14
ENDMDL
MODEL      192
REMARK 921   NORMALIZED FREE ENERGY PREDICTED BY IDOCK:   -4.16 KCAL/MOL
REMARK 922        TOTAL FREE ENERGY PREDICTED BY IDOCK:  -12.11 KCAL/MOL
REMARK 923 INTER-LIGAND FREE ENERGY PREDICTED BY IDOCK:   -9.96 KCAL/MOL
REMARK 924 INTRA-LIGAND FREE ENERGY PREDICTED BY IDOCK:   -2.15 KCAL/MOL
REMARK 927      BINDING AFFINITY PREDICTED BY RF-SCORE:    0.00 PKD
ROOT
HETATM    1  C   UNL     1     -11.126  15.068  65.129  1.00  0.00    -0.408 C  
HETATM    2  C   UNL     1     -10.992  14.301  66.453  1.00  0.00    -0.311 C  
HETATM    3  C   UNL     1     -10.978  15.278  67.669  1.00  0.00    -0.311 C  
HETATM    4  C   UNL     1     -12.099  13.247  66.518  1.00  0.00    -0.435 C  
ENDROOT
BRANCH   3   5
HETATM    5  N   UNL     1      -9.828  16.210  67.605  1.00  0.00    -0.234 N  
HETATM    6  H   UNL     1      -9.127  19.371  67.396  1.00  0.00     0.000 HD 
HETATM    7  O   UNL     1     -11.100  18.081  68.034  1.00  0.00    -0.161 OA 
HETATM    8  C   UNL     1      -8.463  15.700  67.575  1.00  0.00    -0.167 C  
HETATM    9  C   UNL     1     -10.034  17.570  67.703  1.00  0.00    -0.309 C  
HETATM   10  C   UNL     1      -7.678  16.446  66.513  1.00  0.00    -0.295 C  
HETATM   11  N   UNL     1      -8.982  18.362  67.343  1.00  0.00    -0.259 N  
HETATM   12  C   UNL     1      -7.681  17.913  66.893  1.00  0.00    -0.219 C  
ENDBRANCH   3   5
BRANCH   3  13
HETATM   13  C   UNL     1     -11.060  14.516  69.028  1.00  0.00    -0.262 C  
HETATM   14  O   UNL     1     -10.664  14.983  70.090  1.00  0.00    -0.227 OA 
HETATM   15  N   UNL     1     -11.537  13.224  68.934  1.00  0.00    -0.292 N  
HETATM   16  H   UNL     1     -11.862  12.926  68.015  1.00  0.00     0.000 HD 
BRANCH  15  17
HETATM   17  C   UNL     1     -11.627  12.237  70.007  1.00  0.00    -0.157 C  
BRANCH  17  18
HETATM   18  C   UNL     1     -11.008  10.867  69.649  1.00  0.00    -0.311 C  
BRANCH  18  19
HETATM   19  C   UNL     1      -9.920  10.685  68.560  1.00  0.00    -0.167 C  
HETATM   20  O   UNL     1     -10.546  10.608  67.275  1.00  0.00    -0.230 OA 
HETATM   21  H   UNL     1      -9.880  10.496  66.608  1.00  0.00     0.000 HD 
BRANCH  19  22
HETATM   22  C   UNL     1      -9.117   9.344  68.783  1.00  0.00    -0.132 C  
BRANCH  22  23
HETATM   23  N   UNL     1      -9.726   8.150  68.093  1.00  0.00    -0.157 N  
HETATM   24  C   UNL     1     -10.736   7.241  68.322  1.00  0.00    -0.123 C  
HETATM   25  H   UNL     1      -9.257   7.961  67.208  1.00  0.00     0.000 HD 
HETATM   26  O   UNL     1     -11.112   6.539  67.379  1.00  0.00    -0.357 OA 
BRANCH  24  27
HETATM   27  C   UNL     1     -11.292   7.028  69.741  1.00  0.00    -0.182 C  
BRANCH  27  28
HETATM   28  O   UNL     1     -11.198   5.794  70.432  1.00  0.00    -0.286 OA 
BRANCH  28  29
HETATM   29  C   UNL     1     -10.118   5.590  71.280  1.00  0.00    -0.207 A  
HETATM   30  C   UNL     1     -10.669   7.240  73.281  1.00  0.00    -0.428 C  
HETATM   31  C   UNL     1      -9.885   6.178  72.551  1.00  0.00    -0.180 A  
HETATM   32  C   UNL     1      -8.778   5.734  73.314  1.00  0.00    -0.118 A  
HETATM   33  C   UNL     1      -7.901   4.763  72.859  1.00  0.00    -0.093 A  
HETATM   34  C   UNL     1      -8.098   4.214  71.604  1.00  0.00    -0.086 A  
HETATM   35  C   UNL     1      -9.184   4.620  70.802  1.00  0.00    -0.200 A  
HETATM   36  C   UNL     1      -9.292   3.985  69.438  1.00  0.00    -0.243 C  
ENDBRANCH  28  29
ENDBRANCH  27  28
ENDBRANCH  24  27
ENDBRANCH  22  23
BRANCH  22  37
HETATM   37  C   UNL     1      -7.580   9.535  68.671  1.00  0.00    -0.080 C  
BRANCH  37  38
HETATM   38  C   UNL     1      -6.806   8.252  68.539  1.00  0.00    -0.064 A  
HETATM   39  C   UNL     1      -5.577   5.760  68.189  1.00  0.00    -0.008 A  
HETATM   40  C   UNL     1      -6.815   7.309  69.570  1.00  0.00    -0.050 A  
HETATM   41  C   UNL     1      -5.503   6.721  67.188  1.00  0.00    -0.013 A  
HETATM   42  C   UNL     1      -6.073   7.975  67.386  1.00  0.00    -0.051 A  
HETATM   43  C   UNL     1      -6.202   6.070  69.395  1.00  0.00    -0.030 A  
ENDBRANCH  37  38
ENDBRANCH  22  37
ENDBRANCH  19  22
ENDBRANCH  18  19
ENDBRANCH  17  18
BRANCH  17  44
HETATM   44  C   UNL     1     -12.974  12.250  70.762  1.00  0.00     0.030 C  
BRANCH  44  45
HETATM   45  C   UNL     1     -13.198  13.505  71.585  1.00  0.00    -0.449 A  
HETATM   46  C   UNL     1     -14.094  14.503  71.167  1.00  0.00    -0.216 A  
HETATM   47  C   UNL     1     -12.487  13.702  72.775  1.00  0.00     0.251 A  
HETATM   48  C   UNL     1     -14.239  15.684  71.903  1.00  0.00    -0.463 A  
HETATM   49  C   UNL     1     -12.637  14.880  73.511  1.00  0.00    -0.622 A  
HETATM   50  C   UNL     1     -13.505  15.875  73.071  1.00  0.00    -0.653 A  
ENDBRANCH  44  45
ENDBRANCH  17  44
ENDBRANCH  15  17
ENDBRANCH   3  13
TORSDOF 14
ENDMDL
MODEL      193
REMARK 921   NORMALIZED FREE ENERGY PREDICTED BY IDOCK:   -4.16 KCAL/MOL
REMARK 922        TOTAL FREE ENERGY PREDICTED BY IDOCK:  -12.11 KCAL/MOL
REMARK 923 INTER-LIGAND FREE ENERGY PREDICTED BY IDOCK:  -10.25 KCAL/MOL
REMARK 924 INTRA-LIGAND FREE ENERGY PREDICTED BY IDOCK:   -1.87 KCAL/MOL
REMARK 927      BINDING AFFINITY PREDICTED BY RF-SCORE:    0.00 PKD
ROOT
HETATM    1  C   UNL     1     -11.849  15.269  64.449  1.00  0.00    -0.288 C  
HETATM    2  C   UNL     1     -10.679  14.423  64.975  1.00  0.00    -0.440 C  
HETATM    3  C   UNL     1     -10.716  14.319  66.531  1.00  0.00    -0.297 C  
HETATM    4  C   UNL     1     -10.701  13.069  64.263  1.00  0.00    -0.430 C  
ENDROOT
BRANCH   3   5
HETATM    5  N   UNL     1     -10.591  15.651  67.168  1.00  0.00    -0.305 N  
HETATM    6  H   UNL     1      -8.678  18.271  67.227  1.00  0.00     0.000 HD 
HETATM    7  O   UNL     1      -8.989  16.397  65.692  1.00  0.00    -0.427 OA 
HETATM    8  C   UNL     1     -11.555  16.085  68.172  1.00  0.00    -0.183 C  
HETATM    9  C   UNL     1      -9.639  16.543  66.723  1.00  0.00    -0.254 C  
HETATM   10  C   UNL     1     -10.809  16.710  69.336  1.00  0.00    -0.295 C  
HETATM   11  N   UNL     1      -9.392  17.611  67.537  1.00  0.00    -0.246 N  
HETATM   12  C   UNL     1     -10.043  17.900  68.798  1.00  0.00    -0.384 C  
ENDBRANCH   3   5
BRANCH   3  13
HETATM   13  C   UNL     1      -9.671  13.294  67.070  1.00  0.00    -0.238 C  
HETATM   14  O   UNL     1      -8.459  13.453  66.979  1.00  0.00    -0.194 OA 
HETATM   15  N   UNL     1     -10.216  12.136  67.586  1.00  0.00    -0.195 N  
HETATM   16  H   UNL     1     -11.234  12.098  67.640  1.00  0.00     0.000 HD 
BRANCH  15  17
HETATM   17  C   UNL     1      -9.495  10.958  68.062  1.00  0.00    -0.163 C  
BRANCH  17  18
HETATM   18  C   UNL     1      -8.223  10.633  67.250  1.00  0.00    -0.116 C  
BRANCH  18  19
HETATM   19  C   UNL     1      -8.257  10.000  65.835  1.00  0.00    -0.128 C  
HETATM   20  O   UNL     1      -9.609   9.953  65.370  1.00  0.00    -0.244 OA 
HETATM   21  H   UNL     1      -9.630   9.565  64.503  1.00  0.00     0.000 HD 
BRANCH  19  22
HETATM   22  C   UNL     1      -7.708   8.520  65.865  1.00  0.00    -0.097 C  
BRANCH  22  23
HETATM   23  N   UNL     1      -6.614   8.299  66.879  1.00  0.00    -0.057 N  
HETATM   24  C   UNL     1      -6.470   7.709  68.116  1.00  0.00    -0.054 C  
HETATM   25  H   UNL     1      -5.733   8.698  66.560  1.00  0.00     0.000 HD 
HETATM   26  O   UNL     1      -5.327   7.500  68.532  1.00  0.00    -0.024 OA 
BRANCH  24  27
HETATM   27  C   UNL     1      -7.699   7.431  68.999  1.00  0.00    -0.118 C  
BRANCH  27  28
HETATM   28  O   UNL     1      -8.197   6.126  69.244  1.00  0.00    -0.113 OA 
BRANCH  28  29
HETATM   29  C   UNL     1      -9.061   5.935  70.313  1.00  0.00    -0.147 A  
HETATM   30  C   UNL     1      -7.377   5.747  72.353  1.00  0.00    -0.095 C  
HETATM   31  C   UNL     1      -8.730   5.810  71.688  1.00  0.00    -0.136 A  
HETATM   32  C   UNL     1      -9.778   5.750  72.638  1.00  0.00    -0.168 A  
HETATM   33  C   UNL     1     -11.115   5.787  72.275  1.00  0.00    -0.330 A  
HETATM   34  C   UNL     1     -11.445   5.868  70.934  1.00  0.00    -0.122 A  
HETATM   35  C   UNL     1     -10.441   5.930  69.947  1.00  0.00    -0.337 A  
HETATM   36  C   UNL     1     -10.906   5.985  68.512  1.00  0.00    -0.363 C  
ENDBRANCH  28  29
ENDBRANCH  27  28
ENDBRANCH  24  27
ENDBRANCH  22  23
BRANCH  22  37
HETATM   37  C   UNL     1      -8.834   7.455  65.776  1.00  0.00    -0.106 C  
BRANCH  37  38
HETATM   38  C   UNL     1      -8.385   6.123  65.241  1.00  0.00    -0.144 A  
HETATM   39  C   UNL     1      -7.420   3.611  64.466  1.00  0.00    -0.072 A  
HETATM   40  C   UNL     1      -7.206   6.018  64.499  1.00  0.00    -0.063 A  
HETATM   41  C   UNL     1      -8.630   3.715  65.140  1.00  0.00    -0.113 A  
HETATM   42  C   UNL     1      -9.129   4.969  65.480  1.00  0.00    -0.159 A  
HETATM   43  C   UNL     1      -6.727   4.767  64.114  1.00  0.00    -0.043 A  
ENDBRANCH  37  38
ENDBRANCH  22  37
ENDBRANCH  19  22
ENDBRANCH  18  19
ENDBRANCH  17  18
BRANCH  17  44
HETATM   44  C   UNL     1     -10.411   9.785  68.477  1.00  0.00    -0.239 C  
BRANCH  44  45
HETATM   45  C   UNL     1     -11.250  10.074  69.708  1.00  0.00    -0.307 A  
HETATM   46  C   UNL     1     -11.250   9.205  70.812  1.00  0.00    -0.336 A  
HETATM   47  C   UNL     1     -12.066  11.210  69.752  1.00  0.00    -0.414 A  
HETATM   48  C   UNL     1     -12.080   9.451  71.912  1.00  0.00    -0.427 A  
HETATM   49  C   UNL     1     -12.891  11.456  70.853  1.00  0.00    -0.323 A  
HETATM   50  C   UNL     1     -12.905  10.573  71.929  1.00  0.00    -0.509 A  
ENDBRANCH  44  45
ENDBRANCH  17  44
ENDBRANCH  15  17
ENDBRANCH   3  13
TORSDOF 14
ENDMDL
MODEL      194
REMARK 921   NORMALIZED FREE ENERGY PREDICTED BY IDOCK:   -4.15 KCAL/MOL
REMARK 922        TOTAL FREE ENERGY PREDICTED BY IDOCK:  -12.10 KCAL/MOL
REMARK 923 INTER-LIGAND FREE ENERGY PREDICTED BY IDOCK:   -8.60 KCAL/MOL
REMARK 924 INTRA-LIGAND FREE ENERGY PREDICTED BY IDOCK:   -3.51 KCAL/MOL
REMARK 927      BINDING AFFINITY PREDICTED BY RF-SCORE:    0.00 PKD
ROOT
HETATM    1  C   UNL     1      -7.587   5.038  72.097  1.00  0.00    -0.094 C  
HETATM    2  C   UNL     1      -7.326   6.182  71.104  1.00  0.00    -0.084 C  
HETATM    3  C   UNL     1      -8.137   7.457  71.490  1.00  0.00    -0.100 C  
HETATM    4  C   UNL     1      -5.816   6.412  71.015  1.00  0.00    -0.027 C  
ENDROOT
BRANCH   3   5
HETATM    5  N   UNL     1      -9.597   7.202  71.463  1.00  0.00    -0.158 N  
HETATM    6  H   UNL     1     -12.007   6.448  69.427  1.00  0.00     0.000 HD 
HETATM    7  O   UNL     1      -9.571   6.291  69.348  1.00  0.00    -0.141 OA 
HETATM    8  C   UNL     1     -10.393   7.328  72.677  1.00  0.00    -0.225 C  
HETATM    9  C   UNL     1     -10.192   6.717  70.318  1.00  0.00    -0.195 C  
HETATM   10  C   UNL     1     -11.663   8.094  72.359  1.00  0.00    -0.461 C  
HETATM   11  N   UNL     1     -11.555   6.789  70.275  1.00  0.00    -0.367 N  
HETATM   12  C   UNL     1     -12.422   7.301  71.316  1.00  0.00    -0.366 C  
ENDBRANCH   3   5
BRANCH   3  13
HETATM   13  C   UNL     1      -7.725   8.690  70.629  1.00  0.00    -0.086 C  
HETATM   14  O   UNL     1      -7.658   9.832  71.070  1.00  0.00    -0.311 OA 
HETATM   15  N   UNL     1      -7.524   8.415  69.291  1.00  0.00    -0.082 N  
HETATM   16  H   UNL     1      -7.582   7.435  69.015  1.00  0.00     0.000 HD 
BRANCH  15  17
HETATM   17  C   UNL     1      -7.238   9.374  68.226  1.00  0.00    -0.077 C  
BRANCH  17  18
HETATM   18  C   UNL     1      -7.440   8.807  66.804  1.00  0.00    -0.086 C  
BRANCH  18  19
HETATM   19  C   UNL     1      -8.837   8.573  66.172  1.00  0.00    -0.167 C  
HETATM   20  O   UNL     1      -9.374   7.340  66.658  1.00  0.00    -0.159 OA 
HETATM   21  H   UNL     1     -10.230   7.196  66.271  1.00  0.00     0.000 HD 
BRANCH  19  22
HETATM   22  C   UNL     1      -8.735   8.467  64.600  1.00  0.00     0.013 C  
BRANCH  22  23
HETATM   23  N   UNL     1      -9.351   9.635  63.872  1.00  0.00    -0.413 N  
HETATM   24  C   UNL     1      -9.683  10.947  64.137  1.00  0.00    -0.296 C  
HETATM   25  H   UNL     1      -9.588   9.384  62.913  1.00  0.00     0.000 HD 
HETATM   26  O   UNL     1      -9.944  11.685  63.182  1.00  0.00    -0.390 OA 
BRANCH  24  27
HETATM   27  C   UNL     1      -9.839  11.437  65.586  1.00  0.00    -0.235 C  
BRANCH  27  28
HETATM   28  O   UNL     1     -11.033  11.276  66.334  1.00  0.00    -0.279 OA 
BRANCH  28  29
HETATM   29  C   UNL     1     -11.307  12.181  67.350  1.00  0.00    -0.326 A  
HETATM   30  C   UNL     1     -11.769  14.411  65.990  1.00  0.00    -0.378 C  
HETATM   31  C   UNL     1     -11.673  13.547  67.223  1.00  0.00    -0.423 A  
HETATM   32  C   UNL     1     -12.036  14.266  68.388  1.00  0.00    -0.344 A  
HETATM   33  C   UNL     1     -12.026  13.692  69.650  1.00  0.00    -0.402 A  
HETATM   34  C   UNL     1     -11.630  12.373  69.785  1.00  0.00    -0.302 A  
HETATM   35  C   UNL     1     -11.259  11.612  68.659  1.00  0.00    -0.308 A  
HETATM   36  C   UNL     1     -10.814  10.194  68.917  1.00  0.00    -0.256 C  
ENDBRANCH  28  29
ENDBRANCH  27  28
ENDBRANCH  24  27
ENDBRANCH  22  23
BRANCH  22  37
HETATM   37  C   UNL     1      -7.347   7.967  64.116  1.00  0.00    -0.096 C  
BRANCH  37  38
HETATM   38  C   UNL     1      -7.220   6.470  64.044  1.00  0.00    -0.067 A  
HETATM   39  C   UNL     1      -6.915   3.713  63.663  1.00  0.00    -0.045 A  
HETATM   40  C   UNL     1      -8.315   5.682  63.682  1.00  0.00    -0.048 A  
HETATM   41  C   UNL     1      -5.840   4.480  64.093  1.00  0.00    -0.017 A  
HETATM   42  C   UNL     1      -6.009   5.841  64.328  1.00  0.00    -0.025 A  
HETATM   43  C   UNL     1      -8.163   4.310  63.494  1.00  0.00    -0.096 A  
ENDBRANCH  37  38
ENDBRANCH  22  37
ENDBRANCH  19  22
ENDBRANCH  18  19
ENDBRANCH  17  18
BRANCH  17  44
HETATM   44  C   UNL     1      -5.994  10.251  68.488  1.00  0.00    -0.040 C  
BRANCH  44  45
HETATM   45  C   UNL     1      -6.251  11.737  68.320  1.00  0.00    -0.050 A  
HETATM   46  C   UNL     1      -7.554  12.262  68.356  1.00  0.00    -0.128 A  
HETATM   47  C   UNL     1      -5.183  12.614  68.097  1.00  0.00    -0.073 A  
HETATM   48  C   UNL     1      -7.779  13.625  68.133  1.00  0.00    -0.138 A  
HETATM   49  C   UNL     1      -5.410  13.976  67.878  1.00  0.00    -0.075 A  
HETATM   50  C   UNL     1      -6.708  14.480  67.887  1.00  0.00    -0.176 A  
ENDBRANCH  44  45
ENDBRANCH  17  44
ENDBRANCH  15  17
ENDBRANCH   3  13
TORSDOF 14
ENDMDL
MODEL      195
REMARK 921   NORMALIZED FREE ENERGY PREDICTED BY IDOCK:   -4.15 KCAL/MOL
REMARK 922        TOTAL FREE ENERGY PREDICTED BY IDOCK:  -12.10 KCAL/MOL
REMARK 923 INTER-LIGAND FREE ENERGY PREDICTED BY IDOCK:   -9.40 KCAL/MOL
REMARK 924 INTRA-LIGAND FREE ENERGY PREDICTED BY IDOCK:   -2.70 KCAL/MOL
REMARK 927      BINDING AFFINITY PREDICTED BY RF-SCORE:    0.00 PKD
ROOT
HETATM    1  C   UNL     1     -12.340  15.096  64.383  1.00  0.00    -0.225 C  
HETATM    2  C   UNL     1     -11.208  14.087  64.626  1.00  0.00    -0.377 C  
HETATM    3  C   UNL     1     -11.097  13.722  66.139  1.00  0.00    -0.296 C  
HETATM    4  C   UNL     1     -11.430  12.879  63.713  1.00  0.00    -0.519 C  
ENDROOT
BRANCH   3   5
HETATM    5  N   UNL     1     -10.783  14.912  66.963  1.00  0.00    -0.300 N  
HETATM    6  H   UNL     1      -8.576  17.268  67.289  1.00  0.00     0.000 HD 
HETATM    7  O   UNL     1      -9.186  15.711  65.509  1.00  0.00    -0.215 OA 
HETATM    8  C   UNL     1     -11.633  15.278  68.089  1.00  0.00    -0.330 C  
HETATM    9  C   UNL     1      -9.758  15.757  66.594  1.00  0.00    -0.249 C  
HETATM   10  C   UNL     1     -10.758  15.623  69.279  1.00  0.00    -0.239 C  
HETATM   11  N   UNL     1      -9.344  16.647  67.544  1.00  0.00    -0.218 N  
HETATM   12  C   UNL     1      -9.888  16.796  68.878  1.00  0.00    -0.264 C  
ENDBRANCH   3   5
BRANCH   3  13
HETATM   13  C   UNL     1     -10.104  12.543  66.381  1.00  0.00    -0.243 C  
HETATM   14  O   UNL     1      -8.884  12.672  66.365  1.00  0.00    -0.125 OA 
HETATM   15  N   UNL     1     -10.703  11.309  66.529  1.00  0.00    -0.267 N  
HETATM   16  H   UNL     1     -11.722  11.298  66.548  1.00  0.00     0.000 HD 
BRANCH  15  17
HETATM   17  C   UNL     1     -10.037  10.015  66.660  1.00  0.00    -0.227 C  
BRANCH  17  18
HETATM   18  C   UNL     1      -9.960   9.497  68.113  1.00  0.00    -0.191 C  
BRANCH  18  19
HETATM   19  C   UNL     1      -9.916  10.433  69.348  1.00  0.00    -0.218 C  
HETATM   20  O   UNL     1      -8.761  11.273  69.264  1.00  0.00    -0.377 OA 
HETATM   21  H   UNL     1      -8.733  11.846  70.020  1.00  0.00     0.000 HD 
BRANCH  19  22
HETATM   22  C   UNL     1      -9.807   9.600  70.685  1.00  0.00    -0.200 C  
BRANCH  22  23
HETATM   23  N   UNL     1     -11.142   9.254  71.294  1.00  0.00    -0.326 N  
HETATM   24  C   UNL     1     -12.012   8.184  71.316  1.00  0.00    -0.291 C  
HETATM   25  H   UNL     1     -11.504  10.030  71.847  1.00  0.00     0.000 HD 
HETATM   26  O   UNL     1     -12.914   8.184  72.159  1.00  0.00    -0.312 OA 
BRANCH  24  27
HETATM   27  C   UNL     1     -11.928   7.086  70.242  1.00  0.00    -0.147 C  
BRANCH  27  28
HETATM   28  O   UNL     1     -11.535   5.754  70.526  1.00  0.00    -0.157 OA 
BRANCH  28  29
HETATM   29  C   UNL     1     -10.246   5.357  70.194  1.00  0.00    -0.272 A  
HETATM   30  C   UNL     1      -9.219   4.781  72.570  1.00  0.00    -0.146 C  
HETATM   31  C   UNL     1      -9.229   4.887  71.065  1.00  0.00    -0.192 A  
HETATM   32  C   UNL     1      -8.019   4.410  70.504  1.00  0.00    -0.059 A  
HETATM   33  C   UNL     1      -7.783   4.405  69.138  1.00  0.00    -0.055 A  
HETATM   34  C   UNL     1      -8.754   4.901  68.287  1.00  0.00    -0.109 A  
HETATM   35  C   UNL     1      -9.976   5.388  68.793  1.00  0.00    -0.235 A  
HETATM   36  C   UNL     1     -10.956   5.935  67.783  1.00  0.00    -0.245 C  
ENDBRANCH  28  29
ENDBRANCH  27  28
ENDBRANCH  24  27
ENDBRANCH  22  23
BRANCH  22  37
HETATM   37  C   UNL     1      -8.736   8.478  70.613  1.00  0.00    -0.171 C  
BRANCH  37  38
HETATM   38  C   UNL     1      -8.076   8.169  71.929  1.00  0.00    -0.170 A  
HETATM   39  C   UNL     1      -6.801   7.844  74.401  1.00  0.00    -0.142 A  
HETATM   40  C   UNL     1      -6.712   7.871  71.986  1.00  0.00    -0.061 A  
HETATM   41  C   UNL     1      -8.171   8.067  74.347  1.00  0.00    -0.284 A  
HETATM   42  C   UNL     1      -8.809   8.179  73.115  1.00  0.00    -0.325 A  
HETATM   43  C   UNL     1      -6.079   7.709  73.217  1.00  0.00    -0.060 A  
ENDBRANCH  37  38
ENDBRANCH  22  37
ENDBRANCH  19  22
ENDBRANCH  18  19
ENDBRANCH  17  18
BRANCH  17  44
HETATM   44  C   UNL     1      -8.788   9.857  65.766  1.00  0.00    -0.171 C  
BRANCH  44  45
HETATM   45  C   UNL     1      -7.628   9.165  66.457  1.00  0.00    -0.093 A  
HETATM   46  C   UNL     1      -7.556   7.765  66.539  1.00  0.00    -0.096 A  
HETATM   47  C   UNL     1      -6.613   9.922  67.055  1.00  0.00    -0.070 A  
HETATM   48  C   UNL     1      -6.515   7.144  67.238  1.00  0.00    -0.057 A  
HETATM   49  C   UNL     1      -5.571   9.300  67.748  1.00  0.00    -0.038 A  
HETATM   50  C   UNL     1      -5.527   7.912  67.849  1.00  0.00    -0.033 A  
ENDBRANCH  44  45
ENDBRANCH  17  44
ENDBRANCH  15  17
ENDBRANCH   3  13
TORSDOF 14
ENDMDL
MODEL      196
REMARK 921   NORMALIZED FREE ENERGY PREDICTED BY IDOCK:   -4.13 KCAL/MOL
REMARK 922        TOTAL FREE ENERGY PREDICTED BY IDOCK:  -12.06 KCAL/MOL
REMARK 923 INTER-LIGAND FREE ENERGY PREDICTED BY IDOCK:  -11.60 KCAL/MOL
REMARK 924 INTRA-LIGAND FREE ENERGY PREDICTED BY IDOCK:   -0.46 KCAL/MOL
REMARK 927      BINDING AFFINITY PREDICTED BY RF-SCORE:    0.00 PKD
ROOT
HETATM    1  C   UNL     1      -6.344  20.242  67.259  1.00  0.00    -0.245 C  
HETATM    2  C   UNL     1      -6.680  19.237  68.372  1.00  0.00    -0.295 C  
HETATM    3  C   UNL     1      -7.570  18.076  67.831  1.00  0.00    -0.231 C  
HETATM    4  C   UNL     1      -5.372  18.768  69.013  1.00  0.00    -0.197 C  
ENDROOT
BRANCH   3   5
HETATM    5  N   UNL     1      -8.864  18.579  67.314  1.00  0.00    -0.267 N  
HETATM    6  H   UNL     1     -10.957  18.168  64.870  1.00  0.00     0.000 HD 
HETATM    7  O   UNL     1      -9.137  16.847  65.822  1.00  0.00    -0.523 OA 
HETATM    8  C   UNL     1      -9.562  19.664  67.993  1.00  0.00    -0.369 C  
HETATM    9  C   UNL     1      -9.483  17.940  66.261  1.00  0.00    -0.220 C  
HETATM   10  C   UNL     1     -10.048  20.663  66.961  1.00  0.00    -0.295 C  
HETATM   11  N   UNL     1     -10.501  18.624  65.660  1.00  0.00    -0.265 N  
HETATM   12  C   UNL     1     -10.997  19.932  66.034  1.00  0.00    -0.078 C  
ENDBRANCH   3   5
BRANCH   3  13
HETATM   13  C   UNL     1      -7.743  16.938  68.883  1.00  0.00    -0.237 C  
HETATM   14  O   UNL     1      -6.814  16.468  69.531  1.00  0.00    -0.229 OA 
HETATM   15  N   UNL     1      -9.023  16.429  68.972  1.00  0.00    -0.254 N  
HETATM   16  H   UNL     1      -9.737  16.893  68.412  1.00  0.00     0.000 HD 
BRANCH  15  17
HETATM   17  C   UNL     1      -9.467  15.296  69.782  1.00  0.00    -0.097 C  
BRANCH  17  18
HETATM   18  C   UNL     1     -10.242  14.224  68.985  1.00  0.00    -0.156 C  
BRANCH  18  19
HETATM   19  C   UNL     1      -9.742  12.766  68.813  1.00  0.00     0.070 C  
HETATM   20  O   UNL     1      -8.853  12.700  67.695  1.00  0.00    -0.165 OA 
HETATM   21  H   UNL     1      -8.546  11.807  67.590  1.00  0.00     0.000 HD 
BRANCH  19  22
HETATM   22  C   UNL     1     -10.947  11.787  68.527  1.00  0.00    -0.227 C  
BRANCH  22  23
HETATM   23  N   UNL     1     -11.502  11.129  69.765  1.00  0.00    -0.289 N  
HETATM   24  C   UNL     1     -11.331   9.953  70.464  1.00  0.00    -0.327 C  
HETATM   25  H   UNL     1     -12.201  11.721  70.212  1.00  0.00     0.000 HD 
HETATM   26  O   UNL     1     -11.794   9.881  71.606  1.00  0.00    -0.379 OA 
BRANCH  24  27
HETATM   27  C   UNL     1     -10.686   8.729  69.791  1.00  0.00    -0.218 C  
BRANCH  27  28
HETATM   28  O   UNL     1     -11.411   7.555  69.461  1.00  0.00    -0.034 OA 
BRANCH  28  29
HETATM   29  C   UNL     1     -10.744   6.338  69.476  1.00  0.00    -0.303 A  
HETATM   30  C   UNL     1     -10.581   5.832  72.074  1.00  0.00    -0.276 C  
HETATM   31  C   UNL     1     -10.407   5.544  70.604  1.00  0.00    -0.332 A  
HETATM   32  C   UNL     1      -9.835   4.266  70.390  1.00  0.00    -0.268 A  
HETATM   33  C   UNL     1      -9.573   3.770  69.123  1.00  0.00    -0.195 A  
HETATM   34  C   UNL     1      -9.861   4.556  68.021  1.00  0.00    -0.154 A  
HETATM   35  C   UNL     1     -10.430   5.836  68.177  1.00  0.00    -0.277 A  
HETATM   36  C   UNL     1     -10.676   6.625  66.914  1.00  0.00    -0.401 C  
ENDBRANCH  28  29
ENDBRANCH  27  28
ENDBRANCH  24  27
ENDBRANCH  22  23
BRANCH  22  37
HETATM   37  C   UNL     1     -11.961  12.359  67.500  1.00  0.00    -0.253 C  
BRANCH  37  38
HETATM   38  C   UNL     1     -11.588  12.117  66.063  1.00  0.00    -0.420 A  
HETATM   39  C   UNL     1     -11.038  11.456  63.398  1.00  0.00    -0.308 A  
HETATM   40  C   UNL     1     -10.455  11.366  65.741  1.00  0.00    -0.314 A  
HETATM   41  C   UNL     1     -12.126  12.264  63.705  1.00  0.00    -0.624 A  
HETATM   42  C   UNL     1     -12.366  12.630  65.027  1.00  0.00    -0.561 A  
HETATM   43  C   UNL     1     -10.182  11.038  64.414  1.00  0.00    -0.409 A  
ENDBRANCH  37  38
ENDBRANCH  22  37
ENDBRANCH  19  22
ENDBRANCH  18  19
ENDBRANCH  17  18
BRANCH  17  44
HETATM   44  C   UNL     1     -10.001  15.692  71.176  1.00  0.00     1.450 C  
BRANCH  44  45
HETATM   45  C   UNL     1     -11.438  15.268  71.419  1.00  0.00    -0.444 A  
HETATM   46  C   UNL     1     -12.429  15.451  70.441  1.00  0.00    -0.447 A  
HETATM   47  C   UNL     1     -11.807  14.707  72.647  1.00  0.00    -0.083 A  
HETATM   48  C   UNL     1     -13.762  15.117  70.705  1.00  0.00    -0.244 A  
HETATM   49  C   UNL     1     -13.138  14.370  72.908  1.00  0.00    -0.612 A  
HETATM   50  C   UNL     1     -14.118  14.583  71.942  1.00  0.00    -0.595 A  
ENDBRANCH  44  45
ENDBRANCH  17  44
ENDBRANCH  15  17
ENDBRANCH   3  13
TORSDOF 14
ENDMDL
MODEL      197
REMARK 921   NORMALIZED FREE ENERGY PREDICTED BY IDOCK:   -4.12 KCAL/MOL
REMARK 922        TOTAL FREE ENERGY PREDICTED BY IDOCK:  -12.05 KCAL/MOL
REMARK 923 INTER-LIGAND FREE ENERGY PREDICTED BY IDOCK:  -11.54 KCAL/MOL
REMARK 924 INTRA-LIGAND FREE ENERGY PREDICTED BY IDOCK:   -0.51 KCAL/MOL
REMARK 927      BINDING AFFINITY PREDICTED BY RF-SCORE:    0.00 PKD
ROOT
HETATM    1  C   UNL     1     -10.876  16.774  69.274  1.00  0.00    -0.275 C  
HETATM    2  C   UNL     1     -10.496  15.338  68.880  1.00  0.00    -0.241 C  
HETATM    3  C   UNL     1     -11.757  14.423  68.809  1.00  0.00    -0.337 C  
HETATM    4  C   UNL     1      -9.694  15.388  67.577  1.00  0.00    -0.208 C  
ENDROOT
BRANCH   3   5
HETATM    5  N   UNL     1     -12.437  14.332  70.123  1.00  0.00    -0.351 N  
HETATM    6  H   UNL     1     -13.429  12.168  72.327  1.00  0.00     0.000 HD 
HETATM    7  O   UNL     1     -11.840  12.136  70.473  1.00  0.00    -0.287 OA 
HETATM    8  C   UNL     1     -12.936  15.532  70.783  1.00  0.00    -0.434 C  
HETATM    9  C   UNL     1     -12.488  13.128  70.792  1.00  0.00    -0.308 C  
HETATM   10  C   UNL     1     -14.332  15.263  71.310  1.00  0.00    -0.488 C  
HETATM   11  N   UNL     1     -13.370  13.059  71.833  1.00  0.00    -0.463 N  
HETATM   12  C   UNL     1     -14.230  14.125  72.304  1.00  0.00    -0.504 C  
ENDBRANCH   3   5
BRANCH   3  13
HETATM   13  C   UNL     1     -11.426  13.023  68.205  1.00  0.00    -0.312 C  
HETATM   14  O   UNL     1     -12.235  12.348  67.578  1.00  0.00    -0.442 OA 
HETATM   15  N   UNL     1     -10.164  12.552  68.506  1.00  0.00    -0.289 N  
HETATM   16  H   UNL     1      -9.551  13.187  69.016  1.00  0.00     0.000 HD 
BRANCH  15  17
HETATM   17  C   UNL     1      -9.610  11.241  68.175  1.00  0.00    -0.186 C  
BRANCH  17  18
HETATM   18  C   UNL     1      -9.466  10.299  69.391  1.00  0.00    -0.225 C  
BRANCH  18  19
HETATM   19  C   UNL     1      -9.132   8.790  69.262  1.00  0.00    -0.145 C  
HETATM   20  O   UNL     1     -10.146   8.146  68.485  1.00  0.00    -0.189 OA 
HETATM   21  H   UNL     1      -9.941   7.221  68.406  1.00  0.00     0.000 HD 
BRANCH  19  22
HETATM   22  C   UNL     1      -9.099   8.096  70.680  1.00  0.00    -0.150 C  
BRANCH  22  23
HETATM   23  N   UNL     1      -7.724   7.646  71.104  1.00  0.00    -0.083 N  
HETATM   24  C   UNL     1      -6.671   6.933  70.572  1.00  0.00    -0.053 C  
HETATM   25  H   UNL     1      -7.514   7.956  72.052  1.00  0.00     0.000 HD 
HETATM   26  O   UNL     1      -5.580   6.991  71.146  1.00  0.00    -0.027 OA 
BRANCH  24  27
HETATM   27  C   UNL     1      -6.886   6.001  69.367  1.00  0.00    -0.062 C  
BRANCH  27  28
HETATM   28  O   UNL     1      -7.029   4.595  69.492  1.00  0.00    -0.048 OA 
BRANCH  28  29
HETATM   29  C   UNL     1      -7.898   4.101  70.454  1.00  0.00    -0.051 A  
HETATM   30  C   UNL     1     -10.263   4.750  69.447  1.00  0.00    -0.166 C  
HETATM   31  C   UNL     1      -9.317   4.117  70.437  1.00  0.00    -0.225 A  
HETATM   32  C   UNL     1     -10.019   3.441  71.465  1.00  0.00    -0.161 A  
HETATM   33  C   UNL     1      -9.373   2.781  72.498  1.00  0.00    -0.151 A  
HETATM   34  C   UNL     1      -7.990   2.796  72.543  1.00  0.00    -0.055 A  
HETATM   35  C   UNL     1      -7.243   3.454  71.546  1.00  0.00    -0.036 A  
HETATM   36  C   UNL     1      -5.742   3.438  71.705  1.00  0.00    -0.009 C  
ENDBRANCH  28  29
ENDBRANCH  27  28
ENDBRANCH  24  27
ENDBRANCH  22  23
BRANCH  22  37
HETATM   37  C   UNL     1      -9.973   8.830  71.732  1.00  0.00    -0.396 C  
BRANCH  37  38
HETATM   38  C   UNL     1     -11.436   8.486  71.669  1.00  0.00    -0.365 A  
HETATM   39  C   UNL     1     -14.149   7.802  71.804  1.00  0.00    -0.519 A  
HETATM   40  C   UNL     1     -11.847   7.173  71.426  1.00  0.00    -0.344 A  
HETATM   41  C   UNL     1     -13.753   9.123  71.975  1.00  0.00    -0.508 A  
HETATM   42  C   UNL     1     -12.409   9.466  71.858  1.00  0.00    -0.450 A  
HETATM   43  C   UNL     1     -13.196   6.834  71.493  1.00  0.00    -0.222 A  
ENDBRANCH  37  38
ENDBRANCH  22  37
ENDBRANCH  19  22
ENDBRANCH  18  19
ENDBRANCH  17  18
BRANCH  17  44
HETATM   44  C   UNL     1      -8.456  11.287  67.151  1.00  0.00    -0.149 C  
BRANCH  44  45
HETATM   45  C   UNL     1      -8.897  11.018  65.724  1.00  0.00    -0.200 A  
HETATM   46  C   UNL     1      -9.872  11.812  65.099  1.00  0.00    -0.263 A  
HETATM   47  C   UNL     1      -8.351   9.945  65.010  1.00  0.00    -0.151 A  
HETATM   48  C   UNL     1     -10.316  11.511  63.807  1.00  0.00    -0.450 A  
HETATM   49  C   UNL     1      -8.792   9.647  63.718  1.00  0.00    -0.257 A  
HETATM   50  C   UNL     1      -9.781  10.424  63.119  1.00  0.00    -0.301 A  
ENDBRANCH  44  45
ENDBRANCH  17  44
ENDBRANCH  15  17
ENDBRANCH   3  13
TORSDOF 14
ENDMDL
MODEL      198
REMARK 921   NORMALIZED FREE ENERGY PREDICTED BY IDOCK:   -4.11 KCAL/MOL
REMARK 922        TOTAL FREE ENERGY PREDICTED BY IDOCK:  -12.03 KCAL/MOL
REMARK 923 INTER-LIGAND FREE ENERGY PREDICTED BY IDOCK:   -9.06 KCAL/MOL
REMARK 924 INTRA-LIGAND FREE ENERGY PREDICTED BY IDOCK:   -2.97 KCAL/MOL
REMARK 927      BINDING AFFINITY PREDICTED BY RF-SCORE:    0.00 PKD
ROOT
HETATM    1  C   UNL     1      -5.131  11.161  66.075  1.00  0.00    -0.126 C  
HETATM    2  C   UNL     1      -5.468  10.351  67.337  1.00  0.00    -0.041 C  
HETATM    3  C   UNL     1      -6.859  10.762  67.912  1.00  0.00    -0.072 C  
HETATM    4  C   UNL     1      -5.351   8.862  67.004  1.00  0.00    -0.040 C  
ENDROOT
BRANCH   3   5
HETATM    5  N   UNL     1      -6.882  12.189  68.310  1.00  0.00    -0.063 N  
HETATM    6  H   UNL     1      -5.992  14.172  70.718  1.00  0.00     0.000 HD 
HETATM    7  O   UNL     1      -5.370  11.914  70.025  1.00  0.00    -0.077 OA 
HETATM    8  C   UNL     1      -7.525  13.184  67.459  1.00  0.00    -0.160 C  
HETATM    9  C   UNL     1      -6.184  12.608  69.422  1.00  0.00    -0.113 C  
HETATM   10  C   UNL     1      -8.375  14.097  68.322  1.00  0.00    -0.157 C  
HETATM   11  N   UNL     1      -6.490  13.856  69.886  1.00  0.00    -0.111 N  
HETATM   12  C   UNL     1      -7.451  14.775  69.313  1.00  0.00    -0.162 C  
ENDBRANCH   3   5
BRANCH   3  13
HETATM   13  C   UNL     1      -7.316   9.810  69.060  1.00  0.00    -0.078 C  
HETATM   14  O   UNL     1      -8.306  10.015  69.755  1.00  0.00    -0.171 OA 
HETATM   15  N   UNL     1      -6.466   8.750  69.300  1.00  0.00    -0.042 N  
HETATM   16  H   UNL     1      -5.678   8.645  68.661  1.00  0.00     0.000 HD 
BRANCH  15  17
HETATM   17  C   UNL     1      -6.571   7.759  70.369  1.00  0.00    -0.038 C  
BRANCH  17  18
HETATM   18  C   UNL     1      -7.627   6.663  70.104  1.00  0.00    -0.096 C  
BRANCH  18  19
HETATM   19  C   UNL     1      -8.004   6.173  68.682  1.00  0.00    -0.101 C  
HETATM   20  O   UNL     1      -6.895   6.376  67.802  1.00  0.00    -0.065 OA 
HETATM   21  H   UNL     1      -7.126   6.076  66.931  1.00  0.00     0.000 HD 
BRANCH  19  22
HETATM   22  C   UNL     1      -9.227   6.991  68.110  1.00  0.00    -0.130 C  
BRANCH  22  23
HETATM   23  N   UNL     1      -9.116   7.300  66.638  1.00  0.00    -0.148 N  
HETATM   24  C   UNL     1      -9.269   8.388  65.806  1.00  0.00    -0.111 C  
HETATM   25  H   UNL     1      -8.852   6.470  66.109  1.00  0.00     0.000 HD 
HETATM   26  O   UNL     1      -8.831   8.307  64.655  1.00  0.00     0.028 OA 
BRANCH  24  27
HETATM   27  C   UNL     1     -10.069   9.619  66.266  1.00  0.00    -0.252 C  
BRANCH  27  28
HETATM   28  O   UNL     1      -9.723  10.946  65.906  1.00  0.00    -0.205 OA 
BRANCH  28  29
HETATM   29  C   UNL     1     -10.737  11.886  65.784  1.00  0.00    -0.284 A  
HETATM   30  C   UNL     1     -11.483  12.222  68.306  1.00  0.00    -0.367 C  
HETATM   31  C   UNL     1     -11.492  12.492  66.822  1.00  0.00    -0.422 A  
HETATM   32  C   UNL     1     -12.398  13.528  66.489  1.00  0.00    -0.382 A  
HETATM   33  C   UNL     1     -12.591  13.959  65.186  1.00  0.00    -0.466 A  
HETATM   34  C   UNL     1     -11.888  13.345  64.165  1.00  0.00    -0.492 A  
HETATM   35  C   UNL     1     -10.974  12.308  64.440  1.00  0.00    -0.374 A  
HETATM   36  C   UNL     1     -10.281  11.684  63.254  1.00  0.00    -0.445 C  
ENDBRANCH  28  29
ENDBRANCH  27  28
ENDBRANCH  24  27
ENDBRANCH  22  23
BRANCH  22  37
HETATM   37  C   UNL     1     -10.596   6.481  68.637  1.00  0.00    -0.289 C  
BRANCH  37  38
HETATM   38  C   UNL     1     -11.134   7.254  69.809  1.00  0.00    -0.203 A  
HETATM   39  C   UNL     1     -12.360   8.704  71.868  1.00  0.00    -0.414 A  
HETATM   40  C   UNL     1     -11.048   8.649  69.840  1.00  0.00    -0.119 A  
HETATM   41  C   UNL     1     -12.388   7.315  71.881  1.00  0.00    -0.346 A  
HETATM   42  C   UNL     1     -11.735   6.598  70.883  1.00  0.00    -0.431 A  
HETATM   43  C   UNL     1     -11.658   9.369  70.865  1.00  0.00    -0.380 A  
ENDBRANCH  37  38
ENDBRANCH  22  37
ENDBRANCH  19  22
ENDBRANCH  18  19
ENDBRANCH  17  18
BRANCH  17  44
HETATM   44  C   UNL     1      -6.487   8.358  71.790  1.00  0.00    -0.064 C  
BRANCH  44  45
HETATM   45  C   UNL     1      -7.395   7.672  72.794  1.00  0.00    -0.094 A  
HETATM   46  C   UNL     1      -6.940   6.596  73.575  1.00  0.00    -0.076 A  
HETATM   47  C   UNL     1      -8.724   8.088  72.940  1.00  0.00    -0.275 A  
HETATM   48  C   UNL     1      -7.809   5.931  74.448  1.00  0.00    -0.096 A  
HETATM   49  C   UNL     1      -9.588   7.425  73.815  1.00  0.00    -0.333 A  
HETATM   50  C   UNL     1      -9.135   6.341  74.562  1.00  0.00    -0.179 A  
ENDBRANCH  44  45
ENDBRANCH  17  44
ENDBRANCH  15  17
ENDBRANCH   3  13
TORSDOF 14
ENDMDL
MODEL      199
REMARK 921   NORMALIZED FREE ENERGY PREDICTED BY IDOCK:   -4.08 KCAL/MOL
REMARK 922        TOTAL FREE ENERGY PREDICTED BY IDOCK:  -11.98 KCAL/MOL
REMARK 923 INTER-LIGAND FREE ENERGY PREDICTED BY IDOCK:   -8.17 KCAL/MOL
REMARK 924 INTRA-LIGAND FREE ENERGY PREDICTED BY IDOCK:   -3.81 KCAL/MOL
REMARK 927      BINDING AFFINITY PREDICTED BY RF-SCORE:    0.00 PKD
ROOT
HETATM    1  C   UNL     1     -12.612  13.688  66.262  1.00  0.00    -0.346 C  
HETATM    2  C   UNL     1     -11.127  13.303  66.337  1.00  0.00    -0.313 C  
HETATM    3  C   UNL     1     -10.868  12.288  67.493  1.00  0.00    -0.234 C  
HETATM    4  C   UNL     1     -10.685  12.801  64.961  1.00  0.00    -0.321 C  
ENDROOT
BRANCH   3   5
HETATM    5  N   UNL     1     -11.220  12.864  68.812  1.00  0.00    -0.263 N  
HETATM    6  H   UNL     1     -12.793  12.152  71.558  1.00  0.00     0.000 HD 
HETATM    7  O   UNL     1     -11.871  10.847  69.711  1.00  0.00    -0.288 OA 
HETATM    8  C   UNL     1     -10.842  14.232  69.146  1.00  0.00    -0.242 C  
HETATM    9  C   UNL     1     -11.794  12.070  69.781  1.00  0.00    -0.331 C  
HETATM   10  C   UNL     1     -12.026  14.929  69.789  1.00  0.00    -0.366 C  
HETATM   11  N   UNL     1     -12.351  12.728  70.841  1.00  0.00    -0.346 N  
HETATM   12  C   UNL     1     -12.378  14.161  71.046  1.00  0.00    -0.366 C  
ENDBRANCH   3   5
BRANCH   3  13
HETATM   13  C   UNL     1      -9.415  11.720  67.452  1.00  0.00    -0.173 C  
HETATM   14  O   UNL     1      -8.413  12.415  67.586  1.00  0.00    -0.149 OA 
HETATM   15  N   UNL     1      -9.333  10.373  67.163  1.00  0.00    -0.156 N  
HETATM   16  H   UNL     1     -10.217   9.870  67.087  1.00  0.00     0.000 HD 
BRANCH  15  17
HETATM   17  C   UNL     1      -8.118   9.588  66.954  1.00  0.00    -0.109 C  
BRANCH  17  18
HETATM   18  C   UNL     1      -7.383   9.215  68.260  1.00  0.00    -0.079 C  
BRANCH  18  19
HETATM   19  C   UNL     1      -6.750   7.822  68.510  1.00  0.00    -0.058 C  
HETATM   20  O   UNL     1      -6.767   7.070  67.293  1.00  0.00    -0.062 OA 
HETATM   21  H   UNL     1      -6.379   6.216  67.447  1.00  0.00     0.000 HD 
BRANCH  19  22
HETATM   22  C   UNL     1      -7.574   7.012  69.586  1.00  0.00    -0.104 C  
BRANCH  22  23
HETATM   23  N   UNL     1      -6.986   5.662  69.911  1.00  0.00    -0.060 N  
HETATM   24  C   UNL     1      -6.926   4.408  69.341  1.00  0.00    -0.050 C  
HETATM   25  H   UNL     1      -6.496   5.681  70.804  1.00  0.00     0.000 HD 
HETATM   26  O   UNL     1      -6.113   3.599  69.799  1.00  0.00    -0.022 OA 
BRANCH  24  27
HETATM   27  C   UNL     1      -7.925   3.997  68.246  1.00  0.00    -0.076 C  
BRANCH  27  28
HETATM   28  O   UNL     1      -8.335   4.869  67.205  1.00  0.00    -0.106 OA 
BRANCH  28  29
HETATM   29  C   UNL     1      -8.095   4.491  65.891  1.00  0.00    -0.102 A  
HETATM   30  C   UNL     1      -5.450   4.313  65.844  1.00  0.00    -0.013 C  
HETATM   31  C   UNL     1      -6.846   4.200  65.283  1.00  0.00    -0.053 A  
HETATM   32  C   UNL     1      -6.832   3.707  63.956  1.00  0.00    -0.044 A  
HETATM   33  C   UNL     1      -7.992   3.517  63.221  1.00  0.00    -0.076 A  
HETATM   34  C   UNL     1      -9.210   3.837  63.793  1.00  0.00    -0.123 A  
HETATM   35  C   UNL     1      -9.280   4.332  65.111  1.00  0.00    -0.151 A  
HETATM   36  C   UNL     1     -10.654   4.680  65.630  1.00  0.00    -0.241 C  
ENDBRANCH  28  29
ENDBRANCH  27  28
ENDBRANCH  24  27
ENDBRANCH  22  23
BRANCH  22  37
HETATM   37  C   UNL     1      -8.050   7.894  70.772  1.00  0.00    -0.101 C  
BRANCH  37  38
HETATM   38  C   UNL     1      -9.530   7.833  71.032  1.00  0.00    -0.165 A  
HETATM   39  C   UNL     1     -12.236   7.537  71.691  1.00  0.00    -0.352 A  
HETATM   40  C   UNL     1     -10.343   6.959  70.306  1.00  0.00    -0.218 A  
HETATM   41  C   UNL     1     -11.450   8.460  72.370  1.00  0.00    -0.451 A  
HETATM   42  C   UNL     1     -10.119   8.639  72.006  1.00  0.00    -0.401 A  
HETATM   43  C   UNL     1     -11.689   6.814  70.634  1.00  0.00    -0.440 A  
ENDBRANCH  37  38
ENDBRANCH  22  37
ENDBRANCH  19  22
ENDBRANCH  18  19
ENDBRANCH  17  18
BRANCH  17  44
HETATM   44  C   UNL     1      -7.270  10.053  65.750  1.00  0.00    -0.117 C  
BRANCH  44  45
HETATM   45  C   UNL     1      -7.263   9.070  64.595  1.00  0.00    -0.097 A  
HETATM   46  C   UNL     1      -8.363   8.952  63.729  1.00  0.00    -0.164 A  
HETATM   47  C   UNL     1      -6.158   8.236  64.388  1.00  0.00    -0.065 A  
HETATM   48  C   UNL     1      -8.368   7.994  62.709  1.00  0.00    -0.052 A  
HETATM   49  C   UNL     1      -6.163   7.283  63.366  1.00  0.00    -0.049 A  
HETATM   50  C   UNL     1      -7.270   7.154  62.533  1.00  0.00    -0.078 A  
ENDBRANCH  44  45
ENDBRANCH  17  44
ENDBRANCH  15  17
ENDBRANCH   3  13
TORSDOF 14
ENDMDL
MODEL      200
REMARK 921   NORMALIZED FREE ENERGY PREDICTED BY IDOCK:   -4.07 KCAL/MOL
REMARK 922        TOTAL FREE ENERGY PREDICTED BY IDOCK:  -11.95 KCAL/MOL
REMARK 923 INTER-LIGAND FREE ENERGY PREDICTED BY IDOCK:   -9.38 KCAL/MOL
REMARK 924 INTRA-LIGAND FREE ENERGY PREDICTED BY IDOCK:   -2.57 KCAL/MOL
REMARK 927      BINDING AFFINITY PREDICTED BY RF-SCORE:    0.00 PKD
ROOT
HETATM    1  C   UNL     1     -12.205  14.386  68.426  1.00  0.00    -0.178 C  
HETATM    2  C   UNL     1     -11.756  12.924  68.577  1.00  0.00    -0.374 C  
HETATM    3  C   UNL     1     -10.517  12.621  67.679  1.00  0.00    -0.219 C  
HETATM    4  C   UNL     1     -11.528  12.638  70.063  1.00  0.00    -0.090 C  
ENDROOT
BRANCH   3   5
HETATM    5  N   UNL     1     -10.826  12.819  66.243  1.00  0.00    -0.271 N  
HETATM    6  H   UNL     1     -10.392  14.930  63.818  1.00  0.00     0.000 HD 
HETATM    7  O   UNL     1      -9.329  14.550  65.984  1.00  0.00    -0.259 OA 
HETATM    8  C   UNL     1     -11.629  11.844  65.517  1.00  0.00    -0.218 C  
HETATM    9  C   UNL     1     -10.248  13.862  65.550  1.00  0.00    -0.331 C  
HETATM   10  C   UNL     1     -12.660  12.576  64.679  1.00  0.00    -0.507 C  
HETATM   11  N   UNL     1     -10.800  14.151  64.334  1.00  0.00    -0.297 N  
HETATM   12  C   UNL     1     -11.908  13.461  63.707  1.00  0.00    -0.431 C  
ENDBRANCH   3   5
BRANCH   3  13
HETATM   13  C   UNL     1      -9.914  11.214  67.976  1.00  0.00    -0.176 C  
HETATM   14  O   UNL     1     -10.539  10.167  67.840  1.00  0.00    -0.212 OA 
HETATM   15  N   UNL     1      -8.636  11.235  68.496  1.00  0.00    -0.154 N  
HETATM   16  H   UNL     1      -8.185  12.148  68.556  1.00  0.00     0.000 HD 
BRANCH  15  17
HETATM   17  C   UNL     1      -7.857  10.093  68.969  1.00  0.00    -0.107 C  
BRANCH  17  18
HETATM   18  C   UNL     1      -8.565   9.264  70.063  1.00  0.00    -0.193 C  
BRANCH  18  19
HETATM   19  C   UNL     1      -8.838   7.744  69.934  1.00  0.00    -0.142 C  
HETATM   20  O   UNL     1      -9.855   7.528  68.953  1.00  0.00    -0.154 OA 
HETATM   21  H   UNL     1     -10.023   6.596  68.874  1.00  0.00     0.000 HD 
BRANCH  19  22
HETATM   22  C   UNL     1      -9.354   7.145  71.301  1.00  0.00    -0.155 C  
BRANCH  22  23
HETATM   23  N   UNL     1      -8.342   6.276  72.005  1.00  0.00    -0.110 N  
HETATM   24  C   UNL     1      -7.040   5.864  71.817  1.00  0.00    -0.085 C  
HETATM   25  H   UNL     1      -8.730   5.883  72.861  1.00  0.00     0.000 HD 
HETATM   26  O   UNL     1      -6.451   5.343  72.768  1.00  0.00    -0.059 OA 
BRANCH  24  27
HETATM   27  C   UNL     1      -6.386   5.946  70.427  1.00  0.00    -0.032 C  
BRANCH  27  28
HETATM   28  O   UNL     1      -6.353   4.854  69.522  1.00  0.00    -0.028 OA 
BRANCH  28  29
HETATM   29  C   UNL     1      -7.437   4.661  68.676  1.00  0.00    -0.065 A  
HETATM   30  C   UNL     1      -8.938   2.984  70.078  1.00  0.00    -0.170 C  
HETATM   31  C   UNL     1      -8.600   3.883  68.915  1.00  0.00    -0.115 A  
HETATM   32  C   UNL     1      -9.652   3.922  67.968  1.00  0.00    -0.189 A  
HETATM   33  C   UNL     1      -9.581   4.676  66.806  1.00  0.00    -0.195 A  
HETATM   34  C   UNL     1      -8.434   5.405  66.548  1.00  0.00    -0.113 A  
HETATM   35  C   UNL     1      -7.357   5.401  67.457  1.00  0.00    -0.076 A  
HETATM   36  C   UNL     1      -6.140   6.203  67.067  1.00  0.00    -0.022 C  
ENDBRANCH  28  29
ENDBRANCH  27  28
ENDBRANCH  24  27
ENDBRANCH  22  23
BRANCH  22  37
HETATM   37  C   UNL     1     -10.135   8.178  72.157  1.00  0.00    -0.320 C  
BRANCH  37  38
HETATM   38  C   UNL     1     -11.612   8.224  71.876  1.00  0.00    -0.377 A  
HETATM   39  C   UNL     1     -14.397   8.325  71.605  1.00  0.00    -0.561 A  
HETATM   40  C   UNL     1     -12.358   7.045  71.809  1.00  0.00    -0.391 A  
HETATM   41  C   UNL     1     -13.654   9.498  71.598  1.00  0.00    -0.426 A  
HETATM   42  C   UNL     1     -12.265   9.440  71.683  1.00  0.00    -0.467 A  
HETATM   43  C   UNL     1     -13.744   7.096  71.674  1.00  0.00    -0.406 A  
ENDBRANCH  37  38
ENDBRANCH  22  37
ENDBRANCH  19  22
ENDBRANCH  18  19
ENDBRANCH  17  18
BRANCH  17  44
HETATM   44  C   UNL     1      -6.351  10.388  69.142  1.00  0.00    -0.046 C  
BRANCH  44  45
HETATM   45  C   UNL     1      -6.058  11.797  69.622  1.00  0.00    -0.119 A  
HETATM   46  C   UNL     1      -6.178  12.902  68.762  1.00  0.00    -0.076 A  
HETATM   47  C   UNL     1      -5.633  12.018  70.937  1.00  0.00    -0.080 A  
HETATM   48  C   UNL     1      -5.840  14.187  69.201  1.00  0.00    -0.087 A  
HETATM   49  C   UNL     1      -5.300  13.302  71.375  1.00  0.00    -0.182 A  
HETATM   50  C   UNL     1      -5.394  14.386  70.506  1.00  0.00    -0.118 A  
ENDBRANCH  44  45
ENDBRANCH  17  44
ENDBRANCH  15  17
ENDBRANCH   3  13
TORSDOF 14
ENDMDL
MODEL      201
REMARK 921   NORMALIZED FREE ENERGY PREDICTED BY IDOCK:   -4.05 KCAL/MOL
REMARK 922        TOTAL FREE ENERGY PREDICTED BY IDOCK:  -11.92 KCAL/MOL
REMARK 923 INTER-LIGAND FREE ENERGY PREDICTED BY IDOCK:  -11.89 KCAL/MOL
REMARK 924 INTRA-LIGAND FREE ENERGY PREDICTED BY IDOCK:   -0.03 KCAL/MOL
REMARK 927      BINDING AFFINITY PREDICTED BY RF-SCORE:    0.00 PKD
ROOT
HETATM    1  C   UNL     1      -6.018  18.544  66.539  1.00  0.00    -0.181 C  
HETATM    2  C   UNL     1      -6.434  17.777  67.804  1.00  0.00    -0.188 C  
HETATM    3  C   UNL     1      -7.746  16.968  67.565  1.00  0.00    -0.170 C  
HETATM    4  C   UNL     1      -5.253  16.919  68.262  1.00  0.00    -0.115 C  
ENDROOT
BRANCH   3   5
HETATM    5  N   UNL     1      -8.879  17.860  67.222  1.00  0.00    -0.240 N  
HETATM    6  H   UNL     1     -10.982  18.494  64.835  1.00  0.00     0.000 HD 
HETATM    7  O   UNL     1      -9.537  16.609  65.404  1.00  0.00    -0.454 OA 
HETATM    8  C   UNL     1      -9.308  18.901  68.148  1.00  0.00    -0.325 C  
HETATM    9  C   UNL     1      -9.620  17.629  66.082  1.00  0.00    -0.188 C  
HETATM   10  C   UNL     1      -9.533  20.188  67.376  1.00  0.00    -0.531 C  
HETATM   11  N   UNL     1     -10.440  18.646  65.685  1.00  0.00    -0.265 N  
HETATM   12  C   UNL     1     -10.617  19.919  66.353  1.00  0.00    -0.420 C  
ENDBRANCH   3   5
BRANCH   3  13
HETATM   13  C   UNL     1      -8.069  16.017  68.758  1.00  0.00    -0.212 C  
HETATM   14  O   UNL     1      -7.215  15.380  69.365  1.00  0.00    -0.172 OA 
HETATM   15  N   UNL     1      -9.414  15.873  69.031  1.00  0.00    -0.232 N  
HETATM   16  H   UNL     1     -10.052  16.456  68.490  1.00  0.00     0.000 HD 
BRANCH  15  17
HETATM   17  C   UNL     1     -10.025  14.977  70.010  1.00  0.00     0.057 C  
BRANCH  17  18
HETATM   18  C   UNL     1     -10.615  13.689  69.395  1.00  0.00     0.099 C  
BRANCH  18  19
HETATM   19  C   UNL     1      -9.757  12.447  69.038  1.00  0.00     0.313 C  
HETATM   20  O   UNL     1      -8.443  12.872  68.666  1.00  0.00    -0.327 OA 
HETATM   21  H   UNL     1      -7.917  12.111  68.448  1.00  0.00     0.000 HD 
BRANCH  19  22
HETATM   22  C   UNL     1     -10.375  11.668  67.811  1.00  0.00    -0.182 C  
BRANCH  22  23
HETATM   23  N   UNL     1     -10.264  10.169  67.926  1.00  0.00    -0.170 N  
HETATM   24  C   UNL     1      -9.798   9.244  68.836  1.00  0.00    -0.165 C  
HETATM   25  H   UNL     1     -10.640   9.710  67.097  1.00  0.00     0.000 HD 
HETATM   26  O   UNL     1     -10.121   8.062  68.681  1.00  0.00    -0.188 OA 
BRANCH  24  27
HETATM   27  C   UNL     1      -8.809   9.659  69.938  1.00  0.00    -0.221 C  
BRANCH  27  28
HETATM   28  O   UNL     1      -8.901   9.195  71.275  1.00  0.00    -0.257 OA 
BRANCH  28  29
HETATM   29  C   UNL     1      -9.947   8.347  71.612  1.00  0.00    -0.234 A  
HETATM   30  C   UNL     1     -12.048   9.948  71.387  1.00  0.00    -0.501 C  
HETATM   31  C   UNL     1     -11.335   8.641  71.627  1.00  0.00    -0.377 A  
HETATM   32  C   UNL     1     -12.251   7.590  71.880  1.00  0.00    -0.339 A  
HETATM   33  C   UNL     1     -11.841   6.290  72.133  1.00  0.00    -0.365 A  
HETATM   34  C   UNL     1     -10.487   6.006  72.161  1.00  0.00    -0.246 A  
HETATM   35  C   UNL     1      -9.533   7.014  71.917  1.00  0.00    -0.148 A  
HETATM   36  C   UNL     1      -8.083   6.608  72.001  1.00  0.00    -0.102 C  
ENDBRANCH  28  29
ENDBRANCH  27  28
ENDBRANCH  24  27
ENDBRANCH  22  23
BRANCH  22  37
HETATM   37  C   UNL     1     -11.733  12.256  67.343  1.00  0.00    -0.405 C  
BRANCH  37  38
HETATM   38  C   UNL     1     -11.778  12.626  65.886  1.00  0.00    -0.470 A  
HETATM   39  C   UNL     1     -11.641  13.445  63.211  1.00  0.00     0.079 A  
HETATM   40  C   UNL     1     -12.435  13.786  65.468  1.00  0.00    -0.548 A  
HETATM   41  C   UNL     1     -11.047  12.253  63.607  1.00  0.00    -0.537 A  
HETATM   42  C   UNL     1     -11.159  11.826  64.926  1.00  0.00    -0.345 A  
HETATM   43  C   UNL     1     -12.367  14.192  64.137  1.00  0.00    -0.372 A  
ENDBRANCH  37  38
ENDBRANCH  22  37
ENDBRANCH  19  22
ENDBRANCH  18  19
ENDBRANCH  17  18
BRANCH  17  44
HETATM   44  C   UNL     1     -10.843  15.701  71.101  1.00  0.00    -0.111 C  
BRANCH  44  45
HETATM   45  C   UNL     1     -12.104  14.962  71.506  1.00  0.00    -0.406 A  
HETATM   46  C   UNL     1     -13.235  15.650  71.978  1.00  0.00    -0.541 A  
HETATM   47  C   UNL     1     -12.152  13.565  71.441  1.00  0.00     0.048 A  
HETATM   48  C   UNL     1     -14.366  14.950  72.411  1.00  0.00    -0.403 A  
HETATM   49  C   UNL     1     -13.285  12.867  71.870  1.00  0.00    -0.521 A  
HETATM   50  C   UNL     1     -14.388  13.558  72.364  1.00  0.00    -0.310 A  
ENDBRANCH  44  45
ENDBRANCH  17  44
ENDBRANCH  15  17
ENDBRANCH   3  13
TORSDOF 14
ENDMDL
MODEL      202
REMARK 921   NORMALIZED FREE ENERGY PREDICTED BY IDOCK:   -4.04 KCAL/MOL
REMARK 922        TOTAL FREE ENERGY PREDICTED BY IDOCK:  -11.90 KCAL/MOL
REMARK 923 INTER-LIGAND FREE ENERGY PREDICTED BY IDOCK:   -8.84 KCAL/MOL
REMARK 924 INTRA-LIGAND FREE ENERGY PREDICTED BY IDOCK:   -3.06 KCAL/MOL
REMARK 927      BINDING AFFINITY PREDICTED BY RF-SCORE:    0.00 PKD
ROOT
HETATM    1  C   UNL     1     -12.892  15.550  70.042  1.00  0.00    -0.047 C  
HETATM    2  C   UNL     1     -11.537  15.313  69.356  1.00  0.00    -0.347 C  
HETATM    3  C   UNL     1     -11.553  13.996  68.520  1.00  0.00    -0.322 C  
HETATM    4  C   UNL     1     -11.181  16.559  68.542  1.00  0.00    -0.296 C  
ENDROOT
BRANCH   3   5
HETATM    5  N   UNL     1     -11.804  12.813  69.376  1.00  0.00    -0.307 N  
HETATM    6  H   UNL     1     -12.721   9.706  69.210  1.00  0.00     0.000 HD 
HETATM    7  O   UNL     1     -11.850  11.334  67.612  1.00  0.00    -0.614 OA 
HETATM    8  C   UNL     1     -11.681  12.908  70.825  1.00  0.00     0.432 C  
HETATM    9  C   UNL     1     -12.028  11.580  68.801  1.00  0.00    -0.271 C  
HETATM   10  C   UNL     1     -12.868  12.216  71.469  1.00  0.00    -0.394 C  
HETATM   11  N   UNL     1     -12.536  10.618  69.627  1.00  0.00    -0.178 N  
HETATM   12  C   UNL     1     -12.837  10.765  71.036  1.00  0.00    -0.385 C  
ENDBRANCH   3   5
BRANCH   3  13
HETATM   13  C   UNL     1     -10.270  13.847  67.647  1.00  0.00    -0.242 C  
HETATM   14  O   UNL     1     -10.286  13.810  66.421  1.00  0.00    -0.279 OA 
HETATM   15  N   UNL     1      -9.104  13.669  68.364  1.00  0.00    -0.255 N  
HETATM   16  H   UNL     1      -9.181  13.733  69.379  1.00  0.00     0.000 HD 
BRANCH  15  17
HETATM   17  C   UNL     1      -7.772  13.397  67.829  1.00  0.00    -0.161 C  
BRANCH  17  18
HETATM   18  C   UNL     1      -7.294  11.945  68.053  1.00  0.00    -0.100 C  
BRANCH  18  19
HETATM   19  C   UNL     1      -7.946  10.984  69.080  1.00  0.00    -0.114 C  
HETATM   20  O   UNL     1      -7.283  11.119  70.340  1.00  0.00    -0.379 OA 
HETATM   21  H   UNL     1      -7.682  10.530  70.970  1.00  0.00     0.000 HD 
BRANCH  19  22
HETATM   22  C   UNL     1      -7.799   9.481  68.619  1.00  0.00    -0.084 C  
BRANCH  22  23
HETATM   23  N   UNL     1      -6.849   9.291  67.463  1.00  0.00    -0.076 N  
HETATM   24  C   UNL     1      -6.758   9.666  66.140  1.00  0.00    -0.083 C  
HETATM   25  H   UNL     1      -6.047   8.724  67.739  1.00  0.00     0.000 HD 
HETATM   26  O   UNL     1      -5.672   9.526  65.569  1.00  0.00    -0.054 OA 
BRANCH  24  27
HETATM   27  C   UNL     1      -8.005  10.134  65.372  1.00  0.00    -0.144 C  
BRANCH  27  28
HETATM   28  O   UNL     1      -9.044   9.254  64.974  1.00  0.00    -0.217 OA 
BRANCH  28  29
HETATM   29  C   UNL     1      -8.794   7.889  64.974  1.00  0.00     0.210 A  
HETATM   30  C   UNL     1      -7.029   7.654  63.009  1.00  0.00    -0.072 C  
HETATM   31  C   UNL     1      -7.885   7.171  64.153  1.00  0.00    -0.113 A  
HETATM   32  C   UNL     1      -7.686   5.791  64.403  1.00  0.00    -0.100 A  
HETATM   33  C   UNL     1      -8.361   5.110  65.404  1.00  0.00    -0.132 A  
HETATM   34  C   UNL     1      -9.278   5.795  66.181  1.00  0.00    -0.169 A  
HETATM   35  C   UNL     1      -9.515   7.169  65.975  1.00  0.00     0.031 A  
HETATM   36  C   UNL     1     -10.557   7.816  66.854  1.00  0.00    -0.347 C  
ENDBRANCH  28  29
ENDBRANCH  27  28
ENDBRANCH  24  27
ENDBRANCH  22  23
BRANCH  22  37
HETATM   37  C   UNL     1      -7.692   8.491  69.810  1.00  0.00    -0.092 C  
BRANCH  37  38
HETATM   38  C   UNL     1      -8.915   7.640  70.017  1.00  0.00    -0.143 A  
HETATM   39  C   UNL     1     -11.246   6.094  70.156  1.00  0.00    -0.452 A  
HETATM   40  C   UNL     1     -10.123   8.218  70.414  1.00  0.00    -0.199 A  
HETATM   41  C   UNL     1     -10.034   5.499  69.831  1.00  0.00    -0.282 A  
HETATM   42  C   UNL     1      -8.869   6.262  69.812  1.00  0.00    -0.140 A  
HETATM   43  C   UNL     1     -11.282   7.448  70.483  1.00  0.00    -0.296 A  
ENDBRANCH  37  38
ENDBRANCH  22  37
ENDBRANCH  19  22
ENDBRANCH  18  19
ENDBRANCH  17  18
BRANCH  17  44
HETATM   44  C   UNL     1      -6.758  14.539  68.057  1.00  0.00    -0.153 C  
BRANCH  44  45
HETATM   45  C   UNL     1      -7.331  15.921  67.806  1.00  0.00    -0.162 A  
HETATM   46  C   UNL     1      -7.474  16.854  68.846  1.00  0.00    -0.238 A  
HETATM   47  C   UNL     1      -7.757  16.283  66.522  1.00  0.00    -0.260 A  
HETATM   48  C   UNL     1      -8.066  18.099  68.611  1.00  0.00    -0.301 A  
HETATM   49  C   UNL     1      -8.344  17.529  66.288  1.00  0.00    -0.259 A  
HETATM   50  C   UNL     1      -8.508  18.434  67.333  1.00  0.00    -0.257 A  
ENDBRANCH  44  45
ENDBRANCH  17  44
ENDBRANCH  15  17
ENDBRANCH   3  13
TORSDOF 14
ENDMDL
MODEL      203
REMARK 921   NORMALIZED FREE ENERGY PREDICTED BY IDOCK:   -4.03 KCAL/MOL
REMARK 922        TOTAL FREE ENERGY PREDICTED BY IDOCK:  -11.88 KCAL/MOL
REMARK 923 INTER-LIGAND FREE ENERGY PREDICTED BY IDOCK:   -9.11 KCAL/MOL
REMARK 924 INTRA-LIGAND FREE ENERGY PREDICTED BY IDOCK:   -2.78 KCAL/MOL
REMARK 927      BINDING AFFINITY PREDICTED BY RF-SCORE:    0.00 PKD
ROOT
HETATM    1  C   UNL     1      -9.646   3.104  70.883  1.00  0.00    -0.225 C  
HETATM    2  C   UNL     1      -8.971   4.208  70.055  1.00  0.00    -0.158 C  
HETATM    3  C   UNL     1      -7.803   4.871  70.849  1.00  0.00    -0.083 C  
HETATM    4  C   UNL     1      -8.546   3.615  68.710  1.00  0.00    -0.118 C  
ENDROOT
BRANCH   3   5
HETATM    5  N   UNL     1      -8.289   5.515  72.092  1.00  0.00    -0.122 N  
HETATM    6  H   UNL     1      -7.679   5.679  75.274  1.00  0.00     0.000 HD 
HETATM    7  O   UNL     1      -6.412   4.970  73.311  1.00  0.00    -0.055 OA 
HETATM    8  C   UNL     1      -9.464   6.376  72.070  1.00  0.00    -0.151 C  
HETATM    9  C   UNL     1      -7.557   5.408  73.256  1.00  0.00    -0.096 C  
HETATM   10  C   UNL     1     -10.359   6.025  73.243  1.00  0.00    -0.238 C  
HETATM   11  N   UNL     1      -8.204   5.768  74.405  1.00  0.00    -0.106 N  
HETATM   12  C   UNL     1      -9.561   6.262  74.508  1.00  0.00    -0.264 C  
ENDBRANCH   3   5
BRANCH   3  13
HETATM   13  C   UNL     1      -6.969   5.839  69.956  1.00  0.00    -0.065 C  
HETATM   14  O   UNL     1      -5.784   6.087  70.150  1.00  0.00    -0.012 OA 
HETATM   15  N   UNL     1      -7.692   6.475  68.967  1.00  0.00    -0.107 N  
HETATM   16  H   UNL     1      -8.667   6.193  68.865  1.00  0.00     0.000 HD 
BRANCH  15  17
HETATM   17  C   UNL     1      -7.215   7.508  68.051  1.00  0.00    -0.090 C  
BRANCH  17  18
HETATM   18  C   UNL     1      -8.278   8.574  67.703  1.00  0.00    -0.118 C  
BRANCH  18  19
HETATM   19  C   UNL     1      -8.601   9.783  68.619  1.00  0.00    -0.121 C  
HETATM   20  O   UNL     1      -7.997   9.580  69.900  1.00  0.00    -0.112 OA 
HETATM   21  H   UNL     1      -8.195  10.320  70.461  1.00  0.00     0.000 HD 
BRANCH  19  22
HETATM   22  C   UNL     1     -10.158   9.924  68.839  1.00  0.00    -0.184 C  
BRANCH  22  23
HETATM   23  N   UNL     1     -10.895  10.458  67.636  1.00  0.00    -0.287 N  
HETATM   24  C   UNL     1     -11.445  11.651  67.219  1.00  0.00    -0.277 C  
HETATM   25  H   UNL     1     -11.022   9.731  66.933  1.00  0.00     0.000 HD 
HETATM   26  O   UNL     1     -11.751  11.766  66.029  1.00  0.00    -0.433 OA 
BRANCH  24  27
HETATM   27  C   UNL     1     -11.777  12.757  68.235  1.00  0.00    -0.344 C  
BRANCH  27  28
HETATM   28  O   UNL     1     -12.027  14.102  67.861  1.00  0.00    -0.360 OA 
BRANCH  28  29
HETATM   29  C   UNL     1     -10.948  14.908  67.524  1.00  0.00    -0.302 A  
HETATM   30  C   UNL     1     -10.844  14.614  64.890  1.00  0.00    -0.436 C  
HETATM   31  C   UNL     1     -10.438  15.182  66.227  1.00  0.00    -0.312 A  
HETATM   32  C   UNL     1      -9.403  16.138  66.092  1.00  0.00    -0.372 A  
HETATM   33  C   UNL     1      -8.854  16.801  67.178  1.00  0.00    -0.217 A  
HETATM   34  C   UNL     1      -9.319  16.508  68.448  1.00  0.00    -0.221 A  
HETATM   35  C   UNL     1     -10.347  15.564  68.640  1.00  0.00    -0.219 A  
HETATM   36  C   UNL     1     -10.760  15.294  70.066  1.00  0.00    -0.297 C  
ENDBRANCH  28  29
ENDBRANCH  27  28
ENDBRANCH  24  27
ENDBRANCH  22  23
BRANCH  22  37
HETATM   37  C   UNL     1     -10.776   8.709  69.582  1.00  0.00    -0.204 C  
BRANCH  37  38
HETATM   38  C   UNL     1     -11.884   9.066  70.535  1.00  0.00    -0.107 A  
HETATM   39  C   UNL     1     -13.771   9.723  72.496  1.00  0.00    -0.176 A  
HETATM   40  C   UNL     1     -12.639   8.065  71.152  1.00  0.00    -0.176 A  
HETATM   41  C   UNL     1     -13.076  10.727  71.835  1.00  0.00    -0.557 A  
HETATM   42  C   UNL     1     -12.175  10.398  70.826  1.00  0.00    -0.457 A  
HETATM   43  C   UNL     1     -13.578   8.394  72.128  1.00  0.00    -0.361 A  
ENDBRANCH  37  38
ENDBRANCH  22  37
ENDBRANCH  19  22
ENDBRANCH  18  19
ENDBRANCH  17  18
BRANCH  17  44
HETATM   44  C   UNL     1      -6.323   6.973  66.909  1.00  0.00    -0.052 C  
BRANCH  44  45
HETATM   45  C   UNL     1      -6.917   5.783  66.180  1.00  0.00    -0.059 A  
HETATM   46  C   UNL     1      -6.335   4.507  66.267  1.00  0.00    -0.036 A  
HETATM   47  C   UNL     1      -8.053   5.944  65.379  1.00  0.00    -0.130 A  
HETATM   48  C   UNL     1      -6.856   3.434  65.536  1.00  0.00    -0.052 A  
HETATM   49  C   UNL     1      -8.575   4.870  64.652  1.00  0.00    -0.149 A  
HETATM   50  C   UNL     1      -7.972   3.618  64.723  1.00  0.00    -0.090 A  
ENDBRANCH  44  45
ENDBRANCH  17  44
ENDBRANCH  15  17
ENDBRANCH   3  13
TORSDOF 14
ENDMDL
MODEL      204
REMARK 921   NORMALIZED FREE ENERGY PREDICTED BY IDOCK:   -4.03 KCAL/MOL
REMARK 922        TOTAL FREE ENERGY PREDICTED BY IDOCK:  -11.88 KCAL/MOL
REMARK 923 INTER-LIGAND FREE ENERGY PREDICTED BY IDOCK:   -8.35 KCAL/MOL
REMARK 924 INTRA-LIGAND FREE ENERGY PREDICTED BY IDOCK:   -3.53 KCAL/MOL
REMARK 927      BINDING AFFINITY PREDICTED BY RF-SCORE:    0.00 PKD
ROOT
HETATM    1  C   UNL     1     -10.710  12.911  63.769  1.00  0.00    -0.320 C  
HETATM    2  C   UNL     1      -9.840  12.052  64.700  1.00  0.00    -0.182 C  
HETATM    3  C   UNL     1     -10.471  11.951  66.123  1.00  0.00    -0.237 C  
HETATM    4  C   UNL     1      -9.603  10.697  64.030  1.00  0.00    -0.351 C  
ENDROOT
BRANCH   3   5
HETATM    5  N   UNL     1     -10.584  13.282  66.764  1.00  0.00    -0.274 N  
HETATM    6  H   UNL     1     -12.384  14.929  68.902  1.00  0.00     0.000 HD 
HETATM    7  O   UNL     1     -12.045  12.565  68.392  1.00  0.00    -0.272 OA 
HETATM    8  C   UNL     1      -9.677  14.361  66.393  1.00  0.00    -0.302 C  
HETATM    9  C   UNL     1     -11.464  13.474  67.807  1.00  0.00    -0.315 C  
HETATM   10  C   UNL     1     -10.476  15.636  66.203  1.00  0.00    -0.327 C  
HETATM   11  N   UNL     1     -11.723  14.773  68.141  1.00  0.00    -0.333 N  
HETATM   12  C   UNL     1     -11.151  15.950  67.522  1.00  0.00    -0.235 C  
ENDBRANCH   3   5
BRANCH   3  13
HETATM   13  C   UNL     1      -9.723  10.914  67.017  1.00  0.00    -0.176 C  
HETATM   14  O   UNL     1      -8.585  11.082  67.441  1.00  0.00    -0.130 OA 
HETATM   15  N   UNL     1     -10.411   9.736  67.229  1.00  0.00    -0.232 N  
HETATM   16  H   UNL     1     -11.359   9.691  66.857  1.00  0.00     0.000 HD 
BRANCH  15  17
HETATM   17  C   UNL     1      -9.930   8.547  67.929  1.00  0.00    -0.181 C  
BRANCH  17  18
HETATM   18  C   UNL     1     -10.763   8.175  69.175  1.00  0.00    -0.117 C  
BRANCH  18  19
HETATM   19  C   UNL     1     -10.916   9.108  70.404  1.00  0.00    -0.248 C  
HETATM   20  O   UNL     1     -10.477  10.425  70.056  1.00  0.00    -0.357 OA 
HETATM   21  H   UNL     1     -10.571  10.996  70.809  1.00  0.00     0.000 HD 
BRANCH  19  22
HETATM   22  C   UNL     1     -10.024   8.608  71.607  1.00  0.00    -0.282 C  
BRANCH  22  23
HETATM   23  N   UNL     1     -10.364   7.215  72.077  1.00  0.00    -0.191 N  
HETATM   24  C   UNL     1     -10.078   5.916  71.717  1.00  0.00    -0.187 C  
HETATM   25  H   UNL     1     -10.979   7.243  72.889  1.00  0.00     0.000 HD 
HETATM   26  O   UNL     1     -10.344   5.018  72.522  1.00  0.00    -0.189 OA 
BRANCH  24  27
HETATM   27  C   UNL     1      -9.554   5.590  70.308  1.00  0.00    -0.174 C  
BRANCH  27  28
HETATM   28  O   UNL     1     -10.245   4.748  69.401  1.00  0.00    -0.210 OA 
BRANCH  28  29
HETATM   29  C   UNL     1      -9.508   3.873  68.615  1.00  0.00    -0.150 A  
HETATM   30  C   UNL     1      -8.192   2.469  70.440  1.00  0.00    -0.064 C  
HETATM   31  C   UNL     1      -8.636   2.839  69.046  1.00  0.00    -0.116 A  
HETATM   32  C   UNL     1      -8.076   1.972  68.077  1.00  0.00    -0.066 A  
HETATM   33  C   UNL     1      -8.330   2.107  66.721  1.00  0.00    -0.092 A  
HETATM   34  C   UNL     1      -9.147   3.138  66.291  1.00  0.00    -0.158 A  
HETATM   35  C   UNL     1      -9.730   4.030  67.213  1.00  0.00    -0.199 A  
HETATM   36  C   UNL     1     -10.578   5.138  66.639  1.00  0.00    -0.295 C  
ENDBRANCH  28  29
ENDBRANCH  27  28
ENDBRANCH  24  27
ENDBRANCH  22  23
BRANCH  22  37
HETATM   37  C   UNL     1      -8.522   8.963  71.435  1.00  0.00    -0.216 C  
BRANCH  37  38
HETATM   38  C   UNL     1      -7.599   8.199  72.344  1.00  0.00    -0.153 A  
HETATM   39  C   UNL     1      -5.710   6.969  74.006  1.00  0.00    -0.055 A  
HETATM   40  C   UNL     1      -6.687   7.280  71.818  1.00  0.00    -0.051 A  
HETATM   41  C   UNL     1      -6.660   7.827  74.546  1.00  0.00    -0.111 A  
HETATM   42  C   UNL     1      -7.627   8.398  73.723  1.00  0.00    -0.156 A  
HETATM   43  C   UNL     1      -5.749   6.668  72.647  1.00  0.00    -0.038 A  
ENDBRANCH  37  38
ENDBRANCH  22  37
ENDBRANCH  19  22
ENDBRANCH  18  19
ENDBRANCH  17  18
BRANCH  17  44
HETATM   44  C   UNL     1      -8.392   8.457  68.031  1.00  0.00    -0.128 C  
BRANCH  44  45
HETATM   45  C   UNL     1      -7.790   7.347  67.190  1.00  0.00    -0.117 A  
HETATM   46  C   UNL     1      -6.925   6.392  67.751  1.00  0.00    -0.075 A  
HETATM   47  C   UNL     1      -8.070   7.270  65.821  1.00  0.00    -0.129 A  
HETATM   48  C   UNL     1      -6.326   5.414  66.949  1.00  0.00    -0.039 A  
HETATM   49  C   UNL     1      -7.475   6.290  65.022  1.00  0.00    -0.083 A  
HETATM   50  C   UNL     1      -6.595   5.368  65.583  1.00  0.00    -0.041 A  
ENDBRANCH  44  45
ENDBRANCH  17  44
ENDBRANCH  15  17
ENDBRANCH   3  13
TORSDOF 14
ENDMDL
MODEL      205
REMARK 921   NORMALIZED FREE ENERGY PREDICTED BY IDOCK:   -4.02 KCAL/MOL
REMARK 922        TOTAL FREE ENERGY PREDICTED BY IDOCK:  -11.87 KCAL/MOL
REMARK 923 INTER-LIGAND FREE ENERGY PREDICTED BY IDOCK:   -8.13 KCAL/MOL
REMARK 924 INTRA-LIGAND FREE ENERGY PREDICTED BY IDOCK:   -3.74 KCAL/MOL
REMARK 927      BINDING AFFINITY PREDICTED BY RF-SCORE:    0.00 PKD
ROOT
HETATM    1  C   UNL     1     -12.235  11.888  68.184  1.00  0.00     0.216 C  
HETATM    2  C   UNL     1     -10.921  11.103  68.324  1.00  0.00    -0.278 C  
HETATM    3  C   UNL     1      -9.718  11.915  67.751  1.00  0.00    -0.189 C  
HETATM    4  C   UNL     1     -10.752  10.697  69.789  1.00  0.00    -0.283 C  
ENDROOT
BRANCH   3   5
HETATM    5  N   UNL     1      -9.890  12.193  66.306  1.00  0.00    -0.229 N  
HETATM    6  H   UNL     1     -10.543  14.610  64.243  1.00  0.00     0.000 HD 
HETATM    7  O   UNL     1      -9.773  14.479  66.557  1.00  0.00    -0.261 OA 
HETATM    8  C   UNL     1      -9.808  11.114  65.329  1.00  0.00    -0.249 C  
HETATM    9  C   UNL     1      -9.998  13.493  65.861  1.00  0.00    -0.283 C  
HETATM   10  C   UNL     1     -10.948  11.255  64.339  1.00  0.00    -0.331 C  
HETATM   11  N   UNL     1     -10.444  13.652  64.579  1.00  0.00    -0.435 N  
HETATM   12  C   UNL     1     -10.788  12.595  63.651  1.00  0.00    -0.395 C  
ENDBRANCH   3   5
BRANCH   3  13
HETATM   13  C   UNL     1      -8.352  11.236  68.076  1.00  0.00    -0.136 C  
HETATM   14  O   UNL     1      -8.014  10.146  67.626  1.00  0.00    -0.102 OA 
HETATM   15  N   UNL     1      -7.574  11.918  68.989  1.00  0.00    -0.313 N  
HETATM   16  H   UNL     1      -7.924  12.826  69.295  1.00  0.00     0.000 HD 
BRANCH  15  17
HETATM   17  C   UNL     1      -6.304  11.483  69.565  1.00  0.00    -0.116 C  
BRANCH  17  18
HETATM   18  C   UNL     1      -6.439  10.304  70.554  1.00  0.00    -0.104 C  
BRANCH  18  19
HETATM   19  C   UNL     1      -6.048   8.847  70.198  1.00  0.00    -0.037 C  
HETATM   20  O   UNL     1      -5.889   8.733  68.781  1.00  0.00    -0.040 OA 
HETATM   21  H   UNL     1      -5.650   7.840  68.562  1.00  0.00     0.000 HD 
BRANCH  19  22
HETATM   22  C   UNL     1      -7.177   7.835  70.637  1.00  0.00    -0.061 C  
BRANCH  22  23
HETATM   23  N   UNL     1      -6.683   6.426  70.846  1.00  0.00    -0.056 N  
HETATM   24  C   UNL     1      -6.019   5.457  70.124  1.00  0.00    -0.021 C  
HETATM   25  H   UNL     1      -6.903   6.097  71.785  1.00  0.00     0.000 HD 
HETATM   26  O   UNL     1      -5.554   4.491  70.737  1.00  0.00    -0.013 OA 
BRANCH  24  27
HETATM   27  C   UNL     1      -5.966   5.523  68.589  1.00  0.00    -0.021 C  
BRANCH  27  28
HETATM   28  O   UNL     1      -6.848   4.794  67.752  1.00  0.00    -0.057 OA 
BRANCH  28  29
HETATM   29  C   UNL     1      -8.060   5.373  67.402  1.00  0.00    -0.101 A  
HETATM   30  C   UNL     1      -7.283   7.398  65.876  1.00  0.00    -0.066 C  
HETATM   31  C   UNL     1      -8.279   6.486  66.548  1.00  0.00    -0.113 A  
HETATM   32  C   UNL     1      -9.610   6.840  66.219  1.00  0.00    -0.087 A  
HETATM   33  C   UNL     1     -10.708   6.153  66.715  1.00  0.00    -0.371 A  
HETATM   34  C   UNL     1     -10.502   5.093  67.580  1.00  0.00    -0.148 A  
HETATM   35  C   UNL     1      -9.198   4.699  67.941  1.00  0.00    -0.154 A  
HETATM   36  C   UNL     1      -9.084   3.552  68.914  1.00  0.00    -0.205 C  
ENDBRANCH  28  29
ENDBRANCH  27  28
ENDBRANCH  24  27
ENDBRANCH  22  23
BRANCH  22  37
HETATM   37  C   UNL     1      -8.137   8.427  71.705  1.00  0.00    -0.192 C  
BRANCH  37  38
HETATM   38  C   UNL     1      -9.537   7.880  71.649  1.00  0.00    -0.206 A  
HETATM   39  C   UNL     1     -12.192   7.037  71.364  1.00  0.00    -0.407 A  
HETATM   40  C   UNL     1     -10.536   8.402  72.474  1.00  0.00    -0.368 A  
HETATM   41  C   UNL     1     -11.191   6.462  70.590  1.00  0.00    -0.400 A  
HETATM   42  C   UNL     1      -9.866   6.849  70.770  1.00  0.00    -0.190 A  
HETATM   43  C   UNL     1     -11.857   7.981  72.332  1.00  0.00    -0.429 A  
ENDBRANCH  37  38
ENDBRANCH  22  37
ENDBRANCH  19  22
ENDBRANCH  18  19
ENDBRANCH  17  18
BRANCH  17  44
HETATM   44  C   UNL     1      -5.355  12.641  69.941  1.00  0.00    -0.094 C  
BRANCH  44  45
HETATM   45  C   UNL     1      -5.775  13.982  69.371  1.00  0.00    -0.088 A  
HETATM   46  C   UNL     1      -5.231  14.469  68.170  1.00  0.00    -0.118 A  
HETATM   47  C   UNL     1      -6.704  14.777  70.053  1.00  0.00    -0.148 A  
HETATM   48  C   UNL     1      -5.580  15.737  67.692  1.00  0.00    -0.138 A  
HETATM   49  C   UNL     1      -7.054  16.041  69.571  1.00  0.00    -0.181 A  
HETATM   50  C   UNL     1      -6.486  16.526  68.397  1.00  0.00    -0.133 A  
ENDBRANCH  44  45
ENDBRANCH  17  44
ENDBRANCH  15  17
ENDBRANCH   3  13
TORSDOF 14
ENDMDL
MODEL      206
REMARK 921   NORMALIZED FREE ENERGY PREDICTED BY IDOCK:   -4.00 KCAL/MOL
REMARK 922        TOTAL FREE ENERGY PREDICTED BY IDOCK:  -11.83 KCAL/MOL
REMARK 923 INTER-LIGAND FREE ENERGY PREDICTED BY IDOCK:   -9.45 KCAL/MOL
REMARK 924 INTRA-LIGAND FREE ENERGY PREDICTED BY IDOCK:   -2.39 KCAL/MOL
REMARK 927      BINDING AFFINITY PREDICTED BY RF-SCORE:    0.00 PKD
ROOT
HETATM    1  C   UNL     1      -8.567   4.545  73.388  1.00  0.00    -0.101 C  
HETATM    2  C   UNL     1      -7.942   5.562  72.421  1.00  0.00    -0.103 C  
HETATM    3  C   UNL     1      -8.626   6.958  72.556  1.00  0.00    -0.121 C  
HETATM    4  C   UNL     1      -6.430   5.588  72.654  1.00  0.00    -0.064 C  
ENDROOT
BRANCH   3   5
HETATM    5  N   UNL     1     -10.068   6.891  72.222  1.00  0.00    -0.176 N  
HETATM    6  H   UNL     1     -12.081   6.180  69.780  1.00  0.00     0.000 HD 
HETATM    7  O   UNL     1      -9.739   5.702  70.278  1.00  0.00    -0.164 OA 
HETATM    8  C   UNL     1     -11.073   7.285  73.201  1.00  0.00    -0.292 C  
HETATM    9  C   UNL     1     -10.475   6.334  71.029  1.00  0.00    -0.225 C  
HETATM   10  C   UNL     1     -12.111   8.157  72.521  1.00  0.00    -0.377 C  
HETATM   11  N   UNL     1     -11.771   6.574  70.668  1.00  0.00    -0.390 N  
HETATM   12  C   UNL     1     -12.747   7.332  71.422  1.00  0.00    -0.389 C  
ENDBRANCH   3   5
BRANCH   3  13
HETATM   13  C   UNL     1      -7.870   8.055  71.745  1.00  0.00    -0.110 C  
HETATM   14  O   UNL     1      -7.521   9.130  72.221  1.00  0.00    -0.320 OA 
HETATM   15  N   UNL     1      -7.696   7.763  70.407  1.00  0.00    -0.087 N  
HETATM   16  H   UNL     1      -7.999   6.839  70.100  1.00  0.00     0.000 HD 
BRANCH  15  17
HETATM   17  C   UNL     1      -7.125   8.633  69.381  1.00  0.00    -0.053 C  
BRANCH  17  18
HETATM   18  C   UNL     1      -7.509   8.233  67.939  1.00  0.00    -0.098 C  
BRANCH  18  19
HETATM   19  C   UNL     1      -8.883   8.564  67.302  1.00  0.00    -0.130 C  
HETATM   20  O   UNL     1      -9.919   7.936  68.063  1.00  0.00    -0.163 OA 
HETATM   21  H   UNL     1     -10.762   8.139  67.673  1.00  0.00     0.000 HD 
BRANCH  19  22
HETATM   22  C   UNL     1      -8.969   8.010  65.826  1.00  0.00    -0.102 C  
BRANCH  22  23
HETATM   23  N   UNL     1      -9.477   9.020  64.828  1.00  0.00    -0.359 N  
HETATM   24  C   UNL     1      -9.896  10.334  64.823  1.00  0.00    -0.334 C  
HETATM   25  H   UNL     1      -9.526   8.618  63.892  1.00  0.00     0.000 HD 
HETATM   26  O   UNL     1     -10.000  10.907  63.735  1.00  0.00    -0.293 OA 
BRANCH  24  27
HETATM   27  C   UNL     1     -10.332  11.021  66.128  1.00  0.00    -0.251 C  
BRANCH  27  28
HETATM   28  O   UNL     1     -11.563  11.713  66.264  1.00  0.00    -0.420 OA 
BRANCH  28  29
HETATM   29  C   UNL     1     -11.731  12.557  67.353  1.00  0.00    -0.366 A  
HETATM   30  C   UNL     1     -11.668  10.855  69.385  1.00  0.00    -0.397 C  
HETATM   31  C   UNL     1     -11.738  12.212  68.730  1.00  0.00    -0.374 A  
HETATM   32  C   UNL     1     -11.797  13.250  69.692  1.00  0.00    -0.391 A  
HETATM   33  C   UNL     1     -11.871  14.589  69.339  1.00  0.00    -0.367 A  
HETATM   34  C   UNL     1     -11.906  14.929  67.999  1.00  0.00    -0.296 A  
HETATM   35  C   UNL     1     -11.850  13.936  67.001  1.00  0.00    -0.447 A  
HETATM   36  C   UNL     1     -11.927  14.410  65.570  1.00  0.00    -0.358 C  
ENDBRANCH  28  29
ENDBRANCH  27  28
ENDBRANCH  24  27
ENDBRANCH  22  23
BRANCH  22  37
HETATM   37  C   UNL     1      -7.732   7.162  65.425  1.00  0.00    -0.111 C  
BRANCH  37  38
HETATM   38  C   UNL     1      -8.001   5.685  65.326  1.00  0.00    -0.114 A  
HETATM   39  C   UNL     1      -8.426   2.918  65.387  1.00  0.00    -0.102 A  
HETATM   40  C   UNL     1      -6.998   4.807  64.909  1.00  0.00    -0.061 A  
HETATM   41  C   UNL     1      -9.451   3.788  65.735  1.00  0.00    -0.170 A  
HETATM   42  C   UNL     1      -9.251   5.163  65.656  1.00  0.00    -0.157 A  
HETATM   43  C   UNL     1      -7.211   3.431  64.939  1.00  0.00    -0.066 A  
ENDBRANCH  37  38
ENDBRANCH  22  37
ENDBRANCH  19  22
ENDBRANCH  18  19
ENDBRANCH  17  18
BRANCH  17  44
HETATM   44  C   UNL     1      -5.664   9.053  69.654  1.00  0.00    -0.033 C  
BRANCH  44  45
HETATM   45  C   UNL     1      -5.447  10.554  69.622  1.00  0.00    -0.038 A  
HETATM   46  C   UNL     1      -5.421  11.314  70.804  1.00  0.00    -0.124 A  
HETATM   47  C   UNL     1      -5.293  11.217  68.399  1.00  0.00    -0.043 A  
HETATM   48  C   UNL     1      -5.286  12.705  70.754  1.00  0.00    -0.166 A  
HETATM   49  C   UNL     1      -5.154  12.607  68.351  1.00  0.00    -0.060 A  
HETATM   50  C   UNL     1      -5.160  13.353  69.527  1.00  0.00    -0.083 A  
ENDBRANCH  44  45
ENDBRANCH  17  44
ENDBRANCH  15  17
ENDBRANCH   3  13
TORSDOF 14
ENDMDL
MODEL      207
REMARK 921   NORMALIZED FREE ENERGY PREDICTED BY IDOCK:   -4.00 KCAL/MOL
REMARK 922        TOTAL FREE ENERGY PREDICTED BY IDOCK:  -11.83 KCAL/MOL
REMARK 923 INTER-LIGAND FREE ENERGY PREDICTED BY IDOCK:   -9.83 KCAL/MOL
REMARK 924 INTRA-LIGAND FREE ENERGY PREDICTED BY IDOCK:   -2.00 KCAL/MOL
REMARK 927      BINDING AFFINITY PREDICTED BY RF-SCORE:    0.00 PKD
ROOT
HETATM    1  C   UNL     1      -6.157  19.732  67.176  1.00  0.00    -0.196 C  
HETATM    2  C   UNL     1      -6.623  18.789  68.296  1.00  0.00    -0.240 C  
HETATM    3  C   UNL     1      -7.602  17.706  67.747  1.00  0.00    -0.206 C  
HETATM    4  C   UNL     1      -5.387  18.212  68.990  1.00  0.00    -0.192 C  
ENDROOT
BRANCH   3   5
HETATM    5  N   UNL     1      -8.825  18.318  67.177  1.00  0.00    -0.255 N  
HETATM    6  H   UNL     1     -11.131  17.795  64.957  1.00  0.00     0.000 HD 
HETATM    7  O   UNL     1      -9.501  16.392  66.112  1.00  0.00    -0.295 OA 
HETATM    8  C   UNL     1      -9.274  19.631  67.626  1.00  0.00    -0.333 C  
HETATM    9  C   UNL     1      -9.620  17.597  66.313  1.00  0.00    -0.244 C  
HETATM   10  C   UNL     1      -9.656  20.463  66.417  1.00  0.00    -0.384 C  
HETATM   11  N   UNL     1     -10.547  18.315  65.611  1.00  0.00    -0.269 N  
HETATM   12  C   UNL     1     -10.782  19.741  65.706  1.00  0.00    -0.370 C  
ENDBRANCH   3   5
BRANCH   3  13
HETATM   13  C   UNL     1      -7.918  16.614  68.815  1.00  0.00    -0.239 C  
HETATM   14  O   UNL     1      -7.057  15.932  69.361  1.00  0.00    -0.200 OA 
HETATM   15  N   UNL     1      -9.263  16.403  69.042  1.00  0.00    -0.257 N  
HETATM   16  H   UNL     1      -9.908  17.029  68.560  1.00  0.00     0.000 HD 
BRANCH  15  17
HETATM   17  C   UNL     1      -9.864  15.383  69.897  1.00  0.00    -0.179 C  
BRANCH  17  18
HETATM   18  C   UNL     1     -10.590  14.263  69.119  1.00  0.00    -0.201 C  
BRANCH  18  19
HETATM   19  C   UNL     1     -10.464  12.760  69.477  1.00  0.00     0.566 C  
HETATM   20  O   UNL     1      -9.235  12.250  68.951  1.00  0.00    -0.389 OA 
HETATM   21  H   UNL     1      -9.158  11.329  69.170  1.00  0.00     0.000 HD 
BRANCH  19  22
HETATM   22  C   UNL     1     -11.642  11.927  68.836  1.00  0.00    -0.311 C  
BRANCH  22  23
HETATM   23  N   UNL     1     -12.426  11.115  69.837  1.00  0.00    -0.237 N  
HETATM   24  C   UNL     1     -12.203  10.066  70.703  1.00  0.00    -0.269 C  
HETATM   25  H   UNL     1     -13.394  11.432  69.887  1.00  0.00     0.000 HD 
HETATM   26  O   UNL     1     -13.052   9.837  71.570  1.00  0.00    -0.359 OA 
BRANCH  24  27
HETATM   27  C   UNL     1     -10.991   9.139  70.513  1.00  0.00    -0.258 C  
BRANCH  27  28
HETATM   28  O   UNL     1      -9.670   9.620  70.325  1.00  0.00    -0.240 OA 
BRANCH  28  29
HETATM   29  C   UNL     1      -8.752   8.802  69.681  1.00  0.00    -0.136 A  
HETATM   30  C   UNL     1      -9.728   8.712  67.217  1.00  0.00    -0.241 C  
HETATM   31  C   UNL     1      -8.732   8.425  68.313  1.00  0.00    -0.143 A  
HETATM   32  C   UNL     1      -7.628   7.681  67.828  1.00  0.00    -0.117 A  
HETATM   33  C   UNL     1      -6.578   7.289  68.643  1.00  0.00    -0.045 A  
HETATM   34  C   UNL     1      -6.612   7.619  69.987  1.00  0.00    -0.038 A  
HETATM   35  C   UNL     1      -7.686   8.357  70.521  1.00  0.00    -0.080 A  
HETATM   36  C   UNL     1      -7.643   8.637  72.004  1.00  0.00    -0.084 C  
ENDBRANCH  28  29
ENDBRANCH  27  28
ENDBRANCH  24  27
ENDBRANCH  22  23
BRANCH  22  37
HETATM   37  C   UNL     1     -12.443  12.729  67.774  1.00  0.00     0.623 C  
BRANCH  37  38
HETATM   38  C   UNL     1     -11.842  12.700  66.396  1.00  0.00    -0.466 A  
HETATM   39  C   UNL     1     -10.521  12.769  63.928  1.00  0.00    -0.402 A  
HETATM   40  C   UNL     1     -12.081  13.741  65.496  1.00  0.00    -0.434 A  
HETATM   41  C   UNL     1     -10.335  11.694  64.788  1.00  0.00    -0.331 A  
HETATM   42  C   UNL     1     -11.031  11.640  65.992  1.00  0.00    -0.338 A  
HETATM   43  C   UNL     1     -11.424  13.774  64.268  1.00  0.00    -0.363 A  
ENDBRANCH  37  38
ENDBRANCH  22  37
ENDBRANCH  19  22
ENDBRANCH  18  19
ENDBRANCH  17  18
BRANCH  17  44
HETATM   44  C   UNL     1     -10.546  15.946  71.163  1.00  0.00     0.451 C  
BRANCH  44  45
HETATM   45  C   UNL     1     -11.894  15.316  71.460  1.00  0.00    -0.441 A  
HETATM   46  C   UNL     1     -13.024  15.605  70.677  1.00  0.00    -0.342 A  
HETATM   47  C   UNL     1     -12.040  14.446  72.547  1.00  0.00    -0.059 A  
HETATM   48  C   UNL     1     -14.274  15.068  71.003  1.00  0.00    -0.264 A  
HETATM   49  C   UNL     1     -13.289  13.907  72.869  1.00  0.00    -0.417 A  
HETATM   50  C   UNL     1     -14.407  14.225  72.104  1.00  0.00    -0.608 A  
ENDBRANCH  44  45
ENDBRANCH  17  44
ENDBRANCH  15  17
ENDBRANCH   3  13
TORSDOF 14
ENDMDL
MODEL      208
REMARK 921   NORMALIZED FREE ENERGY PREDICTED BY IDOCK:   -4.00 KCAL/MOL
REMARK 922        TOTAL FREE ENERGY PREDICTED BY IDOCK:  -11.82 KCAL/MOL
REMARK 923 INTER-LIGAND FREE ENERGY PREDICTED BY IDOCK:   -7.98 KCAL/MOL
REMARK 924 INTRA-LIGAND FREE ENERGY PREDICTED BY IDOCK:   -3.85 KCAL/MOL
REMARK 927      BINDING AFFINITY PREDICTED BY RF-SCORE:    0.00 PKD
ROOT
HETATM    1  C   UNL     1      -9.434   2.440  70.308  1.00  0.00    -0.158 C  
HETATM    2  C   UNL     1      -8.720   3.359  69.305  1.00  0.00    -0.129 C  
HETATM    3  C   UNL     1      -7.225   3.569  69.701  1.00  0.00    -0.042 C  
HETATM    4  C   UNL     1      -8.914   2.787  67.899  1.00  0.00    -0.200 C  
ENDROOT
BRANCH   3   5
HETATM    5  N   UNL     1      -7.100   4.216  71.027  1.00  0.00    -0.036 N  
HETATM    6  H   UNL     1      -5.693   3.824  73.924  1.00  0.00     0.000 HD 
HETATM    7  O   UNL     1      -5.328   2.904  71.691  1.00  0.00    -0.003 OA 
HETATM    8  C   UNL     1      -7.826   5.445  71.323  1.00  0.00    -0.109 C  
HETATM    9  C   UNL     1      -6.196   3.733  71.949  1.00  0.00    -0.014 C  
HETATM   10  C   UNL     1      -8.460   5.328  72.696  1.00  0.00    -0.117 C  
HETATM   11  N   UNL     1      -6.346   4.186  73.229  1.00  0.00    -0.034 N  
HETATM   12  C   UNL     1      -7.341   5.128  73.697  1.00  0.00    -0.087 C  
ENDBRANCH   3   5
BRANCH   3  13
HETATM   13  C   UNL     1      -6.429   4.317  68.588  1.00  0.00    -0.037 C  
HETATM   14  O   UNL     1      -5.209   4.269  68.480  1.00  0.00    -0.007 OA 
HETATM   15  N   UNL     1      -7.200   5.121  67.772  1.00  0.00    -0.067 N  
HETATM   16  H   UNL     1      -8.208   5.085  67.920  1.00  0.00     0.000 HD 
BRANCH  15  17
HETATM   17  C   UNL     1      -6.730   6.019  66.720  1.00  0.00    -0.057 C  
BRANCH  17  18
HETATM   18  C   UNL     1      -7.675   7.211  66.448  1.00  0.00    -0.100 C  
BRANCH  18  19
HETATM   19  C   UNL     1      -7.899   8.365  67.458  1.00  0.00    -0.099 C  
HETATM   20  O   UNL     1      -7.356   7.994  68.728  1.00  0.00    -0.081 OA 
HETATM   21  H   UNL     1      -7.493   8.701  69.348  1.00  0.00     0.000 HD 
BRANCH  19  22
HETATM   22  C   UNL     1      -9.439   8.648  67.659  1.00  0.00    -0.141 C  
BRANCH  22  23
HETATM   23  N   UNL     1     -10.080   9.370  66.500  1.00  0.00    -0.262 N  
HETATM   24  C   UNL     1     -10.382  10.667  66.143  1.00  0.00    -0.227 C  
HETATM   25  H   UNL     1     -10.373   8.714  65.777  1.00  0.00     0.000 HD 
HETATM   26  O   UNL     1     -10.686  10.891  64.968  1.00  0.00    -0.249 OA 
BRANCH  24  27
HETATM   27  C   UNL     1     -10.451  11.776  67.207  1.00  0.00    -0.214 C  
BRANCH  27  28
HETATM   28  O   UNL     1     -11.600  12.582  67.410  1.00  0.00    -0.328 OA 
BRANCH  28  29
HETATM   29  C   UNL     1     -11.832  13.100  68.677  1.00  0.00    -0.328 A  
HETATM   30  C   UNL     1     -12.724  10.973  69.986  1.00  0.00    -0.157 C  
HETATM   31  C   UNL     1     -12.282  12.407  69.831  1.00  0.00    -0.227 A  
HETATM   32  C   UNL     1     -12.330  13.100  71.066  1.00  0.00    -0.355 A  
HETATM   33  C   UNL     1     -11.975  14.435  71.185  1.00  0.00    -0.383 A  
HETATM   34  C   UNL     1     -11.574  15.127  70.055  1.00  0.00    -0.326 A  
HETATM   35  C   UNL     1     -11.508  14.485  68.802  1.00  0.00    -0.322 A  
HETATM   36  C   UNL     1     -11.090  15.336  67.628  1.00  0.00    -0.323 C  
ENDBRANCH  28  29
ENDBRANCH  27  28
ENDBRANCH  24  27
ENDBRANCH  22  23
BRANCH  22  37
HETATM   37  C   UNL     1     -10.203   7.439  68.265  1.00  0.00    -0.213 C  
BRANCH  37  38
HETATM   38  C   UNL     1     -10.623   7.628  69.696  1.00  0.00    -0.243 A  
HETATM   39  C   UNL     1     -11.196   7.847  72.429  1.00  0.00    -0.409 A  
HETATM   40  C   UNL     1     -11.457   6.697  70.320  1.00  0.00    -0.449 A  
HETATM   41  C   UNL     1     -10.425   8.815  71.799  1.00  0.00    -0.417 A  
HETATM   42  C   UNL     1     -10.184   8.729  70.431  1.00  0.00    -0.228 A  
HETATM   43  C   UNL     1     -11.742   6.807  71.679  1.00  0.00    -0.357 A  
ENDBRANCH  37  38
ENDBRANCH  22  37
ENDBRANCH  19  22
ENDBRANCH  18  19
ENDBRANCH  17  18
BRANCH  17  44
HETATM   44  C   UNL     1      -6.108   5.294  65.506  1.00  0.00    -0.033 C  
BRANCH  44  45
HETATM   45  C   UNL     1      -6.945   4.137  64.994  1.00  0.00    -0.058 A  
HETATM   46  C   UNL     1      -6.533   2.805  65.167  1.00  0.00    -0.034 A  
HETATM   47  C   UNL     1      -8.141   4.383  64.311  1.00  0.00    -0.097 A  
HETATM   48  C   UNL     1      -7.282   1.752  64.630  1.00  0.00    -0.049 A  
HETATM   49  C   UNL     1      -8.891   3.329  63.780  1.00  0.00    -0.092 A  
HETATM   50  C   UNL     1      -8.457   2.015  63.930  1.00  0.00    -0.081 A  
ENDBRANCH  44  45
ENDBRANCH  17  44
ENDBRANCH  15  17
ENDBRANCH   3  13
TORSDOF 14
ENDMDL
MODEL      209
REMARK 921   NORMALIZED FREE ENERGY PREDICTED BY IDOCK:   -3.99 KCAL/MOL
REMARK 922        TOTAL FREE ENERGY PREDICTED BY IDOCK:  -11.81 KCAL/MOL
REMARK 923 INTER-LIGAND FREE ENERGY PREDICTED BY IDOCK:   -9.73 KCAL/MOL
REMARK 924 INTRA-LIGAND FREE ENERGY PREDICTED BY IDOCK:   -2.08 KCAL/MOL
REMARK 927      BINDING AFFINITY PREDICTED BY RF-SCORE:    0.00 PKD
ROOT
HETATM    1  C   UNL     1      -5.303   4.217  67.416  1.00  0.00    -0.012 C  
HETATM    2  C   UNL     1      -6.152   5.490  67.279  1.00  0.00    -0.030 C  
HETATM    3  C   UNL     1      -7.652   5.140  67.033  1.00  0.00    -0.088 C  
HETATM    4  C   UNL     1      -5.915   6.366  68.511  1.00  0.00    -0.021 C  
ENDROOT
BRANCH   3   5
HETATM    5  N   UNL     1      -7.833   4.377  65.776  1.00  0.00    -0.094 N  
HETATM    6  H   UNL     1      -8.925   1.531  64.664  1.00  0.00     0.000 HD 
HETATM    7  O   UNL     1      -9.219   2.804  66.728  1.00  0.00    -0.156 OA 
HETATM    8  C   UNL     1      -7.383   4.928  64.504  1.00  0.00    -0.063 C  
HETATM    9  C   UNL     1      -8.544   3.196  65.781  1.00  0.00    -0.118 C  
HETATM   10  C   UNL     1      -6.650   3.850  63.728  1.00  0.00    -0.042 C  
HETATM   11  N   UNL     1      -8.416   2.415  64.667  1.00  0.00    -0.088 N  
HETATM   12  C   UNL     1      -7.629   2.719  63.490  1.00  0.00    -0.063 C  
ENDBRANCH   3   5
BRANCH   3  13
HETATM   13  C   UNL     1      -8.563   6.404  67.106  1.00  0.00    -0.111 C  
HETATM   14  O   UNL     1      -8.442   7.369  66.360  1.00  0.00    -0.117 OA 
HETATM   15  N   UNL     1      -9.474   6.396  68.143  1.00  0.00    -0.115 N  
HETATM   16  H   UNL     1      -9.519   5.545  68.702  1.00  0.00     0.000 HD 
BRANCH  15  17
HETATM   17  C   UNL     1     -10.380   7.476  68.530  1.00  0.00    -0.199 C  
BRANCH  17  18
HETATM   18  C   UNL     1      -9.659   8.766  68.979  1.00  0.00    -0.162 C  
BRANCH  18  19
HETATM   19  C   UNL     1     -10.359  10.147  69.058  1.00  0.00    -0.212 C  
HETATM   20  O   UNL     1     -11.757   9.984  68.800  1.00  0.00    -0.501 OA 
HETATM   21  H   UNL     1     -12.186  10.830  68.848  1.00  0.00     0.000 HD 
BRANCH  19  22
HETATM   22  C   UNL     1      -9.782  11.136  67.971  1.00  0.00    -0.176 C  
BRANCH  22  23
HETATM   23  N   UNL     1      -8.503  11.817  68.387  1.00  0.00    -0.159 N  
HETATM   24  C   UNL     1      -7.952  13.079  68.336  1.00  0.00    -0.135 C  
HETATM   25  H   UNL     1      -7.865  11.157  68.831  1.00  0.00     0.000 HD 
HETATM   26  O   UNL     1      -6.956  13.308  69.029  1.00  0.00    -0.107 OA 
BRANCH  24  27
HETATM   27  C   UNL     1      -8.494  14.131  67.354  1.00  0.00    -0.203 C  
BRANCH  27  28
HETATM   28  O   UNL     1      -9.708  14.834  67.565  1.00  0.00    -0.211 OA 
BRANCH  28  29
HETATM   29  C   UNL     1      -9.789  16.156  67.149  1.00  0.00    -0.241 A  
HETATM   30  C   UNL     1     -11.156  15.939  64.887  1.00  0.00    -0.400 C  
HETATM   31  C   UNL     1     -10.454  16.670  66.005  1.00  0.00    -0.306 A  
HETATM   32  C   UNL     1     -10.524  18.074  65.831  1.00  0.00    -0.268 A  
HETATM   33  C   UNL     1      -9.950  18.964  66.724  1.00  0.00    -0.403 A  
HETATM   34  C   UNL     1      -9.265  18.469  67.820  1.00  0.00    -0.295 A  
HETATM   35  C   UNL     1      -9.165  17.081  68.041  1.00  0.00    -0.241 A  
HETATM   36  C   UNL     1      -8.370  16.644  69.247  1.00  0.00    -0.019 C  
ENDBRANCH  28  29
ENDBRANCH  27  28
ENDBRANCH  24  27
ENDBRANCH  22  23
BRANCH  22  37
HETATM   37  C   UNL     1      -9.856  10.560  66.530  1.00  0.00    -0.255 C  
BRANCH  37  38
HETATM   38  C   UNL     1     -10.709  11.363  65.587  1.00  0.00    -0.301 A  
HETATM   39  C   UNL     1     -12.454  12.656  63.819  1.00  0.00    -0.514 A  
HETATM   40  C   UNL     1     -10.484  11.312  64.209  1.00  0.00    -0.419 A  
HETATM   41  C   UNL     1     -12.641  12.770  65.190  1.00  0.00    -0.513 A  
HETATM   42  C   UNL     1     -11.742  12.167  66.066  1.00  0.00    -0.388 A  
HETATM   43  C   UNL     1     -11.353  11.956  63.330  1.00  0.00    -0.465 A  
ENDBRANCH  37  38
ENDBRANCH  22  37
ENDBRANCH  19  22
ENDBRANCH  18  19
ENDBRANCH  17  18
BRANCH  17  44
HETATM   44  C   UNL     1     -11.604   7.007  69.345  1.00  0.00     0.064 C  
BRANCH  44  45
HETATM   45  C   UNL     1     -11.249   6.454  70.713  1.00  0.00    -0.386 A  
HETATM   46  C   UNL     1     -11.423   7.219  71.878  1.00  0.00    -0.302 A  
HETATM   47  C   UNL     1     -10.710   5.168  70.833  1.00  0.00    -0.128 A  
HETATM   48  C   UNL     1     -11.029   6.720  73.124  1.00  0.00    -0.279 A  
HETATM   49  C   UNL     1     -10.320   4.670  72.080  1.00  0.00    -0.234 A  
HETATM   50  C   UNL     1     -10.470   5.448  73.224  1.00  0.00    -0.260 A  
ENDBRANCH  44  45
ENDBRANCH  17  44
ENDBRANCH  15  17
ENDBRANCH   3  13
TORSDOF 14
ENDMDL
MODEL      210
REMARK 921   NORMALIZED FREE ENERGY PREDICTED BY IDOCK:   -3.98 KCAL/MOL
REMARK 922        TOTAL FREE ENERGY PREDICTED BY IDOCK:  -11.80 KCAL/MOL
REMARK 923 INTER-LIGAND FREE ENERGY PREDICTED BY IDOCK:   -9.33 KCAL/MOL
REMARK 924 INTRA-LIGAND FREE ENERGY PREDICTED BY IDOCK:   -2.47 KCAL/MOL
REMARK 927      BINDING AFFINITY PREDICTED BY RF-SCORE:    0.00 PKD
ROOT
HETATM    1  C   UNL     1     -12.113  16.266  68.557  1.00  0.00     0.463 C  
HETATM    2  C   UNL     1     -11.364  14.935  68.386  1.00  0.00    -0.320 C  
HETATM    3  C   UNL     1     -12.077  13.786  69.164  1.00  0.00    -0.333 C  
HETATM    4  C   UNL     1     -11.198  14.661  66.890  1.00  0.00    -0.345 C  
ENDROOT
BRANCH   3   5
HETATM    5  N   UNL     1     -12.120  14.060  70.619  1.00  0.00    -0.346 N  
HETATM    6  H   UNL     1     -13.686  13.189  73.324  1.00  0.00     0.000 HD 
HETATM    7  O   UNL     1     -13.408  12.213  71.102  1.00  0.00    -0.004 OA 
HETATM    8  C   UNL     1     -11.252  15.072  71.208  1.00  0.00    -0.214 C  
HETATM    9  C   UNL     1     -12.887  13.270  71.448  1.00  0.00    -0.322 C  
HETATM   10  C   UNL     1     -12.063  15.921  72.169  1.00  0.00    -0.596 C  
HETATM   11  N   UNL     1     -13.106  13.757  72.705  1.00  0.00    -0.420 N  
HETATM   12  C   UNL     1     -12.598  15.000  73.246  1.00  0.00    -0.485 C  
ENDBRANCH   3   5
BRANCH   3  13
HETATM   13  C   UNL     1     -11.463  12.392  68.831  1.00  0.00    -0.307 C  
HETATM   14  O   UNL     1     -12.126  11.433  68.451  1.00  0.00    -0.575 OA 
HETATM   15  N   UNL     1     -10.109  12.285  69.083  1.00  0.00    -0.403 N  
HETATM   16  H   UNL     1      -9.634  13.138  69.378  1.00  0.00     0.000 HD 
BRANCH  15  17
HETATM   17  C   UNL     1      -9.283  11.085  68.973  1.00  0.00    -0.064 C  
BRANCH  17  18
HETATM   18  C   UNL     1      -9.531  10.051  70.094  1.00  0.00    -0.124 C  
BRANCH  18  19
HETATM   19  C   UNL     1      -8.400   9.212  70.741  1.00  0.00    -0.208 C  
HETATM   20  O   UNL     1      -7.197   9.986  70.773  1.00  0.00    -0.328 OA 
HETATM   21  H   UNL     1      -6.503   9.471  71.169  1.00  0.00     0.000 HD 
BRANCH  19  22
HETATM   22  C   UNL     1      -8.111   7.909  69.899  1.00  0.00    -0.118 C  
BRANCH  22  23
HETATM   23  N   UNL     1      -6.909   8.024  68.995  1.00  0.00    -0.055 N  
HETATM   24  C   UNL     1      -6.627   7.924  67.650  1.00  0.00    -0.060 C  
HETATM   25  H   UNL     1      -6.068   8.234  69.531  1.00  0.00     0.000 HD 
HETATM   26  O   UNL     1      -5.537   8.346  67.251  1.00  0.00    -0.037 OA 
BRANCH  24  27
HETATM   27  C   UNL     1      -7.594   7.200  66.698  1.00  0.00    -0.093 C  
BRANCH  27  28
HETATM   28  O   UNL     1      -7.843   7.633  65.371  1.00  0.00    -0.100 OA 
BRANCH  28  29
HETATM   29  C   UNL     1      -8.671   8.729  65.175  1.00  0.00    -0.167 A  
HETATM   30  C   UNL     1     -10.507   8.374  67.055  1.00  0.00    -0.375 C  
HETATM   31  C   UNL     1      -9.818   9.099  65.925  1.00  0.00    -0.305 A  
HETATM   32  C   UNL     1     -10.452  10.332  65.637  1.00  0.00    -0.152 A  
HETATM   33  C   UNL     1     -10.008  11.182  64.636  1.00  0.00    -0.345 A  
HETATM   34  C   UNL     1      -8.915  10.808  63.874  1.00  0.00    -0.166 A  
HETATM   35  C   UNL     1      -8.247   9.592  64.118  1.00  0.00    -0.159 A  
HETATM   36  C   UNL     1      -7.087   9.263  63.211  1.00  0.00    -0.089 C  
ENDBRANCH  28  29
ENDBRANCH  27  28
ENDBRANCH  24  27
ENDBRANCH  22  23
BRANCH  22  37
HETATM   37  C   UNL     1      -8.266   6.605  70.729  1.00  0.00    -0.121 C  
BRANCH  37  38
HETATM   38  C   UNL     1      -9.654   6.372  71.260  1.00  0.00    -0.182 A  
HETATM   39  C   UNL     1     -12.253   6.192  72.287  1.00  0.00    -0.175 A  
HETATM   40  C   UNL     1      -9.860   6.118  72.618  1.00  0.00    -0.178 A  
HETATM   41  C   UNL     1     -12.053   6.373  70.924  1.00  0.00    -0.176 A  
HETATM   42  C   UNL     1     -10.759   6.412  70.411  1.00  0.00    -0.317 A  
HETATM   43  C   UNL     1     -11.154   6.028  73.128  1.00  0.00    -0.236 A  
ENDBRANCH  37  38
ENDBRANCH  22  37
ENDBRANCH  19  22
ENDBRANCH  18  19
ENDBRANCH  17  18
BRANCH  17  44
HETATM   44  C   UNL     1      -7.824  11.363  68.552  1.00  0.00    -0.140 C  
BRANCH  44  45
HETATM   45  C   UNL     1      -7.479  12.839  68.489  1.00  0.00    -0.120 A  
HETATM   46  C   UNL     1      -7.817  13.622  67.373  1.00  0.00    -0.162 A  
HETATM   47  C   UNL     1      -6.788  13.446  69.545  1.00  0.00     0.066 A  
HETATM   48  C   UNL     1      -7.433  14.966  67.302  1.00  0.00    -0.193 A  
HETATM   49  C   UNL     1      -6.410  14.789  69.475  1.00  0.00    -0.127 A  
HETATM   50  C   UNL     1      -6.723  15.547  68.350  1.00  0.00    -0.116 A  
ENDBRANCH  44  45
ENDBRANCH  17  44
ENDBRANCH  15  17
ENDBRANCH   3  13
TORSDOF 14
ENDMDL
MODEL      211
REMARK 921   NORMALIZED FREE ENERGY PREDICTED BY IDOCK:   -3.96 KCAL/MOL
REMARK 922        TOTAL FREE ENERGY PREDICTED BY IDOCK:  -11.76 KCAL/MOL
REMARK 923 INTER-LIGAND FREE ENERGY PREDICTED BY IDOCK:   -9.30 KCAL/MOL
REMARK 924 INTRA-LIGAND FREE ENERGY PREDICTED BY IDOCK:   -2.46 KCAL/MOL
REMARK 927      BINDING AFFINITY PREDICTED BY RF-SCORE:    0.00 PKD
ROOT
HETATM    1  C   UNL     1      -6.562   6.456  63.774  1.00  0.00    -0.030 C  
HETATM    2  C   UNL     1      -6.131   6.684  65.231  1.00  0.00    -0.038 C  
HETATM    3  C   UNL     1      -7.327   7.183  66.099  1.00  0.00    -0.075 C  
HETATM    4  C   UNL     1      -5.482   5.400  65.752  1.00  0.00    -0.013 C  
ENDROOT
BRANCH   3   5
HETATM    5  N   UNL     1      -7.851   8.480  65.607  1.00  0.00    -0.098 N  
HETATM    6  H   UNL     1     -10.634  10.055  65.067  1.00  0.00     0.000 HD 
HETATM    7  O   UNL     1      -9.983   8.112  66.394  1.00  0.00    -0.240 OA 
HETATM    8  C   UNL     1      -6.941   9.508  65.119  1.00  0.00    -0.100 C  
HETATM    9  C   UNL     1      -9.193   8.773  65.728  1.00  0.00    -0.206 C  
HETATM   10  C   UNL     1      -7.490  10.082  63.827  1.00  0.00    -0.141 C  
HETATM   11  N   UNL     1      -9.641   9.837  64.998  1.00  0.00    -0.287 N  
HETATM   12  C   UNL     1      -8.844  10.686  64.138  1.00  0.00    -0.160 C  
ENDBRANCH   3   5
BRANCH   3  13
HETATM   13  C   UNL     1      -6.971   7.215  67.617  1.00  0.00    -0.079 C  
HETATM   14  O   UNL     1      -5.982   7.783  68.068  1.00  0.00    -0.038 OA 
HETATM   15  N   UNL     1      -7.812   6.472  68.420  1.00  0.00    -0.105 N  
HETATM   16  H   UNL     1      -8.620   6.049  67.963  1.00  0.00     0.000 HD 
BRANCH  15  17
HETATM   17  C   UNL     1      -7.673   6.224  69.853  1.00  0.00    -0.105 C  
BRANCH  17  18
HETATM   18  C   UNL     1      -7.057   7.406  70.634  1.00  0.00    -0.060 C  
BRANCH  18  19
HETATM   19  C   UNL     1      -7.906   8.449  71.405  1.00  0.00    -0.116 C  
HETATM   20  O   UNL     1      -8.867   7.769  72.218  1.00  0.00    -0.117 OA 
HETATM   21  H   UNL     1      -9.388   8.408  72.690  1.00  0.00     0.000 HD 
BRANCH  19  22
HETATM   22  C   UNL     1      -8.696   9.383  70.407  1.00  0.00    -0.240 C  
BRANCH  22  23
HETATM   23  N   UNL     1      -7.848   9.929  69.286  1.00  0.00    -0.105 N  
HETATM   24  C   UNL     1      -7.854  11.010  68.431  1.00  0.00    -0.127 C  
HETATM   25  H   UNL     1      -7.042   9.330  69.112  1.00  0.00     0.000 HD 
HETATM   26  O   UNL     1      -6.823  11.258  67.799  1.00  0.00    -0.069 OA 
BRANCH  24  27
HETATM   27  C   UNL     1      -9.147  11.805  68.184  1.00  0.00    -0.185 C  
BRANCH  27  28
HETATM   28  O   UNL     1      -9.646  12.089  66.887  1.00  0.00    -0.195 OA 
BRANCH  28  29
HETATM   29  C   UNL     1      -9.828  13.416  66.523  1.00  0.00    -0.286 A  
HETATM   30  C   UNL     1      -7.604  14.544  67.424  1.00  0.00    -0.209 C  
HETATM   31  C   UNL     1      -8.931  14.501  66.708  1.00  0.00    -0.270 A  
HETATM   32  C   UNL     1      -9.257  15.758  66.145  1.00  0.00    -0.385 A  
HETATM   33  C   UNL     1     -10.430  15.976  65.437  1.00  0.00    -0.415 A  
HETATM   34  C   UNL     1     -11.328  14.934  65.289  1.00  0.00    -0.358 A  
HETATM   35  C   UNL     1     -11.052  13.662  65.829  1.00  0.00    -0.292 A  
HETATM   36  C   UNL     1     -12.110  12.602  65.639  1.00  0.00    -0.502 C  
ENDBRANCH  28  29
ENDBRANCH  27  28
ENDBRANCH  24  27
ENDBRANCH  22  23
BRANCH  22  37
HETATM   37  C   UNL     1     -10.101   8.829  70.044  1.00  0.00    -0.200 C  
BRANCH  37  38
HETATM   38  C   UNL     1     -11.237   9.508  70.758  1.00  0.00    -0.383 A  
HETATM   39  C   UNL     1     -13.507  10.678  71.906  1.00  0.00    -0.341 A  
HETATM   40  C   UNL     1     -11.597  10.818  70.433  1.00  0.00    -0.431 A  
HETATM   41  C   UNL     1     -13.112   9.402  72.287  1.00  0.00    -0.509 A  
HETATM   42  C   UNL     1     -11.956   8.844  71.751  1.00  0.00    -0.429 A  
HETATM   43  C   UNL     1     -12.727  11.399  71.006  1.00  0.00    -0.447 A  
ENDBRANCH  37  38
ENDBRANCH  22  37
ENDBRANCH  19  22
ENDBRANCH  18  19
ENDBRANCH  17  18
BRANCH  17  44
HETATM   44  C   UNL     1      -7.195   4.797  70.201  1.00  0.00    -0.050 C  
BRANCH  44  45
HETATM   45  C   UNL     1      -8.270   3.934  70.833  1.00  0.00    -0.077 A  
HETATM   46  C   UNL     1      -8.905   4.313  72.028  1.00  0.00    -0.134 A  
HETATM   47  C   UNL     1      -8.633   2.717  70.243  1.00  0.00    -0.107 A  
HETATM   48  C   UNL     1      -9.846   3.474  72.633  1.00  0.00    -0.211 A  
HETATM   49  C   UNL     1      -9.576   1.882  70.847  1.00  0.00    -0.182 A  
HETATM   50  C   UNL     1     -10.177   2.255  72.046  1.00  0.00    -0.155 A  
ENDBRANCH  44  45
ENDBRANCH  17  44
ENDBRANCH  15  17
ENDBRANCH   3  13
TORSDOF 14
ENDMDL
MODEL      212
REMARK 921   NORMALIZED FREE ENERGY PREDICTED BY IDOCK:   -3.96 KCAL/MOL
REMARK 922        TOTAL FREE ENERGY PREDICTED BY IDOCK:  -11.75 KCAL/MOL
REMARK 923 INTER-LIGAND FREE ENERGY PREDICTED BY IDOCK:   -8.10 KCAL/MOL
REMARK 924 INTRA-LIGAND FREE ENERGY PREDICTED BY IDOCK:   -3.64 KCAL/MOL
REMARK 927      BINDING AFFINITY PREDICTED BY RF-SCORE:    0.00 PKD
ROOT
HETATM    1  C   UNL     1     -10.118   4.509  66.136  1.00  0.00    -0.282 C  
HETATM    2  C   UNL     1      -9.895   5.108  67.534  1.00  0.00    -0.193 C  
HETATM    3  C   UNL     1      -8.436   5.636  67.692  1.00  0.00    -0.102 C  
HETATM    4  C   UNL     1     -10.969   6.168  67.784  1.00  0.00    -0.400 C  
ENDROOT
BRANCH   3   5
HETATM    5  N   UNL     1      -7.443   4.547  67.538  1.00  0.00    -0.073 N  
HETATM    6  H   UNL     1      -4.368   4.018  66.651  1.00  0.00     0.000 HD 
HETATM    7  O   UNL     1      -5.649   5.977  67.348  1.00  0.00    -0.008 OA 
HETATM    8  C   UNL     1      -7.819   3.162  67.794  1.00  0.00    -0.075 C  
HETATM    9  C   UNL     1      -6.123   4.847  67.277  1.00  0.00    -0.031 C  
HETATM   10  C   UNL     1      -7.272   2.288  66.681  1.00  0.00    -0.056 C  
HETATM   11  N   UNL     1      -5.343   3.806  66.862  1.00  0.00    -0.012 N  
HETATM   12  C   UNL     1      -5.764   2.431  66.691  1.00  0.00    -0.022 C  
ENDBRANCH   3   5
BRANCH   3  13
HETATM   13  C   UNL     1      -8.249   6.438  69.016  1.00  0.00    -0.115 C  
HETATM   14  O   UNL     1      -8.376   5.943  70.131  1.00  0.00    -0.114 OA 
HETATM   15  N   UNL     1      -8.013   7.787  68.843  1.00  0.00    -0.122 N  
HETATM   16  H   UNL     1      -7.903   8.109  67.882  1.00  0.00     0.000 HD 
BRANCH  15  17
HETATM   17  C   UNL     1      -7.904   8.805  69.886  1.00  0.00    -0.093 C  
BRANCH  17  18
HETATM   18  C   UNL     1      -7.949  10.254  69.351  1.00  0.00    -0.162 C  
BRANCH  18  19
HETATM   19  C   UNL     1      -6.768  10.918  68.597  1.00  0.00    -0.059 C  
HETATM   20  O   UNL     1      -6.463  12.175  69.209  1.00  0.00    -0.096 OA 
HETATM   21  H   UNL     1      -5.740  12.582  68.747  1.00  0.00     0.000 HD 
BRANCH  19  22
HETATM   22  C   UNL     1      -7.146  11.197  67.090  1.00  0.00    -0.113 C  
BRANCH  22  23
HETATM   23  N   UNL     1      -7.706  12.577  66.850  1.00  0.00    -0.382 N  
HETATM   24  C   UNL     1      -8.733  13.361  67.327  1.00  0.00    -0.218 C  
HETATM   25  H   UNL     1      -7.174  13.067  66.132  1.00  0.00     0.000 HD 
HETATM   26  O   UNL     1      -8.719  14.566  67.059  1.00  0.00    -0.219 OA 
BRANCH  24  27
HETATM   27  C   UNL     1      -9.922  12.728  68.070  1.00  0.00    -0.225 C  
BRANCH  27  28
HETATM   28  O   UNL     1     -10.973  12.044  67.407  1.00  0.00    -0.236 OA 
BRANCH  28  29
HETATM   29  C   UNL     1     -10.966  12.003  66.019  1.00  0.00    -0.304 A  
HETATM   30  C   UNL     1     -11.834  14.428  65.391  1.00  0.00    -0.366 C  
HETATM   31  C   UNL     1     -11.297  13.046  65.115  1.00  0.00    -0.320 A  
HETATM   32  C   UNL     1     -11.099  12.834  63.729  1.00  0.00    -0.475 A  
HETATM   33  C   UNL     1     -10.615  11.639  63.220  1.00  0.00    -0.420 A  
HETATM   34  C   UNL     1     -10.330  10.604  64.093  1.00  0.00    -0.293 A  
HETATM   35  C   UNL     1     -10.509  10.761  65.482  1.00  0.00    -0.264 A  
HETATM   36  C   UNL     1     -10.198   9.562  66.344  1.00  0.00    -0.302 C  
ENDBRANCH  28  29
ENDBRANCH  27  28
ENDBRANCH  24  27
ENDBRANCH  22  23
BRANCH  22  37
HETATM   37  C   UNL     1      -6.081  10.668  66.091  1.00  0.00    -0.121 C  
BRANCH  37  38
HETATM   38  C   UNL     1      -6.620   9.714  65.061  1.00  0.00    -0.091 A  
HETATM   39  C   UNL     1      -7.852   8.047  63.179  1.00  0.00    -0.148 A  
HETATM   40  C   UNL     1      -7.119   8.466  65.442  1.00  0.00    -0.081 A  
HETATM   41  C   UNL     1      -7.294   9.255  62.780  1.00  0.00    -0.100 A  
HETATM   42  C   UNL     1      -6.639  10.057  63.710  1.00  0.00    -0.130 A  
HETATM   43  C   UNL     1      -7.731   7.637  64.505  1.00  0.00    -0.126 A  
ENDBRANCH  37  38
ENDBRANCH  22  37
ENDBRANCH  19  22
ENDBRANCH  18  19
ENDBRANCH  17  18
BRANCH  17  44
HETATM   44  C   UNL     1      -6.876   8.469  70.987  1.00  0.00    -0.059 C  
BRANCH  44  45
HETATM   45  C   UNL     1      -7.502   7.929  72.259  1.00  0.00    -0.104 A  
HETATM   46  C   UNL     1      -6.769   7.130  73.153  1.00  0.00    -0.065 A  
HETATM   47  C   UNL     1      -8.844   8.200  72.553  1.00  0.00    -0.272 A  
HETATM   48  C   UNL     1      -7.380   6.585  74.288  1.00  0.00    -0.095 A  
HETATM   49  C   UNL     1      -9.451   7.658  73.689  1.00  0.00    -0.340 A  
HETATM   50  C   UNL     1      -8.723   6.843  74.552  1.00  0.00    -0.216 A  
ENDBRANCH  44  45
ENDBRANCH  17  44
ENDBRANCH  15  17
ENDBRANCH   3  13
TORSDOF 14
ENDMDL
MODEL      213
REMARK 921   NORMALIZED FREE ENERGY PREDICTED BY IDOCK:   -3.93 KCAL/MOL
REMARK 922        TOTAL FREE ENERGY PREDICTED BY IDOCK:  -11.70 KCAL/MOL
REMARK 923 INTER-LIGAND FREE ENERGY PREDICTED BY IDOCK:   -8.60 KCAL/MOL
REMARK 924 INTRA-LIGAND FREE ENERGY PREDICTED BY IDOCK:   -3.10 KCAL/MOL
REMARK 927      BINDING AFFINITY PREDICTED BY RF-SCORE:    0.00 PKD
ROOT
HETATM    1  C   UNL     1     -12.660  13.863  65.497  1.00  0.00    -0.560 C  
HETATM    2  C   UNL     1     -11.167  13.621  65.767  1.00  0.00    -0.302 C  
HETATM    3  C   UNL     1     -10.929  13.167  67.240  1.00  0.00    -0.268 C  
HETATM    4  C   UNL     1     -10.639  12.636  64.722  1.00  0.00    -0.341 C  
ENDROOT
BRANCH   3   5
HETATM    5  N   UNL     1     -11.368  14.202  68.205  1.00  0.00    -0.276 N  
HETATM    6  H   UNL     1     -10.885  17.312  68.992  1.00  0.00     0.000 HD 
HETATM    7  O   UNL     1     -10.452  15.946  67.014  1.00  0.00    -0.297 OA 
HETATM    8  C   UNL     1     -12.314  13.873  69.265  1.00  0.00    -0.161 C  
HETATM    9  C   UNL     1     -10.986  15.515  68.031  1.00  0.00    -0.311 C  
HETATM   10  C   UNL     1     -11.825  14.473  70.569  1.00  0.00    -0.372 C  
HETATM   11  N   UNL     1     -11.177  16.341  69.102  1.00  0.00    -0.320 N  
HETATM   12  C   UNL     1     -11.755  15.974  70.379  1.00  0.00    -0.309 C  
ENDBRANCH   3   5
BRANCH   3  13
HETATM   13  C   UNL     1      -9.457  12.709  67.476  1.00  0.00    -0.186 C  
HETATM   14  O   UNL     1      -8.483  13.422  67.256  1.00  0.00    -0.193 OA 
HETATM   15  N   UNL     1      -9.320  11.395  67.873  1.00  0.00    -0.159 N  
HETATM   16  H   UNL     1     -10.184  10.882  68.051  1.00  0.00     0.000 HD 
BRANCH  15  17
HETATM   17  C   UNL     1      -8.074  10.656  68.066  1.00  0.00    -0.112 C  
BRANCH  17  18
HETATM   18  C   UNL     1      -7.445  10.847  69.464  1.00  0.00    -0.081 C  
BRANCH  18  19
HETATM   19  C   UNL     1      -6.950   9.669  70.341  1.00  0.00    -0.128 C  
HETATM   20  O   UNL     1      -6.067   8.846  69.573  1.00  0.00    -0.036 OA 
HETATM   21  H   UNL     1      -5.764   8.124  70.111  1.00  0.00     0.000 HD 
BRANCH  19  22
HETATM   22  C   UNL     1      -8.159   8.768  70.811  1.00  0.00    -0.138 C  
BRANCH  22  23
HETATM   23  N   UNL     1      -7.788   7.758  71.867  1.00  0.00    -0.090 N  
HETATM   24  C   UNL     1      -7.081   6.577  71.952  1.00  0.00    -0.081 C  
HETATM   25  H   UNL     1      -8.168   8.022  72.776  1.00  0.00     0.000 HD 
HETATM   26  O   UNL     1      -6.775   6.161  73.073  1.00  0.00    -0.071 OA 
BRANCH  24  27
HETATM   27  C   UNL     1      -6.790   5.748  70.690  1.00  0.00    -0.053 C  
BRANCH  27  28
HETATM   28  O   UNL     1      -7.218   6.133  69.394  1.00  0.00    -0.070 OA 
BRANCH  28  29
HETATM   29  C   UNL     1      -7.382   5.148  68.429  1.00  0.00    -0.071 A  
HETATM   30  C   UNL     1      -9.472   3.808  69.361  1.00  0.00    -0.257 C  
HETATM   31  C   UNL     1      -8.386   4.147  68.370  1.00  0.00    -0.099 A  
HETATM   32  C   UNL     1      -8.450   3.314  67.226  1.00  0.00    -0.106 A  
HETATM   33  C   UNL     1      -7.557   3.426  66.172  1.00  0.00    -0.077 A  
HETATM   34  C   UNL     1      -6.551   4.373  66.243  1.00  0.00    -0.045 A  
HETATM   35  C   UNL     1      -6.441   5.227  67.358  1.00  0.00    -0.052 A  
HETATM   36  C   UNL     1      -5.290   6.204  67.352  1.00  0.00    -0.005 C  
ENDBRANCH  28  29
ENDBRANCH  27  28
ENDBRANCH  24  27
ENDBRANCH  22  23
BRANCH  22  37
HETATM   37  C   UNL     1      -9.471   9.574  71.014  1.00  0.00    -0.118 C  
BRANCH  37  38
HETATM   38  C   UNL     1     -10.718   8.734  71.012  1.00  0.00    -0.290 A  
HETATM   39  C   UNL     1     -12.962   7.073  71.234  1.00  0.00    -0.357 A  
HETATM   40  C   UNL     1     -10.720   7.466  70.424  1.00  0.00    -0.250 A  
HETATM   41  C   UNL     1     -12.992   8.359  71.759  1.00  0.00    -0.368 A  
HETATM   42  C   UNL     1     -11.893   9.198  71.603  1.00  0.00    -0.443 A  
HETATM   43  C   UNL     1     -11.837   6.641  70.535  1.00  0.00    -0.430 A  
ENDBRANCH  37  38
ENDBRANCH  22  37
ENDBRANCH  19  22
ENDBRANCH  18  19
ENDBRANCH  17  18
BRANCH  17  44
HETATM   44  C   UNL     1      -7.137  10.673  66.839  1.00  0.00    -0.109 C  
BRANCH  44  45
HETATM   45  C   UNL     1      -7.293   9.463  65.938  1.00  0.00    -0.095 A  
HETATM   46  C   UNL     1      -6.582   9.354  64.731  1.00  0.00    -0.079 A  
HETATM   47  C   UNL     1      -8.178   8.436  66.285  1.00  0.00    -0.111 A  
HETATM   48  C   UNL     1      -6.787   8.264  63.878  1.00  0.00    -0.075 A  
HETATM   49  C   UNL     1      -8.378   7.345  65.435  1.00  0.00    -0.122 A  
HETATM   50  C   UNL     1      -7.691   7.263  64.227  1.00  0.00    -0.124 A  
ENDBRANCH  44  45
ENDBRANCH  17  44
ENDBRANCH  15  17
ENDBRANCH   3  13
TORSDOF 14
ENDMDL
MODEL      214
REMARK 921   NORMALIZED FREE ENERGY PREDICTED BY IDOCK:   -3.92 KCAL/MOL
REMARK 922        TOTAL FREE ENERGY PREDICTED BY IDOCK:  -11.69 KCAL/MOL
REMARK 923 INTER-LIGAND FREE ENERGY PREDICTED BY IDOCK:  -10.25 KCAL/MOL
REMARK 924 INTRA-LIGAND FREE ENERGY PREDICTED BY IDOCK:   -1.44 KCAL/MOL
REMARK 927      BINDING AFFINITY PREDICTED BY RF-SCORE:    0.00 PKD
ROOT
HETATM    1  C   UNL     1     -11.101   5.354  72.724  1.00  0.00    -0.349 C  
HETATM    2  C   UNL     1     -10.999   6.306  71.522  1.00  0.00    -0.322 C  
HETATM    3  C   UNL     1     -10.806   5.514  70.193  1.00  0.00    -0.229 C  
HETATM    4  C   UNL     1     -12.225   7.223  71.525  1.00  0.00    -0.387 C  
ENDROOT
BRANCH   3   5
HETATM    5  N   UNL     1      -9.553   4.723  70.209  1.00  0.00    -0.180 N  
HETATM    6  H   UNL     1      -6.328   5.071  70.278  1.00  0.00     0.000 HD 
HETATM    7  O   UNL     1      -8.229   6.511  70.803  1.00  0.00    -0.121 OA 
HETATM    8  C   UNL     1      -9.595   3.268  70.134  1.00  0.00    -0.121 C  
HETATM    9  C   UNL     1      -8.344   5.349  70.426  1.00  0.00    -0.113 C  
HETATM   10  C   UNL     1      -8.552   2.793  69.140  1.00  0.00    -0.117 C  
HETATM   11  N   UNL     1      -7.229   4.614  70.136  1.00  0.00    -0.049 N  
HETATM   12  C   UNL     1      -7.201   3.251  69.648  1.00  0.00    -0.041 C  
ENDBRANCH   3   5
BRANCH   3  13
HETATM   13  C   UNL     1     -10.916   6.441  68.943  1.00  0.00    -0.346 C  
HETATM   14  O   UNL     1     -11.535   6.139  67.929  1.00  0.00    -0.041 OA 
HETATM   15  N   UNL     1     -10.183   7.608  69.027  1.00  0.00    -0.202 N  
HETATM   16  H   UNL     1      -9.715   7.788  69.915  1.00  0.00     0.000 HD 
BRANCH  15  17
HETATM   17  C   UNL     1     -10.004   8.615  67.983  1.00  0.00    -0.182 C  
BRANCH  17  18
HETATM   18  C   UNL     1     -11.082   9.721  67.991  1.00  0.00    -0.168 C  
BRANCH  18  19
HETATM   19  C   UNL     1     -11.399  10.589  69.236  1.00  0.00    -0.262 C  
HETATM   20  O   UNL     1     -12.806  10.551  69.492  1.00  0.00    -0.642 OA 
HETATM   21  H   UNL     1     -13.001  11.083  70.255  1.00  0.00     0.000 HD 
BRANCH  19  22
HETATM   22  C   UNL     1     -10.997  12.096  68.991  1.00  0.00    -0.205 C  
BRANCH  22  23
HETATM   23  N   UNL     1      -9.915  12.275  67.955  1.00  0.00    -0.196 N  
HETATM   24  C   UNL     1      -8.794  13.055  67.771  1.00  0.00    -0.188 C  
HETATM   25  H   UNL     1     -10.053  11.640  67.170  1.00  0.00     0.000 HD 
HETATM   26  O   UNL     1      -7.995  12.726  66.889  1.00  0.00    -0.087 OA 
BRANCH  24  27
HETATM   27  C   UNL     1      -8.609  14.360  68.562  1.00  0.00    -0.175 C  
BRANCH  27  28
HETATM   28  O   UNL     1      -9.626  15.341  68.686  1.00  0.00    -0.192 OA 
BRANCH  28  29
HETATM   29  C   UNL     1      -9.808  16.243  67.646  1.00  0.00    -0.238 A  
HETATM   30  C   UNL     1     -11.251  14.824  65.933  1.00  0.00    -0.340 C  
HETATM   31  C   UNL     1     -10.551  16.055  66.451  1.00  0.00    -0.284 A  
HETATM   32  C   UNL     1     -10.717  17.154  65.573  1.00  0.00    -0.124 A  
HETATM   33  C   UNL     1     -10.164  18.400  65.827  1.00  0.00    -0.111 A  
HETATM   34  C   UNL     1      -9.405  18.578  66.970  1.00  0.00    -0.288 A  
HETATM   35  C   UNL     1      -9.208  17.518  67.877  1.00  0.00    -0.265 A  
HETATM   36  C   UNL     1      -8.338  17.807  69.076  1.00  0.00    -0.029 C  
ENDBRANCH  28  29
ENDBRANCH  27  28
ENDBRANCH  24  27
ENDBRANCH  22  23
BRANCH  22  37
HETATM   37  C   UNL     1     -12.223  13.047  68.924  1.00  0.00    -0.072 C  
BRANCH  37  38
HETATM   38  C   UNL     1     -12.630  13.625  70.251  1.00  0.00    -0.253 A  
HETATM   39  C   UNL     1     -13.146  14.663  72.800  1.00  0.00    -0.580 A  
HETATM   40  C   UNL     1     -13.126  12.799  71.263  1.00  0.00    -0.245 A  
HETATM   41  C   UNL     1     -12.722  15.503  71.779  1.00  0.00    -0.494 A  
HETATM   42  C   UNL     1     -12.514  14.992  70.501  1.00  0.00    -0.425 A  
HETATM   43  C   UNL     1     -13.383  13.316  72.531  1.00  0.00    -0.569 A  
ENDBRANCH  37  38
ENDBRANCH  22  37
ENDBRANCH  19  22
ENDBRANCH  18  19
ENDBRANCH  17  18
BRANCH  17  44
HETATM   44  C   UNL     1      -9.569   8.035  66.619  1.00  0.00    -0.297 C  
BRANCH  44  45
HETATM   45  C   UNL     1      -8.488   8.847  65.931  1.00  0.00    -0.147 A  
HETATM   46  C   UNL     1      -8.746   9.549  64.742  1.00  0.00    -0.225 A  
HETATM   47  C   UNL     1      -7.193   8.888  66.462  1.00  0.00    -0.085 A  
HETATM   48  C   UNL     1      -7.722  10.238  64.083  1.00  0.00    -0.097 A  
HETATM   49  C   UNL     1      -6.172   9.580  65.805  1.00  0.00    -0.064 A  
HETATM   50  C   UNL     1      -6.433  10.247  64.612  1.00  0.00    -0.101 A  
ENDBRANCH  44  45
ENDBRANCH  17  44
ENDBRANCH  15  17
ENDBRANCH   3  13
TORSDOF 14
ENDMDL
MODEL      215
REMARK 921   NORMALIZED FREE ENERGY PREDICTED BY IDOCK:   -3.90 KCAL/MOL
REMARK 922        TOTAL FREE ENERGY PREDICTED BY IDOCK:  -11.65 KCAL/MOL
REMARK 923 INTER-LIGAND FREE ENERGY PREDICTED BY IDOCK:   -8.75 KCAL/MOL
REMARK 924 INTRA-LIGAND FREE ENERGY PREDICTED BY IDOCK:   -2.91 KCAL/MOL
REMARK 927      BINDING AFFINITY PREDICTED BY RF-SCORE:    0.00 PKD
ROOT
HETATM    1  C   UNL     1     -13.052  15.580  70.154  1.00  0.00     0.093 C  
HETATM    2  C   UNL     1     -11.866  15.114  69.296  1.00  0.00    -0.347 C  
HETATM    3  C   UNL     1     -12.104  13.675  68.743  1.00  0.00    -0.297 C  
HETATM    4  C   UNL     1     -11.613  16.161  68.209  1.00  0.00    -0.181 C  
ENDROOT
BRANCH   3   5
HETATM    5  N   UNL     1     -12.242  12.688  69.839  1.00  0.00    -0.221 N  
HETATM    6  H   UNL     1     -12.785   9.533  70.365  1.00  0.00     0.000 HD 
HETATM    7  O   UNL     1     -12.057  10.861  68.449  1.00  0.00    -0.559 OA 
HETATM    8  C   UNL     1     -12.179  13.114  71.232  1.00  0.00     0.026 C  
HETATM    9  C   UNL     1     -12.302  11.341  69.552  1.00  0.00    -0.175 C  
HETATM   10  C   UNL     1     -13.298  12.443  72.006  1.00  0.00    -0.511 C  
HETATM   11  N   UNL     1     -12.721  10.530  70.569  1.00  0.00    -0.338 N  
HETATM   12  C   UNL     1     -13.084  10.947  71.908  1.00  0.00    -0.432 C  
ENDBRANCH   3   5
BRANCH   3  13
HETATM   13  C   UNL     1     -11.019  13.267  67.699  1.00  0.00    -0.262 C  
HETATM   14  O   UNL     1     -11.275  12.968  66.538  1.00  0.00    -0.285 OA 
HETATM   15  N   UNL     1      -9.738  13.180  68.206  1.00  0.00    -0.226 N  
HETATM   16  H   UNL     1      -9.613  13.466  69.177  1.00  0.00     0.000 HD 
BRANCH  15  17
HETATM   17  C   UNL     1      -8.540  12.723  67.505  1.00  0.00    -0.187 C  
BRANCH  17  18
HETATM   18  C   UNL     1      -8.209  11.233  67.741  1.00  0.00    -0.120 C  
BRANCH  18  19
HETATM   19  C   UNL     1      -8.019  10.618  69.152  1.00  0.00    -0.139 C  
HETATM   20  O   UNL     1      -6.627  10.383  69.382  1.00  0.00    -0.049 OA 
HETATM   21  H   UNL     1      -6.510  10.006  70.246  1.00  0.00     0.000 HD 
BRANCH  19  22
HETATM   22  C   UNL     1      -8.765   9.231  69.268  1.00  0.00    -0.141 C  
BRANCH  22  23
HETATM   23  N   UNL     1      -9.619   9.103  70.504  1.00  0.00    -0.223 N  
HETATM   24  C   UNL     1      -9.633   8.361  71.666  1.00  0.00    -0.221 C  
HETATM   25  H   UNL     1     -10.409   9.746  70.471  1.00  0.00     0.000 HD 
HETATM   26  O   UNL     1     -10.374   8.729  72.582  1.00  0.00    -0.176 OA 
BRANCH  24  27
HETATM   27  C   UNL     1      -8.838   7.048  71.766  1.00  0.00    -0.126 C  
BRANCH  27  28
HETATM   28  O   UNL     1      -9.421   5.772  71.556  1.00  0.00    -0.149 OA 
BRANCH  28  29
HETATM   29  C   UNL     1      -9.355   5.215  70.286  1.00  0.00    -0.156 A  
HETATM   30  C   UNL     1      -7.120   3.795  70.423  1.00  0.00    -0.038 C  
HETATM   31  C   UNL     1      -8.383   4.313  69.781  1.00  0.00    -0.077 A  
HETATM   32  C   UNL     1      -8.572   3.761  68.490  1.00  0.00    -0.120 A  
HETATM   33  C   UNL     1      -9.660   4.084  67.694  1.00  0.00    -0.210 A  
HETATM   34  C   UNL     1     -10.590   4.993  68.165  1.00  0.00     0.089 A  
HETATM   35  C   UNL     1     -10.450   5.573  69.442  1.00  0.00    -0.360 A  
HETATM   36  C   UNL     1     -11.501   6.577  69.848  1.00  0.00    -0.467 C  
ENDBRANCH  28  29
ENDBRANCH  27  28
ENDBRANCH  24  27
ENDBRANCH  22  23
BRANCH  22  37
HETATM   37  C   UNL     1      -9.373   8.756  67.920  1.00  0.00    -0.155 C  
BRANCH  37  38
HETATM   38  C   UNL     1      -8.476   7.850  67.123  1.00  0.00    -0.117 A  
HETATM   39  C   UNL     1      -6.914   5.966  65.761  1.00  0.00    -0.065 A  
HETATM   40  C   UNL     1      -7.212   7.500  67.604  1.00  0.00    -0.090 A  
HETATM   41  C   UNL     1      -8.138   6.364  65.239  1.00  0.00    -0.133 A  
HETATM   42  C   UNL     1      -8.889   7.337  65.894  1.00  0.00    -0.136 A  
HETATM   43  C   UNL     1      -6.436   6.562  66.926  1.00  0.00    -0.043 A  
ENDBRANCH  37  38
ENDBRANCH  22  37
ENDBRANCH  19  22
ENDBRANCH  18  19
ENDBRANCH  17  18
BRANCH  17  44
HETATM   44  C   UNL     1      -7.376  13.737  67.522  1.00  0.00    -0.176 C  
BRANCH  44  45
HETATM   45  C   UNL     1      -7.822  15.171  67.738  1.00  0.00    -0.161 A  
HETATM   46  C   UNL     1      -7.763  15.772  69.006  1.00  0.00    -0.202 A  
HETATM   47  C   UNL     1      -8.329  15.918  66.668  1.00  0.00    -0.328 A  
HETATM   48  C   UNL     1      -8.240  17.072  69.202  1.00  0.00    -0.034 A  
HETATM   49  C   UNL     1      -8.801  17.219  66.865  1.00  0.00    -0.259 A  
HETATM   50  C   UNL     1      -8.766  17.793  68.132  1.00  0.00    -0.266 A  
ENDBRANCH  44  45
ENDBRANCH  17  44
ENDBRANCH  15  17
ENDBRANCH   3  13
TORSDOF 14
ENDMDL
MODEL      216
REMARK 921   NORMALIZED FREE ENERGY PREDICTED BY IDOCK:   -3.90 KCAL/MOL
REMARK 922        TOTAL FREE ENERGY PREDICTED BY IDOCK:  -11.64 KCAL/MOL
REMARK 923 INTER-LIGAND FREE ENERGY PREDICTED BY IDOCK:   -8.44 KCAL/MOL
REMARK 924 INTRA-LIGAND FREE ENERGY PREDICTED BY IDOCK:   -3.20 KCAL/MOL
REMARK 927      BINDING AFFINITY PREDICTED BY RF-SCORE:    0.00 PKD
ROOT
HETATM    1  C   UNL     1     -11.854  15.085  64.578  1.00  0.00    -0.377 C  
HETATM    2  C   UNL     1     -10.510  14.424  64.917  1.00  0.00    -0.448 C  
HETATM    3  C   UNL     1     -10.287  14.362  66.460  1.00  0.00    -0.281 C  
HETATM    4  C   UNL     1     -10.454  13.058  64.228  1.00  0.00    -0.424 C  
ENDROOT
BRANCH   3   5
HETATM    5  N   UNL     1     -10.251  15.718  67.058  1.00  0.00    -0.274 N  
HETATM    6  H   UNL     1     -11.697  17.535  69.322  1.00  0.00     0.000 HD 
HETATM    7  O   UNL     1     -11.552  15.140  68.867  1.00  0.00    -0.306 OA 
HETATM    8  C   UNL     1      -9.334  16.728  66.546  1.00  0.00    -0.264 C  
HETATM    9  C   UNL     1     -10.993  15.994  68.186  1.00  0.00    -0.339 C  
HETATM   10  C   UNL     1     -10.077  18.042  66.399  1.00  0.00    -0.384 C  
HETATM   11  N   UNL     1     -11.138  17.316  68.498  1.00  0.00    -0.142 N  
HETATM   12  C   UNL     1     -10.576  18.437  67.773  1.00  0.00    -0.391 C  
ENDBRANCH   3   5
BRANCH   3  13
HETATM   13  C   UNL     1      -9.038  13.506  66.832  1.00  0.00    -0.239 C  
HETATM   14  O   UNL     1      -7.885  13.913  66.735  1.00  0.00     0.167 OA 
HETATM   15  N   UNL     1      -9.321  12.207  67.203  1.00  0.00    -0.188 N  
HETATM   16  H   UNL     1     -10.308  11.961  67.276  1.00  0.00     0.000 HD 
BRANCH  15  17
HETATM   17  C   UNL     1      -8.362  11.146  67.502  1.00  0.00    -0.122 C  
BRANCH  17  18
HETATM   18  C   UNL     1      -8.195  10.116  66.362  1.00  0.00    -0.122 C  
BRANCH  18  19
HETATM   19  C   UNL     1      -9.376   9.303  65.772  1.00  0.00    -0.244 C  
HETATM   20  O   UNL     1     -10.571   9.615  66.492  1.00  0.00    -0.174 OA 
HETATM   21  H   UNL     1     -11.295   9.116  66.131  1.00  0.00     0.000 HD 
BRANCH  19  22
HETATM   22  C   UNL     1      -9.120   7.752  65.915  1.00  0.00    -0.072 C  
BRANCH  22  23
HETATM   23  N   UNL     1      -7.673   7.393  66.142  1.00  0.00    -0.091 N  
HETATM   24  C   UNL     1      -6.804   6.379  65.803  1.00  0.00    -0.053 C  
HETATM   25  H   UNL     1      -7.205   8.102  66.707  1.00  0.00     0.000 HD 
HETATM   26  O   UNL     1      -5.595   6.569  65.966  1.00  0.00    -0.016 OA 
BRANCH  24  27
HETATM   27  C   UNL     1      -7.338   5.010  65.348  1.00  0.00    -0.072 C  
BRANCH  27  28
HETATM   28  O   UNL     1      -6.787   3.779  65.787  1.00  0.00    -0.054 OA 
BRANCH  28  29
HETATM   29  C   UNL     1      -7.477   3.049  66.746  1.00  0.00    -0.075 A  
HETATM   30  C   UNL     1      -9.536   2.122  65.355  1.00  0.00     0.107 C  
HETATM   31  C   UNL     1      -8.658   2.281  66.572  1.00  0.00    -0.112 A  
HETATM   32  C   UNL     1      -9.131   1.504  67.657  1.00  0.00    -0.174 A  
HETATM   33  C   UNL     1      -8.497   1.483  68.890  1.00  0.00    -0.079 A  
HETATM   34  C   UNL     1      -7.369   2.261  69.078  1.00  0.00    -0.044 A  
HETATM   35  C   UNL     1      -6.856   3.053  68.032  1.00  0.00    -0.049 A  
HETATM   36  C   UNL     1      -5.640   3.890  68.350  1.00  0.00    -0.017 C  
ENDBRANCH  28  29
ENDBRANCH  27  28
ENDBRANCH  24  27
ENDBRANCH  22  23
BRANCH  22  37
HETATM   37  C   UNL     1     -10.184   7.041  66.794  1.00  0.00    -0.282 C  
BRANCH  37  38
HETATM   38  C   UNL     1      -9.625   6.357  68.010  1.00  0.00    -0.118 A  
HETATM   39  C   UNL     1      -8.753   5.214  70.414  1.00  0.00    -0.130 A  
HETATM   40  C   UNL     1      -8.561   6.923  68.717  1.00  0.00    -0.124 A  
HETATM   41  C   UNL     1      -9.763   4.606  69.679  1.00  0.00    -0.283 A  
HETATM   42  C   UNL     1     -10.159   5.150  68.460  1.00  0.00    -0.214 A  
HETATM   43  C   UNL     1      -8.128   6.354  69.912  1.00  0.00    -0.121 A  
ENDBRANCH  37  38
ENDBRANCH  22  37
ENDBRANCH  19  22
ENDBRANCH  18  19
ENDBRANCH  17  18
BRANCH  17  44
HETATM   44  C   UNL     1      -8.440  10.619  68.951  1.00  0.00    -0.154 C  
BRANCH  44  45
HETATM   45  C   UNL     1      -9.850  10.579  69.509  1.00  0.00    -0.170 A  
HETATM   46  C   UNL     1     -10.680  11.712  69.479  1.00  0.00    -0.002 A  
HETATM   47  C   UNL     1     -10.342   9.406  70.094  1.00  0.00    -0.273 A  
HETATM   48  C   UNL     1     -11.954  11.678  70.058  1.00  0.00    -0.429 A  
HETATM   49  C   UNL     1     -11.616   9.373  70.668  1.00  0.00    -0.330 A  
HETATM   50  C   UNL     1     -12.419  10.511  70.659  1.00  0.00    -0.456 A  
ENDBRANCH  44  45
ENDBRANCH  17  44
ENDBRANCH  15  17
ENDBRANCH   3  13
TORSDOF 14
ENDMDL
MODEL      217
REMARK 921   NORMALIZED FREE ENERGY PREDICTED BY IDOCK:   -3.85 KCAL/MOL
REMARK 922        TOTAL FREE ENERGY PREDICTED BY IDOCK:  -11.55 KCAL/MOL
REMARK 923 INTER-LIGAND FREE ENERGY PREDICTED BY IDOCK:   -8.25 KCAL/MOL
REMARK 924 INTRA-LIGAND FREE ENERGY PREDICTED BY IDOCK:   -3.30 KCAL/MOL
REMARK 927      BINDING AFFINITY PREDICTED BY RF-SCORE:    0.00 PKD
ROOT
HETATM    1  C   UNL     1      -5.824   4.229  67.356  1.00  0.00    -0.023 C  
HETATM    2  C   UNL     1      -6.866   5.357  67.326  1.00  0.00    -0.060 C  
HETATM    3  C   UNL     1      -8.235   4.873  67.895  1.00  0.00    -0.100 C  
HETATM    4  C   UNL     1      -6.288   6.572  68.054  1.00  0.00    -0.040 C  
ENDROOT
BRANCH   3   5
HETATM    5  N   UNL     1      -8.795   3.761  67.090  1.00  0.00    -0.114 N  
HETATM    6  H   UNL     1      -9.655   0.641  67.318  1.00  0.00     0.000 HD 
HETATM    7  O   UNL     1      -9.254   2.441  68.920  1.00  0.00    -0.127 OA 
HETATM    8  C   UNL     1      -9.084   3.945  65.673  1.00  0.00    -0.144 C  
HETATM    9  C   UNL     1      -9.169   2.585  67.704  1.00  0.00    -0.184 C  
HETATM   10  C   UNL     1      -8.569   2.744  64.904  1.00  0.00    -0.098 C  
HETATM   11  N   UNL     1      -9.392   1.522  66.875  1.00  0.00     0.006 N  
HETATM   12  C   UNL     1      -9.294   1.523  65.431  1.00  0.00     0.026 C  
ENDBRANCH   3   5
BRANCH   3  13
HETATM   13  C   UNL     1      -9.240   6.052  68.073  1.00  0.00    -0.115 C  
HETATM   14  O   UNL     1      -9.658   6.732  67.143  1.00  0.00    -0.134 OA 
HETATM   15  N   UNL     1      -9.564   6.337  69.385  1.00  0.00    -0.141 N  
HETATM   16  H   UNL     1      -9.186   5.708  70.093  1.00  0.00     0.000 HD 
BRANCH  15  17
HETATM   17  C   UNL     1     -10.387   7.442  69.870  1.00  0.00    -0.218 C  
BRANCH  17  18
HETATM   18  C   UNL     1      -9.608   8.761  70.070  1.00  0.00    -0.177 C  
BRANCH  18  19
HETATM   19  C   UNL     1     -10.092  10.126  69.516  1.00  0.00    -0.235 C  
HETATM   20  O   UNL     1     -11.274   9.927  68.735  1.00  0.00    -0.418 OA 
HETATM   21  H   UNL     1     -11.570  10.764  68.395  1.00  0.00     0.000 HD 
BRANCH  19  22
HETATM   22  C   UNL     1      -9.000  10.774  68.578  1.00  0.00    -0.160 C  
BRANCH  22  23
HETATM   23  N   UNL     1      -7.929  11.530  69.324  1.00  0.00    -0.361 N  
HETATM   24  C   UNL     1      -7.518  12.836  69.479  1.00  0.00     0.606 C  
HETATM   25  H   UNL     1      -7.345  10.895  69.868  1.00  0.00     0.000 HD 
HETATM   26  O   UNL     1      -6.738  13.095  70.400  1.00  0.00     0.303 OA 
BRANCH  24  27
HETATM   27  C   UNL     1      -7.928  13.912  68.459  1.00  0.00    -0.137 C  
BRANCH  27  28
HETATM   28  O   UNL     1      -9.074  14.732  68.617  1.00  0.00    -0.178 OA 
BRANCH  28  29
HETATM   29  C   UNL     1     -10.123  14.584  67.720  1.00  0.00    -0.225 A  
HETATM   30  C   UNL     1     -11.821  13.087  69.101  1.00  0.00    -0.360 C  
HETATM   31  C   UNL     1     -11.354  13.905  67.924  1.00  0.00    -0.320 A  
HETATM   32  C   UNL     1     -12.348  13.982  66.918  1.00  0.00    -0.321 A  
HETATM   33  C   UNL     1     -12.157  14.676  65.733  1.00  0.00    -0.201 A  
HETATM   34  C   UNL     1     -10.945  15.306  65.511  1.00  0.00    -0.365 A  
HETATM   35  C   UNL     1      -9.921  15.261  66.479  1.00  0.00    -0.278 A  
HETATM   36  C   UNL     1      -8.627  15.952  66.126  1.00  0.00    -0.276 C  
ENDBRANCH  28  29
ENDBRANCH  27  28
ENDBRANCH  24  27
ENDBRANCH  22  23
BRANCH  22  37
HETATM   37  C   UNL     1      -8.548   9.827  67.433  1.00  0.00    -0.128 C  
BRANCH  37  38
HETATM   38  C   UNL     1      -8.952  10.283  66.058  1.00  0.00    -0.173 A  
HETATM   39  C   UNL     1      -9.911  10.980  63.521  1.00  0.00    -0.421 A  
HETATM   40  C   UNL     1      -8.520   9.590  64.925  1.00  0.00    -0.170 A  
HETATM   41  C   UNL     1     -10.289  11.718  64.635  1.00  0.00    -0.336 A  
HETATM   42  C   UNL     1      -9.771  11.399  65.887  1.00  0.00    -0.257 A  
HETATM   43  C   UNL     1      -8.997   9.938  63.663  1.00  0.00    -0.278 A  
ENDBRANCH  37  38
ENDBRANCH  22  37
ENDBRANCH  19  22
ENDBRANCH  18  19
ENDBRANCH  17  18
BRANCH  17  44
HETATM   44  C   UNL     1     -11.414   7.035  70.949  1.00  0.00    -0.349 C  
BRANCH  44  45
HETATM   45  C   UNL     1     -10.784   6.424  72.187  1.00  0.00    -0.259 A  
HETATM   46  C   UNL     1     -10.350   7.224  73.257  1.00  0.00    -0.389 A  
HETATM   47  C   UNL     1     -10.599   5.038  72.272  1.00  0.00    -0.269 A  
HETATM   48  C   UNL     1      -9.711   6.651  74.363  1.00  0.00    -0.329 A  
HETATM   49  C   UNL     1      -9.965   4.468  73.378  1.00  0.00    -0.185 A  
HETATM   50  C   UNL     1      -9.512   5.273  74.419  1.00  0.00    -0.141 A  
ENDBRANCH  44  45
ENDBRANCH  17  44
ENDBRANCH  15  17
ENDBRANCH   3  13
TORSDOF 14
ENDMDL
MODEL      218
REMARK 921   NORMALIZED FREE ENERGY PREDICTED BY IDOCK:   -3.84 KCAL/MOL
REMARK 922        TOTAL FREE ENERGY PREDICTED BY IDOCK:  -11.53 KCAL/MOL
REMARK 923 INTER-LIGAND FREE ENERGY PREDICTED BY IDOCK:   -9.23 KCAL/MOL
REMARK 924 INTRA-LIGAND FREE ENERGY PREDICTED BY IDOCK:   -2.30 KCAL/MOL
REMARK 927      BINDING AFFINITY PREDICTED BY RF-SCORE:    0.00 PKD
ROOT
HETATM    1  C   UNL     1      -7.897   6.988  63.465  1.00  0.00    -0.109 C  
HETATM    2  C   UNL     1      -7.423   7.366  64.877  1.00  0.00    -0.087 C  
HETATM    3  C   UNL     1      -8.509   8.195  65.630  1.00  0.00    -0.156 C  
HETATM    4  C   UNL     1      -7.003   6.088  65.607  1.00  0.00    -0.061 C  
ENDROOT
BRANCH   3   5
HETATM    5  N   UNL     1      -8.804   9.467  64.931  1.00  0.00    -0.192 N  
HETATM    6  H   UNL     1     -11.132  11.701  64.592  1.00  0.00     0.000 HD 
HETATM    7  O   UNL     1     -10.646   9.951  66.224  1.00  0.00    -0.140 OA 
HETATM    8  C   UNL     1      -7.839  10.041  64.000  1.00  0.00    -0.150 C  
HETATM    9  C   UNL     1      -9.936  10.186  65.251  1.00  0.00    -0.311 C  
HETATM   10  C   UNL     1      -8.567  10.494  62.749  1.00  0.00    -0.218 C  
HETATM   11  N   UNL     1     -10.287  11.173  64.374  1.00  0.00    -0.321 N  
HETATM   12  C   UNL     1      -9.578  11.542  63.167  1.00  0.00    -0.360 C  
ENDBRANCH   3   5
BRANCH   3  13
HETATM   13  C   UNL     1      -8.142   8.404  67.132  1.00  0.00    -0.104 C  
HETATM   14  O   UNL     1      -7.141   9.005  67.506  1.00  0.00    -0.075 OA 
HETATM   15  N   UNL     1      -8.992   7.780  68.023  1.00  0.00    -0.127 N  
HETATM   16  H   UNL     1      -9.809   7.319  67.624  1.00  0.00     0.000 HD 
BRANCH  15  17
HETATM   17  C   UNL     1      -8.847   7.706  69.475  1.00  0.00    -0.139 C  
BRANCH  17  18
HETATM   18  C   UNL     1      -9.185   9.025  70.204  1.00  0.00    -0.212 C  
BRANCH  18  19
HETATM   19  C   UNL     1     -10.520   9.789  70.005  1.00  0.00    -0.270 C  
HETATM   20  O   UNL     1     -11.296   9.129  69.000  1.00  0.00    -0.434 OA 
HETATM   21  H   UNL     1     -12.114   9.597  68.878  1.00  0.00     0.000 HD 
BRANCH  19  22
HETATM   22  C   UNL     1     -10.257  11.267  69.516  1.00  0.00     0.159 C  
BRANCH  22  23
HETATM   23  N   UNL     1      -9.031  11.411  68.650  1.00  0.00    -0.271 N  
HETATM   24  C   UNL     1      -8.124  12.394  68.315  1.00  0.00    -0.166 C  
HETATM   25  H   UNL     1      -8.811  10.534  68.179  1.00  0.00     0.000 HD 
HETATM   26  O   UNL     1      -7.077  12.053  67.757  1.00  0.00    -0.090 OA 
BRANCH  24  27
HETATM   27  C   UNL     1      -8.466  13.878  68.526  1.00  0.00    -0.127 C  
BRANCH  27  28
HETATM   28  O   UNL     1      -9.758  14.416  68.297  1.00  0.00    -0.209 OA 
BRANCH  28  29
HETATM   29  C   UNL     1      -9.878  15.530  67.478  1.00  0.00    -0.220 A  
HETATM   30  C   UNL     1      -8.486  17.348  68.817  1.00  0.00    -0.225 C  
HETATM   31  C   UNL     1      -9.295  16.812  67.662  1.00  0.00    -0.228 A  
HETATM   32  C   UNL     1      -9.438  17.778  66.637  1.00  0.00    -0.299 A  
HETATM   33  C   UNL     1     -10.143  17.527  65.470  1.00  0.00     0.149 A  
HETATM   34  C   UNL     1     -10.748  16.294  65.303  1.00  0.00    -0.349 A  
HETATM   35  C   UNL     1     -10.637  15.296  66.292  1.00  0.00    -0.312 A  
HETATM   36  C   UNL     1     -11.360  13.998  66.026  1.00  0.00    -0.328 C  
ENDBRANCH  28  29
ENDBRANCH  27  28
ENDBRANCH  24  27
ENDBRANCH  22  23
BRANCH  22  37
HETATM   37  C   UNL     1     -11.552  11.991  69.059  1.00  0.00    -0.370 C  
BRANCH  37  38
HETATM   38  C   UNL     1     -12.209  12.818  70.130  1.00  0.00    -0.320 A  
HETATM   39  C   UNL     1     -13.656  14.311  72.006  1.00  0.00    -0.520 A  
HETATM   40  C   UNL     1     -12.361  14.197  69.969  1.00  0.00    -0.403 A  
HETATM   41  C   UNL     1     -13.447  12.953  72.208  1.00  0.00    -0.631 A  
HETATM   42  C   UNL     1     -12.685  12.225  71.299  1.00  0.00    -0.351 A  
HETATM   43  C   UNL     1     -13.081  14.939  70.903  1.00  0.00    -0.430 A  
ENDBRANCH  37  38
ENDBRANCH  22  37
ENDBRANCH  19  22
ENDBRANCH  18  19
ENDBRANCH  17  18
BRANCH  17  44
HETATM   44  C   UNL     1      -7.607   6.914  69.944  1.00  0.00    -0.099 C  
BRANCH  44  45
HETATM   45  C   UNL     1      -6.729   7.679  70.916  1.00  0.00    -0.042 A  
HETATM   46  C   UNL     1      -5.963   7.014  71.888  1.00  0.00    -0.037 A  
HETATM   47  C   UNL     1      -6.688   9.078  70.875  1.00  0.00    -0.080 A  
HETATM   48  C   UNL     1      -5.210   7.737  72.820  1.00  0.00    -0.036 A  
HETATM   49  C   UNL     1      -5.931   9.798  71.804  1.00  0.00     0.152 A  
HETATM   50  C   UNL     1      -5.200   9.130  72.782  1.00  0.00    -0.077 A  
ENDBRANCH  44  45
ENDBRANCH  17  44
ENDBRANCH  15  17
ENDBRANCH   3  13
TORSDOF 14
ENDMDL
MODEL      219
REMARK 921   NORMALIZED FREE ENERGY PREDICTED BY IDOCK:   -3.75 KCAL/MOL
REMARK 922        TOTAL FREE ENERGY PREDICTED BY IDOCK:  -11.38 KCAL/MOL
REMARK 923 INTER-LIGAND FREE ENERGY PREDICTED BY IDOCK:   -8.79 KCAL/MOL
REMARK 924 INTRA-LIGAND FREE ENERGY PREDICTED BY IDOCK:   -2.59 KCAL/MOL
REMARK 927      BINDING AFFINITY PREDICTED BY RF-SCORE:    0.00 PKD
ROOT
HETATM    1  C   UNL     1      -8.587   9.233  64.747  1.00  0.00    -0.207 C  
HETATM    2  C   UNL     1      -8.178   8.866  66.182  1.00  0.00    -0.116 C  
HETATM    3  C   UNL     1      -7.633   7.406  66.255  1.00  0.00    -0.088 C  
HETATM    4  C   UNL     1      -7.193   9.921  66.690  1.00  0.00    -0.091 C  
ENDROOT
BRANCH   3   5
HETATM    5  N   UNL     1      -8.661   6.421  65.846  1.00  0.00    -0.151 N  
HETATM    6  H   UNL     1     -11.598   5.321  66.676  1.00  0.00     0.000 HD 
HETATM    7  O   UNL     1     -10.309   7.336  67.169  1.00  0.00    -0.235 OA 
HETATM    8  C   UNL     1      -8.421   5.522  64.725  1.00  0.00    -0.125 C  
HETATM    9  C   UNL     1      -9.905   6.434  66.441  1.00  0.00    -0.063 C  
HETATM   10  C   UNL     1      -8.852   4.120  65.112  1.00  0.00    -0.130 C  
HETATM   11  N   UNL     1     -10.682   5.331  66.229  1.00  0.00    -0.269 N  
HETATM   12  C   UNL     1     -10.332   4.173  65.432  1.00  0.00    -0.148 C  
ENDBRANCH   3   5
BRANCH   3  13
HETATM   13  C   UNL     1      -7.013   7.086  67.650  1.00  0.00    -0.083 C  
HETATM   14  O   UNL     1      -5.807   7.091  67.872  1.00  0.00    -0.023 OA 
HETATM   15  N   UNL     1      -7.927   6.706  68.611  1.00  0.00    -0.117 N  
HETATM   16  H   UNL     1      -8.911   6.749  68.345  1.00  0.00     0.000 HD 
BRANCH  15  17
HETATM   17  C   UNL     1      -7.641   6.246  69.968  1.00  0.00    -0.096 C  
BRANCH  17  18
HETATM   18  C   UNL     1      -7.201   7.373  70.929  1.00  0.00    -0.068 C  
BRANCH  18  19
HETATM   19  C   UNL     1      -8.201   8.261  71.713  1.00  0.00    -0.145 C  
HETATM   20  O   UNL     1      -7.494   8.999  72.714  1.00  0.00    -0.331 OA 
HETATM   21  H   UNL     1      -8.106   9.543  73.194  1.00  0.00     0.000 HD 
BRANCH  19  22
HETATM   22  C   UNL     1      -9.287   7.379  72.444  1.00  0.00    -0.144 C  
BRANCH  22  23
HETATM   23  N   UNL     1     -10.327   6.803  71.516  1.00  0.00    -0.207 N  
HETATM   24  C   UNL     1     -11.255   7.264  70.608  1.00  0.00    -0.274 C  
HETATM   25  H   UNL     1     -10.349   5.786  71.578  1.00  0.00     0.000 HD 
HETATM   26  O   UNL     1     -11.765   6.449  69.832  1.00  0.00    -0.426 OA 
BRANCH  24  27
HETATM   27  C   UNL     1     -11.727   8.727  70.644  1.00  0.00    -0.166 C  
BRANCH  27  28
HETATM   28  O   UNL     1     -11.357   9.684  69.664  1.00  0.00    -0.185 OA 
BRANCH  28  29
HETATM   29  C   UNL     1     -11.742  11.005  69.848  1.00  0.00    -0.346 A  
HETATM   30  C   UNL     1     -13.196  10.850  72.061  1.00  0.00    -0.456 C  
HETATM   31  C   UNL     1     -12.510  11.547  70.912  1.00  0.00    -0.464 A  
HETATM   32  C   UNL     1     -12.685  12.951  70.979  1.00  0.00    -0.338 A  
HETATM   33  C   UNL     1     -12.151  13.814  70.034  1.00  0.00    -0.416 A  
HETATM   34  C   UNL     1     -11.437  13.288  68.972  1.00  0.00    -0.350 A  
HETATM   35  C   UNL     1     -11.234  11.898  68.857  1.00  0.00    -0.310 A  
HETATM   36  C   UNL     1     -10.468  11.425  67.646  1.00  0.00    -0.225 C  
ENDBRANCH  28  29
ENDBRANCH  27  28
ENDBRANCH  24  27
ENDBRANCH  22  23
BRANCH  22  37
HETATM   37  C   UNL     1      -8.677   6.436  73.516  1.00  0.00    -0.130 C  
BRANCH  37  38
HETATM   38  C   UNL     1      -9.228   5.037  73.494  1.00  0.00    -0.126 A  
HETATM   39  C   UNL     1     -10.314   2.471  73.205  1.00  0.00    -0.220 A  
HETATM   40  C   UNL     1     -10.566   4.795  73.817  1.00  0.00    -0.330 A  
HETATM   41  C   UNL     1      -8.966   2.690  72.952  1.00  0.00    -0.100 A  
HETATM   42  C   UNL     1      -8.420   3.956  73.144  1.00  0.00    -0.092 A  
HETATM   43  C   UNL     1     -11.105   3.519  73.673  1.00  0.00    -0.314 A  
ENDBRANCH  37  38
ENDBRANCH  22  37
ENDBRANCH  19  22
ENDBRANCH  18  19
ENDBRANCH  17  18
BRANCH  17  44
HETATM   44  C   UNL     1      -6.885   4.902  70.030  1.00  0.00    -0.048 C  
BRANCH  44  45
HETATM   45  C   UNL     1      -7.544   3.795  69.229  1.00  0.00    -0.053 A  
HETATM   46  C   UNL     1      -8.931   3.580  69.283  1.00  0.00    -0.179 A  
HETATM   47  C   UNL     1      -6.767   2.945  68.433  1.00  0.00    -0.040 A  
HETATM   48  C   UNL     1      -9.515   2.513  68.590  1.00  0.00    -0.196 A  
HETATM   49  C   UNL     1      -7.352   1.883  67.738  1.00  0.00    -0.054 A  
HETATM   50  C   UNL     1      -8.724   1.661  67.824  1.00  0.00    -0.121 A  
ENDBRANCH  44  45
ENDBRANCH  17  44
ENDBRANCH  15  17
ENDBRANCH   3  13
TORSDOF 14
ENDMDL
MODEL      220
REMARK 921   NORMALIZED FREE ENERGY PREDICTED BY IDOCK:   -3.74 KCAL/MOL
REMARK 922        TOTAL FREE ENERGY PREDICTED BY IDOCK:  -11.35 KCAL/MOL
REMARK 923 INTER-LIGAND FREE ENERGY PREDICTED BY IDOCK:  -10.50 KCAL/MOL
REMARK 924 INTRA-LIGAND FREE ENERGY PREDICTED BY IDOCK:   -0.85 KCAL/MOL
REMARK 927      BINDING AFFINITY PREDICTED BY RF-SCORE:    0.00 PKD
ROOT
HETATM    1  C   UNL     1     -10.733   8.139  72.681  1.00  0.00    -0.421 C  
HETATM    2  C   UNL     1     -10.516   9.076  71.483  1.00  0.00    -0.410 C  
HETATM    3  C   UNL     1      -9.799   8.335  70.313  1.00  0.00    -0.184 C  
HETATM    4  C   UNL     1     -11.865   9.687  71.095  1.00  0.00    -0.448 C  
ENDROOT
BRANCH   3   5
HETATM    5  N   UNL     1      -8.457   7.852  70.717  1.00  0.00    -0.121 N  
HETATM    6  H   UNL     1      -6.600   5.193  70.692  1.00  0.00     0.000 HD 
HETATM    7  O   UNL     1      -8.594   5.914  69.481  1.00  0.00    -0.115 OA 
HETATM    8  C   UNL     1      -7.533   8.735  71.417  1.00  0.00    -0.101 C  
HETATM    9  C   UNL     1      -8.024   6.606  70.320  1.00  0.00    -0.115 C  
HETATM   10  C   UNL     1      -6.912   7.982  72.578  1.00  0.00    -0.093 C  
HETATM   11  N   UNL     1      -6.922   6.121  70.966  1.00  0.00    -0.066 N  
HETATM   12  C   UNL     1      -6.166   6.796  72.001  1.00  0.00    -0.038 C  
ENDBRANCH   3   5
BRANCH   3  13
HETATM   13  C   UNL     1      -9.762   9.198  69.014  1.00  0.00    -0.166 C  
HETATM   14  O   UNL     1     -10.746   9.764  68.549  1.00  0.00    -0.217 OA 
HETATM   15  N   UNL     1      -8.543   9.209  68.366  1.00  0.00    -0.128 N  
HETATM   16  H   UNL     1      -7.776   8.729  68.834  1.00  0.00     0.000 HD 
BRANCH  15  17
HETATM   17  C   UNL     1      -8.233   9.834  67.083  1.00  0.00    -0.121 C  
BRANCH  17  18
HETATM   18  C   UNL     1      -8.401  11.370  67.078  1.00  0.00    -0.161 C  
BRANCH  18  19
HETATM   19  C   UNL     1      -7.219  12.355  67.268  1.00  0.00    -0.125 C  
HETATM   20  O   UNL     1      -6.289  11.803  68.204  1.00  0.00    -0.049 OA 
HETATM   21  H   UNL     1      -5.564  12.406  68.320  1.00  0.00     0.000 HD 
BRANCH  19  22
HETATM   22  C   UNL     1      -7.722  13.735  67.847  1.00  0.00    -0.161 C  
BRANCH  22  23
HETATM   23  N   UNL     1      -7.200  14.935  67.097  1.00  0.00    -0.229 N  
HETATM   24  C   UNL     1      -6.653  16.166  67.388  1.00  0.00    -0.185 C  
HETATM   25  H   UNL     1      -7.273  14.796  66.090  1.00  0.00     0.000 HD 
HETATM   26  O   UNL     1      -6.100  16.787  66.476  1.00  0.00    -0.292 OA 
BRANCH  24  27
HETATM   27  C   UNL     1      -6.836  16.794  68.780  1.00  0.00    -0.188 C  
BRANCH  27  28
HETATM   28  O   UNL     1      -7.644  17.936  69.015  1.00  0.00    -0.243 OA 
BRANCH  28  29
HETATM   29  C   UNL     1      -8.477  18.378  67.997  1.00  0.00    -0.276 A  
HETATM   30  C   UNL     1     -10.601  16.821  68.307  1.00  0.00    -0.352 C  
HETATM   31  C   UNL     1      -9.792  17.937  67.694  1.00  0.00    -0.304 A  
HETATM   32  C   UNL     1     -10.522  18.613  66.686  1.00  0.00    -0.459 A  
HETATM   33  C   UNL     1      -9.994  19.676  65.970  1.00  0.00    -0.508 A  
HETATM   34  C   UNL     1      -8.698  20.085  66.233  1.00  0.00    -0.346 A  
HETATM   35  C   UNL     1      -7.928  19.446  67.225  1.00  0.00    -0.292 A  
HETATM   36  C   UNL     1      -6.516  19.948  67.411  1.00  0.00    -0.227 C  
ENDBRANCH  28  29
ENDBRANCH  27  28
ENDBRANCH  24  27
ENDBRANCH  22  23
BRANCH  22  37
HETATM   37  C   UNL     1      -9.228  13.720  68.225  1.00  0.00    -0.204 C  
BRANCH  37  38
HETATM   38  C   UNL     1     -10.159  13.878  67.055  1.00  0.00    -0.256 A  
HETATM   39  C   UNL     1     -11.981  14.387  64.989  1.00  0.00    -0.413 A  
HETATM   40  C   UNL     1     -11.435  13.308  67.081  1.00  0.00    -0.380 A  
HETATM   41  C   UNL     1     -10.691  14.897  64.922  1.00  0.00    -0.426 A  
HETATM   42  C   UNL     1      -9.774  14.601  65.927  1.00  0.00    -0.341 A  
HETATM   43  C   UNL     1     -12.340  13.561  66.053  1.00  0.00    -0.486 A  
ENDBRANCH  37  38
ENDBRANCH  22  37
ENDBRANCH  19  22
ENDBRANCH  18  19
ENDBRANCH  17  18
BRANCH  17  44
HETATM   44  C   UNL     1      -8.745   9.044  65.859  1.00  0.00    -0.193 C  
BRANCH  44  45
HETATM   45  C   UNL     1      -8.672   7.539  66.032  1.00  0.00    -0.178 A  
HETATM   46  C   UNL     1      -7.448   6.854  65.964  1.00  0.00    -0.080 A  
HETATM   47  C   UNL     1      -9.841   6.798  66.240  1.00  0.00    -0.011 A  
HETATM   48  C   UNL     1      -7.405   5.458  66.060  1.00  0.00    -0.078 A  
HETATM   49  C   UNL     1      -9.797   5.405  66.339  1.00  0.00    -0.196 A  
HETATM   50  C   UNL     1      -8.581   4.733  66.240  1.00  0.00    -0.114 A  
ENDBRANCH  44  45
ENDBRANCH  17  44
ENDBRANCH  15  17
ENDBRANCH   3  13
TORSDOF 14
ENDMDL
MODEL      221
REMARK 921   NORMALIZED FREE ENERGY PREDICTED BY IDOCK:   -3.72 KCAL/MOL
REMARK 922        TOTAL FREE ENERGY PREDICTED BY IDOCK:  -11.31 KCAL/MOL
REMARK 923 INTER-LIGAND FREE ENERGY PREDICTED BY IDOCK:   -7.39 KCAL/MOL
REMARK 924 INTRA-LIGAND FREE ENERGY PREDICTED BY IDOCK:   -3.92 KCAL/MOL
REMARK 927      BINDING AFFINITY PREDICTED BY RF-SCORE:    0.00 PKD
ROOT
HETATM    1  C   UNL     1     -12.501  16.187  69.092  1.00  0.00     0.671 C  
HETATM    2  C   UNL     1     -11.087  15.879  68.575  1.00  0.00    -0.340 C  
HETATM    3  C   UNL     1     -11.038  14.489  67.869  1.00  0.00    -0.279 C  
HETATM    4  C   UNL     1     -10.632  17.040  67.688  1.00  0.00    -0.333 C  
ENDROOT
BRANCH   3   5
HETATM    5  N   UNL     1     -11.391  13.393  68.802  1.00  0.00    -0.272 N  
HETATM    6  H   UNL     1     -12.617  10.390  68.848  1.00  0.00     0.000 HD 
HETATM    7  O   UNL     1     -11.614  11.817  67.139  1.00  0.00    -0.478 OA 
HETATM    8  C   UNL     1     -11.236  13.567  70.241  1.00  0.00     0.372 C  
HETATM    9  C   UNL     1     -11.747  12.155  68.311  1.00  0.00    -0.342 C  
HETATM   10  C   UNL     1     -12.475  13.042  70.940  1.00  0.00    -0.396 C  
HETATM   11  N   UNL     1     -12.335  11.304  69.203  1.00  0.00    -0.185 N  
HETATM   12  C   UNL     1     -12.597  11.570  70.602  1.00  0.00    -0.248 C  
ENDBRANCH   3   5
BRANCH   3  13
HETATM   13  C   UNL     1      -9.674  14.250  67.150  1.00  0.00    -0.254 C  
HETATM   14  O   UNL     1      -9.566  14.096  65.939  1.00  0.00    -0.264 OA 
HETATM   15  N   UNL     1      -8.590  14.136  67.997  1.00  0.00    -0.162 N  
HETATM   16  H   UNL     1      -8.769  14.298  68.988  1.00  0.00     0.000 HD 
BRANCH  15  17
HETATM   17  C   UNL     1      -7.214  13.808  67.630  1.00  0.00    -0.173 C  
BRANCH  17  18
HETATM   18  C   UNL     1      -6.969  12.299  67.412  1.00  0.00    -0.151 C  
BRANCH  18  19
HETATM   19  C   UNL     1      -7.128  11.241  68.535  1.00  0.00    -0.083 C  
HETATM   20  O   UNL     1      -5.851  10.670  68.830  1.00  0.00    -0.041 OA 
HETATM   21  H   UNL     1      -5.948  10.021  69.518  1.00  0.00     0.000 HD 
BRANCH  19  22
HETATM   22  C   UNL     1      -8.083  10.071  68.076  1.00  0.00    -0.112 C  
BRANCH  22  23
HETATM   23  N   UNL     1      -9.141   9.716  69.091  1.00  0.00    -0.146 N  
HETATM   24  C   UNL     1      -9.201   9.319  70.410  1.00  0.00    -0.247 C  
HETATM   25  H   UNL     1     -10.074   9.792  68.689  1.00  0.00     0.000 HD 
HETATM   26  O   UNL     1     -10.293   9.372  70.984  1.00  0.00    -0.286 OA 
BRANCH  24  27
HETATM   27  C   UNL     1      -7.968   8.716  71.103  1.00  0.00    -0.138 C  
BRANCH  27  28
HETATM   28  O   UNL     1      -7.467   7.423  70.805  1.00  0.00    -0.075 OA 
BRANCH  28  29
HETATM   29  C   UNL     1      -8.300   6.523  70.157  1.00  0.00    -0.134 A  
HETATM   30  C   UNL     1     -10.107   6.000  72.026  1.00  0.00    -0.215 C  
HETATM   31  C   UNL     1      -9.485   5.919  70.654  1.00  0.00    -0.199 A  
HETATM   32  C   UNL     1     -10.262   5.122  69.779  1.00  0.00    -0.357 A  
HETATM   33  C   UNL     1      -9.899   4.891  68.461  1.00  0.00    -0.208 A  
HETATM   34  C   UNL     1      -8.724   5.443  67.982  1.00  0.00    -0.106 A  
HETATM   35  C   UNL     1      -7.913   6.244  68.811  1.00  0.00    -0.102 A  
HETATM   36  C   UNL     1      -6.637   6.772  68.202  1.00  0.00    -0.058 C  
ENDBRANCH  28  29
ENDBRANCH  27  28
ENDBRANCH  24  27
ENDBRANCH  22  23
BRANCH  22  37
HETATM   37  C   UNL     1      -8.523  10.195  66.592  1.00  0.00    -0.127 C  
BRANCH  37  38
HETATM   38  C   UNL     1      -7.913   9.168  65.678  1.00  0.00    -0.107 A  
HETATM   39  C   UNL     1      -6.678   7.145  64.186  1.00  0.00    -0.047 A  
HETATM   40  C   UNL     1      -6.639   9.365  65.140  1.00  0.00    -0.079 A  
HETATM   41  C   UNL     1      -7.973   6.972  64.658  1.00  0.00    -0.114 A  
HETATM   42  C   UNL     1      -8.601   7.999  65.356  1.00  0.00    -0.138 A  
HETATM   43  C   UNL     1      -6.026   8.358  64.397  1.00  0.00    -0.065 A  
ENDBRANCH  37  38
ENDBRANCH  22  37
ENDBRANCH  19  22
ENDBRANCH  18  19
ENDBRANCH  17  18
BRANCH  17  44
HETATM   44  C   UNL     1      -6.148  14.613  68.406  1.00  0.00    -0.101 C  
BRANCH  44  45
HETATM   45  C   UNL     1      -6.269  16.114  68.226  1.00  0.00    -0.121 A  
HETATM   46  C   UNL     1      -6.014  17.000  69.285  1.00  0.00    -0.204 A  
HETATM   47  C   UNL     1      -6.667  16.645  66.993  1.00  0.00    -0.242 A  
HETATM   48  C   UNL     1      -6.194  18.378  69.122  1.00  0.00    -0.245 A  
HETATM   49  C   UNL     1      -6.842  18.022  66.830  1.00  0.00    -0.228 A  
HETATM   50  C   UNL     1      -6.615  18.888  67.896  1.00  0.00    -0.227 A  
ENDBRANCH  44  45
ENDBRANCH  17  44
ENDBRANCH  15  17
ENDBRANCH   3  13
TORSDOF 14
ENDMDL
MODEL      222
REMARK 921   NORMALIZED FREE ENERGY PREDICTED BY IDOCK:   -3.69 KCAL/MOL
REMARK 922        TOTAL FREE ENERGY PREDICTED BY IDOCK:  -11.27 KCAL/MOL
REMARK 923 INTER-LIGAND FREE ENERGY PREDICTED BY IDOCK:   -8.40 KCAL/MOL
REMARK 924 INTRA-LIGAND FREE ENERGY PREDICTED BY IDOCK:   -2.87 KCAL/MOL
REMARK 927      BINDING AFFINITY PREDICTED BY RF-SCORE:    0.00 PKD
ROOT
HETATM    1  C   UNL     1      -9.261   2.404  69.077  1.00  0.00    -0.205 C  
HETATM    2  C   UNL     1      -9.685   3.878  68.997  1.00  0.00    -0.129 C  
HETATM    3  C   UNL     1      -8.863   4.754  69.992  1.00  0.00    -0.086 C  
HETATM    4  C   UNL     1      -9.583   4.335  67.540  1.00  0.00    -0.217 C  
ENDROOT
BRANCH   3   5
HETATM    5  N   UNL     1      -9.078   4.330  71.396  1.00  0.00    -0.122 N  
HETATM    6  H   UNL     1      -7.476   3.816  74.169  1.00  0.00     0.000 HD 
HETATM    7  O   UNL     1      -7.006   5.038  72.108  1.00  0.00    -0.061 OA 
HETATM    8  C   UNL     1     -10.403   3.929  71.853  1.00  0.00     0.005 C  
HETATM    9  C   UNL     1      -8.054   4.434  72.313  1.00  0.00    -0.096 C  
HETATM   10  C   UNL     1     -10.280   2.661  72.676  1.00  0.00    -0.235 C  
HETATM   11  N   UNL     1      -8.233   3.760  73.488  1.00  0.00    -0.087 N  
HETATM   12  C   UNL     1      -9.390   2.973  73.861  1.00  0.00    -0.084 C  
ENDBRANCH   3   5
BRANCH   3  13
HETATM   13  C   UNL     1      -9.122   6.277  69.777  1.00  0.00    -0.143 C  
HETATM   14  O   UNL     1      -8.236   7.086  69.524  1.00  0.00    -0.128 OA 
HETATM   15  N   UNL     1     -10.429   6.671  69.981  1.00  0.00    -0.202 N  
HETATM   16  H   UNL     1     -11.104   5.930  70.168  1.00  0.00     0.000 HD 
BRANCH  15  17
HETATM   17  C   UNL     1     -10.953   8.035  69.959  1.00  0.00    -0.202 C  
BRANCH  17  18
HETATM   18  C   UNL     1     -10.253   8.956  68.935  1.00  0.00    -0.220 C  
BRANCH  18  19
HETATM   19  C   UNL     1     -10.681  10.425  68.681  1.00  0.00    -0.218 C  
HETATM   20  O   UNL     1     -11.927  10.439  67.978  1.00  0.00    -0.706 OA 
HETATM   21  H   UNL     1     -12.189  11.339  67.822  1.00  0.00     0.000 HD 
BRANCH  19  22
HETATM   22  C   UNL     1      -9.617  11.177  67.790  1.00  0.00    -0.172 C  
BRANCH  22  23
HETATM   23  N   UNL     1      -9.561  10.684  66.366  1.00  0.00    -0.184 N  
HETATM   24  C   UNL     1      -8.994   9.642  65.665  1.00  0.00    -0.169 C  
HETATM   25  H   UNL     1     -10.093  11.295  65.747  1.00  0.00     0.000 HD 
HETATM   26  O   UNL     1      -9.395   9.426  64.517  1.00  0.00    -0.189 OA 
BRANCH  24  27
HETATM   27  C   UNL     1      -7.815   8.851  66.256  1.00  0.00    -0.102 C  
BRANCH  27  28
HETATM   28  O   UNL     1      -6.833   8.211  65.457  1.00  0.00    -0.061 OA 
BRANCH  28  29
HETATM   29  C   UNL     1      -6.604   6.855  65.647  1.00  0.00    -0.051 A  
HETATM   30  C   UNL     1      -5.353   6.830  67.985  1.00  0.00    -0.012 C  
HETATM   31  C   UNL     1      -5.998   6.223  66.764  1.00  0.00    -0.025 A  
HETATM   32  C   UNL     1      -5.975   4.808  66.816  1.00  0.00    -0.027 A  
HETATM   33  C   UNL     1      -6.504   4.017  65.808  1.00  0.00    -0.033 A  
HETATM   34  C   UNL     1      -7.060   4.627  64.697  1.00  0.00    -0.061 A  
HETATM   35  C   UNL     1      -7.108   6.032  64.594  1.00  0.00    -0.057 A  
HETATM   36  C   UNL     1      -7.707   6.597  63.330  1.00  0.00    -0.106 C  
ENDBRANCH  28  29
ENDBRANCH  27  28
ENDBRANCH  24  27
ENDBRANCH  22  23
BRANCH  22  37
HETATM   37  C   UNL     1      -9.611  12.712  68.022  1.00  0.00    -0.213 C  
BRANCH  37  38
HETATM   38  C   UNL     1     -10.224  13.509  66.903  1.00  0.00    -0.256 A  
HETATM   39  C   UNL     1     -11.349  15.197  64.972  1.00  0.00    -0.381 A  
HETATM   40  C   UNL     1     -11.611  13.644  66.805  1.00  0.00    -0.393 A  
HETATM   41  C   UNL     1      -9.973  15.011  65.018  1.00  0.00    -0.188 A  
HETATM   42  C   UNL     1      -9.422  14.132  65.947  1.00  0.00    -0.131 A  
HETATM   43  C   UNL     1     -12.170  14.484  65.844  1.00  0.00    -0.270 A  
ENDBRANCH  37  38
ENDBRANCH  22  37
ENDBRANCH  19  22
ENDBRANCH  18  19
ENDBRANCH  17  18
BRANCH  17  44
HETATM   44  C   UNL     1     -11.268   8.611  71.357  1.00  0.00    -0.345 C  
BRANCH  44  45
HETATM   45  C   UNL     1     -10.381   8.057  72.456  1.00  0.00    -0.374 A  
HETATM   46  C   UNL     1     -10.864   7.116  73.381  1.00  0.00    -0.360 A  
HETATM   47  C   UNL     1      -9.060   8.501  72.584  1.00  0.00    -0.256 A  
HETATM   48  C   UNL     1     -10.054   6.666  74.429  1.00  0.00    -0.343 A  
HETATM   49  C   UNL     1      -8.251   8.046  73.629  1.00  0.00    -0.284 A  
HETATM   50  C   UNL     1      -8.750   7.137  74.557  1.00  0.00    -0.228 A  
ENDBRANCH  44  45
ENDBRANCH  17  44
ENDBRANCH  15  17
ENDBRANCH   3  13
TORSDOF 14
ENDMDL
MODEL      223
REMARK 921   NORMALIZED FREE ENERGY PREDICTED BY IDOCK:   -3.68 KCAL/MOL
REMARK 922        TOTAL FREE ENERGY PREDICTED BY IDOCK:  -11.24 KCAL/MOL
REMARK 923 INTER-LIGAND FREE ENERGY PREDICTED BY IDOCK:   -8.76 KCAL/MOL
REMARK 924 INTRA-LIGAND FREE ENERGY PREDICTED BY IDOCK:   -2.48 KCAL/MOL
REMARK 927      BINDING AFFINITY PREDICTED BY RF-SCORE:    0.00 PKD
ROOT
HETATM    1  C   UNL     1     -13.258  12.420  72.205  1.00  0.00    -0.491 C  
HETATM    2  C   UNL     1     -12.360  12.533  70.963  1.00  0.00    -0.307 C  
HETATM    3  C   UNL     1     -12.565  11.317  70.008  1.00  0.00    -0.104 C  
HETATM    4  C   UNL     1     -12.614  13.890  70.303  1.00  0.00    -0.328 C  
ENDROOT
BRANCH   3   5
HETATM    5  N   UNL     1     -12.209  10.040  70.670  1.00  0.00    -0.281 N  
HETATM    6  H   UNL     1     -13.511   7.627  72.403  1.00  0.00     0.000 HD 
HETATM    7  O   UNL     1     -14.397   9.376  70.947  1.00  0.00     0.061 OA 
HETATM    8  C   UNL     1     -10.830   9.570  70.677  1.00  0.00    -0.306 C  
HETATM    9  C   UNL     1     -13.200   9.223  71.171  1.00  0.00    -0.183 C  
HETATM   10  C   UNL     1     -10.479   9.085  72.071  1.00  0.00    -0.309 C  
HETATM   11  N   UNL     1     -12.787   8.229  72.013  1.00  0.00    -0.338 N  
HETATM   12  C   UNL     1     -11.422   7.947  72.405  1.00  0.00    -0.376 C  
ENDBRANCH   3   5
BRANCH   3  13
HETATM   13  C   UNL     1     -11.829  11.516  68.648  1.00  0.00    -0.318 C  
HETATM   14  O   UNL     1     -12.031  10.818  67.660  1.00  0.00    -0.411 OA 
HETATM   15  N   UNL     1     -10.855  12.494  68.660  1.00  0.00    -0.242 N  
HETATM   16  H   UNL     1     -10.769  13.039  69.517  1.00  0.00     0.000 HD 
BRANCH  15  17
HETATM   17  C   UNL     1      -9.933  12.834  67.578  1.00  0.00    -0.210 C  
BRANCH  17  18
HETATM   18  C   UNL     1      -9.708  11.689  66.566  1.00  0.00    -0.227 C  
BRANCH  18  19
HETATM   19  C   UNL     1      -8.329  11.021  66.332  1.00  0.00    -0.165 C  
HETATM   20  O   UNL     1      -8.068  10.954  64.927  1.00  0.00    -0.363 OA 
HETATM   21  H   UNL     1      -7.223  10.545  64.783  1.00  0.00     0.000 HD 
BRANCH  19  22
HETATM   22  C   UNL     1      -8.313   9.545  66.894  1.00  0.00    -0.116 C  
BRANCH  22  23
HETATM   23  N   UNL     1      -8.170   9.468  68.393  1.00  0.00    -0.112 N  
HETATM   24  C   UNL     1      -7.320   8.891  69.311  1.00  0.00    -0.070 C  
HETATM   25  H   UNL     1      -8.912   9.990  68.859  1.00  0.00     0.000 HD 
HETATM   26  O   UNL     1      -7.382   9.274  70.483  1.00  0.00    -0.087 OA 
BRANCH  24  27
HETATM   27  C   UNL     1      -6.407   7.722  68.906  1.00  0.00    -0.036 C  
BRANCH  27  28
HETATM   28  O   UNL     1      -6.278   6.537  69.676  1.00  0.00    -0.034 OA 
BRANCH  28  29
HETATM   29  C   UNL     1      -6.463   5.314  69.046  1.00  0.00    -0.042 A  
HETATM   30  C   UNL     1      -5.301   5.724  66.697  1.00  0.00    -0.009 C  
HETATM   31  C   UNL     1      -6.007   4.919  67.760  1.00  0.00    -0.023 A  
HETATM   32  C   UNL     1      -6.193   3.575  67.355  1.00  0.00    -0.036 A  
HETATM   33  C   UNL     1      -6.822   2.636  68.158  1.00  0.00    -0.047 A  
HETATM   34  C   UNL     1      -7.304   3.024  69.395  1.00  0.00    -0.044 A  
HETATM   35  C   UNL     1      -7.146   4.350  69.847  1.00  0.00    -0.046 A  
HETATM   36  C   UNL     1      -7.736   4.679  71.197  1.00  0.00    -0.081 C  
ENDBRANCH  28  29
ENDBRANCH  27  28
ENDBRANCH  24  27
ENDBRANCH  22  23
BRANCH  22  37
HETATM   37  C   UNL     1      -9.376   8.632  66.224  1.00  0.00    -0.282 C  
BRANCH  37  38
HETATM   38  C   UNL     1      -9.624   7.338  66.948  1.00  0.00    -0.225 A  
HETATM   39  C   UNL     1     -10.304   4.909  68.164  1.00  0.00    -0.035 A  
HETATM   40  C   UNL     1     -10.320   7.325  68.159  1.00  0.00    -0.234 A  
HETATM   41  C   UNL     1      -9.549   4.917  66.998  1.00  0.00    -0.173 A  
HETATM   42  C   UNL     1      -9.172   6.128  66.424  1.00  0.00    -0.166 A  
HETATM   43  C   UNL     1     -10.658   6.116  68.763  1.00  0.00    -0.330 A  
ENDBRANCH  37  38
ENDBRANCH  22  37
ENDBRANCH  19  22
ENDBRANCH  18  19
ENDBRANCH  17  18
BRANCH  17  44
HETATM   44  C   UNL     1      -8.705  13.653  68.033  1.00  0.00    -0.176 C  
BRANCH  44  45
HETATM   45  C   UNL     1      -8.770  15.116  67.639  1.00  0.00    -0.177 A  
HETATM   46  C   UNL     1      -7.918  15.647  66.656  1.00  0.00    -0.185 A  
HETATM   47  C   UNL     1      -9.672  15.977  68.275  1.00  0.00    -0.214 A  
HETATM   48  C   UNL     1      -7.944  17.012  66.351  1.00  0.00    -0.342 A  
HETATM   49  C   UNL     1      -9.700  17.340  67.966  1.00  0.00    -0.277 A  
HETATM   50  C   UNL     1      -8.830  17.860  67.012  1.00  0.00    -0.256 A  
ENDBRANCH  44  45
ENDBRANCH  17  44
ENDBRANCH  15  17
ENDBRANCH   3  13
TORSDOF 14
ENDMDL
MODEL      224
REMARK 921   NORMALIZED FREE ENERGY PREDICTED BY IDOCK:   -3.68 KCAL/MOL
REMARK 922        TOTAL FREE ENERGY PREDICTED BY IDOCK:  -11.24 KCAL/MOL
REMARK 923 INTER-LIGAND FREE ENERGY PREDICTED BY IDOCK:   -8.67 KCAL/MOL
REMARK 924 INTRA-LIGAND FREE ENERGY PREDICTED BY IDOCK:   -2.57 KCAL/MOL
REMARK 927      BINDING AFFINITY PREDICTED BY RF-SCORE:    0.00 PKD
ROOT
HETATM    1  C   UNL     1     -11.399  15.523  64.971  1.00  0.00    -0.301 C  
HETATM    2  C   UNL     1     -11.166  14.813  66.313  1.00  0.00    -0.343 C  
HETATM    3  C   UNL     1     -11.088  15.839  67.485  1.00  0.00    -0.258 C  
HETATM    4  C   UNL     1     -12.251  13.749  66.493  1.00  0.00    -0.475 C  
ENDROOT
BRANCH   3   5
HETATM    5  N   UNL     1      -9.959  16.782  67.308  1.00  0.00    -0.265 N  
HETATM    6  H   UNL     1      -9.312  19.950  67.041  1.00  0.00     0.000 HD 
HETATM    7  O   UNL     1     -11.198  18.640  67.872  1.00  0.00    -0.057 OA 
HETATM    8  C   UNL     1      -8.600  16.285  67.137  1.00  0.00    -0.183 C  
HETATM    9  C   UNL     1     -10.167  18.140  67.431  1.00  0.00    -0.372 C  
HETATM   10  C   UNL     1      -7.934  17.042  66.004  1.00  0.00    -0.176 C  
HETATM   11  N   UNL     1      -9.164  18.943  66.969  1.00  0.00    -0.296 N  
HETATM   12  C   UNL     1      -7.911  18.507  66.388  1.00  0.00    -0.267 C  
ENDBRANCH   3   5
BRANCH   3  13
HETATM   13  C   UNL     1     -11.070  15.133  68.876  1.00  0.00    -0.270 C  
HETATM   14  O   UNL     1     -10.519  15.602  69.866  1.00  0.00    -0.284 OA 
HETATM   15  N   UNL     1     -11.650  13.881  68.892  1.00  0.00    -0.292 N  
HETATM   16  H   UNL     1     -12.102  13.578  68.029  1.00  0.00     0.000 HD 
BRANCH  15  17
HETATM   17  C   UNL     1     -11.690  12.941  70.010  1.00  0.00    -0.212 C  
BRANCH  17  18
HETATM   18  C   UNL     1     -11.071  11.562  69.688  1.00  0.00    -0.211 C  
BRANCH  18  19
HETATM   19  C   UNL     1     -10.747  11.091  68.247  1.00  0.00    -0.196 C  
HETATM   20  O   UNL     1     -11.930  10.554  67.649  1.00  0.00    -0.502 OA 
HETATM   21  H   UNL     1     -11.732  10.265  66.766  1.00  0.00     0.000 HD 
BRANCH  19  22
HETATM   22  C   UNL     1      -9.655   9.951  68.258  1.00  0.00    -0.140 C  
BRANCH  22  23
HETATM   23  N   UNL     1     -10.206   8.579  67.959  1.00  0.00    -0.204 N  
HETATM   24  C   UNL     1     -10.929   7.602  68.609  1.00  0.00     0.135 C  
HETATM   25  H   UNL     1      -9.980   8.294  67.007  1.00  0.00     0.000 HD 
HETATM   26  O   UNL     1     -11.422   6.695  67.932  1.00  0.00    -0.115 OA 
BRANCH  24  27
HETATM   27  C   UNL     1     -11.014   7.583  70.145  1.00  0.00    -0.254 C  
BRANCH  27  28
HETATM   28  O   UNL     1     -10.450   6.552  70.939  1.00  0.00    -0.214 OA 
BRANCH  28  29
HETATM   29  C   UNL     1      -9.135   6.176  70.699  1.00  0.00    -0.150 A  
HETATM   30  C   UNL     1      -7.795   8.325  71.483  1.00  0.00    -0.138 C  
HETATM   31  C   UNL     1      -7.954   6.916  70.969  1.00  0.00    -0.102 A  
HETATM   32  C   UNL     1      -6.699   6.294  70.765  1.00  0.00    -0.061 A  
HETATM   33  C   UNL     1      -6.579   4.996  70.293  1.00  0.00    -0.035 A  
HETATM   34  C   UNL     1      -7.726   4.283  69.989  1.00  0.00    -0.052 A  
HETATM   35  C   UNL     1      -9.000   4.855  70.173  1.00  0.00    -0.146 A  
HETATM   36  C   UNL     1     -10.185   4.006  69.782  1.00  0.00     0.440 C  
ENDBRANCH  28  29
ENDBRANCH  27  28
ENDBRANCH  24  27
ENDBRANCH  22  23
BRANCH  22  37
HETATM   37  C   UNL     1      -8.338  10.368  67.549  1.00  0.00    -0.114 C  
BRANCH  37  38
HETATM   38  C   UNL     1      -7.173  10.571  68.479  1.00  0.00    -0.085 A  
HETATM   39  C   UNL     1      -5.141  10.824  70.389  1.00  0.00    -0.061 A  
HETATM   40  C   UNL     1      -7.099  11.709  69.286  1.00  0.00    -0.055 A  
HETATM   41  C   UNL     1      -5.167   9.724  69.541  1.00  0.00    -0.035 A  
HETATM   42  C   UNL     1      -6.151   9.627  68.561  1.00  0.00    -0.043 A  
HETATM   43  C   UNL     1      -6.087  11.834  70.235  1.00  0.00    -0.116 A  
ENDBRANCH  37  38
ENDBRANCH  22  37
ENDBRANCH  19  22
ENDBRANCH  18  19
ENDBRANCH  17  18
BRANCH  17  44
HETATM   44  C   UNL     1     -13.008  12.975  70.814  1.00  0.00    -0.041 C  
BRANCH  44  45
HETATM   45  C   UNL     1     -13.061  14.084  71.847  1.00  0.00    -0.467 A  
HETATM   46  C   UNL     1     -12.189  14.100  72.948  1.00  0.00     0.119 A  
HETATM   47  C   UNL     1     -14.009  15.108  71.732  1.00  0.00    -0.627 A  
HETATM   48  C   UNL     1     -12.295  15.094  73.928  1.00  0.00    -0.722 A  
HETATM   49  C   UNL     1     -14.111  16.102  72.709  1.00  0.00    -0.031 A  
HETATM   50  C   UNL     1     -13.261  16.091  73.811  1.00  0.00    -0.390 A  
ENDBRANCH  44  45
ENDBRANCH  17  44
ENDBRANCH  15  17
ENDBRANCH   3  13
TORSDOF 14
ENDMDL
MODEL      225
REMARK 921   NORMALIZED FREE ENERGY PREDICTED BY IDOCK:   -3.66 KCAL/MOL
REMARK 922        TOTAL FREE ENERGY PREDICTED BY IDOCK:  -11.21 KCAL/MOL
REMARK 923 INTER-LIGAND FREE ENERGY PREDICTED BY IDOCK:   -8.54 KCAL/MOL
REMARK 924 INTRA-LIGAND FREE ENERGY PREDICTED BY IDOCK:   -2.67 KCAL/MOL
REMARK 927      BINDING AFFINITY PREDICTED BY RF-SCORE:    0.00 PKD
ROOT
HETATM    1  C   UNL     1      -9.485   2.787  68.273  1.00  0.00    -0.216 C  
HETATM    2  C   UNL     1      -8.305   3.769  68.214  1.00  0.00    -0.102 C  
HETATM    3  C   UNL     1      -8.486   4.797  67.055  1.00  0.00    -0.105 C  
HETATM    4  C   UNL     1      -8.140   4.413  69.592  1.00  0.00    -0.061 C  
ENDROOT
BRANCH   3   5
HETATM    5  N   UNL     1      -8.540   4.124  65.736  1.00  0.00    -0.113 N  
HETATM    6  H   UNL     1     -10.627   3.251  63.411  1.00  0.00     0.000 HD 
HETATM    7  O   UNL     1     -10.678   4.838  65.266  1.00  0.00    -0.121 OA 
HETATM    8  C   UNL     1      -7.333   3.563  65.142  1.00  0.00    -0.072 C  
HETATM    9  C   UNL     1      -9.705   4.138  65.000  1.00  0.00    -0.194 C  
HETATM   10  C   UNL     1      -7.646   2.183  64.595  1.00  0.00    -0.064 C  
HETATM   11  N   UNL     1      -9.763   3.262  63.954  1.00  0.00    -0.140 N  
HETATM   12  C   UNL     1      -8.720   2.347  63.540  1.00  0.00    -0.085 C  
ENDBRANCH   3   5
BRANCH   3  13
HETATM   13  C   UNL     1      -7.416   5.930  67.110  1.00  0.00    -0.084 C  
HETATM   14  O   UNL     1      -6.208   5.723  67.066  1.00  0.00    -0.031 OA 
HETATM   15  N   UNL     1      -7.929   7.196  67.305  1.00  0.00    -0.110 N  
HETATM   16  H   UNL     1      -8.946   7.279  67.311  1.00  0.00     0.000 HD 
BRANCH  15  17
HETATM   17  C   UNL     1      -7.176   8.433  67.504  1.00  0.00    -0.088 C  
BRANCH  17  18
HETATM   18  C   UNL     1      -7.277   9.422  66.323  1.00  0.00    -0.092 C  
BRANCH  18  19
HETATM   19  C   UNL     1      -8.447  10.425  66.151  1.00  0.00    -0.147 C  
HETATM   20  O   UNL     1      -8.377  11.014  64.849  1.00  0.00    -0.373 OA 
HETATM   21  H   UNL     1      -9.094  11.628  64.743  1.00  0.00     0.000 HD 
BRANCH  19  22
HETATM   22  C   UNL     1      -8.353  11.590  67.211  1.00  0.00    -0.154 C  
BRANCH  22  23
HETATM   23  N   UNL     1      -7.204  12.537  66.972  1.00  0.00    -0.370 N  
HETATM   24  C   UNL     1      -6.574  13.570  67.633  1.00  0.00    -0.168 C  
HETATM   25  H   UNL     1      -6.771  12.365  66.065  1.00  0.00     0.000 HD 
HETATM   26  O   UNL     1      -5.476  13.946  67.212  1.00  0.00    -0.310 OA 
BRANCH  24  27
HETATM   27  C   UNL     1      -7.277  14.307  68.785  1.00  0.00    -0.129 C  
BRANCH  27  28
HETATM   28  O   UNL     1      -7.373  15.720  68.856  1.00  0.00    -0.139 OA 
BRANCH  28  29
HETATM   29  C   UNL     1      -8.447  16.344  68.235  1.00  0.00    -0.195 A  
HETATM   30  C   UNL     1     -10.472  15.635  69.794  1.00  0.00    -0.312 C  
HETATM   31  C   UNL     1      -9.804  16.357  68.650  1.00  0.00    -0.234 A  
HETATM   32  C   UNL     1     -10.726  17.165  67.940  1.00  0.00    -0.355 A  
HETATM   33  C   UNL     1     -10.356  17.926  66.842  1.00  0.00    -0.358 A  
HETATM   34  C   UNL     1      -9.043  17.886  66.407  1.00  0.00    -0.253 A  
HETATM   35  C   UNL     1      -8.086  17.098  67.078  1.00  0.00    -0.228 A  
HETATM   36  C   UNL     1      -6.689  17.098  66.506  1.00  0.00    -0.290 C  
ENDBRANCH  28  29
ENDBRANCH  27  28
ENDBRANCH  24  27
ENDBRANCH  22  23
BRANCH  22  37
HETATM   37  C   UNL     1      -9.735  12.208  67.556  1.00  0.00    -0.185 C  
BRANCH  37  38
HETATM   38  C   UNL     1     -10.434  12.849  66.389  1.00  0.00    -0.278 A  
HETATM   39  C   UNL     1     -11.880  14.169  64.387  1.00  0.00    -0.447 A  
HETATM   40  C   UNL     1     -11.560  12.250  65.819  1.00  0.00    -0.443 A  
HETATM   41  C   UNL     1     -10.721  14.738  64.899  1.00  0.00    -0.438 A  
HETATM   42  C   UNL     1      -9.978  14.055  65.858  1.00  0.00    -0.325 A  
HETATM   43  C   UNL     1     -12.278  12.907  64.822  1.00  0.00    -0.499 A  
ENDBRANCH  37  38
ENDBRANCH  22  37
ENDBRANCH  19  22
ENDBRANCH  18  19
ENDBRANCH  17  18
BRANCH  17  44
HETATM   44  C   UNL     1      -5.795   8.228  68.165  1.00  0.00    -0.038 C  
BRANCH  44  45
HETATM   45  C   UNL     1      -5.793   8.479  69.661  1.00  0.00    -0.029 A  
HETATM   46  C   UNL     1      -6.104   7.458  70.574  1.00  0.00    -0.031 A  
HETATM   47  C   UNL     1      -5.504   9.755  70.159  1.00  0.00    -0.041 A  
HETATM   48  C   UNL     1      -6.163   7.722  71.947  1.00  0.00    -0.039 A  
HETATM   49  C   UNL     1      -5.559  10.016  71.531  1.00  0.00    -0.004 A  
HETATM   50  C   UNL     1      -5.898   9.003  72.424  1.00  0.00    -0.053 A  
ENDBRANCH  44  45
ENDBRANCH  17  44
ENDBRANCH  15  17
ENDBRANCH   3  13
TORSDOF 14
ENDMDL
MODEL      226
REMARK 921   NORMALIZED FREE ENERGY PREDICTED BY IDOCK:   -3.65 KCAL/MOL
REMARK 922        TOTAL FREE ENERGY PREDICTED BY IDOCK:  -11.19 KCAL/MOL
REMARK 923 INTER-LIGAND FREE ENERGY PREDICTED BY IDOCK:   -8.65 KCAL/MOL
REMARK 924 INTRA-LIGAND FREE ENERGY PREDICTED BY IDOCK:   -2.54 KCAL/MOL
REMARK 927      BINDING AFFINITY PREDICTED BY RF-SCORE:    0.00 PKD
ROOT
HETATM    1  C   UNL     1     -11.976  12.898  70.107  1.00  0.00    -0.373 C  
HETATM    2  C   UNL     1     -12.066  11.457  69.582  1.00  0.00    -0.373 C  
HETATM    3  C   UNL     1     -10.761  11.051  68.829  1.00  0.00    -0.203 C  
HETATM    4  C   UNL     1     -12.417  10.535  70.752  1.00  0.00    -0.472 C  
ENDROOT
BRANCH   3   5
HETATM    5  N   UNL     1     -10.525  11.914  67.648  1.00  0.00    -0.204 N  
HETATM    6  H   UNL     1      -8.407  14.062  66.453  1.00  0.00     0.000 HD 
HETATM    7  O   UNL     1      -8.329  12.345  68.189  1.00  0.00    -0.164 OA 
HETATM    8  C   UNL     1     -11.501  11.974  66.567  1.00  0.00    -0.349 C  
HETATM    9  C   UNL     1      -9.320  12.569  67.501  1.00  0.00    -0.187 C  
HETATM   10  C   UNL     1     -11.715  13.423  66.173  1.00  0.00    -0.405 C  
HETATM   11  N   UNL     1      -9.288  13.559  66.561  1.00  0.00    -0.245 N  
HETATM   12  C   UNL     1     -10.381  13.967  65.704  1.00  0.00    -0.325 C  
ENDBRANCH   3   5
BRANCH   3  13
HETATM   13  C   UNL     1     -10.743   9.532  68.477  1.00  0.00    -0.182 C  
HETATM   14  O   UNL     1     -10.790   9.102  67.330  1.00  0.00    -0.233 OA 
HETATM   15  N   UNL     1     -10.758   8.689  69.570  1.00  0.00    -0.314 N  
HETATM   16  H   UNL     1     -10.697   9.132  70.486  1.00  0.00     0.000 HD 
BRANCH  15  17
HETATM   17  C   UNL     1     -10.852   7.231  69.559  1.00  0.00    -0.209 C  
BRANCH  17  18
HETATM   18  C   UNL     1     -10.833   6.615  68.142  1.00  0.00    -0.334 C  
BRANCH  18  19
HETATM   19  C   UNL     1     -10.062   5.316  67.791  1.00  0.00    -0.157 C  
HETATM   20  O   UNL     1      -9.817   4.573  68.988  1.00  0.00    -0.173 OA 
HETATM   21  H   UNL     1      -9.345   3.777  68.773  1.00  0.00     0.000 HD 
BRANCH  19  22
HETATM   22  C   UNL     1      -8.664   5.648  67.137  1.00  0.00    -0.108 C  
BRANCH  22  23
HETATM   23  N   UNL     1      -7.585   4.650  67.472  1.00  0.00    -0.078 N  
HETATM   24  C   UNL     1      -6.682   4.421  68.488  1.00  0.00    -0.047 C  
HETATM   25  H   UNL     1      -7.499   3.945  66.741  1.00  0.00     0.000 HD 
HETATM   26  O   UNL     1      -6.118   3.323  68.529  1.00  0.00    -0.026 OA 
BRANCH  24  27
HETATM   27  C   UNL     1      -6.304   5.545  69.468  1.00  0.00    -0.033 C  
BRANCH  27  28
HETATM   28  O   UNL     1      -7.253   6.215  70.280  1.00  0.00    -0.078 OA 
BRANCH  28  29
HETATM   29  C   UNL     1      -7.134   6.115  71.659  1.00  0.00    -0.082 A  
HETATM   30  C   UNL     1      -6.867   3.499  72.000  1.00  0.00    -0.023 C  
HETATM   31  C   UNL     1      -6.922   4.943  72.432  1.00  0.00    -0.074 A  
HETATM   32  C   UNL     1      -6.700   5.076  73.824  1.00  0.00    -0.074 A  
HETATM   33  C   UNL     1      -6.704   6.306  74.465  1.00  0.00    -0.082 A  
HETATM   34  C   UNL     1      -6.951   7.448  73.724  1.00  0.00    -0.093 A  
HETATM   35  C   UNL     1      -7.178   7.372  72.335  1.00  0.00    -0.072 A  
HETATM   36  C   UNL     1      -7.470   8.672  71.626  1.00  0.00    -0.121 C  
ENDBRANCH  28  29
ENDBRANCH  27  28
ENDBRANCH  24  27
ENDBRANCH  22  23
BRANCH  22  37
HETATM   37  C   UNL     1      -8.782   6.113  65.660  1.00  0.00    -0.133 C  
BRANCH  37  38
HETATM   38  C   UNL     1      -8.926   4.992  64.669  1.00  0.00    -0.075 A  
HETATM   39  C   UNL     1      -9.141   2.742  63.015  1.00  0.00    -0.087 A  
HETATM   40  C   UNL     1      -7.822   4.544  63.938  1.00  0.00    -0.089 A  
HETATM   41  C   UNL     1     -10.259   3.225  63.683  1.00  0.00    -0.204 A  
HETATM   42  C   UNL     1     -10.158   4.372  64.465  1.00  0.00    -0.031 A  
HETATM   43  C   UNL     1      -7.931   3.425  63.116  1.00  0.00    -0.072 A  
ENDBRANCH  37  38
ENDBRANCH  22  37
ENDBRANCH  19  22
ENDBRANCH  18  19
ENDBRANCH  17  18
BRANCH  17  44
HETATM   44  C   UNL     1     -11.852   6.657  70.586  1.00  0.00    -0.443 C  
BRANCH  44  45
HETATM   45  C   UNL     1     -11.239   6.390  71.948  1.00  0.00    -0.325 A  
HETATM   46  C   UNL     1     -11.017   5.081  72.406  1.00  0.00    -0.198 A  
HETATM   47  C   UNL     1     -10.906   7.457  72.790  1.00  0.00    -0.374 A  
HETATM   48  C   UNL     1     -10.513   4.850  73.690  1.00  0.00    -0.291 A  
HETATM   49  C   UNL     1     -10.398   7.226  74.072  1.00  0.00    -0.142 A  
HETATM   50  C   UNL     1     -10.211   5.923  74.526  1.00  0.00    -0.293 A  
ENDBRANCH  44  45
ENDBRANCH  17  44
ENDBRANCH  15  17
ENDBRANCH   3  13
TORSDOF 14
ENDMDL
MODEL      227
REMARK 921   NORMALIZED FREE ENERGY PREDICTED BY IDOCK:   -3.65 KCAL/MOL
REMARK 922        TOTAL FREE ENERGY PREDICTED BY IDOCK:  -11.19 KCAL/MOL
REMARK 923 INTER-LIGAND FREE ENERGY PREDICTED BY IDOCK:   -8.55 KCAL/MOL
REMARK 924 INTRA-LIGAND FREE ENERGY PREDICTED BY IDOCK:   -2.64 KCAL/MOL
REMARK 927      BINDING AFFINITY PREDICTED BY RF-SCORE:    0.00 PKD
ROOT
HETATM    1  C   UNL     1     -11.023  16.725  64.850  1.00  0.00    -0.099 C  
HETATM    2  C   UNL     1     -10.298  15.468  65.353  1.00  0.00    -0.422 C  
HETATM    3  C   UNL     1     -10.294  15.408  66.912  1.00  0.00    -0.277 C  
HETATM    4  C   UNL     1     -10.931  14.244  64.688  1.00  0.00    -0.379 C  
ENDROOT
BRANCH   3   5
HETATM    5  N   UNL     1      -9.581  16.567  67.499  1.00  0.00    -0.230 N  
HETATM    6  H   UNL     1      -9.954  18.944  69.675  1.00  0.00     0.000 HD 
HETATM    7  O   UNL     1     -11.057  16.807  69.250  1.00  0.00    -0.260 OA 
HETATM    8  C   UNL     1      -8.255  16.939  67.022  1.00  0.00    -0.199 C  
HETATM    9  C   UNL     1     -10.112  17.225  68.588  1.00  0.00    -0.341 C  
HETATM   10  C   UNL     1      -8.202  18.442  66.827  1.00  0.00    -0.267 C  
HETATM   11  N   UNL     1      -9.561  18.440  68.880  1.00  0.00    -0.298 N  
HETATM   12  C   UNL     1      -8.473  19.084  68.173  1.00  0.00    -0.316 C  
ENDBRANCH   3   5
BRANCH   3  13
HETATM   13  C   UNL     1      -9.757  14.042  67.439  1.00  0.00    -0.233 C  
HETATM   14  O   UNL     1     -10.132  13.526  68.487  1.00  0.00    -0.234 OA 
HETATM   15  N   UNL     1      -8.751  13.486  66.675  1.00  0.00    -0.446 N  
HETATM   16  H   UNL     1      -8.517  13.972  65.810  1.00  0.00     0.000 HD 
BRANCH  15  17
HETATM   17  C   UNL     1      -7.984  12.278  66.970  1.00  0.00    -0.123 C  
BRANCH  17  18
HETATM   18  C   UNL     1      -8.700  11.302  67.930  1.00  0.00    -0.138 C  
BRANCH  18  19
HETATM   19  C   UNL     1      -9.761  10.274  67.460  1.00  0.00    -0.169 C  
HETATM   20  O   UNL     1     -11.063  10.861  67.556  1.00  0.00    -0.279 OA 
HETATM   21  H   UNL     1     -11.713  10.231  67.269  1.00  0.00     0.000 HD 
BRANCH  19  22
HETATM   22  C   UNL     1      -9.746   8.988  68.377  1.00  0.00    -0.156 C  
BRANCH  22  23
HETATM   23  N   UNL     1     -10.474   9.167  69.685  1.00  0.00    -0.217 N  
HETATM   24  C   UNL     1     -10.833   8.396  70.770  1.00  0.00    -0.224 C  
HETATM   25  H   UNL     1     -10.789  10.129  69.800  1.00  0.00     0.000 HD 
HETATM   26  O   UNL     1     -11.212   8.972  71.794  1.00  0.00    -0.336 OA 
BRANCH  24  27
HETATM   27  C   UNL     1     -10.873   6.862  70.662  1.00  0.00    -0.245 C  
BRANCH  27  28
HETATM   28  O   UNL     1     -10.355   6.001  71.663  1.00  0.00    -0.203 OA 
BRANCH  28  29
HETATM   29  C   UNL     1      -9.001   5.694  71.638  1.00  0.00    -0.136 A  
HETATM   30  C   UNL     1      -7.942   7.775  72.897  1.00  0.00    -0.162 C  
HETATM   31  C   UNL     1      -7.931   6.432  72.208  1.00  0.00    -0.103 A  
HETATM   32  C   UNL     1      -6.629   5.875  72.180  1.00  0.00    -0.062 A  
HETATM   33  C   UNL     1      -6.357   4.647  71.599  1.00  0.00    -0.022 A  
HETATM   34  C   UNL     1      -7.389   3.941  71.005  1.00  0.00    -0.037 A  
HETATM   35  C   UNL     1      -8.703   4.450  71.004  1.00  0.00    -0.136 A  
HETATM   36  C   UNL     1      -9.750   3.618  70.304  1.00  0.00    -0.193 C  
ENDBRANCH  28  29
ENDBRANCH  27  28
ENDBRANCH  24  27
ENDBRANCH  22  23
BRANCH  22  37
HETATM   37  C   UNL     1     -10.001   7.678  67.584  1.00  0.00    -0.225 C  
BRANCH  37  38
HETATM   38  C   UNL     1      -8.767   6.851  67.344  1.00  0.00    -0.119 A  
HETATM   39  C   UNL     1      -6.594   5.116  67.010  1.00  0.00    -0.053 A  
HETATM   40  C   UNL     1      -7.747   6.805  68.298  1.00  0.00    -0.106 A  
HETATM   41  C   UNL     1      -7.568   5.211  66.025  1.00  0.00    -0.087 A  
HETATM   42  C   UNL     1      -8.620   6.110  66.172  1.00  0.00    -0.141 A  
HETATM   43  C   UNL     1      -6.666   5.942  68.130  1.00  0.00    -0.058 A  
ENDBRANCH  37  38
ENDBRANCH  22  37
ENDBRANCH  19  22
ENDBRANCH  18  19
ENDBRANCH  17  18
BRANCH  17  44
HETATM   44  C   UNL     1      -6.475  12.527  67.181  1.00  0.00    -0.053 C  
BRANCH  44  45
HETATM   45  C   UNL     1      -6.167  13.430  68.362  1.00  0.00    -0.088 A  
HETATM   46  C   UNL     1      -5.799  14.773  68.179  1.00  0.00    -0.142 A  
HETATM   47  C   UNL     1      -6.220  12.924  69.666  1.00  0.00    -0.114 A  
HETATM   48  C   UNL     1      -5.453  15.573  69.273  1.00  0.00    -0.097 A  
HETATM   49  C   UNL     1      -5.878  13.726  70.759  1.00  0.00    -0.188 A  
HETATM   50  C   UNL     1      -5.486  15.047  70.563  1.00  0.00    -0.136 A  
ENDBRANCH  44  45
ENDBRANCH  17  44
ENDBRANCH  15  17
ENDBRANCH   3  13
TORSDOF 14
ENDMDL
MODEL      228
REMARK 921   NORMALIZED FREE ENERGY PREDICTED BY IDOCK:   -3.62 KCAL/MOL
REMARK 922        TOTAL FREE ENERGY PREDICTED BY IDOCK:  -11.14 KCAL/MOL
REMARK 923 INTER-LIGAND FREE ENERGY PREDICTED BY IDOCK:   -9.79 KCAL/MOL
REMARK 924 INTRA-LIGAND FREE ENERGY PREDICTED BY IDOCK:   -1.35 KCAL/MOL
REMARK 927      BINDING AFFINITY PREDICTED BY RF-SCORE:    0.00 PKD
ROOT
HETATM    1  C   UNL     1      -9.523   2.570  70.290  1.00  0.00    -0.164 C  
HETATM    2  C   UNL     1      -8.823   3.911  70.559  1.00  0.00    -0.136 C  
HETATM    3  C   UNL     1      -9.064   4.914  69.388  1.00  0.00    -0.105 C  
HETATM    4  C   UNL     1      -9.278   4.431  71.924  1.00  0.00    -0.174 C  
ENDROOT
BRANCH   3   5
HETATM    5  N   UNL     1      -8.515   4.401  68.111  1.00  0.00    -0.093 N  
HETATM    6  H   UNL     1      -9.364   3.803  65.038  1.00  0.00     0.000 HD 
HETATM    7  O   UNL     1     -10.284   5.160  66.848  1.00  0.00    -0.199 OA 
HETATM    8  C   UNL     1      -7.143   3.916  68.037  1.00  0.00    -0.055 C  
HETATM    9  C   UNL     1      -9.256   4.499  66.953  1.00  0.00    -0.133 C  
HETATM   10  C   UNL     1      -7.120   2.609  67.267  1.00  0.00    -0.053 C  
HETATM   11  N   UNL     1      -8.816   3.751  65.897  1.00  0.00    -0.117 N  
HETATM   12  C   UNL     1      -7.650   2.893  65.877  1.00  0.00    -0.073 C  
ENDBRANCH   3   5
BRANCH   3  13
HETATM   13  C   UNL     1      -8.548   6.344  69.734  1.00  0.00    -0.138 C  
HETATM   14  O   UNL     1      -7.497   6.560  70.329  1.00  0.00    -0.089 OA 
HETATM   15  N   UNL     1      -9.414   7.365  69.396  1.00  0.00    -0.155 N  
HETATM   16  H   UNL     1     -10.255   7.097  68.887  1.00  0.00     0.000 HD 
BRANCH  15  17
HETATM   17  C   UNL     1      -9.257   8.788  69.688  1.00  0.00    -0.150 C  
BRANCH  17  18
HETATM   18  C   UNL     1      -8.037   9.437  68.997  1.00  0.00    -0.106 C  
BRANCH  18  19
HETATM   19  C   UNL     1      -8.150  10.321  67.728  1.00  0.00    -0.103 C  
HETATM   20  O   UNL     1      -6.839  10.689  67.291  1.00  0.00    -0.075 OA 
HETATM   21  H   UNL     1      -6.908  11.231  66.513  1.00  0.00     0.000 HD 
BRANCH  19  22
HETATM   22  C   UNL     1      -8.945  11.651  68.036  1.00  0.00    -0.176 C  
BRANCH  22  23
HETATM   23  N   UNL     1      -8.232  12.901  67.586  1.00  0.00    -0.163 N  
HETATM   24  C   UNL     1      -7.999  14.174  68.062  1.00  0.00    -0.149 C  
HETATM   25  H   UNL     1      -7.801  12.768  66.672  1.00  0.00     0.000 HD 
HETATM   26  O   UNL     1      -7.131  14.853  67.506  1.00  0.00    -0.174 OA 
BRANCH  24  27
HETATM   27  C   UNL     1      -8.879  14.766  69.176  1.00  0.00    -0.084 C  
BRANCH  27  28
HETATM   28  O   UNL     1      -8.724  16.090  69.663  1.00  0.00    -0.135 OA 
BRANCH  28  29
HETATM   29  C   UNL     1      -9.351  17.124  68.982  1.00  0.00    -0.143 A  
HETATM   30  C   UNL     1      -7.392  18.897  68.752  1.00  0.00    -0.356 C  
HETATM   31  C   UNL     1      -8.779  18.344  68.534  1.00  0.00    -0.336 A  
HETATM   32  C   UNL     1      -9.566  19.214  67.741  1.00  0.00    -0.378 A  
HETATM   33  C   UNL     1     -10.880  18.930  67.403  1.00  0.00    -0.449 A  
HETATM   34  C   UNL     1     -11.456  17.762  67.870  1.00  0.00     0.784 A  
HETATM   35  C   UNL     1     -10.718  16.861  68.663  1.00  0.00    -0.345 A  
HETATM   36  C   UNL     1     -11.448  15.632  69.148  1.00  0.00    -0.365 C  
ENDBRANCH  28  29
ENDBRANCH  27  28
ENDBRANCH  24  27
ENDBRANCH  22  23
BRANCH  22  37
HETATM   37  C   UNL     1     -10.461  11.535  67.725  1.00  0.00    -0.216 C  
BRANCH  37  38
HETATM   38  C   UNL     1     -10.803  11.650  66.265  1.00  0.00    -0.333 A  
HETATM   39  C   UNL     1     -11.268  12.055  63.533  1.00  0.00    -0.526 A  
HETATM   40  C   UNL     1     -11.829  12.498  65.841  1.00  0.00    -0.489 A  
HETATM   41  C   UNL     1     -10.294  11.156  63.948  1.00  0.00    -0.441 A  
HETATM   42  C   UNL     1     -10.100  10.921  65.306  1.00  0.00    -0.340 A  
HETATM   43  C   UNL     1     -12.060  12.698  64.481  1.00  0.00    -0.485 A  
ENDBRANCH  37  38
ENDBRANCH  22  37
ENDBRANCH  19  22
ENDBRANCH  18  19
ENDBRANCH  17  18
BRANCH  17  44
HETATM   44  C   UNL     1      -9.542   9.163  71.159  1.00  0.00    -0.347 C  
BRANCH  44  45
HETATM   45  C   UNL     1     -11.012   9.402  71.451  1.00  0.00    -0.443 A  
HETATM   46  C   UNL     1     -11.649   8.785  72.541  1.00  0.00    -0.211 A  
HETATM   47  C   UNL     1     -11.770  10.229  70.615  1.00  0.00    -0.438 A  
HETATM   48  C   UNL     1     -13.020   8.962  72.758  1.00  0.00    -0.187 A  
HETATM   49  C   UNL     1     -13.139  10.408  70.836  1.00  0.00    -0.412 A  
HETATM   50  C   UNL     1     -13.766   9.768  71.901  1.00  0.00    -0.336 A  
ENDBRANCH  44  45
ENDBRANCH  17  44
ENDBRANCH  15  17
ENDBRANCH   3  13
TORSDOF 14
ENDMDL
MODEL      229
REMARK 921   NORMALIZED FREE ENERGY PREDICTED BY IDOCK:   -3.62 KCAL/MOL
REMARK 922        TOTAL FREE ENERGY PREDICTED BY IDOCK:  -11.13 KCAL/MOL
REMARK 923 INTER-LIGAND FREE ENERGY PREDICTED BY IDOCK:   -9.12 KCAL/MOL
REMARK 924 INTRA-LIGAND FREE ENERGY PREDICTED BY IDOCK:   -2.01 KCAL/MOL
REMARK 927      BINDING AFFINITY PREDICTED BY RF-SCORE:    0.00 PKD
ROOT
HETATM    1  C   UNL     1     -10.120  10.849  63.994  1.00  0.00    -0.419 C  
HETATM    2  C   UNL     1      -9.833  10.192  65.353  1.00  0.00    -0.375 C  
HETATM    3  C   UNL     1      -8.346  10.403  65.776  1.00  0.00    -0.158 C  
HETATM    4  C   UNL     1     -10.847  10.718  66.371  1.00  0.00    -0.172 C  
ENDROOT
BRANCH   3   5
HETATM    5  N   UNL     1      -7.412   9.787  64.805  1.00  0.00    -0.124 N  
HETATM    6  H   UNL     1      -4.528  10.264  63.398  1.00  0.00     0.000 HD 
HETATM    7  O   UNL     1      -5.643  11.142  65.386  1.00  0.00    -0.149 OA 
HETATM    8  C   UNL     1      -7.769   8.553  64.116  1.00  0.00    -0.135 C  
HETATM    9  C   UNL     1      -6.145  10.304  64.642  1.00  0.00    -0.125 C  
HETATM   10  C   UNL     1      -7.423   8.689  62.645  1.00  0.00    -0.105 C  
HETATM   11  N   UNL     1      -5.461   9.877  63.539  1.00  0.00    -0.091 N  
HETATM   12  C   UNL     1      -5.931   8.929  62.550  1.00  0.00    -0.094 C  
ENDBRANCH   3   5
BRANCH   3  13
HETATM   13  C   UNL     1      -8.087   9.936  67.241  1.00  0.00    -0.113 C  
HETATM   14  O   UNL     1      -8.085  10.695  68.204  1.00  0.00    -0.109 OA 
HETATM   15  N   UNL     1      -7.768   8.599  67.370  1.00  0.00    -0.097 N  
HETATM   16  H   UNL     1      -7.813   8.038  66.520  1.00  0.00     0.000 HD 
BRANCH  15  17
HETATM   17  C   UNL     1      -7.373   7.900  68.590  1.00  0.00    -0.090 C  
BRANCH  17  18
HETATM   18  C   UNL     1      -6.654   8.799  69.620  1.00  0.00    -0.039 C  
BRANCH  18  19
HETATM   19  C   UNL     1      -7.365   9.415  70.853  1.00  0.00    -0.075 C  
HETATM   20  O   UNL     1      -6.394   9.706  71.862  1.00  0.00    -0.300 OA 
HETATM   21  H   UNL     1      -6.829  10.084  72.617  1.00  0.00     0.000 HD 
BRANCH  19  22
HETATM   22  C   UNL     1      -8.407   8.401  71.469  1.00  0.00    -0.154 C  
BRANCH  22  23
HETATM   23  N   UNL     1      -9.614   8.166  70.596  1.00  0.00    -0.165 N  
HETATM   24  C   UNL     1     -10.584   8.916  69.966  1.00  0.00    -0.220 C  
HETATM   25  H   UNL     1      -9.752   7.171  70.423  1.00  0.00     0.000 HD 
HETATM   26  O   UNL     1     -11.279   8.366  69.107  1.00  0.00     0.116 OA 
BRANCH  24  27
HETATM   27  C   UNL     1     -10.866  10.362  70.410  1.00  0.00    -0.189 C  
BRANCH  27  28
HETATM   28  O   UNL     1     -11.766  11.219  69.727  1.00  0.00    -0.287 OA 
BRANCH  28  29
HETATM   29  C   UNL     1     -12.175  12.387  70.356  1.00  0.00    -0.287 A  
HETATM   30  C   UNL     1     -11.083  14.252  68.820  1.00  0.00    -0.276 C  
HETATM   31  C   UNL     1     -11.926  13.726  69.955  1.00  0.00    -0.412 A  
HETATM   32  C   UNL     1     -12.546  14.778  70.671  1.00  0.00    -0.414 A  
HETATM   33  C   UNL     1     -13.370  14.552  71.763  1.00  0.00    -0.445 A  
HETATM   34  C   UNL     1     -13.584  13.251  72.184  1.00  0.00    -0.655 A  
HETATM   35  C   UNL     1     -12.991  12.167  71.507  1.00  0.00    -0.398 A  
HETATM   36  C   UNL     1     -13.262  10.791  72.066  1.00  0.00    -0.466 C  
ENDBRANCH  28  29
ENDBRANCH  27  28
ENDBRANCH  24  27
ENDBRANCH  22  23
BRANCH  22  37
HETATM   37  C   UNL     1      -7.734   7.160  72.116  1.00  0.00    -0.090 C  
BRANCH  37  38
HETATM   38  C   UNL     1      -8.687   6.242  72.831  1.00  0.00    -0.125 A  
HETATM   39  C   UNL     1     -10.426   4.366  73.970  1.00  0.00    -0.307 A  
HETATM   40  C   UNL     1     -10.059   6.302  72.571  1.00  0.00    -0.193 A  
HETATM   41  C   UNL     1      -9.075   4.347  74.289  1.00  0.00    -0.107 A  
HETATM   42  C   UNL     1      -8.222   5.311  73.759  1.00  0.00    -0.112 A  
HETATM   43  C   UNL     1     -10.923   5.368  73.139  1.00  0.00    -0.353 A  
ENDBRANCH  37  38
ENDBRANCH  22  37
ENDBRANCH  19  22
ENDBRANCH  18  19
ENDBRANCH  17  18
BRANCH  17  44
HETATM   44  C   UNL     1      -6.812   6.481  68.348  1.00  0.00    -0.071 C  
BRANCH  44  45
HETATM   45  C   UNL     1      -7.594   5.389  69.053  1.00  0.00    -0.085 A  
HETATM   46  C   UNL     1      -8.989   5.285  68.917  1.00  0.00    -0.120 A  
HETATM   47  C   UNL     1      -6.934   4.474  69.881  1.00  0.00    -0.045 A  
HETATM   48  C   UNL     1      -9.704   4.314  69.627  1.00  0.00    -0.284 A  
HETATM   49  C   UNL     1      -7.649   3.501  70.585  1.00  0.00    -0.040 A  
HETATM   50  C   UNL     1      -9.034   3.427  70.466  1.00  0.00    -0.162 A  
ENDBRANCH  44  45
ENDBRANCH  17  44
ENDBRANCH  15  17
ENDBRANCH   3  13
TORSDOF 14
ENDMDL
MODEL      230
REMARK 921   NORMALIZED FREE ENERGY PREDICTED BY IDOCK:   -3.56 KCAL/MOL
REMARK 922        TOTAL FREE ENERGY PREDICTED BY IDOCK:  -11.03 KCAL/MOL
REMARK 923 INTER-LIGAND FREE ENERGY PREDICTED BY IDOCK:   -9.61 KCAL/MOL
REMARK 924 INTRA-LIGAND FREE ENERGY PREDICTED BY IDOCK:   -1.43 KCAL/MOL
REMARK 927      BINDING AFFINITY PREDICTED BY RF-SCORE:    0.00 PKD
ROOT
HETATM    1  C   UNL     1     -11.585   7.829  72.990  1.00  0.00    -0.182 C  
HETATM    2  C   UNL     1     -11.108   8.740  71.848  1.00  0.00    -0.434 C  
HETATM    3  C   UNL     1     -10.610   7.900  70.631  1.00  0.00    -0.219 C  
HETATM    4  C   UNL     1     -12.232   9.720  71.506  1.00  0.00    -0.493 C  
ENDROOT
BRANCH   3   5
HETATM    5  N   UNL     1      -9.458   7.044  70.996  1.00  0.00    -0.160 N  
HETATM    6  H   UNL     1      -6.393   7.220  72.044  1.00  0.00     0.000 HD 
HETATM    7  O   UNL     1      -8.298   8.748  72.022  1.00  0.00    -0.324 OA 
HETATM    8  C   UNL     1      -9.539   5.595  70.861  1.00  0.00    -0.169 C  
HETATM    9  C   UNL     1      -8.344   7.600  71.589  1.00  0.00    -0.108 C  
HETATM   10  C   UNL     1      -8.267   5.085  70.212  1.00  0.00    -0.088 C  
HETATM   11  N   UNL     1      -7.228   6.814  71.623  1.00  0.00    -0.079 N  
HETATM   12  C   UNL     1      -7.113   5.461  71.118  1.00  0.00    -0.065 C  
ENDBRANCH   3   5
BRANCH   3  13
HETATM   13  C   UNL     1     -10.325   8.795  69.386  1.00  0.00    -0.214 C  
HETATM   14  O   UNL     1     -11.184   9.464  68.822  1.00  0.00    -0.020 OA 
HETATM   15  N   UNL     1      -9.035   8.711  68.901  1.00  0.00    -0.141 N  
HETATM   16  H   UNL     1      -8.382   8.146  69.444  1.00  0.00     0.000 HD 
BRANCH  15  17
HETATM   17  C   UNL     1      -8.503   9.342  67.696  1.00  0.00    -0.119 C  
BRANCH  17  18
HETATM   18  C   UNL     1      -8.198  10.847  67.862  1.00  0.00    -0.114 C  
BRANCH  18  19
HETATM   19  C   UNL     1      -9.300  11.936  67.925  1.00  0.00    -0.187 C  
HETATM   20  O   UNL     1     -10.427  11.512  67.151  1.00  0.00    -0.209 OA 
HETATM   21  H   UNL     1     -11.103  12.179  67.190  1.00  0.00     0.000 HD 
BRANCH  19  22
HETATM   22  C   UNL     1      -8.784  13.298  67.316  1.00  0.00    -0.214 C  
BRANCH  22  23
HETATM   23  N   UNL     1      -9.517  14.510  67.833  1.00  0.00    -0.208 N  
HETATM   24  C   UNL     1      -9.989  15.708  67.341  1.00  0.00    -0.232 C  
HETATM   25  H   UNL     1      -9.721  14.418  68.828  1.00  0.00     0.000 HD 
HETATM   26  O   UNL     1     -10.785  16.349  68.034  1.00  0.00    -0.311 OA 
BRANCH  24  27
HETATM   27  C   UNL     1      -9.444  16.281  66.022  1.00  0.00    -0.334 C  
BRANCH  27  28
HETATM   28  O   UNL     1      -9.600  17.640  65.646  1.00  0.00    -0.503 OA 
BRANCH  28  29
HETATM   29  C   UNL     1      -8.769  18.588  66.227  1.00  0.00    -0.203 A  
HETATM   30  C   UNL     1      -6.365  17.728  65.511  1.00  0.00    -0.051 C  
HETATM   31  C   UNL     1      -7.355  18.673  66.147  1.00  0.00    -0.291 A  
HETATM   32  C   UNL     1      -6.707  19.799  66.711  1.00  0.00    -0.210 A  
HETATM   33  C   UNL     1      -7.400  20.810  67.358  1.00  0.00    -0.390 A  
HETATM   34  C   UNL     1      -8.775  20.714  67.475  1.00  0.00    -0.271 A  
HETATM   35  C   UNL     1      -9.470  19.614  66.932  1.00  0.00    -0.456 A  
HETATM   36  C   UNL     1     -10.964  19.588  67.142  1.00  0.00    -0.459 C  
ENDBRANCH  28  29
ENDBRANCH  27  28
ENDBRANCH  24  27
ENDBRANCH  22  23
BRANCH  22  37
HETATM   37  C   UNL     1      -7.236  13.374  67.231  1.00  0.00    -0.023 C  
BRANCH  37  38
HETATM   38  C   UNL     1      -6.600  14.233  68.289  1.00  0.00    -0.113 A  
HETATM   39  C   UNL     1      -5.654  15.905  70.327  1.00  0.00    -0.163 A  
HETATM   40  C   UNL     1      -6.233  15.551  68.008  1.00  0.00    -0.153 A  
HETATM   41  C   UNL     1      -5.948  14.575  70.597  1.00  0.00    -0.184 A  
HETATM   42  C   UNL     1      -6.371  13.735  69.571  1.00  0.00    -0.118 A  
HETATM   43  C   UNL     1      -5.762  16.382  69.022  1.00  0.00    -0.130 A  
ENDBRANCH  37  38
ENDBRANCH  22  37
ENDBRANCH  19  22
ENDBRANCH  18  19
ENDBRANCH  17  18
BRANCH  17  44
HETATM   44  C   UNL     1      -9.184   8.879  66.390  1.00  0.00    -0.240 C  
BRANCH  44  45
HETATM   45  C   UNL     1      -9.163   7.375  66.193  1.00  0.00    -0.148 A  
HETATM   46  C   UNL     1     -10.236   6.568  66.607  1.00  0.00    -0.209 A  
HETATM   47  C   UNL     1      -8.049   6.758  65.612  1.00  0.00    -0.122 A  
HETATM   48  C   UNL     1     -10.172   5.176  66.479  1.00  0.00    -0.300 A  
HETATM   49  C   UNL     1      -7.989   5.368  65.481  1.00  0.00    -0.109 A  
HETATM   50  C   UNL     1      -9.045   4.576  65.922  1.00  0.00    -0.133 A  
ENDBRANCH  44  45
ENDBRANCH  17  44
ENDBRANCH  15  17
ENDBRANCH   3  13
TORSDOF 14
ENDMDL
MODEL      231
REMARK 921   NORMALIZED FREE ENERGY PREDICTED BY IDOCK:   -3.54 KCAL/MOL
REMARK 922        TOTAL FREE ENERGY PREDICTED BY IDOCK:  -10.99 KCAL/MOL
REMARK 923 INTER-LIGAND FREE ENERGY PREDICTED BY IDOCK:   -6.98 KCAL/MOL
REMARK 924 INTRA-LIGAND FREE ENERGY PREDICTED BY IDOCK:   -4.00 KCAL/MOL
REMARK 927      BINDING AFFINITY PREDICTED BY RF-SCORE:    0.00 PKD
ROOT
HETATM    1  C   UNL     1     -10.272  11.703  66.758  1.00  0.00    -0.248 C  
HETATM    2  C   UNL     1      -9.762  10.285  66.456  1.00  0.00    -0.243 C  
HETATM    3  C   UNL     1     -10.524   9.221  67.305  1.00  0.00    -0.264 C  
HETATM    4  C   UNL     1      -9.847  10.050  64.946  1.00  0.00    -0.352 C  
ENDROOT
BRANCH   3   5
HETATM    5  N   UNL     1     -10.324   9.440  68.757  1.00  0.00    -0.204 N  
HETATM    6  H   UNL     1      -8.120   9.054  71.105  1.00  0.00     0.000 HD 
HETATM    7  O   UNL     1      -8.045   9.124  68.665  1.00  0.00    -0.100 OA 
HETATM    8  C   UNL     1     -11.404   9.968  69.581  1.00  0.00    -0.202 C  
HETATM    9  C   UNL     1      -9.076   9.267  69.316  1.00  0.00    -0.151 C  
HETATM   10  C   UNL     1     -11.490   9.161  70.862  1.00  0.00    -0.357 C  
HETATM   11  N   UNL     1      -9.036   9.197  70.680  1.00  0.00    -0.226 N  
HETATM   12  C   UNL     1     -10.165   9.307  71.580  1.00  0.00    -0.268 C  
ENDBRANCH   3   5
BRANCH   3  13
HETATM   13  C   UNL     1     -10.176   7.767  66.861  1.00  0.00    -0.303 C  
HETATM   14  O   UNL     1     -10.965   6.831  66.932  1.00  0.00    -0.378 OA 
HETATM   15  N   UNL     1      -8.868   7.586  66.459  1.00  0.00    -0.141 N  
HETATM   16  H   UNL     1      -8.288   8.423  66.412  1.00  0.00     0.000 HD 
BRANCH  15  17
HETATM   17  C   UNL     1      -8.224   6.327  66.093  1.00  0.00    -0.121 C  
BRANCH  17  18
HETATM   18  C   UNL     1      -6.954   6.014  66.915  1.00  0.00    -0.068 C  
BRANCH  18  19
HETATM   19  C   UNL     1      -6.688   4.637  67.577  1.00  0.00    -0.051 C  
HETATM   20  O   UNL     1      -7.885   3.855  67.538  1.00  0.00    -0.085 OA 
HETATM   21  H   UNL     1      -7.722   3.011  67.943  1.00  0.00     0.000 HD 
BRANCH  19  22
HETATM   22  C   UNL     1      -6.276   4.809  69.091  1.00  0.00    -0.030 C  
BRANCH  22  23
HETATM   23  N   UNL     1      -5.751   3.545  69.725  1.00  0.00    -0.017 N  
HETATM   24  C   UNL     1      -6.222   2.535  70.535  1.00  0.00    -0.023 C  
HETATM   25  H   UNL     1      -4.771   3.396  69.486  1.00  0.00     0.000 HD 
HETATM   26  O   UNL     1      -5.545   1.507  70.637  1.00  0.00    -0.011 OA 
BRANCH  24  27
HETATM   27  C   UNL     1      -7.492   2.735  71.378  1.00  0.00    -0.040 C  
BRANCH  27  28
HETATM   28  O   UNL     1      -8.758   3.035  70.812  1.00  0.00    -0.067 OA 
BRANCH  28  29
HETATM   29  C   UNL     1      -9.720   3.629  71.616  1.00  0.00    -0.166 A  
HETATM   30  C   UNL     1      -9.874   1.923  73.640  1.00  0.00    -0.127 C  
HETATM   31  C   UNL     1     -10.195   3.185  72.878  1.00  0.00    -0.237 A  
HETATM   32  C   UNL     1     -11.093   4.011  73.597  1.00  0.00    -0.334 A  
HETATM   33  C   UNL     1     -11.543   5.226  73.106  1.00  0.00    -0.251 A  
HETATM   34  C   UNL     1     -11.116   5.646  71.858  1.00  0.00    -0.278 A  
HETATM   35  C   UNL     1     -10.222   4.863  71.101  1.00  0.00    -0.261 A  
HETATM   36  C   UNL     1      -9.843   5.394  69.740  1.00  0.00    -0.268 C  
ENDBRANCH  28  29
ENDBRANCH  27  28
ENDBRANCH  24  27
ENDBRANCH  22  23
BRANCH  22  37
HETATM   37  C   UNL     1      -5.499   6.126  69.361  1.00  0.00    -0.012 C  
BRANCH  37  38
HETATM   38  C   UNL     1      -5.954   6.873  70.584  1.00  0.00    -0.027 A  
HETATM   39  C   UNL     1      -6.604   8.154  72.988  1.00  0.00    -0.100 A  
HETATM   40  C   UNL     1      -6.874   6.298  71.465  1.00  0.00    -0.071 A  
HETATM   41  C   UNL     1      -5.744   8.764  72.084  1.00  0.00    -0.062 A  
HETATM   42  C   UNL     1      -5.463   8.146  70.869  1.00  0.00    -0.029 A  
HETATM   43  C   UNL     1      -7.198   6.937  72.660  1.00  0.00    -0.078 A  
ENDBRANCH  37  38
ENDBRANCH  22  37
ENDBRANCH  19  22
ENDBRANCH  18  19
ENDBRANCH  17  18
BRANCH  17  44
HETATM   44  C   UNL     1      -8.190   6.056  64.573  1.00  0.00    -0.095 C  
BRANCH  44  45
HETATM   45  C   UNL     1      -8.567   4.635  64.200  1.00  0.00    -0.136 A  
HETATM   46  C   UNL     1      -9.880   4.162  64.356  1.00  0.00    -0.159 A  
HETATM   47  C   UNL     1      -7.593   3.755  63.713  1.00  0.00    -0.070 A  
HETATM   48  C   UNL     1     -10.196   2.829  64.070  1.00  0.00    -0.100 A  
HETATM   49  C   UNL     1      -7.912   2.425  63.424  1.00  0.00    -0.072 A  
HETATM   50  C   UNL     1      -9.210   1.959  63.611  1.00  0.00    -0.099 A  
ENDBRANCH  44  45
ENDBRANCH  17  44
ENDBRANCH  15  17
ENDBRANCH   3  13
TORSDOF 14
ENDMDL
MODEL      232
REMARK 921   NORMALIZED FREE ENERGY PREDICTED BY IDOCK:   -3.52 KCAL/MOL
REMARK 922        TOTAL FREE ENERGY PREDICTED BY IDOCK:  -10.95 KCAL/MOL
REMARK 923 INTER-LIGAND FREE ENERGY PREDICTED BY IDOCK:   -8.05 KCAL/MOL
REMARK 924 INTRA-LIGAND FREE ENERGY PREDICTED BY IDOCK:   -2.90 KCAL/MOL
REMARK 927      BINDING AFFINITY PREDICTED BY RF-SCORE:    0.00 PKD
ROOT
HETATM    1  C   UNL     1      -5.126  11.117  71.276  1.00  0.00    -0.095 C  
HETATM    2  C   UNL     1      -5.960   9.846  71.057  1.00  0.00    -0.072 C  
HETATM    3  C   UNL     1      -5.898   9.384  69.568  1.00  0.00    -0.033 C  
HETATM    4  C   UNL     1      -5.496   8.783  72.055  1.00  0.00    -0.052 C  
ENDROOT
BRANCH   3   5
HETATM    5  N   UNL     1      -6.452  10.412  68.656  1.00  0.00    -0.051 N  
HETATM    6  H   UNL     1      -5.906  11.825  65.788  1.00  0.00     0.000 HD 
HETATM    7  O   UNL     1      -5.165   9.761  66.862  1.00  0.00    -0.040 OA 
HETATM    8  C   UNL     1      -7.627  11.185  69.039  1.00  0.00    -0.119 C  
HETATM    9  C   UNL     1      -5.939  10.557  67.385  1.00  0.00    -0.052 C  
HETATM   10  C   UNL     1      -7.386  12.647  68.714  1.00  0.00    -0.066 C  
HETATM   11  N   UNL     1      -6.292  11.699  66.724  1.00  0.00    -0.140 N  
HETATM   12  C   UNL     1      -7.158  12.747  67.220  1.00  0.00    -0.082 C  
ENDBRANCH   3   5
BRANCH   3  13
HETATM   13  C   UNL     1      -6.556   7.984  69.367  1.00  0.00    -0.035 C  
HETATM   14  O   UNL     1      -7.469   7.558  70.065  1.00  0.00    -0.079 OA 
HETATM   15  N   UNL     1      -5.968   7.209  68.387  1.00  0.00    -0.025 N  
HETATM   16  H   UNL     1      -5.228   7.650  67.842  1.00  0.00     0.000 HD 
BRANCH  15  17
HETATM   17  C   UNL     1      -6.291   5.825  68.045  1.00  0.00    -0.041 C  
BRANCH  17  18
HETATM   18  C   UNL     1      -7.565   5.676  67.184  1.00  0.00    -0.096 C  
BRANCH  18  19
HETATM   19  C   UNL     1      -8.997   5.867  67.745  1.00  0.00    -0.111 C  
HETATM   20  O   UNL     1      -9.870   4.900  67.152  1.00  0.00    -0.162 OA 
HETATM   21  H   UNL     1     -10.748   5.017  67.496  1.00  0.00     0.000 HD 
BRANCH  19  22
HETATM   22  C   UNL     1      -9.556   7.300  67.390  1.00  0.00    -0.142 C  
BRANCH  22  23
HETATM   23  N   UNL     1      -9.243   7.743  65.983  1.00  0.00    -0.352 N  
HETATM   24  C   UNL     1      -9.062   8.925  65.298  1.00  0.00    -0.136 C  
HETATM   25  H   UNL     1      -9.133   6.941  65.363  1.00  0.00     0.000 HD 
HETATM   26  O   UNL     1      -8.552   8.876  64.175  1.00  0.00    -0.179 OA 
BRANCH  24  27
HETATM   27  C   UNL     1      -9.592  10.251  65.872  1.00  0.00    -0.209 C  
BRANCH  27  28
HETATM   28  O   UNL     1     -10.974  10.548  65.983  1.00  0.00    -0.011 OA 
BRANCH  28  29
HETATM   29  C   UNL     1     -11.362  11.879  66.053  1.00  0.00    -0.316 A  
HETATM   30  C   UNL     1     -11.499  12.277  68.671  1.00  0.00    -0.355 C  
HETATM   31  C   UNL     1     -11.556  12.670  67.216  1.00  0.00    -0.428 A  
HETATM   32  C   UNL     1     -11.830  14.051  67.062  1.00  0.00    -0.458 A  
HETATM   33  C   UNL     1     -11.936  14.656  65.819  1.00  0.00    -0.236 A  
HETATM   34  C   UNL     1     -11.789  13.882  64.682  1.00  0.00    -0.428 A  
HETATM   35  C   UNL     1     -11.516  12.503  64.777  1.00  0.00    -0.369 A  
HETATM   36  C   UNL     1     -11.404  11.744  63.478  1.00  0.00    -0.496 C  
ENDBRANCH  28  29
ENDBRANCH  27  28
ENDBRANCH  24  27
ENDBRANCH  22  23
BRANCH  22  37
HETATM   37  C   UNL     1     -11.000   7.533  67.913  1.00  0.00    -0.027 C  
BRANCH  37  38
HETATM   38  C   UNL     1     -11.115   7.573  69.412  1.00  0.00    -0.016 A  
HETATM   39  C   UNL     1     -11.548   7.778  72.171  1.00  0.00    -0.367 A  
HETATM   40  C   UNL     1     -10.560   8.631  70.138  1.00  0.00    -0.235 A  
HETATM   41  C   UNL     1     -12.041   6.687  71.467  1.00  0.00    -0.406 A  
HETATM   42  C   UNL     1     -11.781   6.564  70.105  1.00  0.00    -0.419 A  
HETATM   43  C   UNL     1     -10.776   8.731  71.511  1.00  0.00    -0.371 A  
ENDBRANCH  37  38
ENDBRANCH  22  37
ENDBRANCH  19  22
ENDBRANCH  18  19
ENDBRANCH  17  18
BRANCH  17  44
HETATM   44  C   UNL     1      -6.075   4.825  69.201  1.00  0.00    -0.029 C  
BRANCH  44  45
HETATM   45  C   UNL     1      -7.351   4.150  69.668  1.00  0.00    -0.050 A  
HETATM   46  C   UNL     1      -8.187   4.750  70.624  1.00  0.00    -0.092 A  
HETATM   47  C   UNL     1      -7.705   2.892  69.167  1.00  0.00    -0.048 A  
HETATM   48  C   UNL     1      -9.326   4.085  71.093  1.00  0.00    -0.216 A  
HETATM   49  C   UNL     1      -8.844   2.231  69.634  1.00  0.00    -0.139 A  
HETATM   50  C   UNL     1      -9.650   2.822  70.603  1.00  0.00    -0.174 A  
ENDBRANCH  44  45
ENDBRANCH  17  44
ENDBRANCH  15  17
ENDBRANCH   3  13
TORSDOF 14
ENDMDL
MODEL      233
REMARK 921   NORMALIZED FREE ENERGY PREDICTED BY IDOCK:   -3.46 KCAL/MOL
REMARK 922        TOTAL FREE ENERGY PREDICTED BY IDOCK:  -10.85 KCAL/MOL
REMARK 923 INTER-LIGAND FREE ENERGY PREDICTED BY IDOCK:  -10.89 KCAL/MOL
REMARK 924 INTRA-LIGAND FREE ENERGY PREDICTED BY IDOCK:    0.05 KCAL/MOL
REMARK 927      BINDING AFFINITY PREDICTED BY RF-SCORE:    0.00 PKD
ROOT
HETATM    1  C   UNL     1      -5.136  10.867  66.471  1.00  0.00    -0.081 C  
HETATM    2  C   UNL     1      -6.291  10.557  67.436  1.00  0.00    -0.058 C  
HETATM    3  C   UNL     1      -7.200  11.807  67.643  1.00  0.00    -0.111 C  
HETATM    4  C   UNL     1      -7.039   9.326  66.919  1.00  0.00    -0.082 C  
ENDROOT
BRANCH   3   5
HETATM    5  N   UNL     1      -6.446  12.935  68.239  1.00  0.00    -0.077 N  
HETATM    6  H   UNL     1      -4.856  13.788  70.934  1.00  0.00     0.000 HD 
HETATM    7  O   UNL     1      -5.567  11.670  69.950  1.00  0.00    -0.078 OA 
HETATM    8  C   UNL     1      -6.303  14.193  67.516  1.00  0.00    -0.007 C  
HETATM    9  C   UNL     1      -5.763  12.761  69.424  1.00  0.00    -0.090 C  
HETATM   10  C   UNL     1      -6.566  15.344  68.469  1.00  0.00    -0.109 C  
HETATM   11  N   UNL     1      -5.348  13.902  70.049  1.00  0.00    -0.093 N  
HETATM   12  C   UNL     1      -5.539  15.259  69.578  1.00  0.00    -0.098 C  
ENDBRANCH   3   5
BRANCH   3  13
HETATM   13  C   UNL     1      -8.493  11.459  68.443  1.00  0.00    -0.155 C  
HETATM   14  O   UNL     1      -8.492  10.800  69.477  1.00  0.00    -0.059 OA 
HETATM   15  N   UNL     1      -9.666  11.877  67.849  1.00  0.00    -0.186 N  
HETATM   16  H   UNL     1      -9.572  12.436  67.001  1.00  0.00     0.000 HD 
BRANCH  15  17
HETATM   17  C   UNL     1     -11.030  11.607  68.301  1.00  0.00    -0.226 C  
BRANCH  17  18
HETATM   18  C   UNL     1     -11.580  12.659  69.289  1.00  0.00    -0.376 C  
BRANCH  18  19
HETATM   19  C   UNL     1     -11.894  14.122  68.885  1.00  0.00    -0.347 C  
HETATM   20  O   UNL     1     -12.231  14.167  67.495  1.00  0.00    -0.549 OA 
HETATM   21  H   UNL     1     -12.424  15.064  67.247  1.00  0.00     0.000 HD 
BRANCH  19  22
HETATM   22  C   UNL     1     -10.636  15.051  69.104  1.00  0.00    -0.251 C  
BRANCH  22  23
HETATM   23  N   UNL     1     -10.445  16.080  68.018  1.00  0.00    -0.266 N  
HETATM   24  C   UNL     1     -10.162  16.105  66.670  1.00  0.00    -0.287 C  
HETATM   25  H   UNL     1     -10.557  17.025  68.386  1.00  0.00     0.000 HD 
HETATM   26  O   UNL     1     -10.342  17.161  66.056  1.00  0.00    -0.347 OA 
BRANCH  24  27
HETATM   27  C   UNL     1      -9.527  14.885  65.981  1.00  0.00    -0.281 C  
BRANCH  27  28
HETATM   28  O   UNL     1      -9.759  14.556  64.621  1.00  0.00     0.028 OA 
BRANCH  28  29
HETATM   29  C   UNL     1     -10.620  13.506  64.330  1.00  0.00    -0.377 A  
HETATM   30  C   UNL     1      -8.978  11.424  64.367  1.00  0.00     0.189 C  
HETATM   31  C   UNL     1     -10.311  12.123  64.256  1.00  0.00    -0.363 A  
HETATM   32  C   UNL     1     -11.367  11.198  64.070  1.00  0.00     0.065 A  
HETATM   33  C   UNL     1     -12.689  11.594  63.938  1.00  0.00    -0.160 A  
HETATM   34  C   UNL     1     -12.992  12.944  63.968  1.00  0.00     0.040 A  
HETATM   35  C   UNL     1     -11.979  13.907  64.150  1.00  0.00    -0.464 A  
HETATM   36  C   UNL     1     -12.410  15.353  64.137  1.00  0.00    -0.015 C  
ENDBRANCH  28  29
ENDBRANCH  27  28
ENDBRANCH  24  27
ENDBRANCH  22  23
BRANCH  22  37
HETATM   37  C   UNL     1     -10.479  15.519  70.576  1.00  0.00    -0.147 C  
BRANCH  37  38
HETATM   38  C   UNL     1     -11.776  15.651  71.325  1.00  0.00    -0.478 A  
HETATM   39  C   UNL     1     -14.151  15.660  72.808  1.00  0.00    -0.442 A  
HETATM   40  C   UNL     1     -12.980  15.257  70.734  1.00  0.00    -0.492 A  
HETATM   41  C   UNL     1     -12.972  16.121  73.379  1.00  0.00    -0.611 A  
HETATM   42  C   UNL     1     -11.804  16.161  72.622  1.00  0.00    -0.609 A  
HETATM   43  C   UNL     1     -14.161  15.263  71.473  1.00  0.00    -0.625 A  
ENDBRANCH  37  38
ENDBRANCH  22  37
ENDBRANCH  19  22
ENDBRANCH  18  19
ENDBRANCH  17  18
BRANCH  17  44
HETATM   44  C   UNL     1     -11.310  10.118  68.595  1.00  0.00    -0.172 C  
BRANCH  44  45
HETATM   45  C   UNL     1     -11.735   9.850  70.027  1.00  0.00    -0.186 A  
HETATM   46  C   UNL     1     -11.097   8.871  70.807  1.00  0.00    -0.312 A  
HETATM   47  C   UNL     1     -12.799  10.564  70.590  1.00  0.00    -0.407 A  
HETATM   48  C   UNL     1     -11.543   8.590  72.103  1.00  0.00    -0.447 A  
HETATM   49  C   UNL     1     -13.240  10.285  71.887  1.00  0.00    -0.550 A  
HETATM   50  C   UNL     1     -12.620   9.292  72.640  1.00  0.00    -0.143 A  
ENDBRANCH  44  45
ENDBRANCH  17  44
ENDBRANCH  15  17
ENDBRANCH   3  13
TORSDOF 14
ENDMDL
MODEL      234
REMARK 921   NORMALIZED FREE ENERGY PREDICTED BY IDOCK:   -3.43 KCAL/MOL
REMARK 922        TOTAL FREE ENERGY PREDICTED BY IDOCK:  -10.78 KCAL/MOL
REMARK 923 INTER-LIGAND FREE ENERGY PREDICTED BY IDOCK:   -8.66 KCAL/MOL
REMARK 924 INTRA-LIGAND FREE ENERGY PREDICTED BY IDOCK:   -2.12 KCAL/MOL
REMARK 927      BINDING AFFINITY PREDICTED BY RF-SCORE:    0.00 PKD
ROOT
HETATM    1  C   UNL     1      -7.928   5.013  73.647  1.00  0.00    -0.106 C  
HETATM    2  C   UNL     1      -7.341   6.044  72.670  1.00  0.00    -0.090 C  
HETATM    3  C   UNL     1      -8.218   7.334  72.622  1.00  0.00    -0.107 C  
HETATM    4  C   UNL     1      -5.882   6.301  73.054  1.00  0.00    -0.042 C  
ENDROOT
BRANCH   3   5
HETATM    5  N   UNL     1      -9.591   7.040  72.149  1.00  0.00    -0.147 N  
HETATM    6  H   UNL     1     -11.193   5.749  69.641  1.00  0.00     0.000 HD 
HETATM    7  O   UNL     1      -8.894   5.644  70.456  1.00  0.00    -0.134 OA 
HETATM    8  C   UNL     1     -10.748   7.436  72.943  1.00  0.00    -0.339 C  
HETATM    9  C   UNL     1      -9.783   6.276  71.018  1.00  0.00    -0.176 C  
HETATM   10  C   UNL     1     -11.782   8.067  72.030  1.00  0.00    -0.375 C  
HETATM   11  N   UNL     1     -11.042   6.298  70.487  1.00  0.00    -0.311 N  
HETATM   12  C   UNL     1     -12.182   7.024  71.008  1.00  0.00    -0.374 C  
ENDBRANCH   3   5
BRANCH   3  13
HETATM   13  C   UNL     1      -7.531   8.472  71.807  1.00  0.00    -0.099 C  
HETATM   14  O   UNL     1      -6.799   9.318  72.310  1.00  0.00    -0.299 OA 
HETATM   15  N   UNL     1      -7.880   8.514  70.472  1.00  0.00    -0.079 N  
HETATM   16  H   UNL     1      -8.478   7.760  70.135  1.00  0.00     0.000 HD 
BRANCH  15  17
HETATM   17  C   UNL     1      -7.487   9.521  69.488  1.00  0.00    -0.092 C  
BRANCH  17  18
HETATM   18  C   UNL     1      -7.895   9.172  68.040  1.00  0.00    -0.100 C  
BRANCH  18  19
HETATM   19  C   UNL     1      -9.358   9.234  67.531  1.00  0.00    -0.127 C  
HETATM   20  O   UNL     1     -10.251   9.101  68.640  1.00  0.00    -0.192 OA 
HETATM   21  H   UNL     1     -11.148   9.139  68.328  1.00  0.00     0.000 HD 
BRANCH  19  22
HETATM   22  C   UNL     1      -9.658   8.051  66.529  1.00  0.00    -0.226 C  
BRANCH  22  23
HETATM   23  N   UNL     1      -9.072   8.257  65.154  1.00  0.00    -0.394 N  
HETATM   24  C   UNL     1      -9.026   9.249  64.199  1.00  0.00    -0.081 C  
HETATM   25  H   UNL     1      -8.567   7.427  64.845  1.00  0.00     0.000 HD 
HETATM   26  O   UNL     1      -8.210   9.135  63.279  1.00  0.00    -0.157 OA 
BRANCH  24  27
HETATM   27  C   UNL     1     -10.045  10.402  64.218  1.00  0.00    -0.236 C  
BRANCH  27  28
HETATM   28  O   UNL     1      -9.671  11.762  64.364  1.00  0.00    -0.223 OA 
BRANCH  28  29
HETATM   29  C   UNL     1     -10.544  12.623  65.016  1.00  0.00    -0.303 A  
HETATM   30  C   UNL     1     -12.455  12.944  63.206  1.00  0.00    -0.315 C  
HETATM   31  C   UNL     1     -11.788  13.120  64.548  1.00  0.00    -0.427 A  
HETATM   32  C   UNL     1     -12.588  13.890  65.428  1.00  0.00    -0.538 A  
HETATM   33  C   UNL     1     -12.192  14.193  66.721  1.00  0.00    -0.429 A  
HETATM   34  C   UNL     1     -10.962  13.746  67.169  1.00  0.00    -0.299 A  
HETATM   35  C   UNL     1     -10.126  12.977  66.335  1.00  0.00    -0.279 A  
HETATM   36  C   UNL     1      -8.792  12.566  66.908  1.00  0.00    -0.203 C  
ENDBRANCH  28  29
ENDBRANCH  27  28
ENDBRANCH  24  27
ENDBRANCH  22  23
BRANCH  22  37
HETATM   37  C   UNL     1      -9.494   6.651  67.179  1.00  0.00    -0.158 C  
BRANCH  37  38
HETATM   38  C   UNL     1      -9.350   5.524  66.194  1.00  0.00    -0.169 A  
HETATM   39  C   UNL     1      -9.089   3.604  64.172  1.00  0.00    -0.123 A  
HETATM   40  C   UNL     1     -10.479   4.882  65.679  1.00  0.00    -0.161 A  
HETATM   41  C   UNL     1      -7.958   4.187  64.730  1.00  0.00    -0.093 A  
HETATM   42  C   UNL     1      -8.090   5.104  65.768  1.00  0.00    -0.110 A  
HETATM   43  C   UNL     1     -10.348   3.927  64.674  1.00  0.00    -0.213 A  
ENDBRANCH  37  38
ENDBRANCH  22  37
ENDBRANCH  19  22
ENDBRANCH  18  19
ENDBRANCH  17  18
BRANCH  17  44
HETATM   44  C   UNL     1      -6.081  10.114  69.724  1.00  0.00    -0.050 C  
BRANCH  44  45
HETATM   45  C   UNL     1      -5.943  11.553  69.263  1.00  0.00    -0.065 A  
HETATM   46  C   UNL     1      -6.520  12.611  69.986  1.00  0.00     0.104 A  
HETATM   47  C   UNL     1      -5.253  11.850  68.082  1.00  0.00    -0.046 A  
HETATM   48  C   UNL     1      -6.441  13.925  69.512  1.00  0.00    -0.115 A  
HETATM   49  C   UNL     1      -5.171  13.164  67.612  1.00  0.00    -0.050 A  
HETATM   50  C   UNL     1      -5.773  14.200  68.321  1.00  0.00    -0.117 A  
ENDBRANCH  44  45
ENDBRANCH  17  44
ENDBRANCH  15  17
ENDBRANCH   3  13
TORSDOF 14
ENDMDL
MODEL      235
REMARK 921   NORMALIZED FREE ENERGY PREDICTED BY IDOCK:   -3.42 KCAL/MOL
REMARK 922        TOTAL FREE ENERGY PREDICTED BY IDOCK:  -10.77 KCAL/MOL
REMARK 923 INTER-LIGAND FREE ENERGY PREDICTED BY IDOCK:   -9.43 KCAL/MOL
REMARK 924 INTRA-LIGAND FREE ENERGY PREDICTED BY IDOCK:   -1.34 KCAL/MOL
REMARK 927      BINDING AFFINITY PREDICTED BY RF-SCORE:    0.00 PKD
ROOT
HETATM    1  C   UNL     1     -10.584  17.273  67.881  1.00  0.00    -0.384 C  
HETATM    2  C   UNL     1     -10.518  15.759  67.627  1.00  0.00    -0.282 C  
HETATM    3  C   UNL     1      -9.145  15.173  68.080  1.00  0.00    -0.176 C  
HETATM    4  C   UNL     1     -11.725  15.101  68.298  1.00  0.00    -0.336 C  
ENDROOT
BRANCH   3   5
HETATM    5  N   UNL     1      -8.021  15.776  67.326  1.00  0.00    -0.168 N  
HETATM    6  H   UNL     1      -4.808  16.198  67.461  1.00  0.00     0.000 HD 
HETATM    7  O   UNL     1      -6.397  14.698  68.551  1.00  0.00    -0.079 OA 
HETATM    8  C   UNL     1      -8.267  16.508  66.090  1.00  0.00    -0.244 C  
HETATM    9  C   UNL     1      -6.721  15.539  67.719  1.00  0.00    -0.164 C  
HETATM   10  C   UNL     1      -7.463  17.794  66.107  1.00  0.00    -0.322 C  
HETATM   11  N   UNL     1      -5.772  16.353  67.167  1.00  0.00    -0.127 N  
HETATM   12  C   UNL     1      -6.000  17.412  66.207  1.00  0.00    -0.196 C  
ENDBRANCH   3   5
BRANCH   3  13
HETATM   13  C   UNL     1      -9.135  13.615  68.033  1.00  0.00    -0.192 C  
HETATM   14  O   UNL     1      -9.357  12.906  69.009  1.00  0.00     0.214 OA 
HETATM   15  N   UNL     1      -8.767  13.079  66.815  1.00  0.00    -0.394 N  
HETATM   16  H   UNL     1      -8.619  13.741  66.054  1.00  0.00     0.000 HD 
BRANCH  15  17
HETATM   17  C   UNL     1      -8.564  11.668  66.497  1.00  0.00    -0.164 C  
BRANCH  17  18
HETATM   18  C   UNL     1      -7.184  11.123  66.927  1.00  0.00    -0.138 C  
BRANCH  18  19
HETATM   19  C   UNL     1      -6.960  10.305  68.225  1.00  0.00    -0.073 C  
HETATM   20  O   UNL     1      -5.637   9.760  68.219  1.00  0.00    -0.040 OA 
HETATM   21  H   UNL     1      -5.500   9.259  69.014  1.00  0.00     0.000 HD 
BRANCH  19  22
HETATM   22  C   UNL     1      -7.975   9.100  68.316  1.00  0.00    -0.103 C  
BRANCH  22  23
HETATM   23  N   UNL     1      -9.355   9.501  68.772  1.00  0.00    -0.145 N  
HETATM   24  C   UNL     1     -10.047   9.621  69.959  1.00  0.00    -0.252 C  
HETATM   25  H   UNL     1      -9.943   9.756  67.979  1.00  0.00     0.000 HD 
HETATM   26  O   UNL     1     -11.114  10.241  69.950  1.00  0.00    -0.261 OA 
BRANCH  24  27
HETATM   27  C   UNL     1      -9.557   8.899  71.226  1.00  0.00    -0.278 C  
BRANCH  27  28
HETATM   28  O   UNL     1     -10.401   8.618  72.331  1.00  0.00    -0.319 OA 
BRANCH  28  29
HETATM   29  C   UNL     1     -10.285   7.385  72.957  1.00  0.00    -0.286 A  
HETATM   30  C   UNL     1      -8.096   7.710  74.416  1.00  0.00    -0.256 C  
HETATM   31  C   UNL     1      -9.311   6.977  73.905  1.00  0.00    -0.264 A  
HETATM   32  C   UNL     1      -9.449   5.709  74.521  1.00  0.00    -0.157 A  
HETATM   33  C   UNL     1     -10.487   4.842  74.217  1.00  0.00    -0.336 A  
HETATM   34  C   UNL     1     -11.417   5.217  73.263  1.00  0.00    -0.302 A  
HETATM   35  C   UNL     1     -11.327   6.467  72.620  1.00  0.00    -0.259 A  
HETATM   36  C   UNL     1     -12.372   6.766  71.573  1.00  0.00    -0.407 C  
ENDBRANCH  28  29
ENDBRANCH  27  28
ENDBRANCH  24  27
ENDBRANCH  22  23
BRANCH  22  37
HETATM   37  C   UNL     1      -7.870   8.129  67.108  1.00  0.00    -0.101 C  
BRANCH  37  38
HETATM   38  C   UNL     1      -7.014   6.919  67.361  1.00  0.00    -0.079 A  
HETATM   39  C   UNL     1      -5.607   4.525  67.728  1.00  0.00    -0.017 A  
HETATM   40  C   UNL     1      -7.111   6.220  68.567  1.00  0.00    -0.083 A  
HETATM   41  C   UNL     1      -5.451   5.252  66.555  1.00  0.00    -0.013 A  
HETATM   42  C   UNL     1      -6.113   6.466  66.398  1.00  0.00    -0.033 A  
HETATM   43  C   UNL     1      -6.410   5.030  68.749  1.00  0.00    -0.035 A  
ENDBRANCH  37  38
ENDBRANCH  22  37
ENDBRANCH  19  22
ENDBRANCH  18  19
ENDBRANCH  17  18
BRANCH  17  44
HETATM   44  C   UNL     1      -9.110  11.250  65.114  1.00  0.00    -0.115 C  
BRANCH  44  45
HETATM   45  C   UNL     1     -10.479  11.825  64.803  1.00  0.00    -0.341 A  
HETATM   46  C   UNL     1     -11.274  12.405  65.806  1.00  0.00    -0.370 A  
HETATM   47  C   UNL     1     -10.989  11.761  63.501  1.00  0.00    -0.499 A  
HETATM   48  C   UNL     1     -12.562  12.870  65.515  1.00  0.00    -0.359 A  
HETATM   49  C   UNL     1     -12.274  12.230  63.211  1.00  0.00    -0.528 A  
HETATM   50  C   UNL     1     -13.064  12.775  64.219  1.00  0.00     0.034 A  
ENDBRANCH  44  45
ENDBRANCH  17  44
ENDBRANCH  15  17
ENDBRANCH   3  13
TORSDOF 14
ENDMDL
MODEL      236
REMARK 921   NORMALIZED FREE ENERGY PREDICTED BY IDOCK:   -3.40 KCAL/MOL
REMARK 922        TOTAL FREE ENERGY PREDICTED BY IDOCK:  -10.74 KCAL/MOL
REMARK 923 INTER-LIGAND FREE ENERGY PREDICTED BY IDOCK:   -9.39 KCAL/MOL
REMARK 924 INTRA-LIGAND FREE ENERGY PREDICTED BY IDOCK:   -1.34 KCAL/MOL
REMARK 927      BINDING AFFINITY PREDICTED BY RF-SCORE:    0.00 PKD
ROOT
HETATM    1  C   UNL     1      -5.189   3.978  68.058  1.00  0.00    -0.008 C  
HETATM    2  C   UNL     1      -6.042   5.236  67.830  1.00  0.00    -0.026 C  
HETATM    3  C   UNL     1      -7.556   4.876  67.727  1.00  0.00    -0.083 C  
HETATM    4  C   UNL     1      -5.718   6.248  68.931  1.00  0.00    -0.019 C  
ENDROOT
BRANCH   3   5
HETATM    5  N   UNL     1      -7.824   3.973  66.583  1.00  0.00    -0.092 N  
HETATM    6  H   UNL     1      -9.283   1.172  65.844  1.00  0.00     0.000 HD 
HETATM    7  O   UNL     1      -9.425   2.752  67.700  1.00  0.00    -0.204 OA 
HETATM    8  C   UNL     1      -7.286   4.273  65.262  1.00  0.00    -0.072 C  
HETATM    9  C   UNL     1      -8.691   2.911  66.730  1.00  0.00    -0.128 C  
HETATM   10  C   UNL     1      -6.700   3.007  64.667  1.00  0.00    -0.040 C  
HETATM   11  N   UNL     1      -8.657   1.970  65.740  1.00  0.00    -0.106 N  
HETATM   12  C   UNL     1      -7.821   1.995  64.558  1.00  0.00    -0.069 C  
ENDBRANCH   3   5
BRANCH   3  13
HETATM   13  C   UNL     1      -8.455   6.150  67.712  1.00  0.00    -0.115 C  
HETATM   14  O   UNL     1      -8.495   6.940  66.774  1.00  0.00    -0.113 OA 
HETATM   15  N   UNL     1      -9.150   6.377  68.883  1.00  0.00    -0.130 N  
HETATM   16  H   UNL     1      -9.074   5.659  69.602  1.00  0.00     0.000 HD 
BRANCH  15  17
HETATM   17  C   UNL     1      -9.982   7.535  69.205  1.00  0.00    -0.179 C  
BRANCH  17  18
HETATM   18  C   UNL     1      -9.228   8.882  69.145  1.00  0.00    -0.144 C  
BRANCH  18  19
HETATM   19  C   UNL     1      -9.922  10.253  69.347  1.00  0.00    -0.233 C  
HETATM   20  O   UNL     1     -11.323  10.048  69.555  1.00  0.00    -0.315 OA 
HETATM   21  H   UNL     1     -11.748  10.889  69.679  1.00  0.00     0.000 HD 
BRANCH  19  22
HETATM   22  C   UNL     1      -9.755  11.165  68.069  1.00  0.00    -0.176 C  
BRANCH  22  23
HETATM   23  N   UNL     1      -8.723  12.252  68.229  1.00  0.00    -0.195 N  
HETATM   24  C   UNL     1      -8.593  13.592  67.933  1.00  0.00    -0.182 C  
HETATM   25  H   UNL     1      -7.884  11.895  68.686  1.00  0.00     0.000 HD 
HETATM   26  O   UNL     1      -7.671  14.219  68.464  1.00  0.00    -0.124 OA 
BRANCH  24  27
HETATM   27  C   UNL     1      -9.499  14.252  66.880  1.00  0.00    -0.263 C  
BRANCH  27  28
HETATM   28  O   UNL     1     -10.743  14.855  67.198  1.00  0.00    -0.284 OA 
BRANCH  28  29
HETATM   29  C   UNL     1     -10.932  15.349  68.481  1.00  0.00    -0.278 A  
HETATM   30  C   UNL     1      -9.529  17.598  68.418  1.00  0.00    -0.298 C  
HETATM   31  C   UNL     1     -10.447  16.567  69.025  1.00  0.00    -0.303 A  
HETATM   32  C   UNL     1     -10.863  16.945  70.325  1.00  0.00     0.219 A  
HETATM   33  C   UNL     1     -11.709  16.161  71.094  1.00  0.00    -0.454 A  
HETATM   34  C   UNL     1     -12.152  14.953  70.585  1.00  0.00    -0.366 A  
HETATM   35  C   UNL     1     -11.768  14.528  69.298  1.00  0.00    -0.350 A  
HETATM   36  C   UNL     1     -12.280  13.181  68.849  1.00  0.00    -0.097 C  
ENDBRANCH  28  29
ENDBRANCH  27  28
ENDBRANCH  24  27
ENDBRANCH  22  23
BRANCH  22  37
HETATM   37  C   UNL     1      -9.747  10.354  66.745  1.00  0.00    -0.224 C  
BRANCH  37  38
HETATM   38  C   UNL     1     -10.392  11.059  65.584  1.00  0.00    -0.311 A  
HETATM   39  C   UNL     1     -11.737  12.163  63.389  1.00  0.00    -0.533 A  
HETATM   40  C   UNL     1      -9.860  10.943  64.298  1.00  0.00    -0.365 A  
HETATM   41  C   UNL     1     -12.234  12.344  64.674  1.00  0.00    -0.499 A  
HETATM   42  C   UNL     1     -11.536  11.836  65.766  1.00  0.00    -0.194 A  
HETATM   43  C   UNL     1     -10.529  11.493  63.207  1.00  0.00    -0.421 A  
ENDBRANCH  37  38
ENDBRANCH  22  37
ENDBRANCH  19  22
ENDBRANCH  18  19
ENDBRANCH  17  18
BRANCH  17  44
HETATM   44  C   UNL     1     -10.957   7.300  70.379  1.00  0.00    -0.273 C  
BRANCH  44  45
HETATM   45  C   UNL     1     -10.274   6.846  71.656  1.00  0.00    -0.205 A  
HETATM   46  C   UNL     1     -10.680   7.325  72.912  1.00  0.00    -0.365 A  
HETATM   47  C   UNL     1      -9.199   5.951  71.598  1.00  0.00    -0.156 A  
HETATM   48  C   UNL     1      -9.997   6.948  74.074  1.00  0.00    -0.371 A  
HETATM   49  C   UNL     1      -8.521   5.572  72.760  1.00  0.00    -0.120 A  
HETATM   50  C   UNL     1      -8.913   6.077  73.996  1.00  0.00    -0.127 A  
ENDBRANCH  44  45
ENDBRANCH  17  44
ENDBRANCH  15  17
ENDBRANCH   3  13
TORSDOF 14
ENDMDL
MODEL      237
REMARK 921   NORMALIZED FREE ENERGY PREDICTED BY IDOCK:   -3.39 KCAL/MOL
REMARK 922        TOTAL FREE ENERGY PREDICTED BY IDOCK:  -10.72 KCAL/MOL
REMARK 923 INTER-LIGAND FREE ENERGY PREDICTED BY IDOCK:   -9.64 KCAL/MOL
REMARK 924 INTRA-LIGAND FREE ENERGY PREDICTED BY IDOCK:   -1.08 KCAL/MOL
REMARK 927      BINDING AFFINITY PREDICTED BY RF-SCORE:    0.00 PKD
ROOT
HETATM    1  C   UNL     1     -12.124  16.261  68.618  1.00  0.00     0.389 C  
HETATM    2  C   UNL     1     -11.428  14.915  68.364  1.00  0.00    -0.338 C  
HETATM    3  C   UNL     1     -12.125  13.765  69.154  1.00  0.00    -0.333 C  
HETATM    4  C   UNL     1     -11.365  14.678  66.854  1.00  0.00    -0.361 C  
ENDROOT
BRANCH   3   5
HETATM    5  N   UNL     1     -12.068  13.998  70.617  1.00  0.00    -0.346 N  
HETATM    6  H   UNL     1     -13.542  13.160  73.383  1.00  0.00     0.000 HD 
HETATM    7  O   UNL     1     -13.457  12.233  71.125  1.00  0.00     0.152 OA 
HETATM    8  C   UNL     1     -11.099  14.929  71.180  1.00  0.00    -0.057 C  
HETATM    9  C   UNL     1     -12.844  13.240  71.468  1.00  0.00    -0.327 C  
HETATM   10  C   UNL     1     -11.793  15.804  72.207  1.00  0.00    -0.598 C  
HETATM   11  N   UNL     1     -12.958  13.704  72.747  1.00  0.00    -0.295 N  
HETATM   12  C   UNL     1     -12.332  14.892  73.290  1.00  0.00    -0.376 C  
ENDBRANCH   3   5
BRANCH   3  13
HETATM   13  C   UNL     1     -11.575  12.363  68.746  1.00  0.00    -0.326 C  
HETATM   14  O   UNL     1     -12.285  11.374  68.602  1.00  0.00    -0.532 OA 
HETATM   15  N   UNL     1     -10.201  12.293  68.643  1.00  0.00    -0.338 N  
HETATM   16  H   UNL     1      -9.691  13.169  68.761  1.00  0.00     0.000 HD 
BRANCH  15  17
HETATM   17  C   UNL     1      -9.395  11.102  68.385  1.00  0.00    -0.185 C  
BRANCH  17  18
HETATM   18  C   UNL     1      -9.003  10.324  69.661  1.00  0.00    -0.140 C  
BRANCH  18  19
HETATM   19  C   UNL     1      -7.906   9.229  69.686  1.00  0.00    -0.090 C  
HETATM   20  O   UNL     1      -6.774   9.678  68.934  1.00  0.00    -0.047 OA 
HETATM   21  H   UNL     1      -6.102   9.007  68.949  1.00  0.00     0.000 HD 
BRANCH  19  22
HETATM   22  C   UNL     1      -8.425   7.894  69.022  1.00  0.00    -0.131 C  
BRANCH  22  23
HETATM   23  N   UNL     1      -7.550   7.394  67.900  1.00  0.00    -0.111 N  
HETATM   24  C   UNL     1      -7.700   6.957  66.602  1.00  0.00    -0.105 C  
HETATM   25  H   UNL     1      -6.571   7.372  68.182  1.00  0.00     0.000 HD 
HETATM   26  O   UNL     1      -6.691   6.869  65.897  1.00  0.00    -0.050 OA 
BRANCH  24  27
HETATM   27  C   UNL     1      -9.070   6.482  66.089  1.00  0.00    -0.124 C  
BRANCH  27  28
HETATM   28  O   UNL     1      -9.739   5.343  66.608  1.00  0.00    -0.139 OA 
BRANCH  28  29
HETATM   29  C   UNL     1      -9.335   4.086  66.179  1.00  0.00    -0.171 A  
HETATM   30  C   UNL     1      -9.872   4.190  63.585  1.00  0.00    -0.100 C  
HETATM   31  C   UNL     1      -9.344   3.573  64.856  1.00  0.00    -0.153 A  
HETATM   32  C   UNL     1      -8.767   2.302  64.614  1.00  0.00    -0.102 A  
HETATM   33  C   UNL     1      -8.214   1.531  65.625  1.00  0.00    -0.083 A  
HETATM   34  C   UNL     1      -8.239   2.008  66.924  1.00  0.00    -0.081 A  
HETATM   35  C   UNL     1      -8.802   3.266  67.219  1.00  0.00    -0.153 A  
HETATM   36  C   UNL     1      -8.808   3.679  68.671  1.00  0.00    -0.159 C  
ENDBRANCH  28  29
ENDBRANCH  27  28
ENDBRANCH  24  27
ENDBRANCH  22  23
BRANCH  22  37
HETATM   37  C   UNL     1      -8.926   6.856  70.063  1.00  0.00    -0.142 C  
BRANCH  37  38
HETATM   38  C   UNL     1     -10.230   7.219  70.719  1.00  0.00    -0.204 A  
HETATM   39  C   UNL     1     -12.636   7.677  72.077  1.00  0.00    -0.282 A  
HETATM   40  C   UNL     1     -11.443   6.799  70.168  1.00  0.00    -0.404 A  
HETATM   41  C   UNL     1     -11.441   8.161  72.594  1.00  0.00    -0.454 A  
HETATM   42  C   UNL     1     -10.254   7.974  71.891  1.00  0.00    -0.275 A  
HETATM   43  C   UNL     1     -12.639   7.028  70.844  1.00  0.00    -0.273 A  
ENDBRANCH  37  38
ENDBRANCH  22  37
ENDBRANCH  19  22
ENDBRANCH  18  19
ENDBRANCH  17  18
BRANCH  17  44
HETATM   44  C   UNL     1      -8.319  11.295  67.294  1.00  0.00    -0.145 C  
BRANCH  44  45
HETATM   45  C   UNL     1      -8.871  11.253  65.882  1.00  0.00    -0.174 A  
HETATM   46  C   UNL     1      -9.840  12.174  65.448  1.00  0.00    -0.231 A  
HETATM   47  C   UNL     1      -8.438  10.269  64.986  1.00  0.00    -0.177 A  
HETATM   48  C   UNL     1     -10.388  12.080  64.164  1.00  0.00    -0.381 A  
HETATM   49  C   UNL     1      -8.983  10.180  63.702  1.00  0.00    -0.269 A  
HETATM   50  C   UNL     1      -9.964  11.078  63.293  1.00  0.00    -0.414 A  
ENDBRANCH  44  45
ENDBRANCH  17  44
ENDBRANCH  15  17
ENDBRANCH   3  13
TORSDOF 14
ENDMDL
MODEL      238
REMARK 921   NORMALIZED FREE ENERGY PREDICTED BY IDOCK:   -3.38 KCAL/MOL
REMARK 922        TOTAL FREE ENERGY PREDICTED BY IDOCK:  -10.71 KCAL/MOL
REMARK 923 INTER-LIGAND FREE ENERGY PREDICTED BY IDOCK:   -8.05 KCAL/MOL
REMARK 924 INTRA-LIGAND FREE ENERGY PREDICTED BY IDOCK:   -2.66 KCAL/MOL
REMARK 927      BINDING AFFINITY PREDICTED BY RF-SCORE:    0.00 PKD
ROOT
HETATM    1  C   UNL     1     -11.992  12.346  65.945  1.00  0.00    -0.434 C  
HETATM    2  C   UNL     1     -10.693  12.026  66.702  1.00  0.00    -0.280 C  
HETATM    3  C   UNL     1      -9.450  12.184  65.774  1.00  0.00    -0.147 C  
HETATM    4  C   UNL     1     -10.640  12.893  67.962  1.00  0.00    -0.238 C  
ENDROOT
BRANCH   3   5
HETATM    5  N   UNL     1      -9.507  11.250  64.624  1.00  0.00    -0.216 N  
HETATM    6  H   UNL     1      -9.250   8.100  63.893  1.00  0.00     0.000 HD 
HETATM    7  O   UNL     1      -9.657   9.367  65.941  1.00  0.00    -0.232 OA 
HETATM    8  C   UNL     1      -9.701  11.754  63.270  1.00  0.00    -0.324 C  
HETATM    9  C   UNL     1      -9.508   9.889  64.840  1.00  0.00    -0.291 C  
HETATM   10  C   UNL     1      -8.729  11.057  62.338  1.00  0.00    -0.356 C  
HETATM   11  N   UNL     1      -9.267   9.109  63.744  1.00  0.00     0.179 N  
HETATM   12  C   UNL     1      -9.034   9.574  62.393  1.00  0.00    -0.265 C  
ENDBRANCH   3   5
BRANCH   3  13
HETATM   13  C   UNL     1      -8.113  12.075  66.570  1.00  0.00     0.055 C  
HETATM   14  O   UNL     1      -7.253  11.233  66.337  1.00  0.00    -0.126 OA 
HETATM   15  N   UNL     1      -8.004  12.952  67.631  1.00  0.00    -0.154 N  
HETATM   16  H   UNL     1      -8.757  13.631  67.738  1.00  0.00     0.000 HD 
BRANCH  15  17
HETATM   17  C   UNL     1      -6.926  13.015  68.616  1.00  0.00    -0.102 C  
BRANCH  17  18
HETATM   18  C   UNL     1      -7.026  11.939  69.719  1.00  0.00     0.226 C  
BRANCH  18  19
HETATM   19  C   UNL     1      -6.206  10.623  69.700  1.00  0.00    -0.069 C  
HETATM   20  O   UNL     1      -5.253  10.676  68.634  1.00  0.00    -0.042 OA 
HETATM   21  H   UNL     1      -4.750   9.870  68.621  1.00  0.00     0.000 HD 
BRANCH  19  22
HETATM   22  C   UNL     1      -7.142   9.378  69.445  1.00  0.00    -0.054 C  
BRANCH  22  23
HETATM   23  N   UNL     1      -6.801   8.178  70.293  1.00  0.00    -0.037 N  
HETATM   24  C   UNL     1      -6.229   6.935  70.124  1.00  0.00    -0.031 C  
HETATM   25  H   UNL     1      -7.068   8.329  71.265  1.00  0.00     0.000 HD 
HETATM   26  O   UNL     1      -5.877   6.315  71.132  1.00  0.00    -0.025 OA 
BRANCH  24  27
HETATM   27  C   UNL     1      -6.144   6.295  68.728  1.00  0.00    -0.028 C  
BRANCH  27  28
HETATM   28  O   UNL     1      -6.950   5.199  68.329  1.00  0.00    -0.058 OA 
BRANCH  28  29
HETATM   29  C   UNL     1      -8.310   5.408  68.145  1.00  0.00    -0.098 A  
HETATM   30  C   UNL     1      -9.235   5.243  70.624  1.00  0.00    -0.187 C  
HETATM   31  C   UNL     1      -9.323   5.475  69.137  1.00  0.00    -0.158 A  
HETATM   32  C   UNL     1     -10.638   5.826  68.744  1.00  0.00    -0.321 A  
HETATM   33  C   UNL     1     -10.977   6.087  67.426  1.00  0.00    -0.344 A  
HETATM   34  C   UNL     1     -10.003   5.983  66.449  1.00  0.00    -0.145 A  
HETATM   35  C   UNL     1      -8.679   5.637  66.784  1.00  0.00    -0.115 A  
HETATM   36  C   UNL     1      -7.700   5.520  65.641  1.00  0.00    -0.088 C  
ENDBRANCH  28  29
ENDBRANCH  27  28
ENDBRANCH  24  27
ENDBRANCH  22  23
BRANCH  22  37
HETATM   37  C   UNL     1      -8.640   9.764  69.315  1.00  0.00    -0.158 C  
BRANCH  37  38
HETATM   38  C   UNL     1      -9.530   9.154  70.363  1.00  0.00    -0.269 A  
HETATM   39  C   UNL     1     -11.250   8.257  72.382  1.00  0.00    -0.451 A  
HETATM   40  C   UNL     1      -9.038   8.889  71.644  1.00  0.00    -0.280 A  
HETATM   41  C   UNL     1     -11.730   8.450  71.093  1.00  0.00    -0.315 A  
HETATM   42  C   UNL     1     -10.860   8.848  70.082  1.00  0.00    -0.251 A  
HETATM   43  C   UNL     1      -9.895   8.442  72.647  1.00  0.00    -0.329 A  
ENDBRANCH  37  38
ENDBRANCH  22  37
ENDBRANCH  19  22
ENDBRANCH  18  19
ENDBRANCH  17  18
BRANCH  17  44
HETATM   44  C   UNL     1      -6.541  14.451  69.034  1.00  0.00    -0.103 C  
BRANCH  44  45
HETATM   45  C   UNL     1      -7.271  15.528  68.255  1.00  0.00    -0.118 A  
HETATM   46  C   UNL     1      -8.554  15.959  68.630  1.00  0.00    -0.198 A  
HETATM   47  C   UNL     1      -6.680  16.099  67.121  1.00  0.00    -0.227 A  
HETATM   48  C   UNL     1      -9.241  16.906  67.862  1.00  0.00    -0.234 A  
HETATM   49  C   UNL     1      -7.366  17.047  66.358  1.00  0.00    -0.328 A  
HETATM   50  C   UNL     1      -8.650  17.444  66.722  1.00  0.00    -0.284 A  
ENDBRANCH  44  45
ENDBRANCH  17  44
ENDBRANCH  15  17
ENDBRANCH   3  13
TORSDOF 14
ENDMDL
MODEL      239
REMARK 921   NORMALIZED FREE ENERGY PREDICTED BY IDOCK:   -3.35 KCAL/MOL
REMARK 922        TOTAL FREE ENERGY PREDICTED BY IDOCK:  -10.64 KCAL/MOL
REMARK 923 INTER-LIGAND FREE ENERGY PREDICTED BY IDOCK:   -8.88 KCAL/MOL
REMARK 924 INTRA-LIGAND FREE ENERGY PREDICTED BY IDOCK:   -1.76 KCAL/MOL
REMARK 927      BINDING AFFINITY PREDICTED BY RF-SCORE:    0.00 PKD
ROOT
HETATM    1  C   UNL     1      -7.797   6.264  74.250  1.00  0.00    -0.098 C  
HETATM    2  C   UNL     1      -7.028   7.182  73.287  1.00  0.00    -0.072 C  
HETATM    3  C   UNL     1      -8.006   7.985  72.375  1.00  0.00    -0.128 C  
HETATM    4  C   UNL     1      -6.084   8.063  74.108  1.00  0.00    -0.101 C  
ENDROOT
BRANCH   3   5
HETATM    5  N   UNL     1      -8.825   7.083  71.531  1.00  0.00    -0.128 N  
HETATM    6  H   UNL     1     -11.902   6.483  70.695  1.00  0.00     0.000 HD 
HETATM    7  O   UNL     1     -10.724   8.375  71.692  1.00  0.00    -0.231 OA 
HETATM    8  C   UNL     1      -8.199   6.007  70.773  1.00  0.00    -0.125 C  
HETATM    9  C   UNL     1     -10.169   7.335  71.353  1.00  0.00    -0.188 C  
HETATM   10  C   UNL     1      -9.016   4.740  70.945  1.00  0.00    -0.160 C  
HETATM   11  N   UNL     1     -10.903   6.315  70.818  1.00  0.00    -0.264 N  
HETATM   12  C   UNL     1     -10.404   5.019  70.407  1.00  0.00    -0.227 C  
ENDBRANCH   3   5
BRANCH   3  13
HETATM   13  C   UNL     1      -7.263   9.076  71.545  1.00  0.00    -0.007 C  
HETATM   14  O   UNL     1      -6.293   9.700  71.962  1.00  0.00    -0.297 OA 
HETATM   15  N   UNL     1      -7.836   9.356  70.321  1.00  0.00    -0.138 N  
HETATM   16  H   UNL     1      -8.628   8.775  70.046  1.00  0.00     0.000 HD 
BRANCH  15  17
HETATM   17  C   UNL     1      -7.433  10.395  69.375  1.00  0.00    -0.135 C  
BRANCH  17  18
HETATM   18  C   UNL     1      -7.959  10.171  67.940  1.00  0.00    -0.101 C  
BRANCH  18  19
HETATM   19  C   UNL     1      -9.444   9.865  67.617  1.00  0.00    -0.147 C  
HETATM   20  O   UNL     1     -10.168   9.695  68.839  1.00  0.00    -0.186 OA 
HETATM   21  H   UNL     1     -11.079   9.507  68.642  1.00  0.00     0.000 HD 
BRANCH  19  22
HETATM   22  C   UNL     1      -9.579   8.528  66.789  1.00  0.00    -0.210 C  
BRANCH  22  23
HETATM   23  N   UNL     1      -8.950   8.595  65.420  1.00  0.00    -0.346 N  
HETATM   24  C   UNL     1      -8.930   9.457  64.345  1.00  0.00    -0.169 C  
HETATM   25  H   UNL     1      -8.378   7.771  65.239  1.00  0.00     0.000 HD 
HETATM   26  O   UNL     1      -8.071   9.283  63.475  1.00  0.00    -0.136 OA 
BRANCH  24  27
HETATM   27  C   UNL     1     -10.023  10.526  64.178  1.00  0.00    -0.318 C  
BRANCH  27  28
HETATM   28  O   UNL     1      -9.765  11.918  64.270  1.00  0.00    -0.210 OA 
BRANCH  28  29
HETATM   29  C   UNL     1     -10.542  12.680  65.131  1.00  0.00    -0.298 A  
HETATM   30  C   UNL     1      -8.786  13.365  66.996  1.00  0.00    -0.217 C  
HETATM   31  C   UNL     1     -10.128  13.359  66.307  1.00  0.00    -0.299 A  
HETATM   32  C   UNL     1     -11.058  14.192  66.976  1.00  0.00    -0.314 A  
HETATM   33  C   UNL     1     -12.363  14.352  66.538  1.00  0.00    -0.272 A  
HETATM   34  C   UNL     1     -12.785  13.661  65.416  1.00  0.00    -0.500 A  
HETATM   35  C   UNL     1     -11.901  12.819  64.713  1.00  0.00    -0.423 A  
HETATM   36  C   UNL     1     -12.468  12.086  63.521  1.00  0.00    -0.654 C  
ENDBRANCH  28  29
ENDBRANCH  27  28
ENDBRANCH  24  27
ENDBRANCH  22  23
BRANCH  22  37
HETATM   37  C   UNL     1      -9.311   7.258  67.643  1.00  0.00    -0.139 C  
BRANCH  37  38
HETATM   38  C   UNL     1      -9.237   5.984  66.849  1.00  0.00    -0.131 A  
HETATM   39  C   UNL     1      -9.125   3.483  65.592  1.00  0.00    -0.149 A  
HETATM   40  C   UNL     1      -8.005   5.374  66.597  1.00  0.00    -0.105 A  
HETATM   41  C   UNL     1     -10.347   4.117  65.775  1.00  0.00    -0.091 A  
HETATM   42  C   UNL     1     -10.394   5.381  66.356  1.00  0.00    -0.298 A  
HETATM   43  C   UNL     1      -7.951   4.131  65.971  1.00  0.00    -0.094 A  
ENDBRANCH  37  38
ENDBRANCH  22  37
ENDBRANCH  19  22
ENDBRANCH  18  19
ENDBRANCH  17  18
BRANCH  17  44
HETATM   44  C   UNL     1      -5.975  10.871  69.548  1.00  0.00    -0.054 C  
BRANCH  44  45
HETATM   45  C   UNL     1      -5.819  12.379  69.512  1.00  0.00    -0.101 A  
HETATM   46  C   UNL     1      -5.909  13.152  70.682  1.00  0.00    -0.143 A  
HETATM   47  C   UNL     1      -5.606  13.036  68.294  1.00  0.00    -0.081 A  
HETATM   48  C   UNL     1      -5.830  14.547  70.623  1.00  0.00    -0.179 A  
HETATM   49  C   UNL     1      -5.522  14.430  68.237  1.00  0.00    -0.114 A  
HETATM   50  C   UNL     1      -5.643  15.187  69.399  1.00  0.00    -0.097 A  
ENDBRANCH  44  45
ENDBRANCH  17  44
ENDBRANCH  15  17
ENDBRANCH   3  13
TORSDOF 14
ENDMDL
MODEL      240
REMARK 921   NORMALIZED FREE ENERGY PREDICTED BY IDOCK:   -3.31 KCAL/MOL
REMARK 922        TOTAL FREE ENERGY PREDICTED BY IDOCK:  -10.57 KCAL/MOL
REMARK 923 INTER-LIGAND FREE ENERGY PREDICTED BY IDOCK:   -7.77 KCAL/MOL
REMARK 924 INTRA-LIGAND FREE ENERGY PREDICTED BY IDOCK:   -2.80 KCAL/MOL
REMARK 927      BINDING AFFINITY PREDICTED BY RF-SCORE:    0.00 PKD
ROOT
HETATM    1  C   UNL     1      -6.738  18.688  65.813  1.00  0.00    -0.311 C  
HETATM    2  C   UNL     1      -6.777  17.579  66.877  1.00  0.00    -0.220 C  
HETATM    3  C   UNL     1      -8.146  16.832  66.859  1.00  0.00    -0.211 C  
HETATM    4  C   UNL     1      -5.569  16.664  66.668  1.00  0.00     0.079 C  
ENDROOT
BRANCH   3   5
HETATM    5  N   UNL     1      -9.270  17.748  67.165  1.00  0.00    -0.249 N  
HETATM    6  H   UNL     1     -11.861  19.138  65.796  1.00  0.00     0.000 HD 
HETATM    7  O   UNL     1     -10.442  17.226  65.253  1.00  0.00    -0.661 OA 
HETATM    8  C   UNL     1      -9.384  18.365  68.481  1.00  0.00    -0.335 C  
HETATM    9  C   UNL     1     -10.286  17.924  66.251  1.00  0.00    -0.364 C  
HETATM   10  C   UNL     1      -9.714  19.836  68.312  1.00  0.00    -0.499 C  
HETATM   11  N   UNL     1     -11.114  18.988  66.473  1.00  0.00     0.004 N  
HETATM   12  C   UNL     1     -11.035  19.923  67.576  1.00  0.00    -0.074 C  
ENDBRANCH   3   5
BRANCH   3  13
HETATM   13  C   UNL     1      -8.131  15.571  67.776  1.00  0.00    -0.141 C  
HETATM   14  O   UNL     1      -8.569  15.561  68.921  1.00  0.00    -0.175 OA 
HETATM   15  N   UNL     1      -7.501  14.471  67.230  1.00  0.00    -0.288 N  
HETATM   16  H   UNL     1      -7.184  14.561  66.265  1.00  0.00     0.000 HD 
BRANCH  15  17
HETATM   17  C   UNL     1      -7.236  13.191  67.883  1.00  0.00    -0.133 C  
BRANCH  17  18
HETATM   18  C   UNL     1      -8.509  12.462  68.367  1.00  0.00    -0.131 C  
BRANCH  18  19
HETATM   19  C   UNL     1      -9.579  11.887  67.402  1.00  0.00    -0.174 C  
HETATM   20  O   UNL     1     -10.882  12.173  67.917  1.00  0.00    -0.203 OA 
HETATM   21  H   UNL     1     -11.538  11.821  67.326  1.00  0.00     0.000 HD 
BRANCH  19  22
HETATM   22  C   UNL     1      -9.444  10.319  67.280  1.00  0.00    -0.150 C  
BRANCH  22  23
HETATM   23  N   UNL     1      -9.103   9.846  65.889  1.00  0.00    -0.154 N  
HETATM   24  C   UNL     1      -8.826   8.655  65.252  1.00  0.00    -0.135 C  
HETATM   25  H   UNL     1      -9.066  10.627  65.235  1.00  0.00     0.000 HD 
HETATM   26  O   UNL     1      -8.844   8.637  64.018  1.00  0.00     0.001 OA 
BRANCH  24  27
HETATM   27  C   UNL     1      -8.390   7.419  66.058  1.00  0.00    -0.143 C  
BRANCH  27  28
HETATM   28  O   UNL     1      -9.289   6.396  66.454  1.00  0.00    -0.159 OA 
BRANCH  28  29
HETATM   29  C   UNL     1      -8.770   5.241  67.023  1.00  0.00    -0.107 A  
HETATM   30  C   UNL     1      -8.607   5.914  69.583  1.00  0.00    -0.121 C  
HETATM   31  C   UNL     1      -8.504   4.991  68.394  1.00  0.00    -0.094 A  
HETATM   32  C   UNL     1      -8.092   3.692  68.782  1.00  0.00    -0.073 A  
HETATM   33  C   UNL     1      -7.920   2.662  67.870  1.00  0.00    -0.062 A  
HETATM   34  C   UNL     1      -8.139   2.911  66.526  1.00  0.00    -0.082 A  
HETATM   35  C   UNL     1      -8.549   4.186  66.087  1.00  0.00    -0.113 A  
HETATM   36  C   UNL     1      -8.730   4.362  64.599  1.00  0.00    -0.142 C  
ENDBRANCH  28  29
ENDBRANCH  27  28
ENDBRANCH  24  27
ENDBRANCH  22  23
BRANCH  22  37
HETATM   37  C   UNL     1      -8.671   9.684  68.467  1.00  0.00    -0.120 C  
BRANCH  37  38
HETATM   38  C   UNL     1      -9.526   9.371  69.664  1.00  0.00    -0.200 A  
HETATM   39  C   UNL     1     -11.061   8.542  71.855  1.00  0.00    -0.395 A  
HETATM   40  C   UNL     1     -10.893   9.125  69.516  1.00  0.00    -0.194 A  
HETATM   41  C   UNL     1      -9.718   8.855  72.023  1.00  0.00    -0.304 A  
HETATM   42  C   UNL     1      -8.971   9.314  70.942  1.00  0.00    -0.273 A  
HETATM   43  C   UNL     1     -11.656   8.713  70.606  1.00  0.00    -0.225 A  
ENDBRANCH  37  38
ENDBRANCH  22  37
ENDBRANCH  19  22
ENDBRANCH  18  19
ENDBRANCH  17  18
BRANCH  17  44
HETATM   44  C   UNL     1      -6.008  13.204  68.818  1.00  0.00    -0.076 C  
BRANCH  44  45
HETATM   45  C   UNL     1      -5.667  11.842  69.394  1.00  0.00    -0.073 A  
HETATM   46  C   UNL     1      -5.385  10.746  68.562  1.00  0.00    -0.040 A  
HETATM   47  C   UNL     1      -5.655  11.649  70.780  1.00  0.00    -0.113 A  
HETATM   48  C   UNL     1      -5.138   9.482  69.108  1.00  0.00    -0.036 A  
HETATM   49  C   UNL     1      -5.404  10.386  71.324  1.00  0.00    -0.074 A  
HETATM   50  C   UNL     1      -5.155   9.300  70.489  1.00  0.00    -0.027 A  
ENDBRANCH  44  45
ENDBRANCH  17  44
ENDBRANCH  15  17
ENDBRANCH   3  13
TORSDOF 14
ENDMDL
MODEL      241
REMARK 921   NORMALIZED FREE ENERGY PREDICTED BY IDOCK:   -3.31 KCAL/MOL
REMARK 922        TOTAL FREE ENERGY PREDICTED BY IDOCK:  -10.56 KCAL/MOL
REMARK 923 INTER-LIGAND FREE ENERGY PREDICTED BY IDOCK:   -7.16 KCAL/MOL
REMARK 924 INTRA-LIGAND FREE ENERGY PREDICTED BY IDOCK:   -3.40 KCAL/MOL
REMARK 927      BINDING AFFINITY PREDICTED BY RF-SCORE:    0.00 PKD
ROOT
HETATM    1  C   UNL     1     -11.111  16.895  64.240  1.00  0.00     0.970 C  
HETATM    2  C   UNL     1     -10.659  15.886  65.307  1.00  0.00    -0.441 C  
HETATM    3  C   UNL     1     -10.552  16.561  66.709  1.00  0.00    -0.224 C  
HETATM    4  C   UNL     1     -11.604  14.683  65.269  1.00  0.00    -0.354 C  
ENDROOT
BRANCH   3   5
HETATM    5  N   UNL     1      -9.550  17.652  66.712  1.00  0.00    -0.283 N  
HETATM    6  H   UNL     1      -9.315  20.885  66.826  1.00  0.00     0.000 HD 
HETATM    7  O   UNL     1     -11.054  19.263  67.380  1.00  0.00    -0.444 OA 
HETATM    8  C   UNL     1      -8.129  17.353  66.586  1.00  0.00    -0.259 C  
HETATM    9  C   UNL     1      -9.943  18.950  66.963  1.00  0.00    -0.340 C  
HETATM   10  C   UNL     1      -7.507  18.311  65.588  1.00  0.00    -0.008 C  
HETATM   11  N   UNL     1      -9.030  19.920  66.660  1.00  0.00    -0.356 N  
HETATM   12  C   UNL     1      -7.700  19.714  66.125  1.00  0.00    -0.321 C  
ENDBRANCH   3   5
BRANCH   3  13
HETATM   13  C   UNL     1     -10.306  15.515  67.840  1.00  0.00    -0.250 C  
HETATM   14  O   UNL     1     -10.662  15.678  69.002  1.00  0.00    -0.214 OA 
HETATM   15  N   UNL     1      -9.570  14.413  67.454  1.00  0.00    -0.213 N  
HETATM   16  H   UNL     1      -9.333  14.350  66.464  1.00  0.00     0.000 HD 
BRANCH  15  17
HETATM   17  C   UNL     1      -9.093  13.327  68.307  1.00  0.00    -0.184 C  
BRANCH  17  18
HETATM   18  C   UNL     1      -9.945  13.111  69.577  1.00  0.00     0.971 C  
BRANCH  18  19
HETATM   19  C   UNL     1     -11.310  12.376  69.570  1.00  0.00    -0.180 C  
HETATM   20  O   UNL     1     -12.009  12.666  70.784  1.00  0.00    -0.494 OA 
HETATM   21  H   UNL     1     -12.846  12.216  70.779  1.00  0.00     0.000 HD 
BRANCH  19  22
HETATM   22  C   UNL     1     -11.109  10.812  69.494  1.00  0.00    -0.278 C  
BRANCH  22  23
HETATM   23  N   UNL     1     -11.328  10.107  70.809  1.00  0.00    -0.340 N  
HETATM   24  C   UNL     1     -11.401   8.812  71.276  1.00  0.00    -0.291 C  
HETATM   25  H   UNL     1     -11.458  10.777  71.565  1.00  0.00     0.000 HD 
HETATM   26  O   UNL     1     -11.337   8.629  72.495  1.00  0.00    -0.340 OA 
BRANCH  24  27
HETATM   27  C   UNL     1     -11.675   7.646  70.312  1.00  0.00     0.016 C  
BRANCH  27  28
HETATM   28  O   UNL     1     -11.094   6.361  70.466  1.00  0.00    -0.278 OA 
BRANCH  28  29
HETATM   29  C   UNL     1      -9.919   6.078  69.784  1.00  0.00    -0.175 A  
HETATM   30  C   UNL     1     -10.796   5.701  67.310  1.00  0.00    -0.217 C  
HETATM   31  C   UNL     1      -9.757   5.828  68.396  1.00  0.00    -0.161 A  
HETATM   32  C   UNL     1      -8.446   5.686  67.878  1.00  0.00    -0.102 A  
HETATM   33  C   UNL     1      -7.317   5.761  68.679  1.00  0.00    -0.084 A  
HETATM   34  C   UNL     1      -7.470   5.963  70.039  1.00  0.00    -0.079 A  
HETATM   35  C   UNL     1      -8.752   6.111  70.606  1.00  0.00    -0.139 A  
HETATM   36  C   UNL     1      -8.811   6.296  72.103  1.00  0.00    -0.137 C  
ENDBRANCH  28  29
ENDBRANCH  27  28
ENDBRANCH  24  27
ENDBRANCH  22  23
BRANCH  22  37
HETATM   37  C   UNL     1     -11.744  10.182  68.224  1.00  0.00     0.305 C  
BRANCH  37  38
HETATM   38  C   UNL     1     -10.840  10.169  67.023  1.00  0.00    -0.221 A  
HETATM   39  C   UNL     1      -8.979  10.261  64.931  1.00  0.00    -0.231 A  
HETATM   40  C   UNL     1     -10.846  11.234  66.118  1.00  0.00    -0.281 A  
HETATM   41  C   UNL     1      -9.016   9.165  65.784  1.00  0.00    -0.237 A  
HETATM   42  C   UNL     1      -9.974   9.101  66.791  1.00  0.00    -0.322 A  
HETATM   43  C   UNL     1      -9.920  11.278  65.078  1.00  0.00    -0.323 A  
ENDBRANCH  37  38
ENDBRANCH  22  37
ENDBRANCH  19  22
ENDBRANCH  18  19
ENDBRANCH  17  18
BRANCH  17  44
HETATM   44  C   UNL     1      -7.556  13.265  68.444  1.00  0.00    -0.137 C  
BRANCH  44  45
HETATM   45  C   UNL     1      -7.052  11.968  69.050  1.00  0.00    -0.077 A  
HETATM   46  C   UNL     1      -5.796  11.894  69.676  1.00  0.00    -0.100 A  
HETATM   47  C   UNL     1      -7.827  10.806  68.969  1.00  0.00    -0.138 A  
HETATM   48  C   UNL     1      -5.317  10.676  70.171  1.00  0.00    -0.048 A  
HETATM   49  C   UNL     1      -7.349   9.591  69.467  1.00  0.00    -0.077 A  
HETATM   50  C   UNL     1      -6.091   9.523  70.059  1.00  0.00    -0.046 A  
ENDBRANCH  44  45
ENDBRANCH  17  44
ENDBRANCH  15  17
ENDBRANCH   3  13
TORSDOF 14
ENDMDL
MODEL      242
REMARK 921   NORMALIZED FREE ENERGY PREDICTED BY IDOCK:   -3.30 KCAL/MOL
REMARK 922        TOTAL FREE ENERGY PREDICTED BY IDOCK:  -10.55 KCAL/MOL
REMARK 923 INTER-LIGAND FREE ENERGY PREDICTED BY IDOCK:   -9.91 KCAL/MOL
REMARK 924 INTRA-LIGAND FREE ENERGY PREDICTED BY IDOCK:   -0.65 KCAL/MOL
REMARK 927      BINDING AFFINITY PREDICTED BY RF-SCORE:    0.00 PKD
ROOT
HETATM    1  C   UNL     1     -10.355  18.938  66.564  1.00  0.00    -0.493 C  
HETATM    2  C   UNL     1     -10.189  17.439  66.859  1.00  0.00    -0.322 C  
HETATM    3  C   UNL     1      -9.149  17.203  67.997  1.00  0.00    -0.240 C  
HETATM    4  C   UNL     1     -11.570  16.846  67.148  1.00  0.00     0.915 C  
ENDROOT
BRANCH   3   5
HETATM    5  N   UNL     1      -7.808  17.708  67.621  1.00  0.00    -0.204 N  
HETATM    6  H   UNL     1      -5.613  19.949  68.447  1.00  0.00     0.000 HD 
HETATM    7  O   UNL     1      -7.539  18.932  69.552  1.00  0.00    -0.033 OA 
HETATM    8  C   UNL     1      -7.097  17.144  66.480  1.00  0.00    -0.268 C  
HETATM    9  C   UNL     1      -7.166  18.627  68.423  1.00  0.00    -0.280 C  
HETATM   10  C   UNL     1      -6.512  18.273  65.653  1.00  0.00    -0.309 C  
HETATM   11  N   UNL     1      -6.087  19.256  67.869  1.00  0.00    -0.202 N  
HETATM   12  C   UNL     1      -5.552  19.036  66.542  1.00  0.00    -0.157 C  
ENDBRANCH   3   5
BRANCH   3  13
HETATM   13  C   UNL     1      -9.123  15.714  68.459  1.00  0.00    -0.196 C  
HETATM   14  O   UNL     1      -8.092  15.062  68.585  1.00  0.00    -0.136 OA 
HETATM   15  N   UNL     1     -10.368  15.145  68.636  1.00  0.00    -0.226 N  
HETATM   16  H   UNL     1     -11.170  15.766  68.530  1.00  0.00     0.000 HD 
BRANCH  15  17
HETATM   17  C   UNL     1     -10.664  13.751  68.959  1.00  0.00    -0.182 C  
BRANCH  17  18
HETATM   18  C   UNL     1     -10.137  12.743  67.914  1.00  0.00    -0.231 C  
BRANCH  18  19
HETATM   19  C   UNL     1     -10.445  11.224  67.968  1.00  0.00    -0.188 C  
HETATM   20  O   UNL     1     -11.859  11.025  67.880  1.00  0.00    -0.604 OA 
HETATM   21  H   UNL     1     -12.048  10.094  67.913  1.00  0.00     0.000 HD 
BRANCH  19  22
HETATM   22  C   UNL     1      -9.956  10.597  69.332  1.00  0.00    -0.158 C  
BRANCH  22  23
HETATM   23  N   UNL     1     -11.079  10.132  70.224  1.00  0.00    -0.296 N  
HETATM   24  C   UNL     1     -11.233   9.376  71.366  1.00  0.00    -0.381 C  
HETATM   25  H   UNL     1     -11.978  10.475  69.888  1.00  0.00     0.000 HD 
HETATM   26  O   UNL     1     -12.314   9.431  71.959  1.00  0.00    -0.366 OA 
BRANCH  24  27
HETATM   27  C   UNL     1     -10.130   8.402  71.815  1.00  0.00    -0.247 C  
BRANCH  27  28
HETATM   28  O   UNL     1     -10.277   6.992  71.770  1.00  0.00    -0.193 OA 
BRANCH  28  29
HETATM   29  C   UNL     1      -9.206   6.201  72.162  1.00  0.00    -0.141 A  
HETATM   30  C   UNL     1      -8.016   5.696  69.847  1.00  0.00    -0.095 C  
HETATM   31  C   UNL     1      -8.179   5.658  71.346  1.00  0.00    -0.122 A  
HETATM   32  C   UNL     1      -7.102   4.981  71.967  1.00  0.00    -0.071 A  
HETATM   33  C   UNL     1      -7.022   4.810  73.341  1.00  0.00    -0.071 A  
HETATM   34  C   UNL     1      -8.040   5.301  74.139  1.00  0.00    -0.106 A  
HETATM   35  C   UNL     1      -9.136   5.983  73.572  1.00  0.00    -0.131 A  
HETATM   36  C   UNL     1     -10.208   6.452  74.526  1.00  0.00    -0.310 C  
ENDBRANCH  28  29
ENDBRANCH  27  28
ENDBRANCH  24  27
ENDBRANCH  22  23
BRANCH  22  37
HETATM   37  C   UNL     1      -8.735   9.652  69.159  1.00  0.00    -0.151 C  
BRANCH  37  38
HETATM   38  C   UNL     1      -8.863   8.678  68.021  1.00  0.00    -0.141 A  
HETATM   39  C   UNL     1      -8.988   6.691  66.052  1.00  0.00    -0.131 A  
HETATM   40  C   UNL     1      -7.849   8.565  67.067  1.00  0.00    -0.096 A  
HETATM   41  C   UNL     1     -10.033   6.845  66.953  1.00  0.00    -0.264 A  
HETATM   42  C   UNL     1      -9.990   7.866  67.899  1.00  0.00    -0.220 A  
HETATM   43  C   UNL     1      -7.913   7.576  66.087  1.00  0.00    -0.111 A  
ENDBRANCH  37  38
ENDBRANCH  22  37
ENDBRANCH  19  22
ENDBRANCH  18  19
ENDBRANCH  17  18
BRANCH  17  44
HETATM   44  C   UNL     1     -12.078  13.526  69.536  1.00  0.00    -0.352 C  
BRANCH  44  45
HETATM   45  C   UNL     1     -12.368  14.352  70.776  1.00  0.00    -0.417 A  
HETATM   46  C   UNL     1     -13.670  14.785  71.077  1.00  0.00    -0.322 A  
HETATM   47  C   UNL     1     -11.325  14.721  71.634  1.00  0.00    -0.045 A  
HETATM   48  C   UNL     1     -13.910  15.602  72.188  1.00  0.00    -0.552 A  
HETATM   49  C   UNL     1     -11.568  15.533  72.745  1.00  0.00    -0.472 A  
HETATM   50  C   UNL     1     -12.857  15.981  73.018  1.00  0.00    -0.587 A  
ENDBRANCH  44  45
ENDBRANCH  17  44
ENDBRANCH  15  17
ENDBRANCH   3  13
TORSDOF 14
ENDMDL
MODEL      243
REMARK 921   NORMALIZED FREE ENERGY PREDICTED BY IDOCK:   -3.30 KCAL/MOL
REMARK 922        TOTAL FREE ENERGY PREDICTED BY IDOCK:  -10.55 KCAL/MOL
REMARK 923 INTER-LIGAND FREE ENERGY PREDICTED BY IDOCK:   -7.68 KCAL/MOL
REMARK 924 INTRA-LIGAND FREE ENERGY PREDICTED BY IDOCK:   -2.87 KCAL/MOL
REMARK 927      BINDING AFFINITY PREDICTED BY RF-SCORE:    0.00 PKD
ROOT
HETATM    1  C   UNL     1      -7.844   6.917  63.596  1.00  0.00    -0.107 C  
HETATM    2  C   UNL     1      -7.587   7.154  65.092  1.00  0.00    -0.102 C  
HETATM    3  C   UNL     1      -6.886   5.922  65.744  1.00  0.00    -0.056 C  
HETATM    4  C   UNL     1      -6.811   8.463  65.250  1.00  0.00    -0.067 C  
ENDROOT
BRANCH   3   5
HETATM    5  N   UNL     1      -7.727   4.706  65.649  1.00  0.00    -0.092 N  
HETATM    6  H   UNL     1      -7.612   1.605  64.703  1.00  0.00     0.000 HD 
HETATM    7  O   UNL     1      -5.945   3.296  65.274  1.00  0.00    -0.018 OA 
HETATM    8  C   UNL     1      -9.132   4.745  66.035  1.00  0.00    -0.133 C  
HETATM    9  C   UNL     1      -7.156   3.495  65.318  1.00  0.00    -0.066 C  
HETATM   10  C   UNL     1      -9.955   4.026  64.984  1.00  0.00    -0.207 C  
HETATM   11  N   UNL     1      -8.023   2.500  64.966  1.00  0.00    -0.081 N  
HETATM   12  C   UNL     1      -9.468   2.593  64.928  1.00  0.00    -0.094 C  
ENDBRANCH   3   5
BRANCH   3  13
HETATM   13  C   UNL     1      -6.423   6.222  67.202  1.00  0.00    -0.053 C  
HETATM   14  O   UNL     1      -5.249   6.208  67.556  1.00  0.00    -0.004 OA 
HETATM   15  N   UNL     1      -7.451   6.421  68.102  1.00  0.00    -0.092 N  
HETATM   16  H   UNL     1      -8.395   6.435  67.717  1.00  0.00     0.000 HD 
BRANCH  15  17
HETATM   17  C   UNL     1      -7.335   6.613  69.546  1.00  0.00    -0.091 C  
BRANCH  17  18
HETATM   18  C   UNL     1      -6.796   8.004  69.949  1.00  0.00    -0.041 C  
BRANCH  18  19
HETATM   19  C   UNL     1      -7.253   9.321  69.271  1.00  0.00    -0.065 C  
HETATM   20  O   UNL     1      -6.580  10.426  69.884  1.00  0.00    -0.090 OA 
HETATM   21  H   UNL     1      -6.860  11.233  69.469  1.00  0.00     0.000 HD 
BRANCH  19  22
HETATM   22  C   UNL     1      -8.805   9.543  69.456  1.00  0.00    -0.179 C  
BRANCH  22  23
HETATM   23  N   UNL     1      -9.641   8.918  68.367  1.00  0.00    -0.144 N  
HETATM   24  C   UNL     1     -10.215   9.297  67.173  1.00  0.00    -0.257 C  
HETATM   25  H   UNL     1      -9.836   7.939  68.573  1.00  0.00     0.000 HD 
HETATM   26  O   UNL     1     -10.623   8.410  66.416  1.00  0.00    -0.087 OA 
BRANCH  24  27
HETATM   27  C   UNL     1     -10.446  10.783  66.852  1.00  0.00    -0.252 C  
BRANCH  27  28
HETATM   28  O   UNL     1     -10.302  11.814  67.815  1.00  0.00    -0.188 OA 
BRANCH  28  29
HETATM   29  C   UNL     1      -9.891  13.069  67.386  1.00  0.00    -0.215 A  
HETATM   30  C   UNL     1      -7.348  13.102  68.136  1.00  0.00    -0.119 C  
HETATM   31  C   UNL     1      -8.594  13.638  67.477  1.00  0.00    -0.197 A  
HETATM   32  C   UNL     1      -8.356  14.891  66.859  1.00  0.00    -0.212 A  
HETATM   33  C   UNL     1      -9.346  15.591  66.188  1.00  0.00    -0.380 A  
HETATM   34  C   UNL     1     -10.623  15.060  66.132  1.00  0.00    -0.314 A  
HETATM   35  C   UNL     1     -10.915  13.818  66.730  1.00  0.00    -0.307 A  
HETATM   36  C   UNL     1     -12.344  13.343  66.639  1.00  0.00    -0.324 C  
ENDBRANCH  28  29
ENDBRANCH  27  28
ENDBRANCH  24  27
ENDBRANCH  22  23
BRANCH  22  37
HETATM   37  C   UNL     1      -9.273   9.350  70.924  1.00  0.00    -0.242 C  
BRANCH  37  38
HETATM   38  C   UNL     1     -10.597   8.651  71.063  1.00  0.00    -0.278 A  
HETATM   39  C   UNL     1     -13.014   7.331  71.575  1.00  0.00    -0.434 A  
HETATM   40  C   UNL     1     -10.682   7.261  70.947  1.00  0.00    -0.251 A  
HETATM   41  C   UNL     1     -12.954   8.718  71.621  1.00  0.00    -0.390 A  
HETATM   42  C   UNL     1     -11.763   9.372  71.318  1.00  0.00    -0.432 A  
HETATM   43  C   UNL     1     -11.885   6.606  71.201  1.00  0.00    -0.414 A  
ENDBRANCH  37  38
ENDBRANCH  22  37
ENDBRANCH  19  22
ENDBRANCH  18  19
ENDBRANCH  17  18
BRANCH  17  44
HETATM   44  C   UNL     1      -6.798   5.379  70.304  1.00  0.00    -0.048 C  
BRANCH  44  45
HETATM   45  C   UNL     1      -7.666   4.145  70.147  1.00  0.00    -0.049 A  
HETATM   46  C   UNL     1      -7.310   3.108  69.269  1.00  0.00    -0.048 A  
HETATM   47  C   UNL     1      -8.863   4.031  70.864  1.00  0.00    -0.136 A  
HETATM   48  C   UNL     1      -8.155   2.007  69.086  1.00  0.00    -0.060 A  
HETATM   49  C   UNL     1      -9.704   2.929  70.683  1.00  0.00    -0.104 A  
HETATM   50  C   UNL     1      -9.355   1.922  69.788  1.00  0.00    -0.158 A  
ENDBRANCH  44  45
ENDBRANCH  17  44
ENDBRANCH  15  17
ENDBRANCH   3  13
TORSDOF 14
ENDMDL
MODEL      244
REMARK 921   NORMALIZED FREE ENERGY PREDICTED BY IDOCK:   -3.23 KCAL/MOL
REMARK 922        TOTAL FREE ENERGY PREDICTED BY IDOCK:  -10.44 KCAL/MOL
REMARK 923 INTER-LIGAND FREE ENERGY PREDICTED BY IDOCK:   -8.33 KCAL/MOL
REMARK 924 INTRA-LIGAND FREE ENERGY PREDICTED BY IDOCK:   -2.10 KCAL/MOL
REMARK 927      BINDING AFFINITY PREDICTED BY RF-SCORE:    0.00 PKD
ROOT
HETATM    1  C   UNL     1     -11.411  16.221  68.376  1.00  0.00    -0.312 C  
HETATM    2  C   UNL     1     -11.029  14.814  67.893  1.00  0.00    -0.282 C  
HETATM    3  C   UNL     1      -9.540  14.490  68.228  1.00  0.00    -0.212 C  
HETATM    4  C   UNL     1     -12.027  13.812  68.478  1.00  0.00    -0.402 C  
ENDROOT
BRANCH   3   5
HETATM    5  N   UNL     1      -8.615  15.431  67.554  1.00  0.00    -0.166 N  
HETATM    6  H   UNL     1      -6.070  17.353  68.146  1.00  0.00     0.000 HD 
HETATM    7  O   UNL     1      -7.110  15.467  69.297  1.00  0.00    -0.156 OA 
HETATM    8  C   UNL     1      -8.784  15.752  66.143  1.00  0.00    -0.258 C  
HETATM    9  C   UNL     1      -7.509  15.909  68.224  1.00  0.00    -0.127 C  
HETATM   10  C   UNL     1      -8.643  17.251  65.956  1.00  0.00    -0.127 C  
HETATM   11  N   UNL     1      -6.881  16.980  67.653  1.00  0.00    -0.135 N  
HETATM   12  C   UNL     1      -7.253  17.637  66.417  1.00  0.00    -0.284 C  
ENDBRANCH   3   5
BRANCH   3  13
HETATM   13  C   UNL     1      -9.193  12.996  67.943  1.00  0.00    -0.208 C  
HETATM   14  O   UNL     1      -8.345  12.367  68.568  1.00  0.00    -0.153 OA 
HETATM   15  N   UNL     1      -9.855  12.448  66.864  1.00  0.00    -0.211 N  
HETATM   16  H   UNL     1     -10.557  13.036  66.415  1.00  0.00     0.000 HD 
BRANCH  15  17
HETATM   17  C   UNL     1      -9.661  11.117  66.292  1.00  0.00    -0.211 C  
BRANCH  17  18
HETATM   18  C   UNL     1     -10.544  10.026  66.937  1.00  0.00    -0.261 C  
BRANCH  18  19
HETATM   19  C   UNL     1     -10.116   8.540  67.045  1.00  0.00    -0.277 C  
HETATM   20  O   UNL     1     -11.259   7.703  66.844  1.00  0.00    -0.367 OA 
HETATM   21  H   UNL     1     -10.997   6.792  66.910  1.00  0.00     0.000 HD 
BRANCH  19  22
HETATM   22  C   UNL     1      -9.534   8.222  68.478  1.00  0.00    -0.146 C  
BRANCH  22  23
HETATM   23  N   UNL     1     -10.339   7.205  69.248  1.00  0.00    -0.197 N  
HETATM   24  C   UNL     1     -10.432   6.741  70.543  1.00  0.00    -0.209 C  
HETATM   25  H   UNL     1     -11.000   6.725  68.639  1.00  0.00     0.000 HD 
HETATM   26  O   UNL     1     -11.415   6.061  70.848  1.00  0.00    -0.284 OA 
BRANCH  24  27
HETATM   27  C   UNL     1      -9.283   6.968  71.540  1.00  0.00    -0.153 C  
BRANCH  27  28
HETATM   28  O   UNL     1      -8.465   5.918  72.031  1.00  0.00    -0.124 OA 
BRANCH  28  29
HETATM   29  C   UNL     1      -9.026   4.657  72.183  1.00  0.00    -0.126 A  
HETATM   30  C   UNL     1     -10.491   4.968  74.372  1.00  0.00    -0.313 C  
HETATM   31  C   UNL     1      -9.949   4.229  73.174  1.00  0.00    -0.191 A  
HETATM   32  C   UNL     1     -10.499   2.928  73.075  1.00  0.00    -0.252 A  
HETATM   33  C   UNL     1     -10.155   2.049  72.059  1.00  0.00    -0.226 A  
HETATM   34  C   UNL     1      -9.226   2.446  71.114  1.00  0.00    -0.190 A  
HETATM   35  C   UNL     1      -8.647   3.730  71.166  1.00  0.00    -0.110 A  
HETATM   36  C   UNL     1      -7.622   4.052  70.107  1.00  0.00    -0.045 C  
ENDBRANCH  28  29
ENDBRANCH  27  28
ENDBRANCH  24  27
ENDBRANCH  22  23
BRANCH  22  37
HETATM   37  C   UNL     1      -7.989   8.072  68.484  1.00  0.00    -0.120 C  
BRANCH  37  38
HETATM   38  C   UNL     1      -7.458   7.103  67.464  1.00  0.00    -0.101 A  
HETATM   39  C   UNL     1      -6.567   5.109  65.711  1.00  0.00    -0.044 A  
HETATM   40  C   UNL     1      -6.168   6.581  67.585  1.00  0.00    -0.035 A  
HETATM   41  C   UNL     1      -7.824   5.675  65.541  1.00  0.00    -0.100 A  
HETATM   42  C   UNL     1      -8.244   6.700  66.384  1.00  0.00    -0.117 A  
HETATM   43  C   UNL     1      -5.725   5.589  66.712  1.00  0.00    -0.017 A  
ENDBRANCH  37  38
ENDBRANCH  22  37
ENDBRANCH  19  22
ENDBRANCH  18  19
ENDBRANCH  17  18
BRANCH  17  44
HETATM   44  C   UNL     1      -8.187  10.772  65.989  1.00  0.00    -0.164 C  
BRANCH  44  45
HETATM   45  C   UNL     1      -7.998   9.995  64.700  1.00  0.00    -0.145 A  
HETATM   46  C   UNL     1      -8.986   9.983  63.701  1.00  0.00    -0.280 A  
HETATM   47  C   UNL     1      -6.832   9.246  64.495  1.00  0.00    -0.089 A  
HETATM   48  C   UNL     1      -8.824   9.208  62.547  1.00  0.00    -0.190 A  
HETATM   49  C   UNL     1      -6.671   8.476  63.340  1.00  0.00    -0.089 A  
HETATM   50  C   UNL     1      -7.670   8.448  62.370  1.00  0.00    -0.129 A  
ENDBRANCH  44  45
ENDBRANCH  17  44
ENDBRANCH  15  17
ENDBRANCH   3  13
TORSDOF 14
ENDMDL
MODEL      245
REMARK 921   NORMALIZED FREE ENERGY PREDICTED BY IDOCK:   -3.22 KCAL/MOL
REMARK 922        TOTAL FREE ENERGY PREDICTED BY IDOCK:  -10.42 KCAL/MOL
REMARK 923 INTER-LIGAND FREE ENERGY PREDICTED BY IDOCK:   -9.81 KCAL/MOL
REMARK 924 INTRA-LIGAND FREE ENERGY PREDICTED BY IDOCK:   -0.60 KCAL/MOL
REMARK 927      BINDING AFFINITY PREDICTED BY RF-SCORE:    0.00 PKD
ROOT
HETATM    1  C   UNL     1     -10.566  19.473  65.909  1.00  0.00    -0.572 C  
HETATM    2  C   UNL     1      -9.953  18.064  65.937  1.00  0.00    -0.115 C  
HETATM    3  C   UNL     1      -9.280  17.771  67.314  1.00  0.00    -0.253 C  
HETATM    4  C   UNL     1     -11.037  17.055  65.551  1.00  0.00     0.170 C  
ENDROOT
BRANCH   3   5
HETATM    5  N   UNL     1      -8.173  18.717  67.589  1.00  0.00    -0.256 N  
HETATM    6  H   UNL     1      -5.345  19.741  66.375  1.00  0.00     0.000 HD 
HETATM    7  O   UNL     1      -7.279  18.554  65.474  1.00  0.00    -0.515 OA 
HETATM    8  C   UNL     1      -8.170  19.519  68.806  1.00  0.00    -0.313 C  
HETATM    9  C   UNL     1      -7.203  18.940  66.636  1.00  0.00    -0.216 C  
HETATM   10  C   UNL     1      -6.785  19.480  69.422  1.00  0.00    -0.372 C  
HETATM   11  N   UNL     1      -6.077  19.583  67.067  1.00  0.00    -0.181 N  
HETATM   12  C   UNL     1      -5.821  20.063  68.409  1.00  0.00    -0.238 C  
ENDBRANCH   3   5
BRANCH   3  13
HETATM   13  C   UNL     1      -8.844  16.280  67.442  1.00  0.00    -0.186 C  
HETATM   14  O   UNL     1      -7.776  15.848  67.021  1.00  0.00    -0.192 OA 
HETATM   15  N   UNL     1      -9.797  15.447  67.993  1.00  0.00    -0.215 N  
HETATM   16  H   UNL     1     -10.648  15.894  68.334  1.00  0.00     0.000 HD 
BRANCH  15  17
HETATM   17  C   UNL     1      -9.721  13.996  68.142  1.00  0.00    -0.220 C  
BRANCH  17  18
HETATM   18  C   UNL     1     -10.245  13.214  66.917  1.00  0.00    -0.245 C  
BRANCH  18  19
HETATM   19  C   UNL     1     -11.119  11.939  67.032  1.00  0.00    -0.302 C  
HETATM   20  O   UNL     1     -12.500  12.314  67.061  1.00  0.00    -0.198 OA 
HETATM   21  H   UNL     1     -13.036  11.533  67.131  1.00  0.00     0.000 HD 
BRANCH  19  22
HETATM   22  C   UNL     1     -10.806  11.159  68.369  1.00  0.00    -0.205 C  
BRANCH  22  23
HETATM   23  N   UNL     1     -12.034  10.827  69.180  1.00  0.00    -0.500 N  
HETATM   24  C   UNL     1     -12.378   9.989  70.218  1.00  0.00    -0.070 C  
HETATM   25  H   UNL     1     -12.835  11.378  68.873  1.00  0.00     0.000 HD 
HETATM   26  O   UNL     1     -13.451  10.190  70.797  1.00  0.00    -0.311 OA 
BRANCH  24  27
HETATM   27  C   UNL     1     -11.506   8.770  70.563  1.00  0.00    -0.196 C  
BRANCH  27  28
HETATM   28  O   UNL     1     -12.028   7.459  70.701  1.00  0.00    -0.266 OA 
BRANCH  28  29
HETATM   29  C   UNL     1     -11.209   6.383  70.388  1.00  0.00    -0.372 A  
HETATM   30  C   UNL     1     -11.008   6.593  67.752  1.00  0.00    -0.367 C  
HETATM   31  C   UNL     1     -10.714   6.008  69.111  1.00  0.00    -0.399 A  
HETATM   32  C   UNL     1      -9.783   4.944  69.028  1.00  0.00    -0.245 A  
HETATM   33  C   UNL     1      -9.353   4.241  70.143  1.00  0.00    -0.228 A  
HETATM   34  C   UNL     1      -9.863   4.575  71.385  1.00  0.00    -0.264 A  
HETATM   35  C   UNL     1     -10.793   5.625  71.524  1.00  0.00    -0.297 A  
HETATM   36  C   UNL     1     -11.311   5.888  72.917  1.00  0.00    -0.266 C  
ENDBRANCH  28  29
ENDBRANCH  27  28
ENDBRANCH  24  27
ENDBRANCH  22  23
BRANCH  22  37
HETATM   37  C   UNL     1      -9.743  10.043  68.182  1.00  0.00    -0.156 C  
BRANCH  37  38
HETATM   38  C   UNL     1      -8.515  10.210  69.034  1.00  0.00    -0.151 A  
HETATM   39  C   UNL     1      -6.104  10.380  70.448  1.00  0.00    -0.118 A  
HETATM   40  C   UNL     1      -8.226   9.296  70.051  1.00  0.00    -0.160 A  
HETATM   41  C   UNL     1      -6.418  11.334  69.489  1.00  0.00    -0.119 A  
HETATM   42  C   UNL     1      -7.639  11.274  68.823  1.00  0.00    -0.130 A  
HETATM   43  C   UNL     1      -7.027   9.382  70.754  1.00  0.00    -0.117 A  
ENDBRANCH  37  38
ENDBRANCH  22  37
ENDBRANCH  19  22
ENDBRANCH  18  19
ENDBRANCH  17  18
BRANCH  17  44
HETATM   44  C   UNL     1     -10.109  13.487  69.548  1.00  0.00     0.669 C  
BRANCH  44  45
HETATM   45  C   UNL     1     -11.177  14.326  70.225  1.00  0.00    -0.050 A  
HETATM   46  C   UNL     1     -10.913  15.021  71.417  1.00  0.00    -0.028 A  
HETATM   47  C   UNL     1     -12.464  14.399  69.680  1.00  0.00    -0.207 A  
HETATM   48  C   UNL     1     -11.927  15.736  72.064  1.00  0.00    -0.570 A  
HETATM   49  C   UNL     1     -13.474  15.118  70.326  1.00  0.00     0.166 A  
HETATM   50  C   UNL     1     -13.209  15.778  71.523  1.00  0.00    -0.434 A  
ENDBRANCH  44  45
ENDBRANCH  17  44
ENDBRANCH  15  17
ENDBRANCH   3  13
TORSDOF 14
ENDMDL
MODEL      246
REMARK 921   NORMALIZED FREE ENERGY PREDICTED BY IDOCK:   -3.17 KCAL/MOL
REMARK 922        TOTAL FREE ENERGY PREDICTED BY IDOCK:  -10.31 KCAL/MOL
REMARK 923 INTER-LIGAND FREE ENERGY PREDICTED BY IDOCK:   -7.41 KCAL/MOL
REMARK 924 INTRA-LIGAND FREE ENERGY PREDICTED BY IDOCK:   -2.90 KCAL/MOL
REMARK 927      BINDING AFFINITY PREDICTED BY RF-SCORE:    0.00 PKD
ROOT
HETATM    1  C   UNL     1     -10.769   5.495  66.911  1.00  0.00    -0.310 C  
HETATM    2  C   UNL     1      -9.285   5.693  67.254  1.00  0.00    -0.110 C  
HETATM    3  C   UNL     1      -9.017   7.138  67.777  1.00  0.00    -0.122 C  
HETATM    4  C   UNL     1      -8.861   4.592  68.229  1.00  0.00    -0.122 C  
ENDROOT
BRANCH   3   5
HETATM    5  N   UNL     1      -9.351   8.156  66.754  1.00  0.00    -0.170 N  
HETATM    6  H   UNL     1      -8.299   9.368  63.935  1.00  0.00     0.000 HD 
HETATM    7  O   UNL     1      -7.890   7.312  65.188  1.00  0.00    -0.108 OA 
HETATM    8  C   UNL     1     -10.497   9.038  66.935  1.00  0.00    -0.223 C  
HETATM    9  C   UNL     1      -8.658   8.193  65.563  1.00  0.00    -0.149 C  
HETATM   10  C   UNL     1     -10.091  10.457  66.587  1.00  0.00    -0.279 C  
HETATM   11  N   UNL     1      -8.818   9.322  64.812  1.00  0.00    -0.197 N  
HETATM   12  C   UNL     1      -9.652  10.460  65.137  1.00  0.00    -0.271 C  
ENDBRANCH   3   5
BRANCH   3  13
HETATM   13  C   UNL     1      -7.568   7.295  68.332  1.00  0.00    -0.118 C  
HETATM   14  O   UNL     1      -6.590   6.745  67.837  1.00  0.00    -0.053 OA 
HETATM   15  N   UNL     1      -7.474   8.038  69.492  1.00  0.00    -0.089 N  
HETATM   16  H   UNL     1      -8.334   8.474  69.822  1.00  0.00     0.000 HD 
BRANCH  15  17
HETATM   17  C   UNL     1      -6.277   8.268  70.298  1.00  0.00    -0.035 C  
BRANCH  17  18
HETATM   18  C   UNL     1      -6.547   8.305  71.819  1.00  0.00    -0.064 C  
BRANCH  18  19
HETATM   19  C   UNL     1      -7.941   8.037  72.441  1.00  0.00    -0.128 C  
HETATM   20  O   UNL     1      -8.081   8.810  73.637  1.00  0.00    -0.390 OA 
HETATM   21  H   UNL     1      -8.935   8.646  74.019  1.00  0.00     0.000 HD 
BRANCH  19  22
HETATM   22  C   UNL     1      -8.102   6.516  72.832  1.00  0.00    -0.105 C  
BRANCH  22  23
HETATM   23  N   UNL     1      -9.480   6.159  73.329  1.00  0.00    -0.142 N  
HETATM   24  C   UNL     1     -10.680   5.733  72.802  1.00  0.00    -0.241 C  
HETATM   25  H   UNL     1      -9.542   6.263  74.342  1.00  0.00     0.000 HD 
HETATM   26  O   UNL     1     -11.532   5.290  73.578  1.00  0.00    -0.207 OA 
BRANCH  24  27
HETATM   27  C   UNL     1     -10.987   5.917  71.306  1.00  0.00    -0.259 C  
BRANCH  27  28
HETATM   28  O   UNL     1     -10.881   7.166  70.642  1.00  0.00    -0.233 OA 
BRANCH  28  29
HETATM   29  C   UNL     1     -11.797   8.161  70.952  1.00  0.00    -0.218 A  
HETATM   30  C   UNL     1     -14.015   6.763  71.349  1.00  0.00    -0.098 C  
HETATM   31  C   UNL     1     -13.163   8.007  71.307  1.00  0.00    -0.183 A  
HETATM   32  C   UNL     1     -13.894   9.150  71.713  1.00  0.00    -0.425 A  
HETATM   33  C   UNL     1     -13.332  10.417  71.756  1.00  0.00    -0.456 A  
HETATM   34  C   UNL     1     -12.013  10.580  71.372  1.00  0.00    -0.325 A  
HETATM   35  C   UNL     1     -11.240   9.476  70.959  1.00  0.00    -0.432 A  
HETATM   36  C   UNL     1      -9.822   9.765  70.531  1.00  0.00    -0.228 C  
ENDBRANCH  28  29
ENDBRANCH  27  28
ENDBRANCH  24  27
ENDBRANCH  22  23
BRANCH  22  37
HETATM   37  C   UNL     1      -7.433   5.555  71.812  1.00  0.00    -0.093 C  
BRANCH  37  38
HETATM   38  C   UNL     1      -7.200   4.164  72.334  1.00  0.00    -0.062 A  
HETATM   39  C   UNL     1      -6.990   1.595  73.429  1.00  0.00    -0.022 A  
HETATM   40  C   UNL     1      -6.517   3.962  73.535  1.00  0.00    -0.040 A  
HETATM   41  C   UNL     1      -7.608   1.780  72.199  1.00  0.00    -0.040 A  
HETATM   42  C   UNL     1      -7.667   3.051  71.635  1.00  0.00    -0.052 A  
HETATM   43  C   UNL     1      -6.412   2.683  74.079  1.00  0.00    -0.021 A  
ENDBRANCH  37  38
ENDBRANCH  22  37
ENDBRANCH  19  22
ENDBRANCH  18  19
ENDBRANCH  17  18
BRANCH  17  44
HETATM   44  C   UNL     1      -5.313   9.318  69.706  1.00  0.00    -0.033 C  
BRANCH  44  45
HETATM   45  C   UNL     1      -6.013  10.423  68.937  1.00  0.00    -0.040 A  
HETATM   46  C   UNL     1      -6.013  10.449  67.533  1.00  0.00    -0.052 A  
HETATM   47  C   UNL     1      -6.656  11.459  69.624  1.00  0.00    -0.128 A  
HETATM   48  C   UNL     1      -6.607  11.510  66.840  1.00  0.00    -0.138 A  
HETATM   49  C   UNL     1      -7.252  12.516  68.930  1.00  0.00    -0.050 A  
HETATM   50  C   UNL     1      -7.220  12.547  67.539  1.00  0.00    -0.147 A  
ENDBRANCH  44  45
ENDBRANCH  17  44
ENDBRANCH  15  17
ENDBRANCH   3  13
TORSDOF 14
ENDMDL
MODEL      247
REMARK 921   NORMALIZED FREE ENERGY PREDICTED BY IDOCK:   -3.15 KCAL/MOL
REMARK 922        TOTAL FREE ENERGY PREDICTED BY IDOCK:  -10.28 KCAL/MOL
REMARK 923 INTER-LIGAND FREE ENERGY PREDICTED BY IDOCK:   -7.43 KCAL/MOL
REMARK 924 INTRA-LIGAND FREE ENERGY PREDICTED BY IDOCK:   -2.85 KCAL/MOL
REMARK 927      BINDING AFFINITY PREDICTED BY RF-SCORE:    0.00 PKD
ROOT
HETATM    1  C   UNL     1     -10.536  12.279  63.270  1.00  0.00    -0.296 C  
HETATM    2  C   UNL     1      -9.670  11.386  64.172  1.00  0.00    -0.267 C  
HETATM    3  C   UNL     1     -10.350  11.160  65.557  1.00  0.00    -0.268 C  
HETATM    4  C   UNL     1      -9.356  10.093  63.417  1.00  0.00    -0.334 C  
ENDROOT
BRANCH   3   5
HETATM    5  N   UNL     1     -10.538  12.437  66.285  1.00  0.00    -0.245 N  
HETATM    6  H   UNL     1     -12.710  14.801  66.750  1.00  0.00     0.000 HD 
HETATM    7  O   UNL     1     -12.812  12.503  65.928  1.00  0.00    -0.197 OA 
HETATM    8  C   UNL     1      -9.459  12.995  67.091  1.00  0.00    -0.230 C  
HETATM    9  C   UNL     1     -11.777  13.041  66.311  1.00  0.00    -0.387 C  
HETATM   10  C   UNL     1      -9.345  14.480  66.805  1.00  0.00    -0.278 C  
HETATM   11  N   UNL     1     -11.802  14.337  66.741  1.00  0.00    -0.412 N  
HETATM   12  C   UNL     1     -10.666  15.118  67.184  1.00  0.00    -0.310 C  
ENDBRANCH   3   5
BRANCH   3  13
HETATM   13  C   UNL     1      -9.598  10.089  66.405  1.00  0.00    -0.196 C  
HETATM   14  O   UNL     1      -8.510  10.287  66.936  1.00  0.00    -0.125 OA 
HETATM   15  N   UNL     1     -10.211   8.853  66.444  1.00  0.00    -0.297 N  
HETATM   16  H   UNL     1     -11.122   8.783  65.991  1.00  0.00     0.000 HD 
BRANCH  15  17
HETATM   17  C   UNL     1      -9.698   7.632  67.062  1.00  0.00    -0.195 C  
BRANCH  17  18
HETATM   18  C   UNL     1     -10.519   7.156  68.280  1.00  0.00    -0.235 C  
BRANCH  18  19
HETATM   19  C   UNL     1     -10.639   7.968  69.595  1.00  0.00    -0.223 C  
HETATM   20  O   UNL     1     -10.227   9.317  69.356  1.00  0.00    -0.195 OA 
HETATM   21  H   UNL     1     -10.300   9.816  70.162  1.00  0.00     0.000 HD 
BRANCH  19  22
HETATM   22  C   UNL     1      -9.700   7.371  70.715  1.00  0.00    -0.171 C  
BRANCH  22  23
HETATM   23  N   UNL     1     -10.068   5.969  71.132  1.00  0.00    -0.189 N  
HETATM   24  C   UNL     1      -9.778   4.678  70.746  1.00  0.00    -0.199 C  
HETATM   25  H   UNL     1     -10.713   5.980  71.921  1.00  0.00     0.000 HD 
HETATM   26  O   UNL     1     -10.081   3.760  71.514  1.00  0.00    -0.157 OA 
BRANCH  24  27
HETATM   27  C   UNL     1      -9.204   4.388  69.349  1.00  0.00    -0.135 C  
BRANCH  27  28
HETATM   28  O   UNL     1      -9.770   3.438  68.461  1.00  0.00    -0.117 OA 
BRANCH  28  29
HETATM   29  C   UNL     1      -9.059   3.089  67.322  1.00  0.00    -0.175 A  
HETATM   30  C   UNL     1     -10.264   4.538  65.456  1.00  0.00    -0.251 C  
HETATM   31  C   UNL     1      -9.228   3.589  66.004  1.00  0.00    -0.167 A  
HETATM   32  C   UNL     1      -8.307   3.193  65.003  1.00  0.00    -0.095 A  
HETATM   33  C   UNL     1      -7.261   2.320  65.256  1.00  0.00    -0.058 A  
HETATM   34  C   UNL     1      -7.116   1.797  66.529  1.00  0.00    -0.047 A  
HETATM   35  C   UNL     1      -8.004   2.158  67.562  1.00  0.00    -0.064 A  
HETATM   36  C   UNL     1      -7.778   1.508  68.906  1.00  0.00    -0.046 C  
ENDBRANCH  28  29
ENDBRANCH  27  28
ENDBRANCH  24  27
ENDBRANCH  22  23
BRANCH  22  37
HETATM   37  C   UNL     1      -8.198   7.680  70.473  1.00  0.00    -0.121 C  
BRANCH  37  38
HETATM   38  C   UNL     1      -7.263   6.983  71.423  1.00  0.00    -0.078 A  
HETATM   39  C   UNL     1      -5.703   5.505  73.219  1.00  0.00    -0.024 A  
HETATM   40  C   UNL     1      -7.292   7.274  72.789  1.00  0.00    -0.079 A  
HETATM   41  C   UNL     1      -5.616   5.259  71.854  1.00  0.00    -0.016 A  
HETATM   42  C   UNL     1      -6.356   6.029  70.962  1.00  0.00    -0.040 A  
HETATM   43  C   UNL     1      -6.515   6.538  73.681  1.00  0.00    -0.065 A  
ENDBRANCH  37  38
ENDBRANCH  22  37
ENDBRANCH  19  22
ENDBRANCH  18  19
ENDBRANCH  17  18
BRANCH  17  44
HETATM   44  C   UNL     1      -8.157   7.576  67.158  1.00  0.00    -0.118 C  
BRANCH  44  45
HETATM   45  C   UNL     1      -7.492   6.982  65.931  1.00  0.00    -0.080 A  
HETATM   46  C   UNL     1      -8.100   7.047  64.666  1.00  0.00    -0.083 A  
HETATM   47  C   UNL     1      -6.260   6.328  66.046  1.00  0.00    -0.037 A  
HETATM   48  C   UNL     1      -7.506   6.437  63.557  1.00  0.00    -0.081 A  
HETATM   49  C   UNL     1      -5.665   5.722  64.936  1.00  0.00    -0.024 A  
HETATM   50  C   UNL     1      -6.292   5.767  63.693  1.00  0.00    -0.025 A  
ENDBRANCH  44  45
ENDBRANCH  17  44
ENDBRANCH  15  17
ENDBRANCH   3  13
TORSDOF 14
ENDMDL
MODEL      248
REMARK 921   NORMALIZED FREE ENERGY PREDICTED BY IDOCK:   -3.11 KCAL/MOL
REMARK 922        TOTAL FREE ENERGY PREDICTED BY IDOCK:  -10.21 KCAL/MOL
REMARK 923 INTER-LIGAND FREE ENERGY PREDICTED BY IDOCK:   -9.48 KCAL/MOL
REMARK 924 INTRA-LIGAND FREE ENERGY PREDICTED BY IDOCK:   -0.74 KCAL/MOL
REMARK 927      BINDING AFFINITY PREDICTED BY RF-SCORE:    0.00 PKD
ROOT
HETATM    1  C   UNL     1      -6.292  20.648  67.445  1.00  0.00    -0.311 C  
HETATM    2  C   UNL     1      -6.483  19.489  68.436  1.00  0.00    -0.283 C  
HETATM    3  C   UNL     1      -7.135  18.256  67.738  1.00  0.00    -0.213 C  
HETATM    4  C   UNL     1      -5.136  19.187  69.096  1.00  0.00    -0.195 C  
ENDROOT
BRANCH   3   5
HETATM    5  N   UNL     1      -8.479  18.580  67.205  1.00  0.00    -0.255 N  
HETATM    6  H   UNL     1     -10.494  17.845  64.771  1.00  0.00     0.000 HD 
HETATM    7  O   UNL     1      -8.529  16.787  65.762  1.00  0.00    -0.472 OA 
HETATM    8  C   UNL     1      -9.309  19.589  67.853  1.00  0.00    -0.333 C  
HETATM    9  C   UNL     1      -9.009  17.840  66.170  1.00  0.00    -0.094 C  
HETATM   10  C   UNL     1      -9.910  20.491  66.793  1.00  0.00    -0.460 C  
HETATM   11  N   UNL     1     -10.101  18.376  65.549  1.00  0.00     0.230 N  
HETATM   12  C   UNL     1     -10.756  19.622  65.885  1.00  0.00    -0.413 C  
ENDBRANCH   3   5
BRANCH   3  13
HETATM   13  C   UNL     1      -7.141  17.001  68.664  1.00  0.00    -0.210 C  
HETATM   14  O   UNL     1      -6.227  16.722  69.432  1.00  0.00    -0.193 OA 
HETATM   15  N   UNL     1      -8.227  16.166  68.493  1.00  0.00    -0.176 N  
HETATM   16  H   UNL     1      -8.949  16.486  67.848  1.00  0.00     0.000 HD 
BRANCH  15  17
HETATM   17  C   UNL     1      -8.455  14.873  69.134  1.00  0.00    -0.152 C  
BRANCH  17  18
HETATM   18  C   UNL     1      -8.965  13.779  68.169  1.00  0.00    -0.190 C  
BRANCH  18  19
HETATM   19  C   UNL     1      -8.393  12.339  68.138  1.00  0.00    -0.174 C  
HETATM   20  O   UNL     1      -7.602  12.170  66.958  1.00  0.00    -0.231 OA 
HETATM   21  H   UNL     1      -7.251  11.287  66.938  1.00  0.00     0.000 HD 
BRANCH  19  22
HETATM   22  C   UNL     1      -9.554  11.270  68.094  1.00  0.00    -0.186 C  
BRANCH  22  23
HETATM   23  N   UNL     1     -10.822  11.723  68.774  1.00  0.00    -0.219 N  
HETATM   24  C   UNL     1     -11.499  11.474  69.948  1.00  0.00    -0.260 C  
HETATM   25  H   UNL     1     -11.318  12.407  68.203  1.00  0.00     0.000 HD 
HETATM   26  O   UNL     1     -12.402  12.251  70.275  1.00  0.00    -0.273 OA 
BRANCH  24  27
HETATM   27  C   UNL     1     -11.214  10.200  70.761  1.00  0.00    -0.336 C  
BRANCH  27  28
HETATM   28  O   UNL     1     -10.800   8.980  70.168  1.00  0.00    -0.229 OA 
BRANCH  28  29
HETATM   29  C   UNL     1      -9.819   8.233  70.806  1.00  0.00    -0.179 A  
HETATM   30  C   UNL     1      -7.673   9.759  70.491  1.00  0.00    -0.094 C  
HETATM   31  C   UNL     1      -8.454   8.572  70.998  1.00  0.00    -0.185 A  
HETATM   32  C   UNL     1      -7.646   7.721  71.791  1.00  0.00    -0.088 A  
HETATM   33  C   UNL     1      -8.133   6.560  72.370  1.00  0.00    -0.101 A  
HETATM   34  C   UNL     1      -9.452   6.203  72.153  1.00  0.00    -0.159 A  
HETATM   35  C   UNL     1     -10.299   7.013  71.371  1.00  0.00    -0.211 A  
HETATM   36  C   UNL     1     -11.711   6.519  71.170  1.00  0.00    -0.392 C  
ENDBRANCH  28  29
ENDBRANCH  27  28
ENDBRANCH  24  27
ENDBRANCH  22  23
BRANCH  22  37
HETATM   37  C   UNL     1      -9.686  10.577  66.711  1.00  0.00    -0.220 C  
BRANCH  37  38
HETATM   38  C   UNL     1     -10.449  11.375  65.690  1.00  0.00    -0.316 A  
HETATM   39  C   UNL     1     -11.710  13.056  63.840  1.00  0.00    -0.531 A  
HETATM   40  C   UNL     1     -11.559  12.134  66.068  1.00  0.00    -0.420 A  
HETATM   41  C   UNL     1     -10.653  12.249  63.440  1.00  0.00    -0.427 A  
HETATM   42  C   UNL     1     -10.061  11.379  64.351  1.00  0.00    -0.341 A  
HETATM   43  C   UNL     1     -12.186  12.970  65.146  1.00  0.00    -0.507 A  
ENDBRANCH  37  38
ENDBRANCH  22  37
ENDBRANCH  19  22
ENDBRANCH  18  19
ENDBRANCH  17  18
BRANCH  17  44
HETATM   44  C   UNL     1      -9.105  14.969  70.531  1.00  0.00     1.299 C  
BRANCH  44  45
HETATM   45  C   UNL     1     -10.592  15.267  70.490  1.00  0.00    -0.190 A  
HETATM   46  C   UNL     1     -11.359  15.321  71.666  1.00  0.00    -0.440 A  
HETATM   47  C   UNL     1     -11.236  15.470  69.264  1.00  0.00    -0.312 A  
HETATM   48  C   UNL     1     -12.742  15.531  71.607  1.00  0.00    -0.502 A  
HETATM   49  C   UNL     1     -12.616  15.683  69.207  1.00  0.00     0.248 A  
HETATM   50  C   UNL     1     -13.371  15.705  70.376  1.00  0.00     0.222 A  
ENDBRANCH  44  45
ENDBRANCH  17  44
ENDBRANCH  15  17
ENDBRANCH   3  13
TORSDOF 14
ENDMDL
MODEL      249
REMARK 921   NORMALIZED FREE ENERGY PREDICTED BY IDOCK:   -3.07 KCAL/MOL
REMARK 922        TOTAL FREE ENERGY PREDICTED BY IDOCK:  -10.14 KCAL/MOL
REMARK 923 INTER-LIGAND FREE ENERGY PREDICTED BY IDOCK:   -8.43 KCAL/MOL
REMARK 924 INTRA-LIGAND FREE ENERGY PREDICTED BY IDOCK:   -1.72 KCAL/MOL
REMARK 927      BINDING AFFINITY PREDICTED BY RF-SCORE:    0.00 PKD
ROOT
HETATM    1  C   UNL     1      -5.148  11.445  66.270  1.00  0.00    -0.090 C  
HETATM    2  C   UNL     1      -5.655  10.637  67.475  1.00  0.00    -0.044 C  
HETATM    3  C   UNL     1      -7.134  11.000  67.813  1.00  0.00    -0.086 C  
HETATM    4  C   UNL     1      -5.432   9.150  67.190  1.00  0.00    -0.041 C  
ENDROOT
BRANCH   3   5
HETATM    5  N   UNL     1      -7.272  12.429  68.178  1.00  0.00    -0.091 N  
HETATM    6  H   UNL     1      -6.412  14.563  70.465  1.00  0.00     0.000 HD 
HETATM    7  O   UNL     1      -5.617  12.359  69.778  1.00  0.00    -0.083 OA 
HETATM    8  C   UNL     1      -8.074  13.328  67.357  1.00  0.00    -0.175 C  
HETATM    9  C   UNL     1      -6.540  12.949  69.224  1.00  0.00    -0.085 C  
HETATM   10  C   UNL     1      -8.946  14.179  68.261  1.00  0.00    -0.188 C  
HETATM   11  N   UNL     1      -6.936  14.174  69.681  1.00  0.00    -0.064 N  
HETATM   12  C   UNL     1      -8.025  14.975  69.162  1.00  0.00    -0.195 C  
ENDBRANCH   3   5
BRANCH   3  13
HETATM   13  C   UNL     1      -7.735  10.043  68.888  1.00  0.00    -0.089 C  
HETATM   14  O   UNL     1      -8.777  10.273  69.492  1.00  0.00    -0.175 OA 
HETATM   15  N   UNL     1      -6.954   8.943  69.180  1.00  0.00    -0.058 N  
HETATM   16  H   UNL     1      -6.113   8.820  68.616  1.00  0.00     0.000 HD 
BRANCH  15  17
HETATM   17  C   UNL     1      -7.198   7.935  70.209  1.00  0.00    -0.057 C  
BRANCH  17  18
HETATM   18  C   UNL     1      -8.171   6.819  69.771  1.00  0.00    -0.127 C  
BRANCH  18  19
HETATM   19  C   UNL     1      -7.956   5.952  68.504  1.00  0.00    -0.102 C  
HETATM   20  O   UNL     1      -6.645   6.194  67.983  1.00  0.00    -0.056 OA 
HETATM   21  H   UNL     1      -6.513   5.663  67.207  1.00  0.00     0.000 HD 
BRANCH  19  22
HETATM   22  C   UNL     1      -8.996   6.329  67.378  1.00  0.00    -0.109 C  
BRANCH  22  23
HETATM   23  N   UNL     1      -8.382   7.032  66.194  1.00  0.00    -0.124 N  
HETATM   24  C   UNL     1      -8.556   8.210  65.499  1.00  0.00    -0.149 C  
HETATM   25  H   UNL     1      -7.623   6.480  65.794  1.00  0.00     0.000 HD 
HETATM   26  O   UNL     1      -7.666   8.562  64.719  1.00  0.00    -0.095 OA 
BRANCH  24  27
HETATM   27  C   UNL     1      -9.873   8.995  65.607  1.00  0.00    -0.016 C  
BRANCH  27  28
HETATM   28  O   UNL     1      -9.963  10.279  66.204  1.00  0.00    -0.215 OA 
BRANCH  28  29
HETATM   29  C   UNL     1     -10.617  11.288  65.511  1.00  0.00    -0.246 A  
HETATM   30  C   UNL     1      -9.575  11.053  63.084  1.00  0.00    -0.384 C  
HETATM   31  C   UNL     1     -10.497  11.619  64.136  1.00  0.00    -0.402 A  
HETATM   32  C   UNL     1     -11.355  12.608  63.596  1.00  0.00    -0.544 A  
HETATM   33  C   UNL     1     -12.293  13.280  64.364  1.00  0.00    -0.410 A  
HETATM   34  C   UNL     1     -12.387  12.991  65.714  1.00  0.00    -0.477 A  
HETATM   35  C   UNL     1     -11.557  12.016  66.302  1.00  0.00    -0.378 A  
HETATM   36  C   UNL     1     -11.717  11.798  67.787  1.00  0.00    -0.337 C  
ENDBRANCH  28  29
ENDBRANCH  27  28
ENDBRANCH  24  27
ENDBRANCH  22  23
BRANCH  22  37
HETATM   37  C   UNL     1     -10.016   5.193  67.092  1.00  0.00    -0.221 C  
BRANCH  37  38
HETATM   38  C   UNL     1      -9.641   4.303  65.939  1.00  0.00    -0.191 A  
HETATM   39  C   UNL     1      -8.842   2.852  63.681  1.00  0.00    -0.092 A  
HETATM   40  C   UNL     1     -10.523   4.115  64.872  1.00  0.00    -0.193 A  
HETATM   41  C   UNL     1      -7.988   2.974  64.769  1.00  0.00    -0.082 A  
HETATM   42  C   UNL     1      -8.407   3.654  65.909  1.00  0.00    -0.106 A  
HETATM   43  C   UNL     1     -10.125   3.393  63.749  1.00  0.00    -0.193 A  
ENDBRANCH  37  38
ENDBRANCH  22  37
ENDBRANCH  19  22
ENDBRANCH  18  19
ENDBRANCH  17  18
BRANCH  17  44
HETATM   44  C   UNL     1      -7.351   8.514  71.632  1.00  0.00    -0.118 C  
BRANCH  44  45
HETATM   45  C   UNL     1      -8.400   7.805  72.468  1.00  0.00    -0.170 A  
HETATM   46  C   UNL     1      -9.750   8.191  72.427  1.00  0.00    -0.338 A  
HETATM   47  C   UNL     1      -8.029   6.761  73.324  1.00  0.00    -0.109 A  
HETATM   48  C   UNL     1     -10.694   7.571  73.254  1.00  0.00    -0.437 A  
HETATM   49  C   UNL     1      -8.974   6.140  74.146  1.00  0.00    -0.135 A  
HETATM   50  C   UNL     1     -10.304   6.551  74.118  1.00  0.00    -0.351 A  
ENDBRANCH  44  45
ENDBRANCH  17  44
ENDBRANCH  15  17
ENDBRANCH   3  13
TORSDOF 14
ENDMDL
MODEL      250
REMARK 921   NORMALIZED FREE ENERGY PREDICTED BY IDOCK:   -3.06 KCAL/MOL
REMARK 922        TOTAL FREE ENERGY PREDICTED BY IDOCK:  -10.12 KCAL/MOL
REMARK 923 INTER-LIGAND FREE ENERGY PREDICTED BY IDOCK:   -9.29 KCAL/MOL
REMARK 924 INTRA-LIGAND FREE ENERGY PREDICTED BY IDOCK:   -0.83 KCAL/MOL
REMARK 927      BINDING AFFINITY PREDICTED BY RF-SCORE:    0.00 PKD
ROOT
HETATM    1  C   UNL     1     -10.360  19.073  66.555  1.00  0.00    -0.512 C  
HETATM    2  C   UNL     1     -10.147  17.579  66.843  1.00  0.00    -0.324 C  
HETATM    3  C   UNL     1      -9.083  17.368  67.964  1.00  0.00    -0.259 C  
HETATM    4  C   UNL     1     -11.506  16.946  67.151  1.00  0.00     0.678 C  
ENDROOT
BRANCH   3   5
HETATM    5  N   UNL     1      -7.763  17.912  67.569  1.00  0.00    -0.209 N  
HETATM    6  H   UNL     1      -5.614  20.204  68.376  1.00  0.00     0.000 HD 
HETATM    7  O   UNL     1      -7.493  19.128  69.505  1.00  0.00    -0.154 OA 
HETATM    8  C   UNL     1      -7.057  17.376  66.411  1.00  0.00    -0.293 C  
HETATM    9  C   UNL     1      -7.132  18.841  68.368  1.00  0.00    -0.265 C  
HETATM   10  C   UNL     1      -6.517  18.526  65.584  1.00  0.00    -0.319 C  
HETATM   11  N   UNL     1      -6.080  19.503  67.800  1.00  0.00    -0.202 N  
HETATM   12  C   UNL     1      -5.562  19.308  66.462  1.00  0.00    -0.153 C  
ENDBRANCH   3   5
BRANCH   3  13
HETATM   13  C   UNL     1      -9.009  15.879  68.421  1.00  0.00    -0.189 C  
HETATM   14  O   UNL     1      -7.955  15.285  68.622  1.00  0.00    -0.133 OA 
HETATM   15  N   UNL     1     -10.230  15.240  68.500  1.00  0.00    -0.220 N  
HETATM   16  H   UNL     1     -11.055  15.816  68.335  1.00  0.00     0.000 HD 
BRANCH  15  17
HETATM   17  C   UNL     1     -10.470  13.829  68.794  1.00  0.00    -0.214 C  
BRANCH  17  18
HETATM   18  C   UNL     1      -9.938  12.866  67.709  1.00  0.00    -0.230 C  
BRANCH  18  19
HETATM   19  C   UNL     1     -10.123  11.328  67.774  1.00  0.00    -0.179 C  
HETATM   20  O   UNL     1     -11.505  11.027  67.990  1.00  0.00    -0.353 OA 
HETATM   21  H   UNL     1     -11.618  10.085  68.030  1.00  0.00     0.000 HD 
BRANCH  19  22
HETATM   22  C   UNL     1      -9.304  10.711  68.974  1.00  0.00    -0.180 C  
BRANCH  22  23
HETATM   23  N   UNL     1     -10.156   9.967  69.971  1.00  0.00    -0.254 N  
HETATM   24  C   UNL     1      -9.991   9.320  71.177  1.00  0.00    -0.286 C  
HETATM   25  H   UNL     1     -11.128   9.933  69.668  1.00  0.00     0.000 HD 
HETATM   26  O   UNL     1     -11.000   9.045  71.833  1.00  0.00    -0.352 OA 
BRANCH  24  27
HETATM   27  C   UNL     1      -8.598   8.851  71.630  1.00  0.00    -0.090 C  
BRANCH  27  28
HETATM   28  O   UNL     1      -8.217   7.485  71.672  1.00  0.00    -0.100 OA 
BRANCH  28  29
HETATM   29  C   UNL     1      -8.644   6.645  70.653  1.00  0.00    -0.142 A  
HETATM   30  C   UNL     1     -10.982   5.802  71.579  1.00  0.00    -0.304 C  
HETATM   31  C   UNL     1      -9.869   5.932  70.569  1.00  0.00    -0.231 A  
HETATM   32  C   UNL     1     -10.166   5.227  69.377  1.00  0.00    -0.321 A  
HETATM   33  C   UNL     1      -9.297   5.191  68.297  1.00  0.00    -0.152 A  
HETATM   34  C   UNL     1      -8.084   5.851  68.388  1.00  0.00    -0.109 A  
HETATM   35  C   UNL     1      -7.738   6.566  69.552  1.00  0.00    -0.100 A  
HETATM   36  C   UNL     1      -6.380   7.224  69.562  1.00  0.00    -0.035 C  
ENDBRANCH  28  29
ENDBRANCH  27  28
ENDBRANCH  24  27
ENDBRANCH  22  23
BRANCH  22  37
HETATM   37  C   UNL     1      -7.977  10.044  68.521  1.00  0.00    -0.102 C  
BRANCH  37  38
HETATM   38  C   UNL     1      -8.053   9.365  67.181  1.00  0.00    -0.102 A  
HETATM   39  C   UNL     1      -8.075   7.899  64.795  1.00  0.00    -0.141 A  
HETATM   40  C   UNL     1      -7.021   9.514  66.251  1.00  0.00    -0.091 A  
HETATM   41  C   UNL     1      -9.139   7.801  65.684  1.00  0.00     0.010 A  
HETATM   42  C   UNL     1      -9.146   8.568  66.845  1.00  0.00    -0.177 A  
HETATM   43  C   UNL     1      -7.034   8.785  65.064  1.00  0.00    -0.076 A  
ENDBRANCH  37  38
ENDBRANCH  22  37
ENDBRANCH  19  22
ENDBRANCH  18  19
ENDBRANCH  17  18
BRANCH  17  44
HETATM   44  C   UNL     1     -11.861  13.542  69.401  1.00  0.00    -0.389 C  
BRANCH  44  45
HETATM   45  C   UNL     1     -12.144  14.325  70.669  1.00  0.00    -0.417 A  
HETATM   46  C   UNL     1     -13.457  14.652  71.048  1.00  0.00    -0.375 A  
HETATM   47  C   UNL     1     -11.087  14.761  71.477  1.00  0.00     0.211 A  
HETATM   48  C   UNL     1     -13.697  15.432  72.185  1.00  0.00    -0.618 A  
HETATM   49  C   UNL     1     -11.330  15.536  72.615  1.00  0.00    -0.233 A  
HETATM   50  C   UNL     1     -12.633  15.880  72.964  1.00  0.00    -0.606 A  
ENDBRANCH  44  45
ENDBRANCH  17  44
ENDBRANCH  15  17
ENDBRANCH   3  13
TORSDOF 14
ENDMDL
MODEL      251
REMARK 921   NORMALIZED FREE ENERGY PREDICTED BY IDOCK:   -3.05 KCAL/MOL
REMARK 922        TOTAL FREE ENERGY PREDICTED BY IDOCK:  -10.10 KCAL/MOL
REMARK 923 INTER-LIGAND FREE ENERGY PREDICTED BY IDOCK:   -8.49 KCAL/MOL
REMARK 924 INTRA-LIGAND FREE ENERGY PREDICTED BY IDOCK:   -1.61 KCAL/MOL
REMARK 927      BINDING AFFINITY PREDICTED BY RF-SCORE:    0.00 PKD
ROOT
HETATM    1  C   UNL     1     -11.081  15.810  65.607  1.00  0.00    -0.155 C  
HETATM    2  C   UNL     1     -10.786  14.860  66.779  1.00  0.00    -0.312 C  
HETATM    3  C   UNL     1      -9.812  13.721  66.346  1.00  0.00    -0.298 C  
HETATM    4  C   UNL     1     -10.280  15.691  67.961  1.00  0.00    -0.227 C  
ENDROOT
BRANCH   3   5
HETATM    5  N   UNL     1     -10.395  12.888  65.268  1.00  0.00    -0.296 N  
HETATM    6  H   UNL     1     -12.975  11.038  64.598  1.00  0.00     0.000 HD 
HETATM    7  O   UNL     1     -12.473  12.763  66.253  1.00  0.00    -0.477 OA 
HETATM    8  C   UNL     1      -9.676  12.689  64.016  1.00  0.00     0.164 C  
HETATM    9  C   UNL     1     -11.680  12.402  65.389  1.00  0.00    -0.402 C  
HETATM   10  C   UNL     1      -9.739  11.221  63.638  1.00  0.00    -0.351 C  
HETATM   11  N   UNL     1     -12.032  11.418  64.510  1.00  0.00     0.146 N  
HETATM   12  C   UNL     1     -11.199  10.859  63.465  1.00  0.00     0.601 C  
ENDBRANCH   3   5
BRANCH   3  13
HETATM   13  C   UNL     1      -9.330  12.875  67.565  1.00  0.00    -0.190 C  
HETATM   14  O   UNL     1      -8.370  13.182  68.264  1.00  0.00    -0.152 OA 
HETATM   15  N   UNL     1     -10.017  11.693  67.752  1.00  0.00    -0.178 N  
HETATM   16  H   UNL     1     -10.813  11.528  67.137  1.00  0.00     0.000 HD 
BRANCH  15  17
HETATM   17  C   UNL     1      -9.728  10.650  68.735  1.00  0.00    -0.189 C  
BRANCH  17  18
HETATM   18  C   UNL     1      -8.475   9.810  68.404  1.00  0.00    -0.114 C  
BRANCH  18  19
HETATM   19  C   UNL     1      -8.534   8.303  68.042  1.00  0.00    -0.132 C  
HETATM   20  O   UNL     1      -9.828   7.993  67.518  1.00  0.00    -0.151 OA 
HETATM   21  H   UNL     1      -9.864   7.070  67.296  1.00  0.00     0.000 HD 
BRANCH  19  22
HETATM   22  C   UNL     1      -8.306   7.406  69.321  1.00  0.00    -0.132 C  
BRANCH  22  23
HETATM   23  N   UNL     1      -7.747   8.162  70.501  1.00  0.00    -0.082 N  
HETATM   24  C   UNL     1      -8.022   8.312  71.843  1.00  0.00    -0.127 C  
HETATM   25  H   UNL     1      -6.938   8.719  70.228  1.00  0.00     0.000 HD 
HETATM   26  O   UNL     1      -7.162   8.834  72.558  1.00  0.00    -0.313 OA 
BRANCH  24  27
HETATM   27  C   UNL     1      -9.407   7.949  72.404  1.00  0.00    -0.186 C  
BRANCH  27  28
HETATM   28  O   UNL     1      -9.590   7.277  73.640  1.00  0.00    -0.219 OA 
BRANCH  28  29
HETATM   29  C   UNL     1      -9.653   5.891  73.638  1.00  0.00    -0.143 A  
HETATM   30  C   UNL     1     -12.160   5.455  72.889  1.00  0.00     0.042 C  
HETATM   31  C   UNL     1     -10.752   5.070  73.272  1.00  0.00    -0.315 A  
HETATM   32  C   UNL     1     -10.566   3.667  73.219  1.00  0.00    -0.276 A  
HETATM   33  C   UNL     1      -9.358   3.064  73.530  1.00  0.00    -0.102 A  
HETATM   34  C   UNL     1      -8.294   3.855  73.927  1.00  0.00    -0.091 A  
HETATM   35  C   UNL     1      -8.425   5.257  73.998  1.00  0.00    -0.112 A  
HETATM   36  C   UNL     1      -7.217   6.026  74.472  1.00  0.00    -0.091 C  
ENDBRANCH  28  29
ENDBRANCH  27  28
ENDBRANCH  24  27
ENDBRANCH  22  23
BRANCH  22  37
HETATM   37  C   UNL     1      -9.476   6.421  69.585  1.00  0.00    -0.154 C  
BRANCH  37  38
HETATM   38  C   UNL     1      -9.180   4.995  69.213  1.00  0.00    -0.155 A  
HETATM   39  C   UNL     1      -8.431   2.428  68.380  1.00  0.00    -0.093 A  
HETATM   40  C   UNL     1      -9.771   4.417  68.087  1.00  0.00    -0.181 A  
HETATM   41  C   UNL     1      -7.893   2.968  69.541  1.00  0.00    -0.052 A  
HETATM   42  C   UNL     1      -8.305   4.224  69.978  1.00  0.00    -0.077 A  
HETATM   43  C   UNL     1      -9.399   3.140  67.674  1.00  0.00    -0.247 A  
ENDBRANCH  37  38
ENDBRANCH  22  37
ENDBRANCH  19  22
ENDBRANCH  18  19
ENDBRANCH  17  18
BRANCH  17  44
HETATM   44  C   UNL     1     -10.981   9.912  69.255  1.00  0.00    -0.244 C  
BRANCH  44  45
HETATM   45  C   UNL     1     -11.775  10.707  70.274  1.00  0.00    -0.433 A  
HETATM   46  C   UNL     1     -12.516  10.068  71.282  1.00  0.00    -0.494 A  
HETATM   47  C   UNL     1     -11.804  12.105  70.209  1.00  0.00    -0.339 A  
HETATM   48  C   UNL     1     -13.297  10.812  72.174  1.00  0.00    -0.314 A  
HETATM   49  C   UNL     1     -12.581  12.847  71.103  1.00  0.00    -0.373 A  
HETATM   50  C   UNL     1     -13.335  12.201  72.079  1.00  0.00    -0.470 A  
ENDBRANCH  44  45
ENDBRANCH  17  44
ENDBRANCH  15  17
ENDBRANCH   3  13
TORSDOF 14
ENDMDL
MODEL      252
REMARK 921   NORMALIZED FREE ENERGY PREDICTED BY IDOCK:   -3.04 KCAL/MOL
REMARK 922        TOTAL FREE ENERGY PREDICTED BY IDOCK:  -10.08 KCAL/MOL
REMARK 923 INTER-LIGAND FREE ENERGY PREDICTED BY IDOCK:   -7.28 KCAL/MOL
REMARK 924 INTRA-LIGAND FREE ENERGY PREDICTED BY IDOCK:   -2.81 KCAL/MOL
REMARK 927      BINDING AFFINITY PREDICTED BY RF-SCORE:    0.00 PKD
ROOT
HETATM    1  C   UNL     1     -10.189  17.629  68.248  1.00  0.00    -0.374 C  
HETATM    2  C   UNL     1     -10.333  16.158  67.831  1.00  0.00    -0.277 C  
HETATM    3  C   UNL     1      -9.196  15.285  68.447  1.00  0.00    -0.194 C  
HETATM    4  C   UNL     1     -11.742  15.686  68.197  1.00  0.00    -0.209 C  
ENDROOT
BRANCH   3   5
HETATM    5  N   UNL     1      -7.860  15.725  67.980  1.00  0.00    -0.130 N  
HETATM    6  H   UNL     1      -4.870  16.357  69.065  1.00  0.00     0.000 HD 
HETATM    7  O   UNL     1      -6.791  15.120  69.927  1.00  0.00    -0.181 OA 
HETATM    8  C   UNL     1      -7.644  16.076  66.582  1.00  0.00    -0.165 C  
HETATM    9  C   UNL     1      -6.781  15.682  68.836  1.00  0.00    -0.123 C  
HETATM   10  C   UNL     1      -6.844  17.363  66.512  1.00  0.00    -0.289 C  
HETATM   11  N   UNL     1      -5.670  16.368  68.433  1.00  0.00    -0.104 N  
HETATM   12  C   UNL     1      -5.518  17.111  67.199  1.00  0.00    -0.154 C  
ENDBRANCH   3   5
BRANCH   3  13
HETATM   13  C   UNL     1      -9.443  13.762  68.217  1.00  0.00    -0.214 C  
HETATM   14  O   UNL     1     -10.200  13.088  68.907  1.00  0.00    -0.139 OA 
HETATM   15  N   UNL     1      -8.671  13.199  67.222  1.00  0.00    -0.202 N  
HETATM   16  H   UNL     1      -8.083  13.838  66.686  1.00  0.00     0.000 HD 
BRANCH  15  17
HETATM   17  C   UNL     1      -8.601  11.787  66.852  1.00  0.00    -0.177 C  
BRANCH  17  18
HETATM   18  C   UNL     1      -7.175  11.196  66.906  1.00  0.00    -0.138 C  
BRANCH  18  19
HETATM   19  C   UNL     1      -6.584  10.516  68.168  1.00  0.00    -0.063 C  
HETATM   20  O   UNL     1      -5.258  10.063  67.883  1.00  0.00    -0.038 OA 
HETATM   21  H   UNL     1      -4.896   9.646  68.656  1.00  0.00     0.000 HD 
BRANCH  19  22
HETATM   22  C   UNL     1      -7.442   9.258  68.585  1.00  0.00    -0.080 C  
BRANCH  22  23
HETATM   23  N   UNL     1      -8.827   9.602  69.073  1.00  0.00    -0.140 N  
HETATM   24  C   UNL     1      -9.481   9.747  70.277  1.00  0.00    -0.195 C  
HETATM   25  H   UNL     1      -9.457   9.777  68.291  1.00  0.00     0.000 HD 
HETATM   26  O   UNL     1     -10.584  10.301  70.278  1.00  0.00    -0.282 OA 
BRANCH  24  27
HETATM   27  C   UNL     1      -8.904   9.127  71.561  1.00  0.00     0.025 C  
BRANCH  27  28
HETATM   28  O   UNL     1      -9.714   8.611  72.604  1.00  0.00    -0.255 OA 
BRANCH  28  29
HETATM   29  C   UNL     1      -9.924   7.241  72.665  1.00  0.00    -0.184 A  
HETATM   30  C   UNL     1      -7.535   6.349  73.393  1.00  0.00    -0.086 C  
HETATM   31  C   UNL     1      -8.999   6.234  73.049  1.00  0.00    -0.130 A  
HETATM   32  C   UNL     1      -9.456   4.899  73.165  1.00  0.00    -0.144 A  
HETATM   33  C   UNL     1     -10.766   4.534  72.899  1.00  0.00    -0.281 A  
HETATM   34  C   UNL     1     -11.663   5.503  72.484  1.00  0.00    -0.222 A  
HETATM   35  C   UNL     1     -11.261   6.847  72.351  1.00  0.00    -0.303 A  
HETATM   36  C   UNL     1     -12.306   7.820  71.863  1.00  0.00    -0.342 C  
ENDBRANCH  28  29
ENDBRANCH  27  28
ENDBRANCH  24  27
ENDBRANCH  22  23
BRANCH  22  37
HETATM   37  C   UNL     1      -7.303   8.074  67.590  1.00  0.00    -0.093 C  
BRANCH  37  38
HETATM   38  C   UNL     1      -8.234   6.925  67.862  1.00  0.00    -0.114 A  
HETATM   39  C   UNL     1     -10.138   4.958  68.451  1.00  0.00    -0.148 A  
HETATM   40  C   UNL     1      -8.232   6.290  69.107  1.00  0.00    -0.114 A  
HETATM   41  C   UNL     1     -10.099   5.534  67.188  1.00  0.00    -0.220 A  
HETATM   42  C   UNL     1      -9.120   6.475  66.884  1.00  0.00    -0.144 A  
HETATM   43  C   UNL     1      -9.180   5.311  69.398  1.00  0.00    -0.152 A  
ENDBRANCH  37  38
ENDBRANCH  22  37
ENDBRANCH  19  22
ENDBRANCH  18  19
ENDBRANCH  17  18
BRANCH  17  44
HETATM   44  C   UNL     1      -9.500  11.407  65.655  1.00  0.00    -0.253 C  
BRANCH  44  45
HETATM   45  C   UNL     1      -8.866  10.398  64.715  1.00  0.00    -0.211 A  
HETATM   46  C   UNL     1      -8.026  10.804  63.665  1.00  0.00     0.171 A  
HETATM   47  C   UNL     1      -9.134   9.032  64.865  1.00  0.00    -0.132 A  
HETATM   48  C   UNL     1      -7.503   9.867  62.767  1.00  0.00    -0.128 A  
HETATM   49  C   UNL     1      -8.608   8.097  63.970  1.00  0.00     0.197 A  
HETATM   50  C   UNL     1      -7.800   8.515  62.915  1.00  0.00    -0.146 A  
ENDBRANCH  44  45
ENDBRANCH  17  44
ENDBRANCH  15  17
ENDBRANCH   3  13
TORSDOF 14
ENDMDL
MODEL      253
REMARK 921   NORMALIZED FREE ENERGY PREDICTED BY IDOCK:   -3.00 KCAL/MOL
REMARK 922        TOTAL FREE ENERGY PREDICTED BY IDOCK:  -10.01 KCAL/MOL
REMARK 923 INTER-LIGAND FREE ENERGY PREDICTED BY IDOCK:   -8.56 KCAL/MOL
REMARK 924 INTRA-LIGAND FREE ENERGY PREDICTED BY IDOCK:   -1.46 KCAL/MOL
REMARK 927      BINDING AFFINITY PREDICTED BY RF-SCORE:    0.00 PKD
ROOT
HETATM    1  C   UNL     1     -11.900  16.098  68.389  1.00  0.00     0.018 C  
HETATM    2  C   UNL     1     -11.162  14.758  68.247  1.00  0.00    -0.299 C  
HETATM    3  C   UNL     1     -11.918  13.618  68.996  1.00  0.00    -0.353 C  
HETATM    4  C   UNL     1     -10.942  14.480  66.758  1.00  0.00    -0.316 C  
ENDROOT
BRANCH   3   5
HETATM    5  N   UNL     1     -12.014  13.893  70.449  1.00  0.00    -0.326 N  
HETATM    6  H   UNL     1     -13.699  13.051  73.090  1.00  0.00     0.000 HD 
HETATM    7  O   UNL     1     -13.351  12.069  70.881  1.00  0.00     0.194 OA 
HETATM    8  C   UNL     1     -11.153  14.891  71.072  1.00  0.00    -0.081 C  
HETATM    9  C   UNL     1     -12.827  13.117  71.247  1.00  0.00    -0.296 C  
HETATM   10  C   UNL     1     -11.986  15.754  72.000  1.00  0.00    -0.570 C  
HETATM   11  N   UNL     1     -13.087  13.609  72.495  1.00  0.00    -0.419 N  
HETATM   12  C   UNL     1     -12.578  14.843  73.056  1.00  0.00    -0.426 C  
ENDBRANCH   3   5
BRANCH   3  13
HETATM   13  C   UNL     1     -11.308  12.216  68.688  1.00  0.00    -0.280 C  
HETATM   14  O   UNL     1     -11.975  11.254  68.323  1.00  0.00    -0.582 OA 
HETATM   15  N   UNL     1      -9.956  12.109  68.944  1.00  0.00    -0.422 N  
HETATM   16  H   UNL     1      -9.478  12.964  69.226  1.00  0.00     0.000 HD 
BRANCH  15  17
HETATM   17  C   UNL     1      -9.134  10.904  68.855  1.00  0.00    -0.144 C  
BRANCH  17  18
HETATM   18  C   UNL     1      -9.245   9.981  70.089  1.00  0.00    -0.078 C  
BRANCH  18  19
HETATM   19  C   UNL     1      -8.154   8.950  70.479  1.00  0.00    -0.135 C  
HETATM   20  O   UNL     1      -6.866   9.563  70.376  1.00  0.00    -0.074 OA 
HETATM   21  H   UNL     1      -6.197   8.932  70.615  1.00  0.00     0.000 HD 
BRANCH  19  22
HETATM   22  C   UNL     1      -8.175   7.709  69.504  1.00  0.00    -0.129 C  
BRANCH  22  23
HETATM   23  N   UNL     1      -7.059   7.715  68.489  1.00  0.00    -0.078 N  
HETATM   24  C   UNL     1      -6.900   7.970  67.144  1.00  0.00    -0.073 C  
HETATM   25  H   UNL     1      -6.172   7.459  68.921  1.00  0.00     0.000 HD 
HETATM   26  O   UNL     1      -5.753   8.123  66.712  1.00  0.00    -0.038 OA 
BRANCH  24  27
HETATM   27  C   UNL     1      -8.109   7.945  66.194  1.00  0.00    -0.109 C  
BRANCH  27  28
HETATM   28  O   UNL     1      -9.111   6.941  66.243  1.00  0.00    -0.156 OA 
BRANCH  28  29
HETATM   29  C   UNL     1      -8.897   5.758  65.549  1.00  0.00    -0.113 A  
HETATM   30  C   UNL     1      -7.667   6.617  63.362  1.00  0.00    -0.109 C  
HETATM   31  C   UNL     1      -8.230   5.585  64.307  1.00  0.00    -0.124 A  
HETATM   32  C   UNL     1      -8.008   4.270  63.831  1.00  0.00    -0.090 A  
HETATM   33  C   UNL     1      -8.435   3.146  64.521  1.00  0.00    -0.094 A  
HETATM   34  C   UNL     1      -9.122   3.309  65.712  1.00  0.00    -0.153 A  
HETATM   35  C   UNL     1      -9.371   4.596  66.230  1.00  0.00    -0.151 A  
HETATM   36  C   UNL     1     -10.155   4.666  67.518  1.00  0.00    -0.131 C  
ENDBRANCH  28  29
ENDBRANCH  27  28
ENDBRANCH  24  27
ENDBRANCH  22  23
BRANCH  22  37
HETATM   37  C   UNL     1      -8.478   6.372  70.233  1.00  0.00    -0.135 C  
BRANCH  37  38
HETATM   38  C   UNL     1      -9.808   6.338  70.935  1.00  0.00    -0.207 A  
HETATM   39  C   UNL     1     -12.335   6.062  72.108  1.00  0.00    -0.034 A  
HETATM   40  C   UNL     1     -10.915   6.991  70.388  1.00  0.00    -0.301 A  
HETATM   41  C   UNL     1     -11.225   5.470  72.697  1.00  0.00    -0.348 A  
HETATM   42  C   UNL     1      -9.964   5.651  72.138  1.00  0.00    -0.214 A  
HETATM   43  C   UNL     1     -12.172   6.853  70.973  1.00  0.00    -0.427 A  
ENDBRANCH  37  38
ENDBRANCH  22  37
ENDBRANCH  19  22
ENDBRANCH  18  19
ENDBRANCH  17  18
BRANCH  17  44
HETATM   44  C   UNL     1      -7.734  11.141  68.249  1.00  0.00    -0.116 C  
BRANCH  44  45
HETATM   45  C   UNL     1      -7.210  12.549  68.461  1.00  0.00    -0.110 A  
HETATM   46  C   UNL     1      -7.249  13.506  67.433  1.00  0.00    -0.113 A  
HETATM   47  C   UNL     1      -6.649  12.913  69.690  1.00  0.00     0.017 A  
HETATM   48  C   UNL     1      -6.702  14.779  67.622  1.00  0.00    -0.198 A  
HETATM   49  C   UNL     1      -6.106  14.187  69.880  1.00  0.00    -0.140 A  
HETATM   50  C   UNL     1      -6.124  15.117  68.844  1.00  0.00    -0.093 A  
ENDBRANCH  44  45
ENDBRANCH  17  44
ENDBRANCH  15  17
ENDBRANCH   3  13
TORSDOF 14
ENDMDL
MODEL      254
REMARK 921   NORMALIZED FREE ENERGY PREDICTED BY IDOCK:   -3.00 KCAL/MOL
REMARK 922        TOTAL FREE ENERGY PREDICTED BY IDOCK:  -10.00 KCAL/MOL
REMARK 923 INTER-LIGAND FREE ENERGY PREDICTED BY IDOCK:   -9.85 KCAL/MOL
REMARK 924 INTRA-LIGAND FREE ENERGY PREDICTED BY IDOCK:   -0.16 KCAL/MOL
REMARK 927      BINDING AFFINITY PREDICTED BY RF-SCORE:    0.00 PKD
ROOT
HETATM    1  C   UNL     1      -9.301   2.968  65.788  1.00  0.00    -0.086 C  
HETATM    2  C   UNL     1      -9.668   4.318  66.422  1.00  0.00    -0.228 C  
HETATM    3  C   UNL     1      -8.505   5.346  66.269  1.00  0.00    -0.117 C  
HETATM    4  C   UNL     1     -10.995   4.790  65.824  1.00  0.00     0.020 C  
ENDROOT
BRANCH   3   5
HETATM    5  N   UNL     1      -7.276   4.881  66.953  1.00  0.00    -0.076 N  
HETATM    6  H   UNL     1      -4.288   3.777  66.337  1.00  0.00     0.000 HD 
HETATM    7  O   UNL     1      -5.971   5.000  65.059  1.00  0.00    -0.024 OA 
HETATM    8  C   UNL     1      -7.228   4.785  68.407  1.00  0.00    -0.061 C  
HETATM    9  C   UNL     1      -6.124   4.659  66.228  1.00  0.00    -0.031 C  
HETATM   10  C   UNL     1      -6.588   3.467  68.795  1.00  0.00    -0.040 C  
HETATM   11  N   UNL     1      -5.139   3.961  66.868  1.00  0.00    -0.007 N  
HETATM   12  C   UNL     1      -5.185   3.458  68.225  1.00  0.00    -0.012 C  
ENDBRANCH   3   5
BRANCH   3  13
HETATM   13  C   UNL     1      -8.935   6.779  66.710  1.00  0.00    -0.134 C  
HETATM   14  O   UNL     1      -8.421   7.804  66.275  1.00  0.00    -0.126 OA 
HETATM   15  N   UNL     1      -9.889   6.811  67.706  1.00  0.00    -0.123 N  
HETATM   16  H   UNL     1     -10.275   5.913  67.995  1.00  0.00     0.000 HD 
BRANCH  15  17
HETATM   17  C   UNL     1     -10.407   7.992  68.394  1.00  0.00    -0.199 C  
BRANCH  17  18
HETATM   18  C   UNL     1      -9.678   9.302  68.022  1.00  0.00    -0.172 C  
BRANCH  18  19
HETATM   19  C   UNL     1      -9.492  10.482  69.010  1.00  0.00    -0.201 C  
HETATM   20  O   UNL     1      -9.340   9.967  70.336  1.00  0.00    -0.369 OA 
HETATM   21  H   UNL     1      -9.226  10.690  70.942  1.00  0.00     0.000 HD 
BRANCH  19  22
HETATM   22  C   UNL     1     -10.756  11.428  69.004  1.00  0.00    -0.205 C  
BRANCH  22  23
HETATM   23  N   UNL     1     -11.337  11.656  67.632  1.00  0.00    -0.282 N  
HETATM   24  C   UNL     1     -11.356  12.654  66.681  1.00  0.00    -0.326 C  
HETATM   25  H   UNL     1     -11.865  10.842  67.318  1.00  0.00     0.000 HD 
HETATM   26  O   UNL     1     -11.736  12.366  65.542  1.00  0.00    -0.375 OA 
BRANCH  24  27
HETATM   27  C   UNL     1     -11.027  14.107  67.065  1.00  0.00    -0.300 C  
BRANCH  27  28
HETATM   28  O   UNL     1     -10.446  14.467  68.308  1.00  0.00    -0.234 OA 
BRANCH  28  29
HETATM   29  C   UNL     1      -9.197  15.071  68.306  1.00  0.00    -0.184 A  
HETATM   30  C   UNL     1      -7.589  13.010  67.862  1.00  0.00    -0.144 C  
HETATM   31  C   UNL     1      -7.936  14.463  68.070  1.00  0.00    -0.139 A  
HETATM   32  C   UNL     1      -6.787  15.287  67.986  1.00  0.00    -0.152 A  
HETATM   33  C   UNL     1      -6.845  16.663  68.146  1.00  0.00    -0.149 A  
HETATM   34  C   UNL     1      -8.065  17.258  68.416  1.00  0.00    -0.259 A  
HETATM   35  C   UNL     1      -9.239  16.484  68.511  1.00  0.00    -0.230 A  
HETATM   36  C   UNL     1     -10.512  17.225  68.840  1.00  0.00    -0.327 C  
ENDBRANCH  28  29
ENDBRANCH  27  28
ENDBRANCH  24  27
ENDBRANCH  22  23
BRANCH  22  37
HETATM   37  C   UNL     1     -11.744  11.125  70.163  1.00  0.00    -0.439 C  
BRANCH  37  38
HETATM   38  C   UNL     1     -12.327  12.349  70.814  1.00  0.00    -0.377 A  
HETATM   39  C   UNL     1     -13.210  14.626  72.184  1.00  0.00    -0.450 A  
HETATM   40  C   UNL     1     -13.212  12.228  71.889  1.00  0.00    -0.481 A  
HETATM   41  C   UNL     1     -12.388  14.757  71.072  1.00  0.00    -0.397 A  
HETATM   42  C   UNL     1     -11.992  13.626  70.365  1.00  0.00    -0.372 A  
HETATM   43  C   UNL     1     -13.651  13.362  72.569  1.00  0.00    -0.659 A  
ENDBRANCH  37  38
ENDBRANCH  22  37
ENDBRANCH  19  22
ENDBRANCH  18  19
ENDBRANCH  17  18
BRANCH  17  44
HETATM   44  C   UNL     1     -10.756   7.752  69.879  1.00  0.00    -0.245 C  
BRANCH  44  45
HETATM   45  C   UNL     1      -9.963   6.626  70.516  1.00  0.00    -0.197 A  
HETATM   46  C   UNL     1      -8.700   6.854  71.086  1.00  0.00    -0.135 A  
HETATM   47  C   UNL     1     -10.473   5.323  70.521  1.00  0.00    -0.312 A  
HETATM   48  C   UNL     1      -7.952   5.793  71.610  1.00  0.00    -0.117 A  
HETATM   49  C   UNL     1      -9.727   4.265  71.049  1.00  0.00    -0.260 A  
HETATM   50  C   UNL     1      -8.463   4.498  71.584  1.00  0.00    -0.113 A  
ENDBRANCH  44  45
ENDBRANCH  17  44
ENDBRANCH  15  17
ENDBRANCH   3  13
TORSDOF 14
ENDMDL
MODEL      255
REMARK 921   NORMALIZED FREE ENERGY PREDICTED BY IDOCK:   -2.99 KCAL/MOL
REMARK 922        TOTAL FREE ENERGY PREDICTED BY IDOCK:   -9.99 KCAL/MOL
REMARK 923 INTER-LIGAND FREE ENERGY PREDICTED BY IDOCK:   -7.23 KCAL/MOL
REMARK 924 INTRA-LIGAND FREE ENERGY PREDICTED BY IDOCK:   -2.75 KCAL/MOL
REMARK 927      BINDING AFFINITY PREDICTED BY RF-SCORE:    0.00 PKD
ROOT
HETATM    1  C   UNL     1     -12.124  12.839  70.497  1.00  0.00    -0.369 C  
HETATM    2  C   UNL     1     -12.169  11.590  69.604  1.00  0.00    -0.296 C  
HETATM    3  C   UNL     1     -10.860  11.450  68.767  1.00  0.00    -0.208 C  
HETATM    4  C   UNL     1     -12.475  10.376  70.483  1.00  0.00    -0.403 C  
ENDROOT
BRANCH   3   5
HETATM    5  N   UNL     1     -10.667  12.607  67.862  1.00  0.00    -0.213 N  
HETATM    6  H   UNL     1      -8.408  14.719  66.884  1.00  0.00     0.000 HD 
HETATM    7  O   UNL     1      -8.369  12.542  67.989  1.00  0.00    -0.153 OA 
HETATM    8  C   UNL     1     -11.786  13.142  67.096  1.00  0.00    -0.377 C  
HETATM    9  C   UNL     1      -9.401  13.105  67.639  1.00  0.00    -0.205 C  
HETATM   10  C   UNL     1     -11.773  14.655  67.192  1.00  0.00    -0.392 C  
HETATM   11  N   UNL     1      -9.338  14.332  67.041  1.00  0.00    -0.231 N  
HETATM   12  C   UNL     1     -10.462  15.137  66.608  1.00  0.00    -0.287 C  
ENDBRANCH   3   5
BRANCH   3  13
HETATM   13  C   UNL     1     -10.792  10.083  68.020  1.00  0.00    -0.260 C  
HETATM   14  O   UNL     1     -11.377   9.858  66.965  1.00  0.00     0.023 OA 
HETATM   15  N   UNL     1     -10.088   9.099  68.684  1.00  0.00    -0.188 N  
HETATM   16  H   UNL     1      -9.617   9.379  69.544  1.00  0.00     0.000 HD 
BRANCH  15  17
HETATM   17  C   UNL     1      -9.941   7.700  68.290  1.00  0.00    -0.176 C  
BRANCH  17  18
HETATM   18  C   UNL     1      -9.400   7.508  66.856  1.00  0.00    -0.197 C  
BRANCH  18  19
HETATM   19  C   UNL     1      -9.267   6.121  66.176  1.00  0.00    -0.131 C  
HETATM   20  O   UNL     1      -9.244   5.102  67.180  1.00  0.00    -0.115 OA 
HETATM   21  H   UNL     1      -9.162   4.252  66.764  1.00  0.00     0.000 HD 
BRANCH  19  22
HETATM   22  C   UNL     1      -7.920   6.019  65.359  1.00  0.00    -0.118 C  
BRANCH  22  23
HETATM   23  N   UNL     1      -7.419   4.607  65.186  1.00  0.00    -0.075 N  
HETATM   24  C   UNL     1      -6.785   3.647  65.944  1.00  0.00    -0.041 C  
HETATM   25  H   UNL     1      -7.602   4.267  64.242  1.00  0.00     0.000 HD 
HETATM   26  O   UNL     1      -6.768   2.488  65.518  1.00  0.00    -0.037 OA 
BRANCH  24  27
HETATM   27  C   UNL     1      -6.020   4.035  67.220  1.00  0.00    -0.024 C  
BRANCH  27  28
HETATM   28  O   UNL     1      -6.551   4.905  68.206  1.00  0.00    -0.043 OA 
BRANCH  28  29
HETATM   29  C   UNL     1      -6.871   4.380  69.451  1.00  0.00    -0.046 A  
HETATM   30  C   UNL     1      -7.671   1.930  68.824  1.00  0.00    -0.047 C  
HETATM   31  C   UNL     1      -7.322   3.068  69.752  1.00  0.00    -0.044 A  
HETATM   32  C   UNL     1      -7.470   2.693  71.110  1.00  0.00    -0.033 A  
HETATM   33  C   UNL     1      -7.212   3.566  72.155  1.00  0.00    -0.050 A  
HETATM   34  C   UNL     1      -6.812   4.859  71.867  1.00  0.00    -0.052 A  
HETATM   35  C   UNL     1      -6.649   5.284  70.533  1.00  0.00    -0.038 A  
HETATM   36  C   UNL     1      -6.239   6.721  70.327  1.00  0.00    -0.031 C  
ENDBRANCH  28  29
ENDBRANCH  27  28
ENDBRANCH  24  27
ENDBRANCH  22  23
BRANCH  22  37
HETATM   37  C   UNL     1      -7.895   6.949  64.115  1.00  0.00    -0.104 C  
BRANCH  37  38
HETATM   38  C   UNL     1      -6.979   8.134  64.248  1.00  0.00    -0.069 A  
HETATM   39  C   UNL     1      -5.451  10.447  64.646  1.00  0.00    -0.141 A  
HETATM   40  C   UNL     1      -7.058   9.197  63.344  1.00  0.00    -0.089 A  
HETATM   41  C   UNL     1      -5.315   9.365  65.506  1.00  0.00    -0.040 A  
HETATM   42  C   UNL     1      -6.039   8.200  65.276  1.00  0.00    -0.045 A  
HETATM   43  C   UNL     1      -6.296  10.347  63.543  1.00  0.00    -0.069 A  
ENDBRANCH  37  38
ENDBRANCH  22  37
ENDBRANCH  19  22
ENDBRANCH  18  19
ENDBRANCH  17  18
BRANCH  17  44
HETATM   44  C   UNL     1     -11.099   6.791  68.756  1.00  0.00    -0.234 C  
BRANCH  44  45
HETATM   45  C   UNL     1     -10.964   6.322  70.192  1.00  0.00    -0.411 A  
HETATM   46  C   UNL     1     -10.544   5.016  70.498  1.00  0.00    -0.150 A  
HETATM   47  C   UNL     1     -11.285   7.184  71.247  1.00  0.00    -0.287 A  
HETATM   48  C   UNL     1     -10.488   4.578  71.826  1.00  0.00    -0.114 A  
HETATM   49  C   UNL     1     -11.225   6.746  72.573  1.00  0.00    -0.305 A  
HETATM   50  C   UNL     1     -10.836   5.441  72.863  1.00  0.00    -0.318 A  
ENDBRANCH  44  45
ENDBRANCH  17  44
ENDBRANCH  15  17
ENDBRANCH   3  13
TORSDOF 14
ENDMDL
MODEL      256
REMARK 921   NORMALIZED FREE ENERGY PREDICTED BY IDOCK:   -2.93 KCAL/MOL
REMARK 922        TOTAL FREE ENERGY PREDICTED BY IDOCK:   -9.87 KCAL/MOL
REMARK 923 INTER-LIGAND FREE ENERGY PREDICTED BY IDOCK:   -8.55 KCAL/MOL
REMARK 924 INTRA-LIGAND FREE ENERGY PREDICTED BY IDOCK:   -1.32 KCAL/MOL
REMARK 927      BINDING AFFINITY PREDICTED BY RF-SCORE:    0.00 PKD
ROOT
HETATM    1  C   UNL     1      -8.825   2.571  67.761  1.00  0.00    -0.161 C  
HETATM    2  C   UNL     1      -9.463   3.948  68.001  1.00  0.00    -0.221 C  
HETATM    3  C   UNL     1      -8.650   4.770  69.048  1.00  0.00    -0.080 C  
HETATM    4  C   UNL     1      -9.623   4.651  66.651  1.00  0.00    -0.192 C  
ENDROOT
BRANCH   3   5
HETATM    5  N   UNL     1      -8.613   4.088  70.363  1.00  0.00    -0.071 N  
HETATM    6  H   UNL     1      -6.653   3.547  72.891  1.00  0.00     0.000 HD 
HETATM    7  O   UNL     1      -6.696   5.159  71.057  1.00  0.00    -0.037 OA 
HETATM    8  C   UNL     1      -9.755   3.309  70.825  1.00  0.00    -0.103 C  
HETATM    9  C   UNL     1      -7.550   4.292  71.217  1.00  0.00    -0.060 C  
HETATM   10  C   UNL     1      -9.258   1.995  71.398  1.00  0.00    -0.171 C  
HETATM   11  N   UNL     1      -7.444   3.417  72.261  1.00  0.00    -0.055 N  
HETATM   12  C   UNL     1      -8.344   2.323  72.560  1.00  0.00    -0.058 C  
ENDBRANCH   3   5
BRANCH   3  13
HETATM   13  C   UNL     1      -9.152   6.243  69.147  1.00  0.00    -0.130 C  
HETATM   14  O   UNL     1      -8.408   7.216  69.093  1.00  0.00    -0.126 OA 
HETATM   15  N   UNL     1     -10.504   6.374  69.393  1.00  0.00    -0.207 N  
HETATM   16  H   UNL     1     -11.049   5.513  69.403  1.00  0.00     0.000 HD 
BRANCH  15  17
HETATM   17  C   UNL     1     -11.240   7.612  69.640  1.00  0.00     0.025 C  
BRANCH  17  18
HETATM   18  C   UNL     1     -10.455   8.890  69.269  1.00  0.00    -0.234 C  
BRANCH  18  19
HETATM   19  C   UNL     1     -11.026  10.320  69.448  1.00  0.00    -0.247 C  
HETATM   20  O   UNL     1     -12.424  10.312  69.146  1.00  0.00    -0.571 OA 
HETATM   21  H   UNL     1     -12.774  11.188  69.256  1.00  0.00     0.000 HD 
BRANCH  19  22
HETATM   22  C   UNL     1     -10.327  11.335  68.461  1.00  0.00    -0.203 C  
BRANCH  22  23
HETATM   23  N   UNL     1     -10.344  10.890  67.021  1.00  0.00    -0.221 N  
HETATM   24  C   UNL     1      -9.595  10.087  66.189  1.00  0.00    -0.210 C  
HETATM   25  H   UNL     1     -11.133  11.299  66.521  1.00  0.00     0.000 HD 
HETATM   26  O   UNL     1     -10.083   9.756  65.104  1.00  0.00    -0.262 OA 
BRANCH  24  27
HETATM   27  C   UNL     1      -8.148   9.715  66.554  1.00  0.00    -0.119 C  
BRANCH  27  28
HETATM   28  O   UNL     1      -7.065   9.835  65.646  1.00  0.00    -0.096 OA 
BRANCH  28  29
HETATM   29  C   UNL     1      -6.918   8.870  64.659  1.00  0.00    -0.084 A  
HETATM   30  C   UNL     1      -8.034  10.051  62.564  1.00  0.00    -0.142 C  
HETATM   31  C   UNL     1      -7.295   8.957  63.293  1.00  0.00    -0.098 A  
HETATM   32  C   UNL     1      -6.938   7.902  62.419  1.00  0.00    -0.086 A  
HETATM   33  C   UNL     1      -6.253   6.777  62.851  1.00  0.00    -0.043 A  
HETATM   34  C   UNL     1      -5.918   6.667  64.189  1.00  0.00    -0.035 A  
HETATM   35  C   UNL     1      -6.250   7.688  65.102  1.00  0.00    -0.038 A  
HETATM   36  C   UNL     1      -5.868   7.457  66.544  1.00  0.00    -0.035 C  
ENDBRANCH  28  29
ENDBRANCH  27  28
ENDBRANCH  24  27
ENDBRANCH  22  23
BRANCH  22  37
HETATM   37  C   UNL     1     -10.686  12.815  68.762  1.00  0.00    -0.246 C  
BRANCH  37  38
HETATM   38  C   UNL     1     -10.771  13.691  67.542  1.00  0.00    -0.266 A  
HETATM   39  C   UNL     1     -11.032  15.502  65.422  1.00  0.00    -0.365 A  
HETATM   40  C   UNL     1     -11.910  13.671  66.733  1.00  0.00    -0.452 A  
HETATM   41  C   UNL     1      -9.868  15.478  66.179  1.00  0.00    -0.342 A  
HETATM   42  C   UNL     1      -9.722  14.543  67.200  1.00  0.00    -0.240 A  
HETATM   43  C   UNL     1     -12.038  14.572  65.678  1.00  0.00    -0.295 A  
ENDBRANCH  37  38
ENDBRANCH  22  37
ENDBRANCH  19  22
ENDBRANCH  18  19
ENDBRANCH  17  18
BRANCH  17  44
HETATM   44  C   UNL     1     -12.045   7.612  70.957  1.00  0.00    -0.282 C  
BRANCH  44  45
HETATM   45  C   UNL     1     -11.306   6.980  72.122  1.00  0.00    -0.302 A  
HETATM   46  C   UNL     1     -10.185   7.600  72.699  1.00  0.00    -0.321 A  
HETATM   47  C   UNL     1     -11.720   5.743  72.630  1.00  0.00    -0.256 A  
HETATM   48  C   UNL     1      -9.475   6.973  73.728  1.00  0.00    -0.258 A  
HETATM   49  C   UNL     1     -11.012   5.120  73.661  1.00  0.00    -0.350 A  
HETATM   50  C   UNL     1      -9.884   5.729  74.204  1.00  0.00    -0.208 A  
ENDBRANCH  44  45
ENDBRANCH  17  44
ENDBRANCH  15  17
ENDBRANCH   3  13
TORSDOF 14
ENDMDL
MODEL      257
REMARK 921   NORMALIZED FREE ENERGY PREDICTED BY IDOCK:   -2.84 KCAL/MOL
REMARK 922        TOTAL FREE ENERGY PREDICTED BY IDOCK:   -9.71 KCAL/MOL
REMARK 923 INTER-LIGAND FREE ENERGY PREDICTED BY IDOCK:   -7.20 KCAL/MOL
REMARK 924 INTRA-LIGAND FREE ENERGY PREDICTED BY IDOCK:   -2.51 KCAL/MOL
REMARK 927      BINDING AFFINITY PREDICTED BY RF-SCORE:    0.00 PKD
ROOT
HETATM    1  C   UNL     1      -5.356   4.635  66.442  1.00  0.00    -0.009 C  
HETATM    2  C   UNL     1      -6.451   5.699  66.619  1.00  0.00    -0.050 C  
HETATM    3  C   UNL     1      -7.519   5.239  67.658  1.00  0.00    -0.083 C  
HETATM    4  C   UNL     1      -5.782   7.031  66.967  1.00  0.00    -0.018 C  
ENDROOT
BRANCH   3   5
HETATM    5  N   UNL     1      -8.204   4.000  67.220  1.00  0.00    -0.098 N  
HETATM    6  H   UNL     1      -8.844   0.971  68.191  1.00  0.00     0.000 HD 
HETATM    7  O   UNL     1      -8.154   3.030  69.308  1.00  0.00    -0.051 OA 
HETATM    8  C   UNL     1      -8.830   3.924  65.906  1.00  0.00    -0.125 C  
HETATM    9  C   UNL     1      -8.368   2.953  68.102  1.00  0.00    -0.078 C  
HETATM   10  C   UNL     1      -8.460   2.604  65.257  1.00  0.00    -0.099 C  
HETATM   11  N   UNL     1      -8.734   1.758  67.551  1.00  0.00    -0.093 N  
HETATM   12  C   UNL     1      -8.983   1.498  66.149  1.00  0.00    -0.091 C  
ENDBRANCH   3   5
BRANCH   3  13
HETATM   13  C   UNL     1      -8.516   6.384  68.012  1.00  0.00    -0.118 C  
HETATM   14  O   UNL     1      -9.368   6.804  67.237  1.00  0.00    -0.129 OA 
HETATM   15  N   UNL     1      -8.311   6.962  69.249  1.00  0.00    -0.128 N  
HETATM   16  H   UNL     1      -7.594   6.536  69.836  1.00  0.00     0.000 HD 
BRANCH  15  17
HETATM   17  C   UNL     1      -9.009   8.116  69.811  1.00  0.00    -0.144 C  
BRANCH  17  18
HETATM   18  C   UNL     1      -8.576   9.466  69.198  1.00  0.00    -0.140 C  
BRANCH  18  19
HETATM   19  C   UNL     1      -9.475  10.729  69.203  1.00  0.00    -0.134 C  
HETATM   20  O   UNL     1     -10.842  10.336  69.356  1.00  0.00    -0.214 OA 
HETATM   21  H   UNL     1     -11.394  11.110  69.359  1.00  0.00     0.000 HD 
BRANCH  19  22
HETATM   22  C   UNL     1      -9.352  11.516  67.840  1.00  0.00    -0.171 C  
BRANCH  22  23
HETATM   23  N   UNL     1      -7.928  11.761  67.407  1.00  0.00    -0.146 N  
HETATM   24  C   UNL     1      -7.039  12.813  67.363  1.00  0.00    -0.132 C  
HETATM   25  H   UNL     1      -7.504  10.908  67.045  1.00  0.00     0.000 HD 
HETATM   26  O   UNL     1      -5.846  12.559  67.173  1.00  0.00    -0.262 OA 
BRANCH  24  27
HETATM   27  C   UNL     1      -7.540  14.266  67.429  1.00  0.00    -0.163 C  
BRANCH  27  28
HETATM   28  O   UNL     1      -7.929  14.896  68.639  1.00  0.00    -0.129 OA 
BRANCH  28  29
HETATM   29  C   UNL     1      -9.046  15.719  68.629  1.00  0.00    -0.204 A  
HETATM   30  C   UNL     1     -10.913  14.127  69.634  1.00  0.00    -0.125 C  
HETATM   31  C   UNL     1     -10.352  15.421  69.098  1.00  0.00    -0.240 A  
HETATM   32  C   UNL     1     -11.323  16.452  69.113  1.00  0.00    -0.241 A  
HETATM   33  C   UNL     1     -11.052  17.736  68.666  1.00  0.00     0.456 A  
HETATM   34  C   UNL     1      -9.792  18.023  68.169  1.00  0.00    -0.341 A  
HETATM   35  C   UNL     1      -8.790  17.033  68.132  1.00  0.00    -0.227 A  
HETATM   36  C   UNL     1      -7.461  17.439  67.542  1.00  0.00    -0.197 C  
ENDBRANCH  28  29
ENDBRANCH  27  28
ENDBRANCH  24  27
ENDBRANCH  22  23
BRANCH  22  37
HETATM   37  C   UNL     1     -10.357  11.022  66.764  1.00  0.00    -0.284 C  
BRANCH  37  38
HETATM   38  C   UNL     1     -11.066  12.125  66.027  1.00  0.00    -0.354 A  
HETATM   39  C   UNL     1     -12.202  14.339  64.742  1.00  0.00    -0.456 A  
HETATM   40  C   UNL     1     -12.061  12.875  66.659  1.00  0.00    -0.360 A  
HETATM   41  C   UNL     1     -11.266  13.554  64.081  1.00  0.00    -0.341 A  
HETATM   42  C   UNL     1     -10.740  12.427  64.706  1.00  0.00    -0.332 A  
HETATM   43  C   UNL     1     -12.626  13.976  66.019  1.00  0.00    -0.452 A  
ENDBRANCH  37  38
ENDBRANCH  22  37
ENDBRANCH  19  22
ENDBRANCH  18  19
ENDBRANCH  17  18
BRANCH  17  44
HETATM   44  C   UNL     1      -9.213   8.045  71.340  1.00  0.00    -0.180 C  
BRANCH  44  45
HETATM   45  C   UNL     1     -10.482   7.322  71.751  1.00  0.00    -0.218 A  
HETATM   46  C   UNL     1     -10.487   5.939  72.001  1.00  0.00    -0.259 A  
HETATM   47  C   UNL     1     -11.688   8.025  71.863  1.00  0.00    -0.351 A  
HETATM   48  C   UNL     1     -11.679   5.276  72.315  1.00  0.00     0.073 A  
HETATM   49  C   UNL     1     -12.876   7.361  72.180  1.00  0.00    -0.112 A  
HETATM   50  C   UNL     1     -12.874   5.986  72.397  1.00  0.00     0.355 A  
ENDBRANCH  44  45
ENDBRANCH  17  44
ENDBRANCH  15  17
ENDBRANCH   3  13
TORSDOF 14
ENDMDL
MODEL      258
REMARK 921   NORMALIZED FREE ENERGY PREDICTED BY IDOCK:   -2.73 KCAL/MOL
REMARK 922        TOTAL FREE ENERGY PREDICTED BY IDOCK:   -9.52 KCAL/MOL
REMARK 923 INTER-LIGAND FREE ENERGY PREDICTED BY IDOCK:   -6.96 KCAL/MOL
REMARK 924 INTRA-LIGAND FREE ENERGY PREDICTED BY IDOCK:   -2.56 KCAL/MOL
REMARK 927      BINDING AFFINITY PREDICTED BY RF-SCORE:    0.00 PKD
ROOT
HETATM    1  C   UNL     1     -12.344  12.816  70.406  1.00  0.00    -0.324 C  
HETATM    2  C   UNL     1     -11.327  12.100  69.504  1.00  0.00    -0.277 C  
HETATM    3  C   UNL     1     -11.743  10.617  69.257  1.00  0.00    -0.264 C  
HETATM    4  C   UNL     1     -11.156  12.917  68.222  1.00  0.00    -0.294 C  
ENDROOT
BRANCH   3   5
HETATM    5  N   UNL     1     -11.795   9.849  70.523  1.00  0.00    -0.276 N  
HETATM    6  H   UNL     1      -9.903   8.184  72.566  1.00  0.00     0.000 HD 
HETATM    7  O   UNL     1      -9.510   9.834  70.808  1.00  0.00    -0.144 OA 
HETATM    8  C   UNL     1     -13.065   9.632  71.205  1.00  0.00    -0.357 C  
HETATM    9  C   UNL     1     -10.628   9.443  71.133  1.00  0.00    -0.333 C  
HETATM   10  C   UNL     1     -13.154   8.181  71.638  1.00  0.00    -0.358 C  
HETATM   11  N   UNL     1     -10.761   8.504  72.116  1.00  0.00    -0.337 N  
HETATM   12  C   UNL     1     -12.000   7.918  72.583  1.00  0.00    -0.245 C  
ENDBRANCH   3   5
BRANCH   3  13
HETATM   13  C   UNL     1     -10.848   9.935  68.176  1.00  0.00    -0.234 C  
HETATM   14  O   UNL     1     -11.139   8.880  67.623  1.00  0.00    -0.014 OA 
HETATM   15  N   UNL     1      -9.644  10.568  67.945  1.00  0.00    -0.149 N  
HETATM   16  H   UNL     1      -9.493  11.451  68.433  1.00  0.00     0.000 HD 
BRANCH  15  17
HETATM   17  C   UNL     1      -8.560  10.113  67.077  1.00  0.00    -0.129 C  
BRANCH  17  18
HETATM   18  C   UNL     1      -8.982   9.018  66.073  1.00  0.00    -0.227 C  
BRANCH  18  19
HETATM   19  C   UNL     1      -8.297   7.629  65.993  1.00  0.00    -0.135 C  
HETATM   20  O   UNL     1      -9.195   6.694  65.388  1.00  0.00    -0.365 OA 
HETATM   21  H   UNL     1      -8.776   5.842  65.339  1.00  0.00     0.000 HD 
BRANCH  19  22
HETATM   22  C   UNL     1      -7.942   7.091  67.434  1.00  0.00    -0.112 C  
BRANCH  22  23
HETATM   23  N   UNL     1      -9.107   6.453  68.148  1.00  0.00    -0.115 N  
HETATM   24  C   UNL     1      -9.538   6.272  69.445  1.00  0.00    -0.141 C  
HETATM   25  H   UNL     1      -9.760   6.039  67.484  1.00  0.00     0.000 HD 
HETATM   26  O   UNL     1     -10.705   5.911  69.625  1.00  0.00    -0.279 OA 
BRANCH  24  27
HETATM   27  C   UNL     1      -8.555   6.400  70.621  1.00  0.00    -0.139 C  
BRANCH  27  28
HETATM   28  O   UNL     1      -8.645   5.608  71.794  1.00  0.00    -0.133 OA 
BRANCH  28  29
HETATM   29  C   UNL     1      -7.747   4.563  71.959  1.00  0.00    -0.089 A  
HETATM   30  C   UNL     1      -5.460   5.855  72.327  1.00  0.00    -0.022 C  
HETATM   31  C   UNL     1      -6.357   4.645  72.236  1.00  0.00    -0.026 A  
HETATM   32  C   UNL     1      -5.642   3.450  72.495  1.00  0.00    -0.007 A  
HETATM   33  C   UNL     1      -6.244   2.202  72.468  1.00  0.00    -0.009 A  
HETATM   34  C   UNL     1      -7.590   2.112  72.159  1.00  0.00    -0.044 A  
HETATM   35  C   UNL     1      -8.348   3.270  71.892  1.00  0.00    -0.073 A  
HETATM   36  C   UNL     1      -9.799   3.060  71.534  1.00  0.00    -0.192 C  
ENDBRANCH  28  29
ENDBRANCH  27  28
ENDBRANCH  24  27
ENDBRANCH  22  23
BRANCH  22  37
HETATM   37  C   UNL     1      -6.576   6.355  67.485  1.00  0.00    -0.054 C  
BRANCH  37  38
HETATM   38  C   UNL     1      -6.683   4.855  67.522  1.00  0.00    -0.055 A  
HETATM   39  C   UNL     1      -7.105   2.093  67.715  1.00  0.00    -0.047 A  
HETATM   40  C   UNL     1      -6.150   4.132  68.592  1.00  0.00    -0.031 A  
HETATM   41  C   UNL     1      -7.575   2.795  66.612  1.00  0.00    -0.075 A  
HETATM   42  C   UNL     1      -7.321   4.158  66.496  1.00  0.00    -0.080 A  
HETATM   43  C   UNL     1      -6.360   2.758  68.686  1.00  0.00    -0.029 A  
ENDBRANCH  37  38
ENDBRANCH  22  37
ENDBRANCH  19  22
ENDBRANCH  18  19
ENDBRANCH  17  18
BRANCH  17  44
HETATM   44  C   UNL     1      -7.203   9.955  67.796  1.00  0.00    -0.088 C  
BRANCH  44  45
HETATM   45  C   UNL     1      -6.650  11.257  68.346  1.00  0.00    -0.059 A  
HETATM   46  C   UNL     1      -6.232  12.291  67.492  1.00  0.00    -0.140 A  
HETATM   47  C   UNL     1      -6.523  11.438  69.728  1.00  0.00    -0.133 A  
HETATM   48  C   UNL     1      -5.663  13.459  68.013  1.00  0.00    -0.122 A  
HETATM   49  C   UNL     1      -5.958  12.607  70.246  1.00  0.00    -0.122 A  
HETATM   50  C   UNL     1      -5.519  13.613  69.390  1.00  0.00    -0.085 A  
ENDBRANCH  44  45
ENDBRANCH  17  44
ENDBRANCH  15  17
ENDBRANCH   3  13
TORSDOF 14
ENDMDL
MODEL      259
REMARK 921   NORMALIZED FREE ENERGY PREDICTED BY IDOCK:   -2.69 KCAL/MOL
REMARK 922        TOTAL FREE ENERGY PREDICTED BY IDOCK:   -9.45 KCAL/MOL
REMARK 923 INTER-LIGAND FREE ENERGY PREDICTED BY IDOCK:   -7.37 KCAL/MOL
REMARK 924 INTRA-LIGAND FREE ENERGY PREDICTED BY IDOCK:   -2.08 KCAL/MOL
REMARK 927      BINDING AFFINITY PREDICTED BY RF-SCORE:    0.00 PKD
ROOT
HETATM    1  C   UNL     1     -10.609  15.913  65.931  1.00  0.00    -0.348 C  
HETATM    2  C   UNL     1     -10.145  14.449  65.867  1.00  0.00    -0.344 C  
HETATM    3  C   UNL     1      -9.786  13.911  67.286  1.00  0.00    -0.244 C  
HETATM    4  C   UNL     1     -11.219  13.631  65.147  1.00  0.00    -0.318 C  
ENDROOT
BRANCH   3   5
HETATM    5  N   UNL     1      -8.674  14.679  67.893  1.00  0.00    -0.163 N  
HETATM    6  H   UNL     1      -8.021  16.700  70.345  1.00  0.00     0.000 HD 
HETATM    7  O   UNL     1      -9.815  15.120  69.844  1.00  0.00    -0.180 OA 
HETATM    8  C   UNL     1      -7.349  14.669  67.285  1.00  0.00    -0.090 C  
HETATM    9  C   UNL     1      -8.849  15.303  69.110  1.00  0.00    -0.238 C  
HETATM   10  C   UNL     1      -6.810  16.086  67.249  1.00  0.00    -0.236 C  
HETATM   11  N   UNL     1      -7.895  16.219  69.455  1.00  0.00    -0.169 N  
HETATM   12  C   UNL     1      -6.724  16.574  68.681  1.00  0.00    -0.152 C  
ENDBRANCH   3   5
BRANCH   3  13
HETATM   13  C   UNL     1      -9.522  12.374  67.275  1.00  0.00    -0.191 C  
HETATM   14  O   UNL     1      -8.404  11.880  67.179  1.00  0.00    -0.161 OA 
HETATM   15  N   UNL     1     -10.661  11.595  67.292  1.00  0.00    -0.227 N  
HETATM   16  H   UNL     1     -11.548  12.089  67.393  1.00  0.00     0.000 HD 
BRANCH  15  17
HETATM   17  C   UNL     1     -10.737  10.140  67.182  1.00  0.00    -0.221 C  
BRANCH  17  18
HETATM   18  C   UNL     1     -10.558   9.402  68.527  1.00  0.00    -0.234 C  
BRANCH  18  19
HETATM   19  C   UNL     1      -9.701   9.957  69.694  1.00  0.00    -0.229 C  
HETATM   20  O   UNL     1      -8.401  10.298  69.204  1.00  0.00    -0.132 OA 
HETATM   21  H   UNL     1      -7.875  10.638  69.920  1.00  0.00     0.000 HD 
BRANCH  19  22
HETATM   22  C   UNL     1      -9.519   8.872  70.826  1.00  0.00    -0.228 C  
BRANCH  22  23
HETATM   23  N   UNL     1     -10.752   8.041  71.076  1.00  0.00    -0.218 N  
HETATM   24  C   UNL     1     -11.149   6.729  70.933  1.00  0.00    -0.277 C  
HETATM   25  H   UNL     1     -11.506   8.611  71.458  1.00  0.00     0.000 HD 
HETATM   26  O   UNL     1     -12.185   6.369  71.500  1.00  0.00    -0.312 OA 
BRANCH  24  27
HETATM   27  C   UNL     1     -10.384   5.778  69.996  1.00  0.00    -0.259 C  
BRANCH  27  28
HETATM   28  O   UNL     1     -10.543   4.369  70.026  1.00  0.00     0.297 OA 
BRANCH  28  29
HETATM   29  C   UNL     1      -9.459   3.588  70.401  1.00  0.00    -0.183 A  
HETATM   30  C   UNL     1      -7.982   3.603  68.198  1.00  0.00    -0.071 C  
HETATM   31  C   UNL     1      -8.306   3.273  69.634  1.00  0.00    -0.081 A  
HETATM   32  C   UNL     1      -7.250   2.561  70.253  1.00  0.00    -0.033 A  
HETATM   33  C   UNL     1      -7.308   2.140  71.573  1.00  0.00    -0.036 A  
HETATM   34  C   UNL     1      -8.446   2.407  72.313  1.00  0.00    -0.071 A  
HETATM   35  C   UNL     1      -9.526   3.113  71.746  1.00  0.00    -0.216 A  
HETATM   36  C   UNL     1     -10.733   3.325  72.628  1.00  0.00    -0.049 C  
ENDBRANCH  28  29
ENDBRANCH  27  28
ENDBRANCH  24  27
ENDBRANCH  22  23
BRANCH  22  37
HETATM   37  C   UNL     1      -8.157   8.131  70.741  1.00  0.00    -0.102 C  
BRANCH  37  38
HETATM   38  C   UNL     1      -7.688   7.547  72.045  1.00  0.00    -0.094 A  
HETATM   39  C   UNL     1      -7.055   6.372  74.507  1.00  0.00    -0.089 A  
HETATM   40  C   UNL     1      -7.756   8.295  73.223  1.00  0.00    -0.182 A  
HETATM   41  C   UNL     1      -6.916   5.645  73.331  1.00  0.00    -0.085 A  
HETATM   42  C   UNL     1      -7.184   6.248  72.106  1.00  0.00    -0.091 A  
HETATM   43  C   UNL     1      -7.440   7.709  74.447  1.00  0.00    -0.172 A  
ENDBRANCH  37  38
ENDBRANCH  22  37
ENDBRANCH  19  22
ENDBRANCH  18  19
ENDBRANCH  17  18
BRANCH  17  44
HETATM   44  C   UNL     1     -10.024   9.566  65.938  1.00  0.00    -0.342 C  
BRANCH  44  45
HETATM   45  C   UNL     1      -8.714   8.869  66.255  1.00  0.00    -0.162 A  
HETATM   46  C   UNL     1      -7.478   9.483  65.995  1.00  0.00    -0.100 A  
HETATM   47  C   UNL     1      -8.718   7.577  66.793  1.00  0.00    -0.138 A  
HETATM   48  C   UNL     1      -6.279   8.801  66.231  1.00  0.00    -0.060 A  
HETATM   49  C   UNL     1      -7.519   6.898  67.032  1.00  0.00    -0.087 A  
HETATM   50  C   UNL     1      -6.300   7.506  66.743  1.00  0.00    -0.049 A  
ENDBRANCH  44  45
ENDBRANCH  17  44
ENDBRANCH  15  17
ENDBRANCH   3  13
TORSDOF 14
ENDMDL
MODEL      260
REMARK 921   NORMALIZED FREE ENERGY PREDICTED BY IDOCK:   -2.68 KCAL/MOL
REMARK 922        TOTAL FREE ENERGY PREDICTED BY IDOCK:   -9.43 KCAL/MOL
REMARK 923 INTER-LIGAND FREE ENERGY PREDICTED BY IDOCK:   -7.57 KCAL/MOL
REMARK 924 INTRA-LIGAND FREE ENERGY PREDICTED BY IDOCK:   -1.87 KCAL/MOL
REMARK 927      BINDING AFFINITY PREDICTED BY RF-SCORE:    0.00 PKD
ROOT
HETATM    1  C   UNL     1     -10.940  17.550  65.786  1.00  0.00     0.185 C  
HETATM    2  C   UNL     1     -10.455  16.129  65.460  1.00  0.00    -0.407 C  
HETATM    3  C   UNL     1      -9.874  15.430  66.727  1.00  0.00    -0.245 C  
HETATM    4  C   UNL     1     -11.605  15.363  64.803  1.00  0.00    -0.286 C  
ENDROOT
BRANCH   3   5
HETATM    5  N   UNL     1      -8.701  16.162  67.262  1.00  0.00    -0.178 N  
HETATM    6  H   UNL     1      -7.506  17.376  70.023  1.00  0.00     0.000 HD 
HETATM    7  O   UNL     1      -9.217  15.726  69.463  1.00  0.00    -0.260 OA 
HETATM    8  C   UNL     1      -7.635  16.604  66.371  1.00  0.00    -0.262 C  
HETATM    9  C   UNL     1      -8.546  16.318  68.623  1.00  0.00    -0.222 C  
HETATM   10  C   UNL     1      -7.263  18.033  66.716  1.00  0.00    -0.238 C  
HETATM   11  N   UNL     1      -7.620  17.240  69.018  1.00  0.00    -0.221 N  
HETATM   12  C   UNL     1      -6.783  18.044  68.152  1.00  0.00    -0.201 C  
ENDBRANCH   3   5
BRANCH   3  13
HETATM   13  C   UNL     1      -9.576  13.920  66.472  1.00  0.00    -0.287 C  
HETATM   14  O   UNL     1      -9.832  13.349  65.418  1.00  0.00    -0.221 OA 
HETATM   15  N   UNL     1      -9.077  13.241  67.565  1.00  0.00    -0.198 N  
HETATM   16  H   UNL     1      -8.876  13.799  68.394  1.00  0.00     0.000 HD 
BRANCH  15  17
HETATM   17  C   UNL     1      -8.804  11.809  67.664  1.00  0.00    -0.162 C  
BRANCH  17  18
HETATM   18  C   UNL     1      -9.897  10.920  67.031  1.00  0.00    -0.214 C  
BRANCH  18  19
HETATM   19  C   UNL     1     -11.177  10.478  67.787  1.00  0.00    -0.273 C  
HETATM   20  O   UNL     1     -11.378  11.333  68.916  1.00  0.00    -0.224 OA 
HETATM   21  H   UNL     1     -12.162  11.063  69.380  1.00  0.00     0.000 HD 
BRANCH  19  22
HETATM   22  C   UNL     1     -11.033   9.000  68.324  1.00  0.00     0.082 C  
BRANCH  22  23
HETATM   23  N   UNL     1      -9.875   8.245  67.722  1.00  0.00    -0.162 N  
HETATM   24  C   UNL     1      -9.674   7.097  66.986  1.00  0.00    -0.170 C  
HETATM   25  H   UNL     1      -8.992   8.716  67.914  1.00  0.00     0.000 HD 
HETATM   26  O   UNL     1      -8.574   6.937  66.447  1.00  0.00    -0.122 OA 
BRANCH  24  27
HETATM   27  C   UNL     1     -10.748   5.998  66.940  1.00  0.00    -0.334 C  
BRANCH  27  28
HETATM   28  O   UNL     1     -10.746   4.953  65.981  1.00  0.00    -0.316 OA 
BRANCH  28  29
HETATM   29  C   UNL     1      -9.871   3.890  66.160  1.00  0.00    -0.115 A  
HETATM   30  C   UNL     1      -9.685   3.771  68.803  1.00  0.00    -0.089 C  
HETATM   31  C   UNL     1      -9.425   3.327  67.385  1.00  0.00    -0.198 A  
HETATM   32  C   UNL     1      -8.628   2.157  67.346  1.00  0.00    -0.119 A  
HETATM   33  C   UNL     1      -8.248   1.554  66.157  1.00  0.00    -0.080 A  
HETATM   34  C   UNL     1      -8.645   2.121  64.959  1.00  0.00    -0.108 A  
HETATM   35  C   UNL     1      -9.439   3.285  64.941  1.00  0.00    -0.151 A  
HETATM   36  C   UNL     1      -9.792   3.842  63.583  1.00  0.00    -0.168 C  
ENDBRANCH  28  29
ENDBRANCH  27  28
ENDBRANCH  24  27
ENDBRANCH  22  23
BRANCH  22  37
HETATM   37  C   UNL     1     -11.244   8.891  69.859  1.00  0.00    -0.076 C  
BRANCH  37  38
HETATM   38  C   UNL     1     -10.064   8.334  70.607  1.00  0.00    -0.212 A  
HETATM   39  C   UNL     1      -8.034   7.145  72.125  1.00  0.00    -0.093 A  
HETATM   40  C   UNL     1      -9.638   8.923  71.800  1.00  0.00    -0.353 A  
HETATM   41  C   UNL     1      -8.404   6.595  70.905  1.00  0.00    -0.125 A  
HETATM   42  C   UNL     1      -9.379   7.217  70.130  1.00  0.00    -0.158 A  
HETATM   43  C   UNL     1      -8.627   8.331  72.554  1.00  0.00    -0.273 A  
ENDBRANCH  37  38
ENDBRANCH  22  37
ENDBRANCH  19  22
ENDBRANCH  18  19
ENDBRANCH  17  18
BRANCH  17  44
HETATM   44  C   UNL     1      -8.211  11.374  69.023  1.00  0.00     0.015 C  
BRANCH  44  45
HETATM   45  C   UNL     1      -7.161  10.286  68.908  1.00  0.00    -0.086 A  
HETATM   46  C   UNL     1      -6.533   9.753  70.046  1.00  0.00    -0.074 A  
HETATM   47  C   UNL     1      -6.778   9.808  67.649  1.00  0.00    -0.069 A  
HETATM   48  C   UNL     1      -5.519   8.797  69.919  1.00  0.00    -0.029 A  
HETATM   49  C   UNL     1      -5.767   8.851  67.524  1.00  0.00    -0.039 A  
HETATM   50  C   UNL     1      -5.131   8.352  68.658  1.00  0.00    -0.029 A  
ENDBRANCH  44  45
ENDBRANCH  17  44
ENDBRANCH  15  17
ENDBRANCH   3  13
TORSDOF 14
ENDMDL
MODEL      261
REMARK 921   NORMALIZED FREE ENERGY PREDICTED BY IDOCK:   -2.61 KCAL/MOL
REMARK 922        TOTAL FREE ENERGY PREDICTED BY IDOCK:   -9.29 KCAL/MOL
REMARK 923 INTER-LIGAND FREE ENERGY PREDICTED BY IDOCK:   -8.05 KCAL/MOL
REMARK 924 INTRA-LIGAND FREE ENERGY PREDICTED BY IDOCK:   -1.24 KCAL/MOL
REMARK 927      BINDING AFFINITY PREDICTED BY RF-SCORE:    0.00 PKD
ROOT
HETATM    1  C   UNL     1      -5.136  11.383  67.022  1.00  0.00    -0.080 C  
HETATM    2  C   UNL     1      -6.261  10.871  67.934  1.00  0.00    -0.054 C  
HETATM    3  C   UNL     1      -7.268  12.011  68.278  1.00  0.00    -0.090 C  
HETATM    4  C   UNL     1      -6.908   9.653  67.269  1.00  0.00    -0.083 C  
ENDROOT
BRANCH   3   5
HETATM    5  N   UNL     1      -6.607  13.118  69.008  1.00  0.00    -0.101 N  
HETATM    6  H   UNL     1      -5.117  13.779  71.814  1.00  0.00     0.000 HD 
HETATM    7  O   UNL     1      -5.658  11.737  70.588  1.00  0.00    -0.144 OA 
HETATM    8  C   UNL     1      -6.548  14.455  68.431  1.00  0.00    -0.104 C  
HETATM    9  C   UNL     1      -5.928  12.863  70.181  1.00  0.00    -0.136 C  
HETATM   10  C   UNL     1      -6.907  15.471  69.498  1.00  0.00    -0.186 C  
HETATM   11  N   UNL     1      -5.606  13.955  70.936  1.00  0.00    -0.172 N  
HETATM   12  C   UNL     1      -5.890  15.338  70.612  1.00  0.00    -0.041 C  
ENDBRANCH   3   5
BRANCH   3  13
HETATM   13  C   UNL     1      -8.528  11.469  69.020  1.00  0.00     0.116 C  
HETATM   14  O   UNL     1      -8.477  10.651  69.932  1.00  0.00     0.096 OA 
HETATM   15  N   UNL     1      -9.731  11.916  68.511  1.00  0.00    -0.290 N  
HETATM   16  H   UNL     1      -9.679  12.610  67.765  1.00  0.00     0.000 HD 
BRANCH  15  17
HETATM   17  C   UNL     1     -11.071  11.504  68.923  1.00  0.00    -0.232 C  
BRANCH  17  18
HETATM   18  C   UNL     1     -11.843  12.586  69.710  1.00  0.00    -0.380 C  
BRANCH  18  19
HETATM   19  C   UNL     1     -12.129  14.003  69.149  1.00  0.00    -0.337 C  
HETATM   20  O   UNL     1     -12.514  13.899  67.776  1.00  0.00    -0.445 OA 
HETATM   21  H   UNL     1     -12.689  14.768  67.432  1.00  0.00     0.000 HD 
BRANCH  19  22
HETATM   22  C   UNL     1     -10.837  14.908  69.219  1.00  0.00    -0.266 C  
BRANCH  22  23
HETATM   23  N   UNL     1     -10.706  15.868  68.063  1.00  0.00    -0.291 N  
HETATM   24  C   UNL     1     -10.375  15.822  66.726  1.00  0.00    -0.293 C  
HETATM   25  H   UNL     1     -10.924  16.821  68.354  1.00  0.00     0.000 HD 
HETATM   26  O   UNL     1     -10.634  16.807  66.028  1.00  0.00    -0.307 OA 
BRANCH  24  27
HETATM   27  C   UNL     1      -9.598  14.625  66.153  1.00  0.00    -0.307 C  
BRANCH  27  28
HETATM   28  O   UNL     1      -9.594  14.293  64.774  1.00  0.00     0.138 OA 
BRANCH  28  29
HETATM   29  C   UNL     1     -10.557  13.412  64.301  1.00  0.00    -0.341 A  
HETATM   30  C   UNL     1     -12.673  14.991  64.053  1.00  0.00     0.475 C  
HETATM   31  C   UNL     1     -11.898  13.702  63.937  1.00  0.00    -0.419 A  
HETATM   32  C   UNL     1     -12.682  12.677  63.353  1.00  0.00    -0.241 A  
HETATM   33  C   UNL     1     -12.196  11.397  63.142  1.00  0.00     0.254 A  
HETATM   34  C   UNL     1     -10.902  11.097  63.532  1.00  0.00    -0.275 A  
HETATM   35  C   UNL     1     -10.079  12.079  64.118  1.00  0.00    -0.340 A  
HETATM   36  C   UNL     1      -8.697  11.642  64.536  1.00  0.00     0.649 C  
ENDBRANCH  28  29
ENDBRANCH  27  28
ENDBRANCH  24  27
ENDBRANCH  22  23
BRANCH  22  37
HETATM   37  C   UNL     1     -10.557  15.454  70.645  1.00  0.00    -0.165 C  
BRANCH  37  38
HETATM   38  C   UNL     1     -11.762  15.480  71.544  1.00  0.00    -0.479 A  
HETATM   39  C   UNL     1     -14.033  15.277  73.170  1.00  0.00     0.111 A  
HETATM   40  C   UNL     1     -13.029  15.755  71.025  1.00  0.00    -0.377 A  
HETATM   41  C   UNL     1     -12.769  15.073  73.710  1.00  0.00    -0.612 A  
HETATM   42  C   UNL     1     -11.640  15.224  72.909  1.00  0.00    -0.394 A  
HETATM   43  C   UNL     1     -14.158  15.654  71.835  1.00  0.00    -0.471 A  
ENDBRANCH  37  38
ENDBRANCH  22  37
ENDBRANCH  19  22
ENDBRANCH  18  19
ENDBRANCH  17  18
BRANCH  17  44
HETATM   44  C   UNL     1     -11.154  10.045  69.422  1.00  0.00    -0.265 C  
BRANCH  44  45
HETATM   45  C   UNL     1     -10.672   9.026  68.406  1.00  0.00    -0.145 A  
HETATM   46  C   UNL     1     -10.332   7.718  68.788  1.00  0.00    -0.219 A  
HETATM   47  C   UNL     1     -10.532   9.386  67.061  1.00  0.00    -0.302 A  
HETATM   48  C   UNL     1      -9.826   6.810  67.851  1.00  0.00    -0.146 A  
HETATM   49  C   UNL     1     -10.030   8.477  66.125  1.00  0.00    -0.160 A  
HETATM   50  C   UNL     1      -9.668   7.193  66.521  1.00  0.00    -0.199 A  
ENDBRANCH  44  45
ENDBRANCH  17  44
ENDBRANCH  15  17
ENDBRANCH   3  13
TORSDOF 14
ENDMDL
MODEL      262
REMARK 921   NORMALIZED FREE ENERGY PREDICTED BY IDOCK:   -2.57 KCAL/MOL
REMARK 922        TOTAL FREE ENERGY PREDICTED BY IDOCK:   -9.22 KCAL/MOL
REMARK 923 INTER-LIGAND FREE ENERGY PREDICTED BY IDOCK:   -8.40 KCAL/MOL
REMARK 924 INTRA-LIGAND FREE ENERGY PREDICTED BY IDOCK:   -0.82 KCAL/MOL
REMARK 927      BINDING AFFINITY PREDICTED BY RF-SCORE:    0.00 PKD
ROOT
HETATM    1  C   UNL     1      -7.556  14.543  67.438  1.00  0.00    -0.209 C  
HETATM    2  C   UNL     1      -7.922  13.234  68.153  1.00  0.00    -0.150 C  
HETATM    3  C   UNL     1      -9.373  12.786  67.796  1.00  0.00    -0.199 C  
HETATM    4  C   UNL     1      -6.854  12.188  67.828  1.00  0.00    -0.106 C  
ENDROOT
BRANCH   3   5
HETATM    5  N   UNL     1     -10.373  13.792  68.223  1.00  0.00    -0.241 N  
HETATM    6  H   UNL     1     -12.092  16.304  67.100  1.00  0.00     0.000 HD 
HETATM    7  O   UNL     1     -10.895  14.437  66.076  1.00  0.00    -0.299 OA 
HETATM    8  C   UNL     1     -10.828  13.842  69.607  1.00  0.00     0.079 C  
HETATM    9  C   UNL     1     -10.978  14.605  67.289  1.00  0.00    -0.317 C  
HETATM   10  C   UNL     1     -10.843  15.286  70.072  1.00  0.00    -0.303 C  
HETATM   11  N   UNL     1     -11.653  15.686  67.782  1.00  0.00    -0.213 N  
HETATM   12  C   UNL     1     -11.805  16.040  69.178  1.00  0.00    -0.261 C  
ENDBRANCH   3   5
BRANCH   3  13
HETATM   13  C   UNL     1      -9.689  11.357  68.335  1.00  0.00    -0.203 C  
HETATM   14  O   UNL     1     -10.591  10.652  67.896  1.00  0.00    -0.196 OA 
HETATM   15  N   UNL     1      -8.926  10.969  69.418  1.00  0.00    -0.389 N  
HETATM   16  H   UNL     1      -8.185  11.610  69.704  1.00  0.00     0.000 HD 
BRANCH  15  17
HETATM   17  C   UNL     1      -9.062   9.742  70.199  1.00  0.00    -0.197 C  
BRANCH  17  18
HETATM   18  C   UNL     1      -7.731   9.229  70.792  1.00  0.00    -0.164 C  
BRANCH  18  19
HETATM   19  C   UNL     1      -6.824   8.196  70.076  1.00  0.00    -0.040 C  
HETATM   20  O   UNL     1      -6.854   8.437  68.666  1.00  0.00    -0.061 OA 
HETATM   21  H   UNL     1      -6.298   7.804  68.227  1.00  0.00     0.000 HD 
BRANCH  19  22
HETATM   22  C   UNL     1      -7.341   6.724  70.322  1.00  0.00    -0.085 C  
BRANCH  22  23
HETATM   23  N   UNL     1      -6.885   5.738  69.276  1.00  0.00    -0.060 N  
HETATM   24  C   UNL     1      -6.262   5.764  68.047  1.00  0.00    -0.039 C  
HETATM   25  H   UNL     1      -7.099   4.782  69.558  1.00  0.00     0.000 HD 
HETATM   26  O   UNL     1      -5.816   4.704  67.598  1.00  0.00    -0.021 OA 
BRANCH  24  27
HETATM   27  C   UNL     1      -6.231   7.055  67.212  1.00  0.00    -0.041 C  
BRANCH  27  28
HETATM   28  O   UNL     1      -6.458   7.077  65.812  1.00  0.00    -0.048 OA 
BRANCH  28  29
HETATM   29  C   UNL     1      -7.325   8.030  65.296  1.00  0.00    -0.070 A  
HETATM   30  C   UNL     1      -9.591   7.446  66.543  1.00  0.00    -0.228 C  
HETATM   31  C   UNL     1      -8.688   8.239  65.631  1.00  0.00    -0.188 A  
HETATM   32  C   UNL     1      -9.362   9.355  65.078  1.00  0.00    -0.258 A  
HETATM   33  C   UNL     1      -8.747  10.238  64.204  1.00  0.00    -0.214 A  
HETATM   34  C   UNL     1      -7.431  10.017  63.841  1.00  0.00    -0.134 A  
HETATM   35  C   UNL     1      -6.713   8.921  64.362  1.00  0.00    -0.078 A  
HETATM   36  C   UNL     1      -5.294   8.751  63.879  1.00  0.00    -0.061 C  
ENDBRANCH  28  29
ENDBRANCH  27  28
ENDBRANCH  24  27
ENDBRANCH  22  23
BRANCH  22  37
HETATM   37  C   UNL     1      -7.246   6.291  71.810  1.00  0.00    -0.087 C  
BRANCH  37  38
HETATM   38  C   UNL     1      -8.576   6.029  72.463  1.00  0.00    -0.119 A  
HETATM   39  C   UNL     1     -11.160   5.617  73.459  1.00  0.00    -0.169 A  
HETATM   40  C   UNL     1      -9.227   7.039  73.176  1.00  0.00    -0.165 A  
HETATM   41  C   UNL     1     -10.490   4.586  72.814  1.00  0.00    -0.261 A  
HETATM   42  C   UNL     1      -9.187   4.780  72.364  1.00  0.00    -0.149 A  
HETATM   43  C   UNL     1     -10.513   6.832  73.672  1.00  0.00    -0.374 A  
ENDBRANCH  37  38
ENDBRANCH  22  37
ENDBRANCH  19  22
ENDBRANCH  18  19
ENDBRANCH  17  18
BRANCH  17  44
HETATM   44  C   UNL     1     -10.028   8.708  69.583  1.00  0.00    -0.191 C  
BRANCH  44  45
HETATM   45  C   UNL     1     -11.305   8.519  70.380  1.00  0.00    -0.193 A  
HETATM   46  C   UNL     1     -11.815   9.541  71.198  1.00  0.00    -0.436 A  
HETATM   47  C   UNL     1     -11.989   7.298  70.333  1.00  0.00    -0.124 A  
HETATM   48  C   UNL     1     -12.957   9.327  71.978  1.00  0.00    -0.504 A  
HETATM   49  C   UNL     1     -13.132   7.088  71.110  1.00  0.00    -0.260 A  
HETATM   50  C   UNL     1     -13.611   8.098  71.939  1.00  0.00    -0.370 A  
ENDBRANCH  44  45
ENDBRANCH  17  44
ENDBRANCH  15  17
ENDBRANCH   3  13
TORSDOF 14
ENDMDL
MODEL      263
REMARK 921   NORMALIZED FREE ENERGY PREDICTED BY IDOCK:   -2.46 KCAL/MOL
REMARK 922        TOTAL FREE ENERGY PREDICTED BY IDOCK:   -9.02 KCAL/MOL
REMARK 923 INTER-LIGAND FREE ENERGY PREDICTED BY IDOCK:   -6.44 KCAL/MOL
REMARK 924 INTRA-LIGAND FREE ENERGY PREDICTED BY IDOCK:   -2.59 KCAL/MOL
REMARK 927      BINDING AFFINITY PREDICTED BY RF-SCORE:    0.00 PKD
ROOT
HETATM    1  C   UNL     1      -8.986   1.957  67.949  1.00  0.00    -0.175 C  
HETATM    2  C   UNL     1      -9.527   3.394  68.000  1.00  0.00    -0.213 C  
HETATM    3  C   UNL     1      -8.587   4.319  68.833  1.00  0.00    -0.084 C  
HETATM    4  C   UNL     1      -9.758   3.876  66.566  1.00  0.00    -0.186 C  
ENDROOT
BRANCH   3   5
HETATM    5  N   UNL     1      -8.479   3.861  70.238  1.00  0.00    -0.060 N  
HETATM    6  H   UNL     1      -6.375   3.688  72.701  1.00  0.00     0.000 HD 
HETATM    7  O   UNL     1      -6.506   4.979  70.632  1.00  0.00    -0.031 OA 
HETATM    8  C   UNL     1      -9.603   3.198  70.888  1.00  0.00    -0.155 C  
HETATM    9  C   UNL     1      -7.362   4.173  70.983  1.00  0.00    -0.044 C  
HETATM   10  C   UNL     1      -9.093   1.982  71.639  1.00  0.00    -0.146 C  
HETATM   11  N   UNL     1      -7.206   3.477  72.148  1.00  0.00    -0.048 N  
HETATM   12  C   UNL     1      -8.103   2.471  72.675  1.00  0.00    -0.055 C  
ENDBRANCH   3   5
BRANCH   3  13
HETATM   13  C   UNL     1      -8.998   5.819  68.719  1.00  0.00    -0.116 C  
HETATM   14  O   UNL     1      -8.223   6.711  68.392  1.00  0.00    -0.114 OA 
HETATM   15  N   UNL     1     -10.296   6.090  69.103  1.00  0.00    -0.205 N  
HETATM   16  H   UNL     1     -10.876   5.286  69.341  1.00  0.00     0.000 HD 
BRANCH  15  17
HETATM   17  C   UNL     1     -10.930   7.402  69.206  1.00  0.00    -0.070 C  
BRANCH  17  18
HETATM   18  C   UNL     1     -10.186   8.518  68.439  1.00  0.00    -0.236 C  
BRANCH  18  19
HETATM   19  C   UNL     1     -10.579  10.015  68.525  1.00  0.00    -0.215 C  
HETATM   20  O   UNL     1     -11.809  10.222  67.825  1.00  0.00    -0.567 OA 
HETATM   21  H   UNL     1     -12.050  11.140  67.877  1.00  0.00     0.000 HD 
BRANCH  19  22
HETATM   22  C   UNL     1      -9.482  10.926  67.846  1.00  0.00    -0.159 C  
BRANCH  22  23
HETATM   23  N   UNL     1      -9.417  10.782  66.346  1.00  0.00    -0.168 N  
HETATM   24  C   UNL     1      -8.854   9.926  65.424  1.00  0.00    -0.168 C  
HETATM   25  H   UNL     1      -9.935  11.528  65.884  1.00  0.00     0.000 HD 
HETATM   26  O   UNL     1      -9.245   9.992  64.254  1.00  0.00    -0.233 OA 
BRANCH  24  27
HETATM   27  C   UNL     1      -7.690   9.002  65.821  1.00  0.00    -0.091 C  
BRANCH  27  28
HETATM   28  O   UNL     1      -6.835   8.384  64.873  1.00  0.00    -0.070 OA 
BRANCH  28  29
HETATM   29  C   UNL     1      -6.669   7.007  64.929  1.00  0.00    -0.046 A  
HETATM   30  C   UNL     1      -5.141   6.724  67.077  1.00  0.00    -0.009 C  
HETATM   31  C   UNL     1      -5.969   6.253  65.908  1.00  0.00    -0.025 A  
HETATM   32  C   UNL     1      -6.028   4.840  65.850  1.00  0.00    -0.023 A  
HETATM   33  C   UNL     1      -6.727   4.163  64.862  1.00  0.00    -0.048 A  
HETATM   34  C   UNL     1      -7.378   4.891  63.882  1.00  0.00    -0.051 A  
HETATM   35  C   UNL     1      -7.351   6.300  63.892  1.00  0.00    -0.069 A  
HETATM   36  C   UNL     1      -8.066   6.999  62.761  1.00  0.00    -0.054 C  
ENDBRANCH  28  29
ENDBRANCH  27  28
ENDBRANCH  24  27
ENDBRANCH  22  23
BRANCH  22  37
HETATM   37  C   UNL     1      -9.440  12.362  68.434  1.00  0.00    -0.169 C  
BRANCH  37  38
HETATM   38  C   UNL     1      -8.107  13.047  68.299  1.00  0.00    -0.151 A  
HETATM   39  C   UNL     1      -5.661  14.409  68.286  1.00  0.00    -0.118 A  
HETATM   40  C   UNL     1      -8.026  14.347  67.796  1.00  0.00    -0.166 A  
HETATM   41  C   UNL     1      -5.722  13.091  68.721  1.00  0.00    -0.072 A  
HETATM   42  C   UNL     1      -6.931  12.402  68.679  1.00  0.00    -0.091 A  
HETATM   43  C   UNL     1      -6.808  15.024  67.789  1.00  0.00    -0.190 A  
ENDBRANCH  37  38
ENDBRANCH  22  37
ENDBRANCH  19  22
ENDBRANCH  18  19
ENDBRANCH  17  18
BRANCH  17  44
HETATM   44  C   UNL     1     -11.474   7.728  70.614  1.00  0.00    -0.259 C  
BRANCH  44  45
HETATM   45  C   UNL     1     -10.528   7.345  71.736  1.00  0.00    -0.221 A  
HETATM   46  C   UNL     1     -10.934   6.493  72.777  1.00  0.00    -0.286 A  
HETATM   47  C   UNL     1      -9.227   7.862  71.766  1.00  0.00    -0.194 A  
HETATM   48  C   UNL     1     -10.071   6.203  73.839  1.00  0.00    -0.265 A  
HETATM   49  C   UNL     1      -8.365   7.567  72.826  1.00  0.00    -0.150 A  
HETATM   50  C   UNL     1      -8.789   6.746  73.867  1.00  0.00    -0.175 A  
ENDBRANCH  44  45
ENDBRANCH  17  44
ENDBRANCH  15  17
ENDBRANCH   3  13
TORSDOF 14
ENDMDL
MODEL      264
REMARK 921   NORMALIZED FREE ENERGY PREDICTED BY IDOCK:   -2.45 KCAL/MOL
REMARK 922        TOTAL FREE ENERGY PREDICTED BY IDOCK:   -9.02 KCAL/MOL
REMARK 923 INTER-LIGAND FREE ENERGY PREDICTED BY IDOCK:   -6.43 KCAL/MOL
REMARK 924 INTRA-LIGAND FREE ENERGY PREDICTED BY IDOCK:   -2.58 KCAL/MOL
REMARK 927      BINDING AFFINITY PREDICTED BY RF-SCORE:    0.00 PKD
ROOT
HETATM    1  C   UNL     1      -5.808  11.141  65.757  1.00  0.00     0.012 C  
HETATM    2  C   UNL     1      -5.937  10.196  66.962  1.00  0.00    -0.051 C  
HETATM    3  C   UNL     1      -7.111  10.630  67.892  1.00  0.00    -0.086 C  
HETATM    4  C   UNL     1      -6.055   8.761  66.443  1.00  0.00    -0.060 C  
ENDROOT
BRANCH   3   5
HETATM    5  N   UNL     1      -6.894  11.988  68.444  1.00  0.00    -0.066 N  
HETATM    6  H   UNL     1      -7.564  15.107  67.857  1.00  0.00     0.000 HD 
HETATM    7  O   UNL     1      -8.483  12.974  67.102  1.00  0.00    -0.191 OA 
HETATM    8  C   UNL     1      -6.088  12.179  69.643  1.00  0.00    -0.129 C  
HETATM    9  C   UNL     1      -7.559  13.068  67.903  1.00  0.00    -0.144 C  
HETATM   10  C   UNL     1      -5.142  13.345  69.423  1.00  0.00    -0.078 C  
HETATM   11  N   UNL     1      -7.091  14.300  68.262  1.00  0.00    -0.099 N  
HETATM   12  C   UNL     1      -5.989  14.573  69.161  1.00  0.00    -0.094 C  
ENDBRANCH   3   5
BRANCH   3  13
HETATM   13  C   UNL     1      -7.397   9.569  68.999  1.00  0.00    -0.072 C  
HETATM   14  O   UNL     1      -8.185   9.749  69.922  1.00  0.00    -0.152 OA 
HETATM   15  N   UNL     1      -6.624   8.429  68.916  1.00  0.00    -0.052 N  
HETATM   16  H   UNL     1      -6.010   8.355  68.105  1.00  0.00     0.000 HD 
BRANCH  15  17
HETATM   17  C   UNL     1      -6.588   7.315  69.861  1.00  0.00    -0.040 C  
BRANCH  17  18
HETATM   18  C   UNL     1      -7.805   6.370  69.759  1.00  0.00    -0.114 C  
BRANCH  18  19
HETATM   19  C   UNL     1      -8.437   5.940  68.409  1.00  0.00    -0.111 C  
HETATM   20  O   UNL     1      -7.440   5.992  67.384  1.00  0.00    -0.079 OA 
HETATM   21  H   UNL     1      -7.827   5.729  66.557  1.00  0.00     0.000 HD 
BRANCH  19  22
HETATM   22  C   UNL     1      -9.603   6.920  67.995  1.00  0.00    -0.123 C  
BRANCH  22  23
HETATM   23  N   UNL     1      -9.577   7.314  66.539  1.00  0.00    -0.285 N  
HETATM   24  C   UNL     1      -9.977   8.378  65.759  1.00  0.00     0.450 C  
HETATM   25  H   UNL     1      -9.140   6.588  65.972  1.00  0.00     0.000 HD 
HETATM   26  O   UNL     1      -9.543   8.450  64.606  1.00  0.00     0.964 OA 
BRANCH  24  27
HETATM   27  C   UNL     1     -11.027   9.376  66.276  1.00  0.00     0.758 C  
BRANCH  27  28
HETATM   28  O   UNL     1     -10.687  10.622  66.862  1.00  0.00    -0.257 OA 
BRANCH  28  29
HETATM   29  C   UNL     1     -11.215  11.781  66.310  1.00  0.00    -0.312 A  
HETATM   30  C   UNL     1     -10.905  11.343  63.713  1.00  0.00    -0.468 C  
HETATM   31  C   UNL     1     -11.361  12.101  64.934  1.00  0.00    -0.378 A  
HETATM   32  C   UNL     1     -12.046  13.289  64.581  1.00  0.00    -0.458 A  
HETATM   33  C   UNL     1     -12.561  14.162  65.527  1.00  0.00    -0.501 A  
HETATM   34  C   UNL     1     -12.386  13.876  66.870  1.00  0.00    -0.331 A  
HETATM   35  C   UNL     1     -11.712  12.707  67.276  1.00  0.00    -0.435 A  
HETATM   36  C   UNL     1     -11.548  12.504  68.763  1.00  0.00    -0.366 C  
ENDBRANCH  28  29
ENDBRANCH  27  28
ENDBRANCH  24  27
ENDBRANCH  22  23
BRANCH  22  37
HETATM   37  C   UNL     1     -10.973   6.523  68.609  1.00  0.00    -0.363 C  
BRANCH  37  38
HETATM   38  C   UNL     1     -11.334   7.283  69.856  1.00  0.00    -0.145 A  
HETATM   39  C   UNL     1     -11.762   8.670  72.250  1.00  0.00    -0.428 A  
HETATM   40  C   UNL     1     -11.783   6.607  70.993  1.00  0.00    -0.415 A  
HETATM   41  C   UNL     1     -11.386   9.358  71.104  1.00  0.00    -0.422 A  
HETATM   42  C   UNL     1     -11.223   8.671  69.904  1.00  0.00    -0.045 A  
HETATM   43  C   UNL     1     -11.996   7.298  72.184  1.00  0.00    -0.307 A  
ENDBRANCH  37  38
ENDBRANCH  22  37
ENDBRANCH  19  22
ENDBRANCH  18  19
ENDBRANCH  17  18
BRANCH  17  44
HETATM   44  C   UNL     1      -6.087   7.702  71.269  1.00  0.00    -0.035 C  
BRANCH  44  45
HETATM   45  C   UNL     1      -7.004   7.247  72.389  1.00  0.00    -0.063 A  
HETATM   46  C   UNL     1      -7.807   8.160  73.093  1.00  0.00    -0.213 A  
HETATM   47  C   UNL     1      -7.045   5.898  72.759  1.00  0.00    -0.085 A  
HETATM   48  C   UNL     1      -8.598   7.734  74.166  1.00  0.00    -0.307 A  
HETATM   49  C   UNL     1      -7.838   5.474  73.829  1.00  0.00    -0.105 A  
HETATM   50  C   UNL     1      -8.607   6.392  74.538  1.00  0.00    -0.153 A  
ENDBRANCH  44  45
ENDBRANCH  17  44
ENDBRANCH  15  17
ENDBRANCH   3  13
TORSDOF 14
ENDMDL
MODEL      265
REMARK 921   NORMALIZED FREE ENERGY PREDICTED BY IDOCK:   -2.42 KCAL/MOL
REMARK 922        TOTAL FREE ENERGY PREDICTED BY IDOCK:   -8.96 KCAL/MOL
REMARK 923 INTER-LIGAND FREE ENERGY PREDICTED BY IDOCK:   -8.24 KCAL/MOL
REMARK 924 INTRA-LIGAND FREE ENERGY PREDICTED BY IDOCK:   -0.72 KCAL/MOL
REMARK 927      BINDING AFFINITY PREDICTED BY RF-SCORE:    0.00 PKD
ROOT
HETATM    1  C   UNL     1      -8.041  13.912  66.905  1.00  0.00     0.112 C  
HETATM    2  C   UNL     1      -8.368  12.661  67.735  1.00  0.00    -0.172 C  
HETATM    3  C   UNL     1      -9.896  12.348  67.701  1.00  0.00    -0.198 C  
HETATM    4  C   UNL     1      -7.489  11.509  67.242  1.00  0.00    -0.139 C  
ENDROOT
BRANCH   3   5
HETATM    5  N   UNL     1     -10.690  13.457  68.281  1.00  0.00    -0.250 N  
HETATM    6  H   UNL     1     -13.085  15.520  67.550  1.00  0.00     0.000 HD 
HETATM    7  O   UNL     1     -12.290  13.404  66.626  1.00  0.00    -0.361 OA 
HETATM    8  C   UNL     1     -10.406  13.948  69.623  1.00  0.00     0.443 C  
HETATM    9  C   UNL     1     -11.788  13.946  67.606  1.00  0.00    -0.386 C  
HETATM   10  C   UNL     1     -10.401  15.464  69.605  1.00  0.00    -0.283 C  
HETATM   11  N   UNL     1     -12.282  15.140  68.051  1.00  0.00     0.057 N  
HETATM   12  C   UNL     1     -11.777  15.918  69.163  1.00  0.00    -0.363 C  
ENDBRANCH   3   5
BRANCH   3  13
HETATM   13  C   UNL     1     -10.221  10.969  68.353  1.00  0.00    -0.185 C  
HETATM   14  O   UNL     1     -11.056  10.190  67.907  1.00  0.00    -0.286 OA 
HETATM   15  N   UNL     1      -9.555  10.722  69.536  1.00  0.00    -0.429 N  
HETATM   16  H   UNL     1      -8.864  11.416  69.823  1.00  0.00     0.000 HD 
BRANCH  15  17
HETATM   17  C   UNL     1      -9.730   9.576  70.425  1.00  0.00    -0.271 C  
BRANCH  17  18
HETATM   18  C   UNL     1      -8.404   8.985  70.952  1.00  0.00    -0.238 C  
BRANCH  18  19
HETATM   19  C   UNL     1      -7.560   7.952  70.162  1.00  0.00    -0.083 C  
HETATM   20  O   UNL     1      -7.878   8.048  68.770  1.00  0.00    -0.110 OA 
HETATM   21  H   UNL     1      -7.361   7.414  68.286  1.00  0.00     0.000 HD 
BRANCH  19  22
HETATM   22  C   UNL     1      -7.888   6.480  70.629  1.00  0.00    -0.106 C  
BRANCH  22  23
HETATM   23  N   UNL     1      -7.270   5.415  69.758  1.00  0.00    -0.062 N  
HETATM   24  C   UNL     1      -6.655   5.328  68.528  1.00  0.00    -0.045 C  
HETATM   25  H   UNL     1      -7.322   4.501  70.206  1.00  0.00     0.000 HD 
HETATM   26  O   UNL     1      -6.036   4.294  68.257  1.00  0.00    -0.029 OA 
BRANCH  24  27
HETATM   27  C   UNL     1      -6.838   6.440  67.481  1.00  0.00    -0.076 C  
BRANCH  27  28
HETATM   28  O   UNL     1      -7.139   6.180  66.120  1.00  0.00    -0.064 OA 
BRANCH  28  29
HETATM   29  C   UNL     1      -8.240   5.390  65.823  1.00  0.00    -0.121 A  
HETATM   30  C   UNL     1     -10.201   6.702  67.033  1.00  0.00    -0.288 C  
HETATM   31  C   UNL     1      -9.596   5.619  66.175  1.00  0.00    -0.142 A  
HETATM   32  C   UNL     1     -10.589   4.750  65.661  1.00  0.00    -0.220 A  
HETATM   33  C   UNL     1     -10.285   3.671  64.846  1.00  0.00    -0.060 A  
HETATM   34  C   UNL     1      -8.961   3.418  64.533  1.00  0.00    -0.125 A  
HETATM   35  C   UNL     1      -7.934   4.251  65.018  1.00  0.00    -0.093 A  
HETATM   36  C   UNL     1      -6.522   3.870  64.644  1.00  0.00    -0.042 C  
ENDBRANCH  28  29
ENDBRANCH  27  28
ENDBRANCH  24  27
ENDBRANCH  22  23
BRANCH  22  37
HETATM   37  C   UNL     1      -7.790   6.298  72.168  1.00  0.00    -0.104 C  
BRANCH  37  38
HETATM   38  C   UNL     1      -8.863   5.423  72.756  1.00  0.00    -0.122 A  
HETATM   39  C   UNL     1     -10.856   3.948  74.057  1.00  0.00    -0.276 A  
HETATM   40  C   UNL     1      -8.527   4.309  73.528  1.00  0.00    -0.093 A  
HETATM   41  C   UNL     1     -11.202   5.011  73.233  1.00  0.00    -0.411 A  
HETATM   42  C   UNL     1     -10.212   5.711  72.550  1.00  0.00    -0.225 A  
HETATM   43  C   UNL     1      -9.519   3.575  74.174  1.00  0.00    -0.115 A  
ENDBRANCH  37  38
ENDBRANCH  22  37
ENDBRANCH  19  22
ENDBRANCH  18  19
ENDBRANCH  17  18
BRANCH  17  44
HETATM   44  C   UNL     1     -10.833   8.594  69.974  1.00  0.00    -0.226 C  
BRANCH  44  45
HETATM   45  C   UNL     1     -12.066   8.615  70.858  1.00  0.00    -0.173 A  
HETATM   46  C   UNL     1     -12.970   7.540  70.878  1.00  0.00    -0.061 A  
HETATM   47  C   UNL     1     -12.339   9.732  71.657  1.00  0.00    -0.495 A  
HETATM   48  C   UNL     1     -14.136   7.604  71.649  1.00  0.00    -0.547 A  
HETATM   49  C   UNL     1     -13.502   9.792  72.429  1.00  0.00    -0.364 A  
HETATM   50  C   UNL     1     -14.406   8.733  72.418  1.00  0.00    -0.419 A  
ENDBRANCH  44  45
ENDBRANCH  17  44
ENDBRANCH  15  17
ENDBRANCH   3  13
TORSDOF 14
ENDMDL
MODEL      266
REMARK 921   NORMALIZED FREE ENERGY PREDICTED BY IDOCK:   -2.41 KCAL/MOL
REMARK 922        TOTAL FREE ENERGY PREDICTED BY IDOCK:   -8.94 KCAL/MOL
REMARK 923 INTER-LIGAND FREE ENERGY PREDICTED BY IDOCK:   -8.82 KCAL/MOL
REMARK 924 INTRA-LIGAND FREE ENERGY PREDICTED BY IDOCK:   -0.12 KCAL/MOL
REMARK 927      BINDING AFFINITY PREDICTED BY RF-SCORE:    0.00 PKD
ROOT
HETATM    1  C   UNL     1      -8.933   2.743  65.474  1.00  0.00    -0.135 C  
HETATM    2  C   UNL     1      -9.448   4.148  65.820  1.00  0.00    -0.177 C  
HETATM    3  C   UNL     1      -8.332   5.220  65.623  1.00  0.00    -0.126 C  
HETATM    4  C   UNL     1     -10.714   4.415  65.004  1.00  0.00    -0.128 C  
ENDROOT
BRANCH   3   5
HETATM    5  N   UNL     1      -7.173   4.967  66.511  1.00  0.00    -0.075 N  
HETATM    6  H   UNL     1      -4.276   3.507  66.555  1.00  0.00     0.000 HD 
HETATM    7  O   UNL     1      -5.799   4.264  64.802  1.00  0.00    -0.014 OA 
HETATM    8  C   UNL     1      -7.184   5.429  67.893  1.00  0.00    -0.072 C  
HETATM    9  C   UNL     1      -6.022   4.406  66.001  1.00  0.00    -0.023 C  
HETATM   10  C   UNL     1      -6.678   4.317  68.792  1.00  0.00    -0.046 C  
HETATM   11  N   UNL     1      -5.125   3.939  66.920  1.00  0.00    -0.007 N  
HETATM   12  C   UNL     1      -5.262   3.995  68.360  1.00  0.00    -0.011 C  
ENDBRANCH   3   5
BRANCH   3  13
HETATM   13  C   UNL     1      -8.889   6.670  65.759  1.00  0.00    -0.077 C  
HETATM   14  O   UNL     1      -8.394   7.641  65.197  1.00  0.00    -0.138 OA 
HETATM   15  N   UNL     1      -9.943   6.801  66.641  1.00  0.00    -0.315 N  
HETATM   16  H   UNL     1     -10.304   5.938  67.048  1.00  0.00     0.000 HD 
BRANCH  15  17
HETATM   17  C   UNL     1     -10.600   8.039  67.055  1.00  0.00    -0.294 C  
BRANCH  17  18
HETATM   18  C   UNL     1      -9.941   9.315  66.486  1.00  0.00    -0.344 C  
BRANCH  18  19
HETATM   19  C   UNL     1      -9.166  10.334  67.360  1.00  0.00    -0.141 C  
HETATM   20  O   UNL     1      -8.315   9.626  68.267  1.00  0.00    -0.115 OA 
HETATM   21  H   UNL     1      -7.840  10.250  68.803  1.00  0.00     0.000 HD 
BRANCH  19  22
HETATM   22  C   UNL     1     -10.158  11.212  68.218  1.00  0.00    -0.185 C  
BRANCH  22  23
HETATM   23  N   UNL     1     -11.339  11.733  67.437  1.00  0.00    -0.301 N  
HETATM   24  C   UNL     1     -11.702  12.889  66.782  1.00  0.00    -0.383 C  
HETATM   25  H   UNL     1     -12.075  11.031  67.377  1.00  0.00     0.000 HD 
HETATM   26  O   UNL     1     -12.674  12.846  66.021  1.00  0.00    -0.373 OA 
BRANCH  24  27
HETATM   27  C   UNL     1     -10.989  14.218  67.084  1.00  0.00    -0.302 C  
BRANCH  27  28
HETATM   28  O   UNL     1     -11.676  15.388  67.497  1.00  0.00    -0.241 OA 
BRANCH  28  29
HETATM   29  C   UNL     1     -11.102  16.623  67.227  1.00  0.00     0.053 A  
HETATM   30  C   UNL     1     -11.198  16.707  64.578  1.00  0.00     0.072 C  
HETATM   31  C   UNL     1     -10.922  17.241  65.962  1.00  0.00     0.193 A  
HETATM   32  C   UNL     1     -10.428  18.568  65.916  1.00  0.00    -0.379 A  
HETATM   33  C   UNL     1     -10.096  19.278  67.059  1.00  0.00    -0.468 A  
HETATM   34  C   UNL     1     -10.231  18.667  68.293  1.00  0.00    -0.423 A  
HETATM   35  C   UNL     1     -10.717  17.348  68.395  1.00  0.00    -0.301 A  
HETATM   36  C   UNL     1     -10.797  16.763  69.784  1.00  0.00    -0.156 C  
ENDBRANCH  28  29
ENDBRANCH  27  28
ENDBRANCH  24  27
ENDBRANCH  22  23
BRANCH  22  37
HETATM   37  C   UNL     1     -10.432  10.615  69.625  1.00  0.00    -0.219 C  
BRANCH  37  38
HETATM   38  C   UNL     1     -11.564  11.273  70.366  1.00  0.00    -0.319 A  
HETATM   39  C   UNL     1     -13.507  12.532  71.941  1.00  0.00    -0.392 A  
HETATM   40  C   UNL     1     -12.423  10.516  71.167  1.00  0.00    -0.517 A  
HETATM   41  C   UNL     1     -12.704  13.283  71.092  1.00  0.00    -0.404 A  
HETATM   42  C   UNL     1     -11.773  12.649  70.275  1.00  0.00    -0.194 A  
HETATM   43  C   UNL     1     -13.389  11.144  71.949  1.00  0.00    -0.409 A  
ENDBRANCH  37  38
ENDBRANCH  22  37
ENDBRANCH  19  22
ENDBRANCH  18  19
ENDBRANCH  17  18
BRANCH  17  44
HETATM   44  C   UNL     1     -11.046   8.049  68.533  1.00  0.00     0.315 C  
BRANCH  44  45
HETATM   45  C   UNL     1     -10.468   6.910  69.351  1.00  0.00    -0.237 A  
HETATM   46  C   UNL     1     -10.605   5.573  68.943  1.00  0.00    -0.258 A  
HETATM   47  C   UNL     1      -9.803   7.176  70.555  1.00  0.00    -0.181 A  
HETATM   48  C   UNL     1     -10.124   4.530  69.742  1.00  0.00    -0.177 A  
HETATM   49  C   UNL     1      -9.320   6.133  71.350  1.00  0.00    -0.163 A  
HETATM   50  C   UNL     1      -9.488   4.810  70.949  1.00  0.00    -0.230 A  
ENDBRANCH  44  45
ENDBRANCH  17  44
ENDBRANCH  15  17
ENDBRANCH   3  13
TORSDOF 14
ENDMDL
MODEL      267
REMARK 921   NORMALIZED FREE ENERGY PREDICTED BY IDOCK:   -2.37 KCAL/MOL
REMARK 922        TOTAL FREE ENERGY PREDICTED BY IDOCK:   -8.87 KCAL/MOL
REMARK 923 INTER-LIGAND FREE ENERGY PREDICTED BY IDOCK:   -7.93 KCAL/MOL
REMARK 924 INTRA-LIGAND FREE ENERGY PREDICTED BY IDOCK:   -0.94 KCAL/MOL
REMARK 927      BINDING AFFINITY PREDICTED BY RF-SCORE:    0.00 PKD
ROOT
HETATM    1  C   UNL     1     -12.260  12.491  70.524  1.00  0.00    -0.382 C  
HETATM    2  C   UNL     1     -12.172  11.099  69.880  1.00  0.00    -0.385 C  
HETATM    3  C   UNL     1     -10.822  10.915  69.121  1.00  0.00    -0.235 C  
HETATM    4  C   UNL     1     -12.423  10.047  70.962  1.00  0.00    -0.460 C  
ENDROOT
BRANCH   3   5
HETATM    5  N   UNL     1     -10.679  11.897  68.021  1.00  0.00    -0.200 N  
HETATM    6  H   UNL     1      -8.660  14.171  66.891  1.00  0.00     0.000 HD 
HETATM    7  O   UNL     1      -8.446  12.286  68.428  1.00  0.00    -0.170 OA 
HETATM    8  C   UNL     1     -11.738  12.061  67.033  1.00  0.00    -0.267 C  
HETATM    9  C   UNL     1      -9.489  12.572  67.848  1.00  0.00    -0.196 C  
HETATM   10  C   UNL     1     -11.980  13.542  66.808  1.00  0.00    -0.453 C  
HETATM   11  N   UNL     1      -9.530  13.654  67.016  1.00  0.00    -0.243 N  
HETATM   12  C   UNL     1     -10.687  14.140  66.294  1.00  0.00    -0.293 C  
ENDBRANCH   3   5
BRANCH   3  13
HETATM   13  C   UNL     1     -10.619   9.444  68.645  1.00  0.00    -0.200 C  
HETATM   14  O   UNL     1     -10.712   9.093  67.474  1.00  0.00    -0.273 OA 
HETATM   15  N   UNL     1     -10.409   8.535  69.663  1.00  0.00    -0.214 N  
HETATM   16  H   UNL     1     -10.327   8.918  70.604  1.00  0.00     0.000 HD 
BRANCH  15  17
HETATM   17  C   UNL     1     -10.294   7.083  69.539  1.00  0.00    -0.213 C  
BRANCH  17  18
HETATM   18  C   UNL     1     -10.167   6.589  68.081  1.00  0.00    -0.194 C  
BRANCH  18  19
HETATM   19  C   UNL     1      -9.697   5.160  67.706  1.00  0.00    -0.148 C  
HETATM   20  O   UNL     1      -9.399   4.432  68.901  1.00  0.00    -0.129 OA 
HETATM   21  H   UNL     1      -9.111   3.556  68.671  1.00  0.00     0.000 HD 
BRANCH  19  22
HETATM   22  C   UNL     1      -8.383   5.208  66.833  1.00  0.00    -0.107 C  
BRANCH  22  23
HETATM   23  N   UNL     1      -7.456   4.043  67.066  1.00  0.00    -0.072 N  
HETATM   24  C   UNL     1      -6.258   3.799  67.705  1.00  0.00    -0.036 C  
HETATM   25  H   UNL     1      -7.816   3.195  66.628  1.00  0.00     0.000 HD 
HETATM   26  O   UNL     1      -5.931   2.625  67.899  1.00  0.00    -0.023 OA 
BRANCH  24  27
HETATM   27  C   UNL     1      -5.308   4.957  68.054  1.00  0.00    -0.011 C  
BRANCH  27  28
HETATM   28  O   UNL     1      -5.308   6.195  67.362  1.00  0.00    -0.005 OA 
BRANCH  28  29
HETATM   29  C   UNL     1      -5.571   7.355  68.078  1.00  0.00    -0.026 A  
HETATM   30  C   UNL     1      -5.825   6.430  70.550  1.00  0.00    -0.023 C  
HETATM   31  C   UNL     1      -5.758   7.490  69.479  1.00  0.00    -0.023 A  
HETATM   32  C   UNL     1      -5.889   8.789  70.026  1.00  0.00    -0.031 A  
HETATM   33  C   UNL     1      -5.862   9.933  69.243  1.00  0.00    -0.034 A  
HETATM   34  C   UNL     1      -5.722   9.806  67.872  1.00  0.00    -0.040 A  
HETATM   35  C   UNL     1      -5.588   8.536  67.276  1.00  0.00    -0.039 A  
HETATM   36  C   UNL     1      -5.472   8.505  65.771  1.00  0.00    -0.035 C  
ENDBRANCH  28  29
ENDBRANCH  27  28
ENDBRANCH  24  27
ENDBRANCH  22  23
BRANCH  22  37
HETATM   37  C   UNL     1      -8.649   5.634  65.363  1.00  0.00    -0.150 C  
BRANCH  37  38
HETATM   38  C   UNL     1      -8.916   4.488  64.427  1.00  0.00    -0.152 A  
HETATM   39  C   UNL     1      -9.365   2.197  62.880  1.00  0.00    -0.090 A  
HETATM   40  C   UNL     1      -7.880   3.930  63.674  1.00  0.00    -0.083 A  
HETATM   41  C   UNL     1     -10.416   2.790  63.568  1.00  0.00    -0.207 A  
HETATM   42  C   UNL     1     -10.199   3.956  64.296  1.00  0.00    -0.234 A  
HETATM   43  C   UNL     1      -8.104   2.790  62.904  1.00  0.00    -0.073 A  
ENDBRANCH  37  38
ENDBRANCH  22  37
ENDBRANCH  19  22
ENDBRANCH  18  19
ENDBRANCH  17  18
BRANCH  17  44
HETATM   44  C   UNL     1     -11.216   6.296  70.495  1.00  0.00    -0.420 C  
BRANCH  44  45
HETATM   45  C   UNL     1     -10.562   5.945  71.818  1.00  0.00    -0.286 A  
HETATM   46  C   UNL     1     -11.213   5.134  72.763  1.00  0.00    -0.323 A  
HETATM   47  C   UNL     1      -9.296   6.451  72.133  1.00  0.00    -0.149 A  
HETATM   48  C   UNL     1     -10.625   4.874  74.006  1.00  0.00    -0.350 A  
HETATM   49  C   UNL     1      -8.708   6.187  73.374  1.00  0.00    -0.125 A  
HETATM   50  C   UNL     1      -9.376   5.407  74.314  1.00  0.00    -0.132 A  
ENDBRANCH  44  45
ENDBRANCH  17  44
ENDBRANCH  15  17
ENDBRANCH   3  13
TORSDOF 14
ENDMDL
MODEL      268
REMARK 921   NORMALIZED FREE ENERGY PREDICTED BY IDOCK:   -2.24 KCAL/MOL
REMARK 922        TOTAL FREE ENERGY PREDICTED BY IDOCK:   -8.63 KCAL/MOL
REMARK 923 INTER-LIGAND FREE ENERGY PREDICTED BY IDOCK:   -6.71 KCAL/MOL
REMARK 924 INTRA-LIGAND FREE ENERGY PREDICTED BY IDOCK:   -1.92 KCAL/MOL
REMARK 927      BINDING AFFINITY PREDICTED BY RF-SCORE:    0.00 PKD
ROOT
HETATM    1  C   UNL     1      -7.973  16.186  69.202  1.00  0.00    -0.233 C  
HETATM    2  C   UNL     1      -7.850  14.660  69.069  1.00  0.00    -0.133 C  
HETATM    3  C   UNL     1      -9.047  14.068  68.263  1.00  0.00    -0.191 C  
HETATM    4  C   UNL     1      -6.479  14.334  68.471  1.00  0.00    -0.095 C  
ENDROOT
BRANCH   3   5
HETATM    5  N   UNL     1     -10.339  14.328  68.939  1.00  0.00    -0.234 N  
HETATM    6  H   UNL     1     -13.459  14.951  68.306  1.00  0.00     0.000 HD 
HETATM    7  O   UNL     1     -11.595  14.018  67.034  1.00  0.00    -0.331 OA 
HETATM    8  C   UNL     1     -10.411  14.405  70.393  1.00  0.00     0.721 C  
HETATM    9  C   UNL     1     -11.506  14.371  68.207  1.00  0.00    -0.305 C  
HETATM   10  C   UNL     1     -11.255  15.603  70.784  1.00  0.00    -0.396 C  
HETATM   11  N   UNL     1     -12.593  14.899  68.843  1.00  0.00     0.164 N  
HETATM   12  C   UNL     1     -12.637  15.394  70.203  1.00  0.00    -0.293 C  
ENDBRANCH   3   5
BRANCH   3  13
HETATM   13  C   UNL     1      -8.834  12.559  67.931  1.00  0.00    -0.185 C  
HETATM   14  O   UNL     1      -7.752  12.084  67.602  1.00  0.00    -0.125 OA 
HETATM   15  N   UNL     1      -9.986  11.799  67.949  1.00  0.00    -0.177 N  
HETATM   16  H   UNL     1     -10.837  12.271  68.253  1.00  0.00     0.000 HD 
BRANCH  15  17
HETATM   17  C   UNL     1     -10.119  10.391  67.580  1.00  0.00    -0.192 C  
BRANCH  17  18
HETATM   18  C   UNL     1     -10.543   9.476  68.750  1.00  0.00    -0.240 C  
BRANCH  18  19
HETATM   19  C   UNL     1      -9.591   9.081  69.908  1.00  0.00    -0.183 C  
HETATM   20  O   UNL     1      -8.960  10.256  70.423  1.00  0.00    -0.258 OA 
HETATM   21  H   UNL     1      -8.376  10.014  71.132  1.00  0.00     0.000 HD 
BRANCH  19  22
HETATM   22  C   UNL     1      -8.455   8.110  69.397  1.00  0.00    -0.127 C  
BRANCH  22  23
HETATM   23  N   UNL     1      -7.101   8.392  69.998  1.00  0.00    -0.046 N  
HETATM   24  C   UNL     1      -6.463   8.224  71.208  1.00  0.00    -0.046 C  
HETATM   25  H   UNL     1      -6.482   8.830  69.317  1.00  0.00     0.000 HD 
HETATM   26  O   UNL     1      -5.235   8.351  71.242  1.00  0.00    -0.029 OA 
BRANCH  24  27
HETATM   27  C   UNL     1      -7.274   8.003  72.497  1.00  0.00    -0.097 C  
BRANCH  27  28
HETATM   28  O   UNL     1      -7.223   6.801  73.247  1.00  0.00    -0.076 OA 
BRANCH  28  29
HETATM   29  C   UNL     1      -8.190   5.832  73.013  1.00  0.00    -0.118 A  
HETATM   30  C   UNL     1     -10.355   6.951  74.058  1.00  0.00    -0.355 C  
HETATM   31  C   UNL     1      -9.575   5.892  73.320  1.00  0.00    -0.143 A  
HETATM   32  C   UNL     1     -10.416   4.842  72.879  1.00  0.00    -0.257 A  
HETATM   33  C   UNL     1      -9.935   3.747  72.178  1.00  0.00    -0.239 A  
HETATM   34  C   UNL     1      -8.580   3.662  71.911  1.00  0.00    -0.110 A  
HETATM   35  C   UNL     1      -7.698   4.680  72.327  1.00  0.00    -0.089 A  
HETATM   36  C   UNL     1      -6.236   4.477  72.015  1.00  0.00    -0.021 C  
ENDBRANCH  28  29
ENDBRANCH  27  28
ENDBRANCH  24  27
ENDBRANCH  22  23
BRANCH  22  37
HETATM   37  C   UNL     1      -8.915   6.629  69.320  1.00  0.00    -0.135 C  
BRANCH  37  38
HETATM   38  C   UNL     1      -8.144   5.793  68.335  1.00  0.00    -0.108 A  
HETATM   39  C   UNL     1      -6.494   4.339  66.601  1.00  0.00    -0.037 A  
HETATM   40  C   UNL     1      -7.836   6.293  67.067  1.00  0.00    -0.104 A  
HETATM   41  C   UNL     1      -6.855   3.805  67.832  1.00  0.00    -0.047 A  
HETATM   42  C   UNL     1      -7.714   4.509  68.669  1.00  0.00    -0.071 A  
HETATM   43  C   UNL     1      -7.016   5.569  66.205  1.00  0.00    -0.060 A  
ENDBRANCH  37  38
ENDBRANCH  22  37
ENDBRANCH  19  22
ENDBRANCH  18  19
ENDBRANCH  17  18
BRANCH  17  44
HETATM   44  C   UNL     1      -9.017   9.884  66.624  1.00  0.00    -0.157 C  
BRANCH  44  45
HETATM   45  C   UNL     1      -9.223  10.304  65.181  1.00  0.00    -0.252 A  
HETATM   46  C   UNL     1     -10.427  10.890  64.755  1.00  0.00    -0.373 A  
HETATM   47  C   UNL     1      -8.215  10.086  64.235  1.00  0.00    -0.166 A  
HETATM   48  C   UNL     1     -10.626  11.210  63.407  1.00  0.00    -0.340 A  
HETATM   49  C   UNL     1      -8.414  10.410  62.890  1.00  0.00    -0.187 A  
HETATM   50  C   UNL     1      -9.622  10.963  62.474  1.00  0.00    -0.235 A  
ENDBRANCH  44  45
ENDBRANCH  17  44
ENDBRANCH  15  17
ENDBRANCH   3  13
TORSDOF 14
ENDMDL
MODEL      269
REMARK 921   NORMALIZED FREE ENERGY PREDICTED BY IDOCK:   -2.22 KCAL/MOL
REMARK 922        TOTAL FREE ENERGY PREDICTED BY IDOCK:   -8.58 KCAL/MOL
REMARK 923 INTER-LIGAND FREE ENERGY PREDICTED BY IDOCK:   -5.63 KCAL/MOL
REMARK 924 INTRA-LIGAND FREE ENERGY PREDICTED BY IDOCK:   -2.96 KCAL/MOL
REMARK 927      BINDING AFFINITY PREDICTED BY RF-SCORE:    0.00 PKD
ROOT
HETATM    1  C   UNL     1      -9.298  15.376  66.493  1.00  0.00    -0.311 C  
HETATM    2  C   UNL     1      -9.190  13.966  67.093  1.00  0.00    -0.242 C  
HETATM    3  C   UNL     1     -10.477  13.596  67.894  1.00  0.00    -0.247 C  
HETATM    4  C   UNL     1      -8.857  12.983  65.968  1.00  0.00     0.437 C  
ENDROOT
BRANCH   3   5
HETATM    5  N   UNL     1     -10.694  14.522  69.031  1.00  0.00    -0.247 N  
HETATM    6  H   UNL     1      -9.138  15.894  71.524  1.00  0.00     0.000 HD 
HETATM    7  O   UNL     1      -8.448  14.814  69.445  1.00  0.00    -0.104 OA 
HETATM    8  C   UNL     1     -12.018  15.073  69.294  1.00  0.00    -0.289 C  
HETATM    9  C   UNL     1      -9.621  14.971  69.770  1.00  0.00     0.038 C  
HETATM   10  C   UNL     1     -12.306  14.980  70.780  1.00  0.00    -0.400 C  
HETATM   11  N   UNL     1      -9.924  15.571  70.960  1.00  0.00     0.866 N  
HETATM   12  C   UNL     1     -11.249  15.793  71.499  1.00  0.00    -0.244 C  
ENDBRANCH   3   5
BRANCH   3  13
HETATM   13  C   UNL     1     -10.481  12.098  68.328  1.00  0.00    -0.213 C  
HETATM   14  O   UNL     1     -11.449  11.358  68.196  1.00  0.00    -0.267 OA 
HETATM   15  N   UNL     1      -9.328  11.681  68.962  1.00  0.00    -0.408 N  
HETATM   16  H   UNL     1      -8.566  12.357  69.011  1.00  0.00     0.000 HD 
BRANCH  15  17
HETATM   17  C   UNL     1      -9.079  10.376  69.572  1.00  0.00    -0.107 C  
BRANCH  17  18
HETATM   18  C   UNL     1      -7.583  10.006  69.666  1.00  0.00    -0.147 C  
BRANCH  18  19
HETATM   19  C   UNL     1      -6.760   9.479  68.462  1.00  0.00    -0.053 C  
HETATM   20  O   UNL     1      -7.281  10.039  67.252  1.00  0.00    -0.085 OA 
HETATM   21  H   UNL     1      -6.777   9.716  66.514  1.00  0.00     0.000 HD 
BRANCH  19  22
HETATM   22  C   UNL     1      -6.867   7.908  68.349  1.00  0.00    -0.071 C  
BRANCH  22  23
HETATM   23  N   UNL     1      -6.639   7.383  66.954  1.00  0.00    -0.055 N  
HETATM   24  C   UNL     1      -7.396   7.004  65.866  1.00  0.00    -0.075 C  
HETATM   25  H   UNL     1      -5.644   7.278  66.761  1.00  0.00     0.000 HD 
HETATM   26  O   UNL     1      -6.826   6.865  64.780  1.00  0.00    -0.044 OA 
BRANCH  24  27
HETATM   27  C   UNL     1      -8.884   6.652  66.033  1.00  0.00    -0.139 C  
BRANCH  27  28
HETATM   28  O   UNL     1      -9.524   5.624  65.293  1.00  0.00     0.072 OA 
BRANCH  28  29
HETATM   29  C   UNL     1      -9.251   4.303  65.622  1.00  0.00    -0.148 A  
HETATM   30  C   UNL     1     -10.068   4.184  68.143  1.00  0.00     0.125 C  
HETATM   31  C   UNL     1      -9.520   3.638  66.848  1.00  0.00    -0.213 A  
HETATM   32  C   UNL     1      -9.278   2.246  66.934  1.00  0.00    -0.068 A  
HETATM   33  C   UNL     1      -8.769   1.511  65.874  1.00  0.00    -0.115 A  
HETATM   34  C   UNL     1      -8.467   2.161  64.690  1.00  0.00    -0.090 A  
HETATM   35  C   UNL     1      -8.688   3.546  64.551  1.00  0.00    -0.101 A  
HETATM   36  C   UNL     1      -8.296   4.164  63.231  1.00  0.00    -0.095 C  
ENDBRANCH  28  29
ENDBRANCH  27  28
ENDBRANCH  24  27
ENDBRANCH  22  23
BRANCH  22  37
HETATM   37  C   UNL     1      -6.167   7.169  69.521  1.00  0.00    -0.035 C  
BRANCH  37  38
HETATM   38  C   UNL     1      -7.101   6.706  70.605  1.00  0.00    -0.069 A  
HETATM   39  C   UNL     1      -8.655   5.678  72.695  1.00  0.00    -0.120 A  
HETATM   40  C   UNL     1      -8.001   5.664  70.369  1.00  0.00    -0.104 A  
HETATM   41  C   UNL     1      -7.815   6.761  72.919  1.00  0.00    -0.098 A  
HETATM   42  C   UNL     1      -7.081   7.300  71.866  1.00  0.00    -0.063 A  
HETATM   43  C   UNL     1      -8.774   5.153  71.410  1.00  0.00    -0.137 A  
ENDBRANCH  37  38
ENDBRANCH  22  37
ENDBRANCH  19  22
ENDBRANCH  18  19
ENDBRANCH  17  18
BRANCH  17  44
HETATM   44  C   UNL     1     -10.073   9.278  69.134  1.00  0.00    -0.204 C  
BRANCH  44  45
HETATM   45  C   UNL     1     -10.676   8.507  70.292  1.00  0.00    -0.242 A  
HETATM   46  C   UNL     1     -11.463   7.363  70.078  1.00  0.00    -0.089 A  
HETATM   47  C   UNL     1     -10.477   8.943  71.608  1.00  0.00    -0.408 A  
HETATM   48  C   UNL     1     -12.067   6.701  71.153  1.00  0.00    -0.391 A  
HETATM   49  C   UNL     1     -11.077   8.278  72.680  1.00  0.00    -0.400 A  
HETATM   50  C   UNL     1     -11.880   7.164  72.453  1.00  0.00    -0.224 A  
ENDBRANCH  44  45
ENDBRANCH  17  44
ENDBRANCH  15  17
ENDBRANCH   3  13
TORSDOF 14
ENDMDL
MODEL      270
REMARK 921   NORMALIZED FREE ENERGY PREDICTED BY IDOCK:   -2.17 KCAL/MOL
REMARK 922        TOTAL FREE ENERGY PREDICTED BY IDOCK:   -8.51 KCAL/MOL
REMARK 923 INTER-LIGAND FREE ENERGY PREDICTED BY IDOCK:   -7.05 KCAL/MOL
REMARK 924 INTRA-LIGAND FREE ENERGY PREDICTED BY IDOCK:   -1.46 KCAL/MOL
REMARK 927      BINDING AFFINITY PREDICTED BY RF-SCORE:    0.00 PKD
ROOT
HETATM    1  C   UNL     1      -8.613   3.949  72.626  1.00  0.00    -0.102 C  
HETATM    2  C   UNL     1      -7.766   4.975  71.858  1.00  0.00    -0.107 C  
HETATM    3  C   UNL     1      -8.072   6.428  72.338  1.00  0.00    -0.103 C  
HETATM    4  C   UNL     1      -6.293   4.579  71.983  1.00  0.00    -0.022 C  
ENDROOT
BRANCH   3   5
HETATM    5  N   UNL     1      -9.489   6.791  72.101  1.00  0.00    -0.141 N  
HETATM    6  H   UNL     1     -11.839   8.725  73.224  1.00  0.00     0.000 HD 
HETATM    7  O   UNL     1      -9.405   8.676  73.420  1.00  0.00    -0.071 OA 
HETATM    8  C   UNL     1     -10.264   6.115  71.068  1.00  0.00    -0.196 C  
HETATM    9  C   UNL     1     -10.049   7.860  72.767  1.00  0.00    -0.300 C  
HETATM   10  C   UNL     1     -11.626   5.753  71.628  1.00  0.00    -0.086 C  
HETATM   11  N   UNL     1     -11.411   7.947  72.722  1.00  0.00    -0.399 N  
HETATM   12  C   UNL     1     -12.308   7.043  72.032  1.00  0.00    -0.267 C  
ENDBRANCH   3   5
BRANCH   3  13
HETATM   13  C   UNL     1      -7.076   7.462  71.730  1.00  0.00    -0.063 C  
HETATM   14  O   UNL     1      -6.198   8.020  72.380  1.00  0.00    -0.045 OA 
HETATM   15  N   UNL     1      -7.311   7.777  70.406  1.00  0.00    -0.068 N  
HETATM   16  H   UNL     1      -8.048   7.251  69.938  1.00  0.00     0.000 HD 
BRANCH  15  17
HETATM   17  C   UNL     1      -6.619   8.782  69.602  1.00  0.00    -0.039 C  
BRANCH  17  18
HETATM   18  C   UNL     1      -7.547   9.564  68.647  1.00  0.00    -0.080 C  
BRANCH  18  19
HETATM   19  C   UNL     1      -9.089   9.608  68.806  1.00  0.00    -0.134 C  
HETATM   20  O   UNL     1      -9.428   9.392  70.179  1.00  0.00    -0.204 OA 
HETATM   21  H   UNL     1     -10.373   9.418  70.276  1.00  0.00     0.000 HD 
BRANCH  19  22
HETATM   22  C   UNL     1      -9.777   8.469  67.956  1.00  0.00    -0.154 C  
BRANCH  22  23
HETATM   23  N   UNL     1     -10.262   8.929  66.604  1.00  0.00    -0.281 N  
HETATM   24  C   UNL     1     -10.254  10.084  65.853  1.00  0.00    -0.205 C  
HETATM   25  H   UNL     1     -10.728   8.171  66.106  1.00  0.00     0.000 HD 
HETATM   26  O   UNL     1     -10.533  10.000  64.653  1.00  0.00     0.070 OA 
BRANCH  24  27
HETATM   27  C   UNL     1     -10.019  11.450  66.519  1.00  0.00    -0.211 C  
BRANCH  27  28
HETATM   28  O   UNL     1     -10.904  12.548  66.365  1.00  0.00    -0.251 OA 
BRANCH  28  29
HETATM   29  C   UNL     1     -11.022  13.456  67.409  1.00  0.00    -0.272 A  
HETATM   30  C   UNL     1     -11.848  11.906  69.396  1.00  0.00    -0.389 C  
HETATM   31  C   UNL     1     -11.391  13.192  68.754  1.00  0.00    -0.333 A  
HETATM   32  C   UNL     1     -11.326  14.247  69.697  1.00  0.00    -0.292 A  
HETATM   33  C   UNL     1     -10.936  15.532  69.352  1.00  0.00    -0.276 A  
HETATM   34  C   UNL     1     -10.614  15.805  68.034  1.00  0.00    -0.279 A  
HETATM   35  C   UNL     1     -10.662  14.792  67.056  1.00  0.00    -0.300 A  
HETATM   36  C   UNL     1     -10.322  15.200  65.643  1.00  0.00    -0.379 C  
ENDBRANCH  28  29
ENDBRANCH  27  28
ENDBRANCH  24  27
ENDBRANCH  22  23
BRANCH  22  37
HETATM   37  C   UNL     1      -9.014   7.118  68.026  1.00  0.00    -0.127 C  
BRANCH  37  38
HETATM   38  C   UNL     1      -9.213   6.233  66.826  1.00  0.00    -0.147 A  
HETATM   39  C   UNL     1      -9.699   4.785  64.479  1.00  0.00     0.147 A  
HETATM   40  C   UNL     1     -10.364   5.450  66.705  1.00  0.00    -0.325 A  
HETATM   41  C   UNL     1      -8.520   5.504  64.623  1.00  0.00    -0.108 A  
HETATM   42  C   UNL     1      -8.260   6.182  65.810  1.00  0.00    -0.138 A  
HETATM   43  C   UNL     1     -10.605   4.730  65.537  1.00  0.00    -0.169 A  
ENDBRANCH  37  38
ENDBRANCH  22  37
ENDBRANCH  19  22
ENDBRANCH  18  19
ENDBRANCH  17  18
BRANCH  17  44
HETATM   44  C   UNL     1      -5.246   8.321  69.066  1.00  0.00    -0.027 C  
BRANCH  44  45
HETATM   45  C   UNL     1      -5.169   8.277  67.551  1.00  0.00    -0.034 A  
HETATM   46  C   UNL     1      -5.137   9.455  66.786  1.00  0.00    -0.034 A  
HETATM   47  C   UNL     1      -5.154   7.047  66.883  1.00  0.00    -0.013 A  
HETATM   48  C   UNL     1      -5.132   9.398  65.388  1.00  0.00    -0.035 A  
HETATM   49  C   UNL     1      -5.146   6.992  65.487  1.00  0.00    -0.023 A  
HETATM   50  C   UNL     1      -5.144   8.166  64.739  1.00  0.00    -0.035 A  
ENDBRANCH  44  45
ENDBRANCH  17  44
ENDBRANCH  15  17
ENDBRANCH   3  13
TORSDOF 14
ENDMDL
MODEL      271
REMARK 921   NORMALIZED FREE ENERGY PREDICTED BY IDOCK:   -2.17 KCAL/MOL
REMARK 922        TOTAL FREE ENERGY PREDICTED BY IDOCK:   -8.49 KCAL/MOL
REMARK 923 INTER-LIGAND FREE ENERGY PREDICTED BY IDOCK:   -6.15 KCAL/MOL
REMARK 924 INTRA-LIGAND FREE ENERGY PREDICTED BY IDOCK:   -2.35 KCAL/MOL
REMARK 927      BINDING AFFINITY PREDICTED BY RF-SCORE:    0.00 PKD
ROOT
HETATM    1  C   UNL     1      -9.196   5.488  66.086  1.00  0.00    -0.166 C  
HETATM    2  C   UNL     1      -8.459   6.405  67.075  1.00  0.00    -0.112 C  
HETATM    3  C   UNL     1      -7.295   5.646  67.784  1.00  0.00    -0.077 C  
HETATM    4  C   UNL     1      -8.013   7.665  66.329  1.00  0.00    -0.105 C  
ENDROOT
BRANCH   3   5
HETATM    5  N   UNL     1      -7.797   4.496  68.572  1.00  0.00    -0.078 N  
HETATM    6  H   UNL     1      -7.480   1.280  68.857  1.00  0.00     0.000 HD 
HETATM    7  O   UNL     1      -6.149   3.060  67.845  1.00  0.00    -0.026 OA 
HETATM    8  C   UNL     1      -8.822   4.687  69.590  1.00  0.00    -0.083 C  
HETATM    9  C   UNL     1      -7.206   3.258  68.439  1.00  0.00    -0.050 C  
HETATM   10  C   UNL     1      -9.869   3.598  69.449  1.00  0.00     0.057 C  
HETATM   11  N   UNL     1      -7.899   2.204  68.962  1.00  0.00    -0.046 N  
HETATM   12  C   UNL     1      -9.171   2.269  69.652  1.00  0.00    -0.112 C  
ENDBRANCH   3   5
BRANCH   3  13
HETATM   13  C   UNL     1      -6.402   6.609  68.626  1.00  0.00    -0.031 C  
HETATM   14  O   UNL     1      -5.177   6.562  68.633  1.00  0.00    -0.010 OA 
HETATM   15  N   UNL     1      -7.101   7.474  69.443  1.00  0.00    -0.071 N  
HETATM   16  H   UNL     1      -8.117   7.458  69.357  1.00  0.00     0.000 HD 
BRANCH  15  17
HETATM   17  C   UNL     1      -6.546   8.411  70.417  1.00  0.00    -0.036 C  
BRANCH  17  18
HETATM   18  C   UNL     1      -7.600   9.334  71.067  1.00  0.00    -0.091 C  
BRANCH  18  19
HETATM   19  C   UNL     1      -9.036   8.868  71.418  1.00  0.00    -0.248 C  
HETATM   20  O   UNL     1      -9.003   7.495  71.818  1.00  0.00    -0.121 OA 
HETATM   21  H   UNL     1      -9.884   7.209  72.033  1.00  0.00     0.000 HD 
BRANCH  19  22
HETATM   22  C   UNL     1      -9.989   8.980  70.164  1.00  0.00    -0.189 C  
BRANCH  22  23
HETATM   23  N   UNL     1      -9.450   9.867  69.070  1.00  0.00    -0.174 N  
HETATM   24  C   UNL     1      -9.805  11.036  68.432  1.00  0.00    -0.182 C  
HETATM   25  H   UNL     1      -8.576   9.498  68.697  1.00  0.00     0.000 HD 
HETATM   26  O   UNL     1      -8.954  11.604  67.741  1.00  0.00    -0.159 OA 
BRANCH  24  27
HETATM   27  C   UNL     1     -11.254  11.549  68.488  1.00  0.00    -0.258 C  
BRANCH  27  28
HETATM   28  O   UNL     1     -11.983  11.935  67.334  1.00  0.00    -0.603 OA 
BRANCH  28  29
HETATM   29  C   UNL     1     -11.631  13.113  66.690  1.00  0.00    -0.356 A  
HETATM   30  C   UNL     1     -12.206  14.937  68.527  1.00  0.00    -0.084 C  
HETATM   31  C   UNL     1     -11.678  14.435  67.206  1.00  0.00    -0.429 A  
HETATM   32  C   UNL     1     -11.150  15.490  66.424  1.00  0.00    -0.174 A  
HETATM   33  C   UNL     1     -10.607  15.285  65.165  1.00  0.00    -0.453 A  
HETATM   34  C   UNL     1     -10.596  14.005  64.639  1.00  0.00    -0.416 A  
HETATM   35  C   UNL     1     -11.109  12.918  65.375  1.00  0.00    -0.309 A  
HETATM   36  C   UNL     1     -11.078  11.569  64.700  1.00  0.00    -0.317 C  
ENDBRANCH  28  29
ENDBRANCH  27  28
ENDBRANCH  24  27
ENDBRANCH  22  23
BRANCH  22  37
HETATM   37  C   UNL     1     -10.604   7.617  69.748  1.00  0.00    -0.245 C  
BRANCH  37  38
HETATM   38  C   UNL     1     -11.733   7.154  70.628  1.00  0.00    -0.348 A  
HETATM   39  C   UNL     1     -13.759   6.470  72.436  1.00  0.00     0.363 A  
HETATM   40  C   UNL     1     -11.532   6.133  71.561  1.00  0.00    -0.325 A  
HETATM   41  C   UNL     1     -13.988   7.436  71.465  1.00  0.00    -0.517 A  
HETATM   42  C   UNL     1     -12.995   7.737  70.537  1.00  0.00     0.559 A  
HETATM   43  C   UNL     1     -12.541   5.793  72.459  1.00  0.00     0.314 A  
ENDBRANCH  37  38
ENDBRANCH  22  37
ENDBRANCH  19  22
ENDBRANCH  18  19
ENDBRANCH  17  18
BRANCH  17  44
HETATM   44  C   UNL     1      -5.198   9.034  69.992  1.00  0.00    -0.028 C  
BRANCH  44  45
HETATM   45  C   UNL     1      -5.345  10.220  69.058  1.00  0.00    -0.038 A  
HETATM   46  C   UNL     1      -5.542  10.044  67.678  1.00  0.00    -0.042 A  
HETATM   47  C   UNL     1      -5.258  11.525  69.558  1.00  0.00    -0.053 A  
HETATM   48  C   UNL     1      -5.608  11.148  66.820  1.00  0.00    -0.100 A  
HETATM   49  C   UNL     1      -5.328  12.626  68.700  1.00  0.00    -0.059 A  
HETATM   50  C   UNL     1      -5.494  12.438  67.331  1.00  0.00    -0.117 A  
ENDBRANCH  44  45
ENDBRANCH  17  44
ENDBRANCH  15  17
ENDBRANCH   3  13
TORSDOF 14
ENDMDL
MODEL      272
REMARK 921   NORMALIZED FREE ENERGY PREDICTED BY IDOCK:   -2.11 KCAL/MOL
REMARK 922        TOTAL FREE ENERGY PREDICTED BY IDOCK:   -8.39 KCAL/MOL
REMARK 923 INTER-LIGAND FREE ENERGY PREDICTED BY IDOCK:   -6.27 KCAL/MOL
REMARK 924 INTRA-LIGAND FREE ENERGY PREDICTED BY IDOCK:   -2.13 KCAL/MOL
REMARK 927      BINDING AFFINITY PREDICTED BY RF-SCORE:    0.00 PKD
ROOT
HETATM    1  C   UNL     1      -8.237   7.319  62.330  1.00  0.00    -0.074 C  
HETATM    2  C   UNL     1      -7.918   7.521  63.820  1.00  0.00    -0.082 C  
HETATM    3  C   UNL     1      -6.730   6.616  64.267  1.00  0.00    -0.041 C  
HETATM    4  C   UNL     1      -7.688   9.014  64.068  1.00  0.00    -0.125 C  
ENDROOT
BRANCH   3   5
HETATM    5  N   UNL     1      -7.047   5.179  64.097  1.00  0.00    -0.049 N  
HETATM    6  H   UNL     1      -6.202   2.579  62.350  1.00  0.00     0.000 HD 
HETATM    7  O   UNL     1      -5.168   4.736  62.842  1.00  0.00    -0.009 OA 
HETATM    8  C   UNL     1      -8.111   4.558  64.877  1.00  0.00    -0.100 C  
HETATM    9  C   UNL     1      -6.254   4.387  63.294  1.00  0.00    -0.018 C  
HETATM   10  C   UNL     1      -8.957   3.694  63.961  1.00  0.00    -0.108 C  
HETATM   11  N   UNL     1      -6.772   3.169  62.956  1.00  0.00    -0.030 N  
HETATM   12  C   UNL     1      -8.051   2.632  63.374  1.00  0.00    -0.074 C  
ENDBRANCH   3   5
BRANCH   3  13
HETATM   13  C   UNL     1      -6.250   6.959  65.711  1.00  0.00    -0.039 C  
HETATM   14  O   UNL     1      -5.136   6.678  66.139  1.00  0.00    -0.016 OA 
HETATM   15  N   UNL     1      -7.213   7.534  66.515  1.00  0.00    -0.074 N  
HETATM   16  H   UNL     1      -8.105   7.751  66.071  1.00  0.00     0.000 HD 
BRANCH  15  17
HETATM   17  C   UNL     1      -7.096   7.866  67.934  1.00  0.00    -0.086 C  
BRANCH  17  18
HETATM   18  C   UNL     1      -6.446   9.241  68.202  1.00  0.00    -0.058 C  
BRANCH  18  19
HETATM   19  C   UNL     1      -6.687  10.484  67.306  1.00  0.00    -0.077 C  
HETATM   20  O   UNL     1      -5.715  11.486  67.618  1.00  0.00    -0.046 OA 
HETATM   21  H   UNL     1      -5.862  12.248  67.070  1.00  0.00     0.000 HD 
BRANCH  19  22
HETATM   22  C   UNL     1      -8.115  11.102  67.570  1.00  0.00    -0.119 C  
BRANCH  22  23
HETATM   23  N   UNL     1      -9.211  10.472  66.747  1.00  0.00    -0.154 N  
HETATM   24  C   UNL     1     -10.214  10.881  65.894  1.00  0.00    -0.257 C  
HETATM   25  H   UNL     1      -9.208   9.458  66.849  1.00  0.00     0.000 HD 
HETATM   26  O   UNL     1     -10.764  10.028  65.192  1.00  0.00     0.194 OA 
BRANCH  24  27
HETATM   27  C   UNL     1     -10.709  12.337  65.910  1.00  0.00    -0.258 C  
BRANCH  27  28
HETATM   28  O   UNL     1     -10.144  13.338  66.739  1.00  0.00    -0.248 OA 
BRANCH  28  29
HETATM   29  C   UNL     1     -10.148  14.652  66.290  1.00  0.00    -0.294 A  
HETATM   30  C   UNL     1     -12.045  14.594  64.438  1.00  0.00    -0.481 C  
HETATM   31  C   UNL     1     -10.999  15.236  65.315  1.00  0.00    -0.403 A  
HETATM   32  C   UNL     1     -10.922  16.632  65.094  1.00  0.00    -0.160 A  
HETATM   33  C   UNL     1     -10.033  17.447  65.777  1.00  0.00    -0.082 A  
HETATM   34  C   UNL     1      -9.172  16.878  66.699  1.00  0.00    -0.278 A  
HETATM   35  C   UNL     1      -9.207  15.493  66.958  1.00  0.00    -0.242 A  
HETATM   36  C   UNL     1      -8.206  14.967  67.958  1.00  0.00    -0.138 C  
ENDBRANCH  28  29
ENDBRANCH  27  28
ENDBRANCH  24  27
ENDBRANCH  22  23
BRANCH  22  37
HETATM   37  C   UNL     1      -8.399  11.349  69.077  1.00  0.00     0.036 C  
BRANCH  37  38
HETATM   38  C   UNL     1      -9.533  10.533  69.634  1.00  0.00    -0.029 A  
HETATM   39  C   UNL     1     -11.573   9.097  70.905  1.00  0.00    -0.350 A  
HETATM   40  C   UNL     1      -9.335   9.200  70.001  1.00  0.00    -0.218 A  
HETATM   41  C   UNL     1     -11.800  10.399  70.477  1.00  0.00    -0.430 A  
HETATM   42  C   UNL     1     -10.799  11.092  69.802  1.00  0.00    -0.205 A  
HETATM   43  C   UNL     1     -10.351   8.486  70.633  1.00  0.00    -0.232 A  
ENDBRANCH  37  38
ENDBRANCH  22  37
ENDBRANCH  19  22
ENDBRANCH  18  19
ENDBRANCH  17  18
BRANCH  17  44
HETATM   44  C   UNL     1      -6.674   6.677  68.824  1.00  0.00    -0.057 C  
BRANCH  44  45
HETATM   45  C   UNL     1      -7.618   5.492  68.745  1.00  0.00    -0.083 A  
HETATM   46  C   UNL     1      -7.208   4.266  68.196  1.00  0.00    -0.060 A  
HETATM   47  C   UNL     1      -8.936   5.612  69.201  1.00  0.00    -0.120 A  
HETATM   48  C   UNL     1      -8.111   3.204  68.069  1.00  0.00    -0.083 A  
HETATM   49  C   UNL     1      -9.835   4.549  69.078  1.00  0.00    -0.202 A  
HETATM   50  C   UNL     1      -9.426   3.348  68.504  1.00  0.00    -0.209 A  
ENDBRANCH  44  45
ENDBRANCH  17  44
ENDBRANCH  15  17
ENDBRANCH   3  13
TORSDOF 14
ENDMDL
MODEL      273
REMARK 921   NORMALIZED FREE ENERGY PREDICTED BY IDOCK:   -2.10 KCAL/MOL
REMARK 922        TOTAL FREE ENERGY PREDICTED BY IDOCK:   -8.36 KCAL/MOL
REMARK 923 INTER-LIGAND FREE ENERGY PREDICTED BY IDOCK:   -5.73 KCAL/MOL
REMARK 924 INTRA-LIGAND FREE ENERGY PREDICTED BY IDOCK:   -2.64 KCAL/MOL
REMARK 927      BINDING AFFINITY PREDICTED BY RF-SCORE:    0.00 PKD
ROOT
HETATM    1  C   UNL     1     -10.807  12.500  63.408  1.00  0.00    -0.351 C  
HETATM    2  C   UNL     1      -9.918  11.470  64.122  1.00  0.00    -0.327 C  
HETATM    3  C   UNL     1     -10.461  11.153  65.549  1.00  0.00    -0.256 C  
HETATM    4  C   UNL     1      -9.785  10.239  63.222  1.00  0.00    -0.230 C  
ENDROOT
BRANCH   3   5
HETATM    5  N   UNL     1     -10.474  12.362  66.406  1.00  0.00    -0.240 N  
HETATM    6  H   UNL     1     -12.503  14.307  68.025  1.00  0.00     0.000 HD 
HETATM    7  O   UNL     1     -12.642  12.046  67.114  1.00  0.00     0.372 OA 
HETATM    8  C   UNL     1      -9.238  13.079  66.694  1.00  0.00    -0.219 C  
HETATM    9  C   UNL     1     -11.635  12.744  67.044  1.00  0.00    -0.360 C  
HETATM   10  C   UNL     1      -9.480  14.567  66.535  1.00  0.00    -0.310 C  
HETATM   11  N   UNL     1     -11.644  14.007  67.564  1.00  0.00    -0.345 N  
HETATM   12  C   UNL     1     -10.555  14.961  67.526  1.00  0.00    -0.266 C  
ENDBRANCH   3   5
BRANCH   3  13
HETATM   13  C   UNL     1      -9.704   9.958  66.206  1.00  0.00    -0.222 C  
HETATM   14  O   UNL     1      -8.802  10.096  67.025  1.00  0.00    -0.135 OA 
HETATM   15  N   UNL     1     -10.067   8.715  65.728  1.00  0.00    -0.295 N  
HETATM   16  H   UNL     1     -10.840   8.693  65.063  1.00  0.00     0.000 HD 
BRANCH  15  17
HETATM   17  C   UNL     1      -9.466   7.428  66.069  1.00  0.00     0.076 C  
BRANCH  17  18
HETATM   18  C   UNL     1     -10.296   6.598  67.073  1.00  0.00    -0.330 C  
BRANCH  18  19
HETATM   19  C   UNL     1     -10.484   7.001  68.558  1.00  0.00    -0.200 C  
HETATM   20  O   UNL     1     -10.120   8.375  68.724  1.00  0.00    -0.186 OA 
HETATM   21  H   UNL     1     -10.236   8.622  69.635  1.00  0.00     0.000 HD 
BRANCH  19  22
HETATM   22  C   UNL     1      -9.554   6.141  69.500  1.00  0.00    -0.143 C  
BRANCH  22  23
HETATM   23  N   UNL     1      -9.895   4.672  69.513  1.00  0.00    -0.212 N  
HETATM   24  C   UNL     1      -9.527   3.529  68.835  1.00  0.00    -0.140 C  
HETATM   25  H   UNL     1     -10.597   4.466  70.223  1.00  0.00     0.000 HD 
HETATM   26  O   UNL     1      -9.849   2.438  69.315  1.00  0.00     0.082 OA 
BRANCH  24  27
HETATM   27  C   UNL     1      -8.840   3.621  67.462  1.00  0.00    -0.125 C  
BRANCH  27  28
HETATM   28  O   UNL     1      -9.416   3.105  66.272  1.00  0.00    -0.137 OA 
BRANCH  28  29
HETATM   29  C   UNL     1      -8.770   3.341  65.067  1.00  0.00    -0.115 A  
HETATM   30  C   UNL     1      -6.284   2.604  65.622  1.00  0.00    -0.024 C  
HETATM   31  C   UNL     1      -7.410   3.089  64.744  1.00  0.00    -0.070 A  
HETATM   32  C   UNL     1      -6.980   3.284  63.409  1.00  0.00    -0.047 A  
HETATM   33  C   UNL     1      -7.831   3.730  62.410  1.00  0.00    -0.062 A  
HETATM   34  C   UNL     1      -9.147   4.015  62.727  1.00  0.00    -0.113 A  
HETATM   35  C   UNL     1      -9.628   3.840  64.040  1.00  0.00    -0.160 A  
HETATM   36  C   UNL     1     -11.070   4.210  64.288  1.00  0.00     0.130 C  
ENDBRANCH  28  29
ENDBRANCH  27  28
ENDBRANCH  24  27
ENDBRANCH  22  23
BRANCH  22  37
HETATM   37  C   UNL     1      -8.055   6.530  69.389  1.00  0.00    -0.119 C  
BRANCH  37  38
HETATM   38  C   UNL     1      -7.198   6.018  70.514  1.00  0.00    -0.083 A  
HETATM   39  C   UNL     1      -5.414   5.040  72.438  1.00  0.00    -0.008 A  
HETATM   40  C   UNL     1      -7.155   4.653  70.808  1.00  0.00    -0.041 A  
HETATM   41  C   UNL     1      -5.504   6.406  72.201  1.00  0.00    -0.032 A  
HETATM   42  C   UNL     1      -6.427   6.891  71.280  1.00  0.00    -0.042 A  
HETATM   43  C   UNL     1      -6.267   4.168  71.765  1.00  0.00    -0.017 A  
ENDBRANCH  37  38
ENDBRANCH  22  37
ENDBRANCH  19  22
ENDBRANCH  18  19
ENDBRANCH  17  18
BRANCH  17  44
HETATM   44  C   UNL     1      -7.935   7.480  66.261  1.00  0.00    -0.109 C  
BRANCH  44  45
HETATM   45  C   UNL     1      -7.152   7.117  65.013  1.00  0.00    -0.064 A  
HETATM   46  C   UNL     1      -5.951   6.393  65.088  1.00  0.00    -0.029 A  
HETATM   47  C   UNL     1      -7.608   7.526  63.754  1.00  0.00    -0.118 A  
HETATM   48  C   UNL     1      -5.207   6.124  63.934  1.00  0.00    -0.017 A  
HETATM   49  C   UNL     1      -6.865   7.252  62.601  1.00  0.00    -0.065 A  
HETATM   50  C   UNL     1      -5.661   6.560  62.692  1.00  0.00    -0.023 A  
ENDBRANCH  44  45
ENDBRANCH  17  44
ENDBRANCH  15  17
ENDBRANCH   3  13
TORSDOF 14
ENDMDL
MODEL      274
REMARK 921   NORMALIZED FREE ENERGY PREDICTED BY IDOCK:   -2.03 KCAL/MOL
REMARK 922        TOTAL FREE ENERGY PREDICTED BY IDOCK:   -8.25 KCAL/MOL
REMARK 923 INTER-LIGAND FREE ENERGY PREDICTED BY IDOCK:   -6.60 KCAL/MOL
REMARK 924 INTRA-LIGAND FREE ENERGY PREDICTED BY IDOCK:   -1.65 KCAL/MOL
REMARK 927      BINDING AFFINITY PREDICTED BY RF-SCORE:    0.00 PKD
ROOT
HETATM    1  C   UNL     1      -5.125  10.885  72.290  1.00  0.00     0.176 C  
HETATM    2  C   UNL     1      -6.075   9.893  71.601  1.00  0.00     0.220 C  
HETATM    3  C   UNL     1      -5.695   9.702  70.100  1.00  0.00    -0.042 C  
HETATM    4  C   UNL     1      -6.086   8.592  72.407  1.00  0.00    -0.071 C  
ENDROOT
BRANCH   3   5
HETATM    5  N   UNL     1      -5.798  10.975  69.347  1.00  0.00    -0.043 N  
HETATM    6  H   UNL     1      -5.078  12.292  66.472  1.00  0.00     0.000 HD 
HETATM    7  O   UNL     1      -5.306  10.012  67.315  1.00  0.00    -0.041 OA 
HETATM    8  C   UNL     1      -6.356  12.164  69.978  1.00  0.00    -0.035 C  
HETATM    9  C   UNL     1      -5.487  11.010  68.005  1.00  0.00    -0.042 C  
HETATM   10  C   UNL     1      -5.473  13.355  69.657  1.00  0.00    -0.093 C  
HETATM   11  N   UNL     1      -5.323  12.253  67.461  1.00  0.00    -0.102 N  
HETATM   12  C   UNL     1      -5.462  13.518  68.151  1.00  0.00    -0.108 C  
ENDBRANCH   3   5
BRANCH   3  13
HETATM   13  C   UNL     1      -6.504   8.545  69.438  1.00  0.00    -0.037 C  
HETATM   14  O   UNL     1      -7.717   8.410  69.561  1.00  0.00    -0.091 OA 
HETATM   15  N   UNL     1      -5.735   7.616  68.766  1.00  0.00    -0.023 N  
HETATM   16  H   UNL     1      -4.737   7.818  68.697  1.00  0.00     0.000 HD 
BRANCH  15  17
HETATM   17  C   UNL     1      -6.192   6.377  68.143  1.00  0.00    -0.032 C  
BRANCH  17  18
HETATM   18  C   UNL     1      -7.179   6.592  66.974  1.00  0.00    -0.081 C  
BRANCH  18  19
HETATM   19  C   UNL     1      -8.713   6.700  67.167  1.00  0.00    -0.111 C  
HETATM   20  O   UNL     1      -9.357   5.664  66.418  1.00  0.00    -0.147 OA 
HETATM   21  H   UNL     1     -10.298   5.730  66.536  1.00  0.00     0.000 HD 
BRANCH  19  22
HETATM   22  C   UNL     1      -9.254   8.084  66.634  1.00  0.00    -0.180 C  
BRANCH  22  23
HETATM   23  N   UNL     1      -8.809   8.410  65.230  1.00  0.00    -0.369 N  
HETATM   24  C   UNL     1      -8.841   9.486  64.370  1.00  0.00    -0.216 C  
HETATM   25  H   UNL     1      -8.356   7.607  64.795  1.00  0.00     0.000 HD 
HETATM   26  O   UNL     1      -8.128   9.449  63.363  1.00  0.00    -0.135 OA 
BRANCH  24  27
HETATM   27  C   UNL     1      -9.828  10.643  64.601  1.00  0.00    -0.321 C  
BRANCH  27  28
HETATM   28  O   UNL     1      -9.444  11.886  65.167  1.00  0.00    -0.170 OA 
BRANCH  28  29
HETATM   29  C   UNL     1     -10.417  12.664  65.780  1.00  0.00    -0.277 A  
HETATM   30  C   UNL     1     -12.528  12.222  64.237  1.00  0.00    -0.508 C  
HETATM   31  C   UNL     1     -11.784  12.794  65.418  1.00  0.00    -0.425 A  
HETATM   32  C   UNL     1     -12.642  13.545  66.257  1.00  0.00    -0.298 A  
HETATM   33  C   UNL     1     -12.194  14.174  67.408  1.00  0.00    -0.278 A  
HETATM   34  C   UNL     1     -10.855  14.085  67.745  1.00  0.00    -0.257 A  
HETATM   35  C   UNL     1      -9.957  13.351  66.944  1.00  0.00    -0.252 A  
HETATM   36  C   UNL     1      -8.513  13.343  67.381  1.00  0.00    -0.197 C  
ENDBRANCH  28  29
ENDBRANCH  27  28
ENDBRANCH  24  27
ENDBRANCH  22  23
BRANCH  22  37
HETATM   37  C   UNL     1     -10.744   8.330  66.992  1.00  0.00    -0.225 C  
BRANCH  37  38
HETATM   38  C   UNL     1     -10.956   9.043  68.299  1.00  0.00     0.025 A  
HETATM   39  C   UNL     1     -11.604  10.348  70.691  1.00  0.00    -0.440 A  
HETATM   40  C   UNL     1     -11.044  10.436  68.342  1.00  0.00    -0.322 A  
HETATM   41  C   UNL     1     -11.447   8.968  70.670  1.00  0.00    -0.291 A  
HETATM   42  C   UNL     1     -11.077   8.329  69.491  1.00  0.00     0.039 A  
HETATM   43  C   UNL     1     -11.365  11.085  69.532  1.00  0.00    -0.356 A  
ENDBRANCH  37  38
ENDBRANCH  22  37
ENDBRANCH  19  22
ENDBRANCH  18  19
ENDBRANCH  17  18
BRANCH  17  44
HETATM   44  C   UNL     1      -6.491   5.242  69.146  1.00  0.00    -0.042 C  
BRANCH  44  45
HETATM   45  C   UNL     1      -7.065   3.994  68.500  1.00  0.00    -0.055 A  
HETATM   46  C   UNL     1      -8.207   3.362  69.018  1.00  0.00    -0.075 A  
HETATM   47  C   UNL     1      -6.440   3.432  67.380  1.00  0.00    -0.037 A  
HETATM   48  C   UNL     1      -8.684   2.175  68.451  1.00  0.00    -0.126 A  
HETATM   49  C   UNL     1      -6.921   2.249  66.812  1.00  0.00    -0.044 A  
HETATM   50  C   UNL     1      -8.036   1.615  67.352  1.00  0.00    -0.066 A  
ENDBRANCH  44  45
ENDBRANCH  17  44
ENDBRANCH  15  17
ENDBRANCH   3  13
TORSDOF 14
ENDMDL
MODEL      275
REMARK 921   NORMALIZED FREE ENERGY PREDICTED BY IDOCK:   -2.02 KCAL/MOL
REMARK 922        TOTAL FREE ENERGY PREDICTED BY IDOCK:   -8.22 KCAL/MOL
REMARK 923 INTER-LIGAND FREE ENERGY PREDICTED BY IDOCK:   -7.23 KCAL/MOL
REMARK 924 INTRA-LIGAND FREE ENERGY PREDICTED BY IDOCK:   -0.99 KCAL/MOL
REMARK 927      BINDING AFFINITY PREDICTED BY RF-SCORE:    0.00 PKD
ROOT
HETATM    1  C   UNL     1      -9.932  11.510  62.817  1.00  0.00    -0.105 C  
HETATM    2  C   UNL     1      -9.710  10.948  64.229  1.00  0.00    -0.347 C  
HETATM    3  C   UNL     1      -8.193  10.918  64.591  1.00  0.00     0.171 C  
HETATM    4  C   UNL     1     -10.565  11.752  65.211  1.00  0.00    -0.327 C  
ENDROOT
BRANCH   3   5
HETATM    5  N   UNL     1      -7.431  10.045  63.667  1.00  0.00    -0.136 N  
HETATM    6  H   UNL     1      -7.268   6.978  62.624  1.00  0.00     0.000 HD 
HETATM    7  O   UNL     1      -8.960   8.326  63.758  1.00  0.00     0.386 OA 
HETATM    8  C   UNL     1      -6.302  10.574  62.912  1.00  0.00    -0.094 C  
HETATM    9  C   UNL     1      -7.864   8.761  63.416  1.00  0.00    -0.148 C  
HETATM   10  C   UNL     1      -5.151   9.589  62.988  1.00  0.00    -0.066 C  
HETATM   11  N   UNL     1      -6.965   7.936  62.801  1.00  0.00    -0.084 N  
HETATM   12  C   UNL     1      -5.627   8.288  62.376  1.00  0.00    -0.071 C  
ENDBRANCH   3   5
BRANCH   3  13
HETATM   13  C   UNL     1      -7.960  10.557  66.090  1.00  0.00    -0.147 C  
HETATM   14  O   UNL     1      -7.750  11.392  66.963  1.00  0.00    -0.140 OA 
HETATM   15  N   UNL     1      -7.919   9.203  66.355  1.00  0.00    -0.099 N  
HETATM   16  H   UNL     1      -8.124   8.581  65.573  1.00  0.00     0.000 HD 
BRANCH  15  17
HETATM   17  C   UNL     1      -7.614   8.562  67.632  1.00  0.00    -0.098 C  
BRANCH  17  18
HETATM   18  C   UNL     1      -6.867   9.477  68.627  1.00  0.00    -0.057 C  
BRANCH  18  19
HETATM   19  C   UNL     1      -7.590  10.429  69.615  1.00  0.00    -0.153 C  
HETATM   20  O   UNL     1      -6.668  10.851  70.624  1.00  0.00    -0.476 OA 
HETATM   21  H   UNL     1      -7.111  11.434  71.230  1.00  0.00     0.000 HD 
BRANCH  19  22
HETATM   22  C   UNL     1      -8.786   9.692  70.335  1.00  0.00    -0.166 C  
BRANCH  22  23
HETATM   23  N   UNL     1     -10.007   9.525  69.466  1.00  0.00    -0.182 N  
HETATM   24  C   UNL     1     -10.865  10.325  68.742  1.00  0.00    -0.230 C  
HETATM   25  H   UNL     1     -10.274   8.544  69.395  1.00  0.00     0.000 HD 
HETATM   26  O   UNL     1     -11.621   9.783  67.930  1.00  0.00     0.064 OA 
BRANCH  24  27
HETATM   27  C   UNL     1     -10.958  11.834  69.028  1.00  0.00    -0.227 C  
BRANCH  27  28
HETATM   28  O   UNL     1     -10.205  12.804  68.317  1.00  0.00    -0.233 OA 
BRANCH  28  29
HETATM   29  C   UNL     1     -10.573  14.138  68.425  1.00  0.00    -0.259 A  
HETATM   30  C   UNL     1     -12.200  14.092  70.518  1.00  0.00    -0.431 C  
HETATM   31  C   UNL     1     -11.410  14.733  69.405  1.00  0.00    -0.312 A  
HETATM   32  C   UNL     1     -11.556  16.142  69.410  1.00  0.00    -0.261 A  
HETATM   33  C   UNL     1     -10.930  16.959  68.482  1.00  0.00    -0.290 A  
HETATM   34  C   UNL     1     -10.145  16.381  67.499  1.00  0.00    -0.261 A  
HETATM   35  C   UNL     1      -9.966  14.984  67.448  1.00  0.00    -0.226 A  
HETATM   36  C   UNL     1      -9.118  14.452  66.319  1.00  0.00    -0.130 C  
ENDBRANCH  28  29
ENDBRANCH  27  28
ENDBRANCH  24  27
ENDBRANCH  22  23
BRANCH  22  37
HETATM   37  C   UNL     1      -8.326   8.469  71.173  1.00  0.00    -0.182 C  
BRANCH  37  38
HETATM   38  C   UNL     1      -9.445   7.564  71.612  1.00  0.00    -0.170 A  
HETATM   39  C   UNL     1     -11.683   6.019  72.277  1.00  0.00    -0.338 A  
HETATM   40  C   UNL     1     -10.209   7.876  72.740  1.00  0.00    -0.380 A  
HETATM   41  C   UNL     1     -10.886   5.662  71.197  1.00  0.00    -0.288 A  
HETATM   42  C   UNL     1      -9.747   6.404  70.900  1.00  0.00    -0.193 A  
HETATM   43  C   UNL     1     -11.322   7.106  73.070  1.00  0.00    -0.208 A  
ENDBRANCH  37  38
ENDBRANCH  22  37
ENDBRANCH  19  22
ENDBRANCH  18  19
ENDBRANCH  17  18
BRANCH  17  44
HETATM   44  C   UNL     1      -7.149   7.095  67.505  1.00  0.00    -0.088 C  
BRANCH  44  45
HETATM   45  C   UNL     1      -8.258   6.084  67.724  1.00  0.00    -0.112 A  
HETATM   46  C   UNL     1      -8.024   4.879  68.407  1.00  0.00    -0.085 A  
HETATM   47  C   UNL     1      -9.542   6.327  67.221  1.00  0.00    -0.138 A  
HETATM   48  C   UNL     1      -9.041   3.927  68.543  1.00  0.00    -0.191 A  
HETATM   49  C   UNL     1     -10.557   5.377  67.361  1.00  0.00    -0.228 A  
HETATM   50  C   UNL     1     -10.305   4.174  68.014  1.00  0.00     0.506 A  
ENDBRANCH  44  45
ENDBRANCH  17  44
ENDBRANCH  15  17
ENDBRANCH   3  13
TORSDOF 14
ENDMDL
MODEL      276
REMARK 921   NORMALIZED FREE ENERGY PREDICTED BY IDOCK:   -1.93 KCAL/MOL
REMARK 922        TOTAL FREE ENERGY PREDICTED BY IDOCK:   -8.06 KCAL/MOL
REMARK 923 INTER-LIGAND FREE ENERGY PREDICTED BY IDOCK:   -5.05 KCAL/MOL
REMARK 924 INTRA-LIGAND FREE ENERGY PREDICTED BY IDOCK:   -3.01 KCAL/MOL
REMARK 927      BINDING AFFINITY PREDICTED BY RF-SCORE:    0.00 PKD
ROOT
HETATM    1  C   UNL     1     -10.999  17.091  65.860  1.00  0.00     0.125 C  
HETATM    2  C   UNL     1      -9.862  16.062  65.762  1.00  0.00    -0.357 C  
HETATM    3  C   UNL     1      -9.249  15.767  67.166  1.00  0.00    -0.210 C  
HETATM    4  C   UNL     1     -10.393  14.819  65.044  1.00  0.00    -0.420 C  
ENDROOT
BRANCH   3   5
HETATM    5  N   UNL     1      -8.662  16.986  67.769  1.00  0.00    -0.219 N  
HETATM    6  H   UNL     1      -9.348  19.371  69.859  1.00  0.00     0.000 HD 
HETATM    7  O   UNL     1     -10.264  17.151  69.415  1.00  0.00    -0.262 OA 
HETATM    8  C   UNL     1      -7.337  17.445  67.371  1.00  0.00    -0.168 C  
HETATM    9  C   UNL     1      -9.309  17.624  68.806  1.00  0.00    -0.228 C  
HETATM   10  C   UNL     1      -7.379  18.944  67.144  1.00  0.00    -0.222 C  
HETATM   11  N   UNL     1      -8.867  18.882  69.104  1.00  0.00    -0.113 N  
HETATM   12  C   UNL     1      -7.784  19.589  68.453  1.00  0.00    -0.337 C  
ENDBRANCH   3   5
BRANCH   3  13
HETATM   13  C   UNL     1      -8.246  14.574  67.122  1.00  0.00    -0.188 C  
HETATM   14  O   UNL     1      -7.301  14.512  66.343  1.00  0.00     0.940 OA 
HETATM   15  N   UNL     1      -8.553  13.534  67.976  1.00  0.00    -0.167 N  
HETATM   16  H   UNL     1      -9.345  13.679  68.602  1.00  0.00     0.000 HD 
BRANCH  15  17
HETATM   17  C   UNL     1      -7.868  12.248  68.082  1.00  0.00    -0.148 C  
BRANCH  17  18
HETATM   18  C   UNL     1      -7.915  11.406  66.788  1.00  0.00    -0.160 C  
BRANCH  18  19
HETATM   19  C   UNL     1      -9.237  10.978  66.100  1.00  0.00    -0.190 C  
HETATM   20  O   UNL     1     -10.333  11.660  66.717  1.00  0.00    -0.212 OA 
HETATM   21  H   UNL     1     -11.143  11.398  66.296  1.00  0.00     0.000 HD 
BRANCH  19  22
HETATM   22  C   UNL     1      -9.483   9.427  66.266  1.00  0.00    -0.214 C  
BRANCH  22  23
HETATM   23  N   UNL     1      -8.239   8.649  66.617  1.00  0.00    -0.106 N  
HETATM   24  C   UNL     1      -7.620   7.480  66.231  1.00  0.00    -0.088 C  
HETATM   25  H   UNL     1      -7.706   9.122  67.346  1.00  0.00     0.000 HD 
HETATM   26  O   UNL     1      -6.449   7.299  66.577  1.00  0.00    -0.048 OA 
BRANCH  24  27
HETATM   27  C   UNL     1      -8.408   6.384  65.493  1.00  0.00    -0.147 C  
BRANCH  27  28
HETATM   28  O   UNL     1      -7.818   5.174  65.046  1.00  0.00    -0.085 OA 
BRANCH  28  29
HETATM   29  C   UNL     1      -7.526   4.193  65.984  1.00  0.00    -0.084 A  
HETATM   30  C   UNL     1      -9.854   3.904  67.221  1.00  0.00    -0.086 C  
HETATM   31  C   UNL     1      -8.410   3.591  66.917  1.00  0.00    -0.100 A  
HETATM   32  C   UNL     1      -7.938   2.512  67.704  1.00  0.00    -0.064 A  
HETATM   33  C   UNL     1      -6.639   2.036  67.612  1.00  0.00    -0.028 A  
HETATM   34  C   UNL     1      -5.761   2.645  66.733  1.00  0.00    -0.022 A  
HETATM   35  C   UNL     1      -6.179   3.723  65.928  1.00  0.00    -0.032 A  
HETATM   36  C   UNL     1      -5.136   4.338  65.026  1.00  0.00    -0.009 C  
ENDBRANCH  28  29
ENDBRANCH  27  28
ENDBRANCH  24  27
ENDBRANCH  22  23
BRANCH  22  37
HETATM   37  C   UNL     1     -10.782   9.101  67.052  1.00  0.00    -0.189 C  
BRANCH  37  38
HETATM   38  C   UNL     1     -10.568   8.841  68.518  1.00  0.00    -0.171 A  
HETATM   39  C   UNL     1     -10.414   8.274  71.256  1.00  0.00    -0.262 A  
HETATM   40  C   UNL     1     -10.838   9.835  69.462  1.00  0.00    -0.264 A  
HETATM   41  C   UNL     1     -10.075   7.303  70.323  1.00  0.00    -0.196 A  
HETATM   42  C   UNL     1     -10.105   7.604  68.964  1.00  0.00    -0.199 A  
HETATM   43  C   UNL     1     -10.761   9.552  70.824  1.00  0.00    -0.391 A  
ENDBRANCH  37  38
ENDBRANCH  22  37
ENDBRANCH  19  22
ENDBRANCH  18  19
ENDBRANCH  17  18
BRANCH  17  44
HETATM   44  C   UNL     1      -8.094  11.524  69.427  1.00  0.00     0.394 C  
BRANCH  44  45
HETATM   45  C   UNL     1      -7.034  10.486  69.746  1.00  0.00    -0.144 A  
HETATM   46  C   UNL     1      -6.064  10.118  68.799  1.00  0.00    -0.047 A  
HETATM   47  C   UNL     1      -7.023   9.853  70.994  1.00  0.00     0.179 A  
HETATM   48  C   UNL     1      -5.135   9.112  69.085  1.00  0.00    -0.036 A  
HETATM   49  C   UNL     1      -6.091   8.852  71.280  1.00  0.00    -0.057 A  
HETATM   50  C   UNL     1      -5.153   8.474  70.323  1.00  0.00    -0.022 A  
ENDBRANCH  44  45
ENDBRANCH  17  44
ENDBRANCH  15  17
ENDBRANCH   3  13
TORSDOF 14
ENDMDL
MODEL      277
REMARK 921   NORMALIZED FREE ENERGY PREDICTED BY IDOCK:   -1.80 KCAL/MOL
REMARK 922        TOTAL FREE ENERGY PREDICTED BY IDOCK:   -7.83 KCAL/MOL
REMARK 923 INTER-LIGAND FREE ENERGY PREDICTED BY IDOCK:   -5.39 KCAL/MOL
REMARK 924 INTRA-LIGAND FREE ENERGY PREDICTED BY IDOCK:   -2.45 KCAL/MOL
REMARK 927      BINDING AFFINITY PREDICTED BY RF-SCORE:    0.00 PKD
ROOT
HETATM    1  C   UNL     1      -9.400   6.100  65.583  1.00  0.00     0.121 C  
HETATM    2  C   UNL     1      -8.611   6.961  66.582  1.00  0.00    -0.124 C  
HETATM    3  C   UNL     1      -7.353   6.203  67.106  1.00  0.00    -0.076 C  
HETATM    4  C   UNL     1      -8.294   8.304  65.921  1.00  0.00    -0.132 C  
ENDROOT
BRANCH   3   5
HETATM    5  N   UNL     1      -7.726   4.962  67.824  1.00  0.00    -0.083 N  
HETATM    6  H   UNL     1      -7.695   1.734  67.504  1.00  0.00     0.000 HD 
HETATM    7  O   UNL     1      -6.529   3.585  66.418  1.00  0.00    -0.035 OA 
HETATM    8  C   UNL     1      -8.383   5.027  69.123  1.00  0.00    -0.086 C  
HETATM    9  C   UNL     1      -7.339   3.735  67.329  1.00  0.00    -0.067 C  
HETATM   10  C   UNL     1      -9.538   4.044  69.144  1.00  0.00    -0.233 C  
HETATM   11  N   UNL     1      -7.961   2.647  67.872  1.00  0.00    -0.059 N  
HETATM   12  C   UNL     1      -8.962   2.662  68.919  1.00  0.00    -0.120 C  
ENDBRANCH   3   5
BRANCH   3  13
HETATM   13  C   UNL     1      -6.425   7.131  67.949  1.00  0.00    -0.048 C  
HETATM   14  O   UNL     1      -5.202   7.122  67.865  1.00  0.00    -0.017 OA 
HETATM   15  N   UNL     1      -7.084   7.913  68.876  1.00  0.00    -0.072 N  
HETATM   16  H   UNL     1      -8.103   7.872  68.863  1.00  0.00     0.000 HD 
BRANCH  15  17
HETATM   17  C   UNL     1      -6.483   8.795  69.873  1.00  0.00    -0.038 C  
BRANCH  17  18
HETATM   18  C   UNL     1      -7.511   9.495  70.789  1.00  0.00    -0.099 C  
BRANCH  18  19
HETATM   19  C   UNL     1      -8.792   8.799  71.316  1.00  0.00    -0.226 C  
HETATM   20  O   UNL     1      -8.589   7.383  71.331  1.00  0.00    -0.117 OA 
HETATM   21  H   UNL     1      -9.374   6.956  71.653  1.00  0.00     0.000 HD 
BRANCH  19  22
HETATM   22  C   UNL     1     -10.024   9.097  70.374  1.00  0.00    -0.218 C  
BRANCH  22  23
HETATM   23  N   UNL     1      -9.785  10.223  69.399  1.00  0.00    -0.225 N  
HETATM   24  C   UNL     1     -10.391  11.405  69.033  1.00  0.00    -0.142 C  
HETATM   25  H   UNL     1      -8.935  10.065  68.860  1.00  0.00     0.000 HD 
HETATM   26  O   UNL     1      -9.741  12.207  68.354  1.00  0.00    -0.209 OA 
BRANCH  24  27
HETATM   27  C   UNL     1     -11.872  11.661  69.361  1.00  0.00    -0.342 C  
BRANCH  27  28
HETATM   28  O   UNL     1     -12.451  12.955  69.368  1.00  0.00    -0.027 OA 
BRANCH  28  29
HETATM   29  C   UNL     1     -11.963  13.895  70.266  1.00  0.00    -0.331 A  
HETATM   30  C   UNL     1     -10.318  15.310  68.742  1.00  0.00    -0.232 C  
HETATM   31  C   UNL     1     -11.062  14.961  70.007  1.00  0.00    -0.263 A  
HETATM   32  C   UNL     1     -10.790  15.889  71.042  1.00  0.00    -0.028 A  
HETATM   33  C   UNL     1     -11.352  15.783  72.304  1.00  0.00    -0.260 A  
HETATM   34  C   UNL     1     -12.198  14.722  72.576  1.00  0.00    -0.351 A  
HETATM   35  C   UNL     1     -12.503  13.770  71.582  1.00  0.00    -0.309 A  
HETATM   36  C   UNL     1     -13.411  12.635  71.989  1.00  0.00    -0.516 C  
ENDBRANCH  28  29
ENDBRANCH  27  28
ENDBRANCH  24  27
ENDBRANCH  22  23
BRANCH  22  37
HETATM   37  C   UNL     1     -10.697   7.807  69.832  1.00  0.00    -0.245 C  
BRANCH  37  38
HETATM   38  C   UNL     1     -11.714   7.204  70.762  1.00  0.00    -0.363 A  
HETATM   39  C   UNL     1     -13.519   6.241  72.674  1.00  0.00     0.787 A  
HETATM   40  C   UNL     1     -11.389   6.092  71.544  1.00  0.00    -0.309 A  
HETATM   41  C   UNL     1     -13.876   7.301  71.850  1.00  0.00    -0.342 A  
HETATM   42  C   UNL     1     -12.995   7.744  70.868  1.00  0.00     0.055 A  
HETATM   43  C   UNL     1     -12.288   5.613  72.494  1.00  0.00     0.161 A  
ENDBRANCH  37  38
ENDBRANCH  22  37
ENDBRANCH  19  22
ENDBRANCH  18  19
ENDBRANCH  17  18
BRANCH  17  44
HETATM   44  C   UNL     1      -5.297   9.630  69.341  1.00  0.00    -0.035 C  
BRANCH  44  45
HETATM   45  C   UNL     1      -5.717  10.930  68.682  1.00  0.00    -0.039 A  
HETATM   46  C   UNL     1      -6.197  10.959  67.362  1.00  0.00    -0.056 A  
HETATM   47  C   UNL     1      -5.606  12.140  69.378  1.00  0.00    -0.077 A  
HETATM   48  C   UNL     1      -6.517  12.173  66.745  1.00  0.00     0.118 A  
HETATM   49  C   UNL     1      -5.930  13.352  68.761  1.00  0.00    -0.084 A  
HETATM   50  C   UNL     1      -6.376  13.370  67.443  1.00  0.00     0.009 A  
ENDBRANCH  44  45
ENDBRANCH  17  44
ENDBRANCH  15  17
ENDBRANCH   3  13
TORSDOF 14
ENDMDL
MODEL      278
REMARK 921   NORMALIZED FREE ENERGY PREDICTED BY IDOCK:   -1.80 KCAL/MOL
REMARK 922        TOTAL FREE ENERGY PREDICTED BY IDOCK:   -7.83 KCAL/MOL
REMARK 923 INTER-LIGAND FREE ENERGY PREDICTED BY IDOCK:   -6.18 KCAL/MOL
REMARK 924 INTRA-LIGAND FREE ENERGY PREDICTED BY IDOCK:   -1.65 KCAL/MOL
REMARK 927      BINDING AFFINITY PREDICTED BY RF-SCORE:    0.00 PKD
ROOT
HETATM    1  C   UNL     1     -11.019   4.974  66.503  1.00  0.00     0.144 C  
HETATM    2  C   UNL     1      -9.836   5.242  67.446  1.00  0.00    -0.183 C  
HETATM    3  C   UNL     1      -9.115   6.575  67.078  1.00  0.00    -0.128 C  
HETATM    4  C   UNL     1     -10.344   5.190  68.888  1.00  0.00    -0.186 C  
ENDROOT
BRANCH   3   5
HETATM    5  N   UNL     1      -8.556   6.530  65.706  1.00  0.00    -0.151 N  
HETATM    6  H   UNL     1      -8.469   8.226  62.942  1.00  0.00     0.000 HD 
HETATM    7  O   UNL     1      -9.006   8.745  65.266  1.00  0.00    -0.194 OA 
HETATM    8  C   UNL     1      -7.784   5.378  65.258  1.00  0.00    -0.089 C  
HETATM    9  C   UNL     1      -8.653   7.634  64.885  1.00  0.00     0.114 C  
HETATM   10  C   UNL     1      -8.246   4.982  63.869  1.00  0.00    -0.125 C  
HETATM   11  N   UNL     1      -8.386   7.421  63.562  1.00  0.00     0.089 N  
HETATM   12  C   UNL     1      -7.999   6.165  62.955  1.00  0.00    -0.101 C  
ENDBRANCH   3   5
BRANCH   3  13
HETATM   13  C   UNL     1      -8.052   6.975  68.147  1.00  0.00    -0.119 C  
HETATM   14  O   UNL     1      -6.908   6.535  68.163  1.00  0.00    -0.068 OA 
HETATM   15  N   UNL     1      -8.524   7.806  69.143  1.00  0.00    -0.137 N  
HETATM   16  H   UNL     1      -9.482   8.140  69.040  1.00  0.00     0.000 HD 
BRANCH  15  17
HETATM   17  C   UNL     1      -7.802   8.261  70.329  1.00  0.00    -0.092 C  
BRANCH  17  18
HETATM   18  C   UNL     1      -7.683   9.797  70.438  1.00  0.00    -0.159 C  
BRANCH  18  19
HETATM   19  C   UNL     1      -6.455  10.593  69.927  1.00  0.00    -0.124 C  
HETATM   20  O   UNL     1      -6.537  11.942  70.396  1.00  0.00    -0.496 OA 
HETATM   21  H   UNL     1      -5.784  12.430  70.083  1.00  0.00     0.000 HD 
BRANCH  19  22
HETATM   22  C   UNL     1      -6.425  10.634  68.349  1.00  0.00    -0.054 C  
BRANCH  22  23
HETATM   23  N   UNL     1      -6.589  12.019  67.774  1.00  0.00    -0.083 N  
HETATM   24  C   UNL     1      -7.549  13.008  67.745  1.00  0.00    -0.152 C  
HETATM   25  H   UNL     1      -5.755  12.304  67.263  1.00  0.00     0.000 HD 
HETATM   26  O   UNL     1      -7.210  14.137  67.379  1.00  0.00    -0.180 OA 
BRANCH  24  27
HETATM   27  C   UNL     1      -9.021  12.679  68.046  1.00  0.00    -0.200 C  
BRANCH  27  28
HETATM   28  O   UNL     1      -9.881  12.051  67.109  1.00  0.00    -0.194 OA 
BRANCH  28  29
HETATM   29  C   UNL     1     -10.759  12.843  66.381  1.00  0.00    -0.270 A  
HETATM   30  C   UNL     1     -12.051  14.140  68.299  1.00  0.00    -0.297 C  
HETATM   31  C   UNL     1     -11.687  13.796  66.876  1.00  0.00    -0.424 A  
HETATM   32  C   UNL     1     -12.403  14.594  65.950  1.00  0.00    -0.127 A  
HETATM   33  C   UNL     1     -12.246  14.466  64.579  1.00  0.00    -0.483 A  
HETATM   34  C   UNL     1     -11.373  13.511  64.089  1.00  0.00    -0.370 A  
HETATM   35  C   UNL     1     -10.636  12.689  64.966  1.00  0.00    -0.329 A  
HETATM   36  C   UNL     1      -9.735  11.659  64.331  1.00  0.00    -0.199 C  
ENDBRANCH  28  29
ENDBRANCH  27  28
ENDBRANCH  24  27
ENDBRANCH  22  23
BRANCH  22  37
HETATM   37  C   UNL     1      -5.320   9.729  67.741  1.00  0.00    -0.036 C  
BRANCH  37  38
HETATM   38  C   UNL     1      -5.359   9.628  66.241  1.00  0.00    -0.044 A  
HETATM   39  C   UNL     1      -5.683   9.392  63.469  1.00  0.00    -0.087 A  
HETATM   40  C   UNL     1      -5.138   8.404  65.605  1.00  0.00    -0.027 A  
HETATM   41  C   UNL     1      -5.834  10.628  64.086  1.00  0.00     0.001 A  
HETATM   42  C   UNL     1      -5.623  10.750  65.456  1.00  0.00    -0.126 A  
HETATM   43  C   UNL     1      -5.299   8.288  64.226  1.00  0.00    -0.040 A  
ENDBRANCH  37  38
ENDBRANCH  22  37
ENDBRANCH  19  22
ENDBRANCH  18  19
ENDBRANCH  17  18
BRANCH  17  44
HETATM   44  C   UNL     1      -6.559   7.411  70.673  1.00  0.00    -0.043 C  
BRANCH  44  45
HETATM   45  C   UNL     1      -6.765   6.482  71.854  1.00  0.00    -0.063 A  
HETATM   46  C   UNL     1      -5.680   5.852  72.487  1.00  0.00    -0.032 A  
HETATM   47  C   UNL     1      -8.058   6.213  72.321  1.00  0.00    -0.109 A  
HETATM   48  C   UNL     1      -5.892   4.947  73.532  1.00  0.00    -0.018 A  
HETATM   49  C   UNL     1      -8.267   5.312  73.368  1.00  0.00    -0.111 A  
HETATM   50  C   UNL     1      -7.187   4.671  73.968  1.00  0.00    -0.077 A  
ENDBRANCH  44  45
ENDBRANCH  17  44
ENDBRANCH  15  17
ENDBRANCH   3  13
TORSDOF 14
ENDMDL
MODEL      279
REMARK 921   NORMALIZED FREE ENERGY PREDICTED BY IDOCK:   -1.78 KCAL/MOL
REMARK 922        TOTAL FREE ENERGY PREDICTED BY IDOCK:   -7.78 KCAL/MOL
REMARK 923 INTER-LIGAND FREE ENERGY PREDICTED BY IDOCK:   -6.92 KCAL/MOL
REMARK 924 INTRA-LIGAND FREE ENERGY PREDICTED BY IDOCK:   -0.87 KCAL/MOL
REMARK 927      BINDING AFFINITY PREDICTED BY RF-SCORE:    0.00 PKD
ROOT
HETATM    1  C   UNL     1      -9.484   3.163  71.446  1.00  0.00    -0.219 C  
HETATM    2  C   UNL     1      -8.640   4.073  70.540  1.00  0.00    -0.106 C  
HETATM    3  C   UNL     1      -7.960   5.210  71.363  1.00  0.00    -0.112 C  
HETATM    4  C   UNL     1      -7.655   3.200  69.759  1.00  0.00    -0.044 C  
ENDROOT
BRANCH   3   5
HETATM    5  N   UNL     1      -8.964   6.083  72.016  1.00  0.00    -0.140 N  
HETATM    6  H   UNL     1      -9.860   7.184  74.933  1.00  0.00     0.000 HD 
HETATM    7  O   UNL     1      -7.833   6.175  74.020  1.00  0.00    -0.100 OA 
HETATM    8  C   UNL     1     -10.014   6.719  71.231  1.00  0.00    -0.176 C  
HETATM    9  C   UNL     1      -8.836   6.404  73.351  1.00  0.00    -0.124 C  
HETATM   10  C   UNL     1     -11.337   6.564  71.955  1.00  0.00    -0.326 C  
HETATM   11  N   UNL     1      -9.937   6.956  73.941  1.00  0.00    -0.298 N  
HETATM   12  C   UNL     1     -11.201   7.249  73.299  1.00  0.00    -0.136 C  
ENDBRANCH   3   5
BRANCH   3  13
HETATM   13  C   UNL     1      -6.931   6.011  70.507  1.00  0.00    -0.059 C  
HETATM   14  O   UNL     1      -5.724   5.797  70.524  1.00  0.00    -0.012 OA 
HETATM   15  N   UNL     1      -7.474   7.054  69.783  1.00  0.00    -0.095 N  
HETATM   16  H   UNL     1      -8.490   7.146  69.812  1.00  0.00     0.000 HD 
BRANCH  15  17
HETATM   17  C   UNL     1      -6.755   8.039  68.980  1.00  0.00    -0.052 C  
BRANCH  17  18
HETATM   18  C   UNL     1      -7.632   8.742  67.921  1.00  0.00    -0.097 C  
BRANCH  18  19
HETATM   19  C   UNL     1      -9.122   8.388  67.680  1.00  0.00    -0.135 C  
HETATM   20  O   UNL     1      -9.611   7.627  68.788  1.00  0.00    -0.151 OA 
HETATM   21  H   UNL     1     -10.525   7.409  68.641  1.00  0.00     0.000 HD 
BRANCH  19  22
HETATM   22  C   UNL     1      -9.290   7.507  66.381  1.00  0.00    -0.157 C  
BRANCH  22  23
HETATM   23  N   UNL     1      -9.141   8.284  65.097  1.00  0.00    -0.394 N  
HETATM   24  C   UNL     1      -9.202   9.597  64.682  1.00  0.00    -0.234 C  
HETATM   25  H   UNL     1      -8.938   7.663  64.315  1.00  0.00     0.000 HD 
HETATM   26  O   UNL     1      -8.760   9.875  63.564  1.00  0.00    -0.176 OA 
BRANCH  24  27
HETATM   27  C   UNL     1      -9.909  10.658  65.543  1.00  0.00    -0.258 C  
BRANCH  27  28
HETATM   28  O   UNL     1      -9.727  12.052  65.357  1.00  0.00    -0.238 OA 
BRANCH  28  29
HETATM   29  C   UNL     1      -9.803  12.885  66.465  1.00  0.00    -0.254 A  
HETATM   30  C   UNL     1      -7.336  12.746  67.428  1.00  0.00    -0.135 C  
HETATM   31  C   UNL     1      -8.760  13.238  67.362  1.00  0.00    -0.206 A  
HETATM   32  C   UNL     1      -9.020  14.208  68.360  1.00  0.00    -0.189 A  
HETATM   33  C   UNL     1     -10.260  14.811  68.508  1.00  0.00    -0.232 A  
HETATM   34  C   UNL     1     -11.291  14.441  67.663  1.00  0.00    -0.348 A  
HETATM   35  C   UNL     1     -11.087  13.480  66.653  1.00  0.00    -0.309 A  
HETATM   36  C   UNL     1     -12.285  13.124  65.806  1.00  0.00    -0.514 C  
ENDBRANCH  28  29
ENDBRANCH  27  28
ENDBRANCH  24  27
ENDBRANCH  22  23
BRANCH  22  37
HETATM   37  C   UNL     1      -8.568   6.137  66.481  1.00  0.00    -0.126 C  
BRANCH  37  38
HETATM   38  C   UNL     1      -9.106   5.084  65.551  1.00  0.00    -0.159 A  
HETATM   39  C   UNL     1     -10.188   3.317  63.668  1.00  0.00    -0.204 A  
HETATM   40  C   UNL     1     -10.413   4.612  65.695  1.00  0.00    -0.260 A  
HETATM   41  C   UNL     1      -8.865   3.727  63.560  1.00  0.00    -0.101 A  
HETATM   42  C   UNL     1      -8.317   4.566  64.525  1.00  0.00    -0.115 A  
HETATM   43  C   UNL     1     -10.950   3.732  64.758  1.00  0.00     0.195 A  
ENDBRANCH  37  38
ENDBRANCH  22  37
ENDBRANCH  19  22
ENDBRANCH  18  19
ENDBRANCH  17  18
BRANCH  17  44
HETATM   44  C   UNL     1      -5.333   7.598  68.569  1.00  0.00    -0.026 C  
BRANCH  44  45
HETATM   45  C   UNL     1      -5.273   6.934  67.206  1.00  0.00    -0.012 A  
HETATM   46  C   UNL     1      -5.336   7.689  66.022  1.00  0.00    -0.028 A  
HETATM   47  C   UNL     1      -5.179   5.541  67.105  1.00  0.00    -0.005 A  
HETATM   48  C   UNL     1      -5.346   7.057  64.774  1.00  0.00    -0.028 A  
HETATM   49  C   UNL     1      -5.185   4.912  65.857  1.00  0.00    -0.009 A  
HETATM   50  C   UNL     1      -5.278   5.668  64.692  1.00  0.00    -0.010 A  
ENDBRANCH  44  45
ENDBRANCH  17  44
ENDBRANCH  15  17
ENDBRANCH   3  13
TORSDOF 14
ENDMDL
MODEL      280
REMARK 921   NORMALIZED FREE ENERGY PREDICTED BY IDOCK:   -1.69 KCAL/MOL
REMARK 922        TOTAL FREE ENERGY PREDICTED BY IDOCK:   -7.64 KCAL/MOL
REMARK 923 INTER-LIGAND FREE ENERGY PREDICTED BY IDOCK:   -4.69 KCAL/MOL
REMARK 924 INTRA-LIGAND FREE ENERGY PREDICTED BY IDOCK:   -2.95 KCAL/MOL
REMARK 927      BINDING AFFINITY PREDICTED BY RF-SCORE:    0.00 PKD
ROOT
HETATM    1  C   UNL     1     -10.379  12.811  66.431  1.00  0.00    -0.271 C  
HETATM    2  C   UNL     1      -9.687  11.449  66.273  1.00  0.00    -0.239 C  
HETATM    3  C   UNL     1     -10.537  10.309  66.916  1.00  0.00    -0.217 C  
HETATM    4  C   UNL     1      -9.377  11.230  64.791  1.00  0.00    -0.166 C  
ENDROOT
BRANCH   3   5
HETATM    5  N   UNL     1     -10.720  10.522  68.370  1.00  0.00    -0.207 N  
HETATM    6  H   UNL     1      -9.093  10.441  71.176  1.00  0.00     0.000 HD 
HETATM    7  O   UNL     1      -8.463  10.581  68.821  1.00  0.00    -0.125 OA 
HETATM    8  C   UNL     1     -12.034  10.850  68.911  1.00  0.00    -0.206 C  
HETATM    9  C   UNL     1      -9.626  10.540  69.209  1.00  0.00    -0.181 C  
HETATM   10  C   UNL     1     -12.284  10.008  70.147  1.00  0.00    -0.116 C  
HETATM   11  N   UNL     1      -9.895  10.445  70.545  1.00  0.00     0.450 N  
HETATM   12  C   UNL     1     -11.205  10.349  71.154  1.00  0.00     0.117 C  
ENDBRANCH   3   5
BRANCH   3  13
HETATM   13  C   UNL     1      -9.963   8.898  66.581  1.00  0.00    -0.276 C  
HETATM   14  O   UNL     1     -10.620   7.865  66.657  1.00  0.00    -0.276 OA 
HETATM   15  N   UNL     1      -8.618   8.883  66.273  1.00  0.00    -0.127 N  
HETATM   16  H   UNL     1      -8.155   9.790  66.214  1.00  0.00     0.000 HD 
BRANCH  15  17
HETATM   17  C   UNL     1      -7.783   7.710  66.023  1.00  0.00    -0.090 C  
BRANCH  17  18
HETATM   18  C   UNL     1      -7.105   7.144  67.291  1.00  0.00    -0.084 C  
BRANCH  18  19
HETATM   19  C   UNL     1      -6.945   5.626  67.563  1.00  0.00    -0.066 C  
HETATM   20  O   UNL     1      -8.121   4.940  67.123  1.00  0.00    -0.106 OA 
HETATM   21  H   UNL     1      -8.023   4.010  67.289  1.00  0.00     0.000 HD 
BRANCH  19  22
HETATM   22  C   UNL     1      -6.774   5.344  69.107  1.00  0.00    -0.053 C  
BRANCH  22  23
HETATM   23  N   UNL     1      -6.219   3.977  69.417  1.00  0.00    -0.027 N  
HETATM   24  C   UNL     1      -6.599   2.852  70.118  1.00  0.00    -0.033 C  
HETATM   25  H   UNL     1      -5.304   3.847  68.986  1.00  0.00     0.000 HD 
HETATM   26  O   UNL     1      -5.972   1.806  69.924  1.00  0.00    -0.021 OA 
BRANCH  24  27
HETATM   27  C   UNL     1      -7.693   2.934  71.195  1.00  0.00    -0.043 C  
BRANCH  27  28
HETATM   28  O   UNL     1      -9.079   2.910  70.894  1.00  0.00    -0.091 OA 
BRANCH  28  29
HETATM   29  C   UNL     1      -9.951   3.590  71.732  1.00  0.00    -0.131 A  
HETATM   30  C   UNL     1     -10.223   5.911  70.479  1.00  0.00    -0.271 C  
HETATM   31  C   UNL     1     -10.500   4.887  71.551  1.00  0.00    -0.179 A  
HETATM   32  C   UNL     1     -11.477   5.347  72.468  1.00  0.00    -0.259 A  
HETATM   33  C   UNL     1     -11.902   4.588  73.547  1.00  0.00     0.107 A  
HETATM   34  C   UNL     1     -11.341   3.340  73.752  1.00  0.00    -0.155 A  
HETATM   35  C   UNL     1     -10.365   2.834  72.871  1.00  0.00    -0.238 A  
HETATM   36  C   UNL     1      -9.794   1.476  73.201  1.00  0.00    -0.126 C  
ENDBRANCH  28  29
ENDBRANCH  27  28
ENDBRANCH  24  27
ENDBRANCH  22  23
BRANCH  22  37
HETATM   37  C   UNL     1      -6.184   6.553  69.881  1.00  0.00    -0.038 C  
BRANCH  37  38
HETATM   38  C   UNL     1      -6.876   6.851  71.183  1.00  0.00    -0.058 A  
HETATM   39  C   UNL     1      -7.956   7.543  73.672  1.00  0.00    -0.163 A  
HETATM   40  C   UNL     1      -6.711   6.007  72.283  1.00  0.00    -0.072 A  
HETATM   41  C   UNL     1      -8.184   8.350  72.565  1.00  0.00    -0.198 A  
HETATM   42  C   UNL     1      -7.686   7.977  71.320  1.00  0.00    -0.090 A  
HETATM   43  C   UNL     1      -7.250   6.351  73.521  1.00  0.00    -0.082 A  
ENDBRANCH  37  38
ENDBRANCH  22  37
ENDBRANCH  19  22
ENDBRANCH  18  19
ENDBRANCH  17  18
BRANCH  17  44
HETATM   44  C   UNL     1      -6.943   7.800  64.730  1.00  0.00    -0.055 C  
BRANCH  44  45
HETATM   45  C   UNL     1      -6.679   6.454  64.082  1.00  0.00    -0.038 A  
HETATM   46  C   UNL     1      -7.693   5.759  63.402  1.00  0.00    -0.089 A  
HETATM   47  C   UNL     1      -5.413   5.865  64.175  1.00  0.00    -0.017 A  
HETATM   48  C   UNL     1      -7.451   4.489  62.866  1.00  0.00    -0.052 A  
HETATM   49  C   UNL     1      -5.172   4.598  63.636  1.00  0.00    -0.009 A  
HETATM   50  C   UNL     1      -6.192   3.906  62.990  1.00  0.00    -0.018 A  
ENDBRANCH  44  45
ENDBRANCH  17  44
ENDBRANCH  15  17
ENDBRANCH   3  13
TORSDOF 14
ENDMDL
MODEL      281
REMARK 921   NORMALIZED FREE ENERGY PREDICTED BY IDOCK:   -1.65 KCAL/MOL
REMARK 922        TOTAL FREE ENERGY PREDICTED BY IDOCK:   -7.56 KCAL/MOL
REMARK 923 INTER-LIGAND FREE ENERGY PREDICTED BY IDOCK:   -6.35 KCAL/MOL
REMARK 924 INTRA-LIGAND FREE ENERGY PREDICTED BY IDOCK:   -1.20 KCAL/MOL
REMARK 927      BINDING AFFINITY PREDICTED BY RF-SCORE:    0.00 PKD
ROOT
HETATM    1  C   UNL     1      -7.766  15.955  68.792  1.00  0.00    -0.181 C  
HETATM    2  C   UNL     1      -7.678  14.426  68.916  1.00  0.00    -0.128 C  
HETATM    3  C   UNL     1      -8.483  13.722  67.780  1.00  0.00    -0.181 C  
HETATM    4  C   UNL     1      -6.202  14.028  68.967  1.00  0.00    -0.092 C  
ENDROOT
BRANCH   3   5
HETATM    5  N   UNL     1      -9.923  14.067  67.840  1.00  0.00    -0.232 N  
HETATM    6  H   UNL     1     -12.192  15.786  66.286  1.00  0.00     0.000 HD 
HETATM    7  O   UNL     1      -9.984  14.920  65.703  1.00  0.00    -0.319 OA 
HETATM    8  C   UNL     1     -10.754  13.583  68.936  1.00  0.00    -0.201 C  
HETATM    9  C   UNL     1     -10.517  14.739  66.794  1.00  0.00    -0.282 C  
HETATM   10  C   UNL     1     -11.617  14.722  69.443  1.00  0.00    -0.342 C  
HETATM   11  N   UNL     1     -11.749  15.272  67.047  1.00  0.00    -0.112 N  
HETATM   12  C   UNL     1     -12.486  15.180  68.290  1.00  0.00     0.513 C  
ENDBRANCH   3   5
BRANCH   3  13
HETATM   13  C   UNL     1      -8.232  12.183  67.758  1.00  0.00    -0.154 C  
HETATM   14  O   UNL     1      -7.185  11.663  68.128  1.00  0.00    -0.076 OA 
HETATM   15  N   UNL     1      -9.255  11.442  67.202  1.00  0.00    -0.164 N  
HETATM   16  H   UNL     1     -10.097  11.955  66.939  1.00  0.00     0.000 HD 
BRANCH  15  17
HETATM   17  C   UNL     1      -9.266  10.003  66.948  1.00  0.00    -0.147 C  
BRANCH  17  18
HETATM   18  C   UNL     1     -10.284   9.224  67.809  1.00  0.00    -0.271 C  
BRANCH  18  19
HETATM   19  C   UNL     1     -10.059   8.903  69.308  1.00  0.00    -0.203 C  
HETATM   20  O   UNL     1      -9.560  10.068  69.972  1.00  0.00    -0.314 OA 
HETATM   21  H   UNL     1      -9.422   9.871  70.891  1.00  0.00     0.000 HD 
BRANCH  19  22
HETATM   22  C   UNL     1      -8.990   7.755  69.485  1.00  0.00    -0.142 C  
BRANCH  22  23
HETATM   23  N   UNL     1      -7.752   8.188  70.230  1.00  0.00    -0.083 N  
HETATM   24  C   UNL     1      -7.360   8.386  71.536  1.00  0.00    -0.095 C  
HETATM   25  H   UNL     1      -6.989   8.391  69.584  1.00  0.00     0.000 HD 
HETATM   26  O   UNL     1      -6.153   8.502  71.771  1.00  0.00    -0.047 OA 
BRANCH  24  27
HETATM   27  C   UNL     1      -8.407   8.577  72.647  1.00  0.00    -0.081 C  
BRANCH  27  28
HETATM   28  O   UNL     1      -8.799   7.537  73.528  1.00  0.00    -0.165 OA 
BRANCH  28  29
HETATM   29  C   UNL     1     -10.032   6.931  73.331  1.00  0.00    -0.236 A  
HETATM   30  C   UNL     1     -11.428   8.881  72.198  1.00  0.00    -0.387 C  
HETATM   31  C   UNL     1     -11.185   7.484  72.713  1.00  0.00    -0.403 A  
HETATM   32  C   UNL     1     -12.308   6.649  72.497  1.00  0.00     0.110 A  
HETATM   33  C   UNL     1     -12.333   5.319  72.885  1.00  0.00     0.287 A  
HETATM   34  C   UNL     1     -11.228   4.785  73.525  1.00  0.00    -0.392 A  
HETATM   35  C   UNL     1     -10.084   5.572  73.765  1.00  0.00    -0.220 A  
HETATM   36  C   UNL     1      -8.946   4.904  74.497  1.00  0.00    -0.110 C  
ENDBRANCH  28  29
ENDBRANCH  27  28
ENDBRANCH  24  27
ENDBRANCH  22  23
BRANCH  22  37
HETATM   37  C   UNL     1      -9.625   6.392  69.874  1.00  0.00    -0.166 C  
BRANCH  37  38
HETATM   38  C   UNL     1      -9.047   5.210  69.145  1.00  0.00    -0.135 A  
HETATM   39  C   UNL     1      -7.946   2.897  68.015  1.00  0.00    -0.065 A  
HETATM   40  C   UNL     1      -7.672   5.125  68.909  1.00  0.00    -0.081 A  
HETATM   41  C   UNL     1      -9.320   3.005  68.181  1.00  0.00    -0.254 A  
HETATM   42  C   UNL     1      -9.867   4.176  68.697  1.00  0.00    -0.082 A  
HETATM   43  C   UNL     1      -7.126   3.974  68.346  1.00  0.00    -0.055 A  
ENDBRANCH  37  38
ENDBRANCH  22  37
ENDBRANCH  19  22
ENDBRANCH  18  19
ENDBRANCH  17  18
BRANCH  17  44
HETATM   44  C   UNL     1      -7.862   9.390  66.750  1.00  0.00    -0.105 C  
BRANCH  44  45
HETATM   45  C   UNL     1      -7.890   7.950  66.273  1.00  0.00    -0.094 A  
HETATM   46  C   UNL     1      -6.716   7.292  65.869  1.00  0.00    -0.053 A  
HETATM   47  C   UNL     1      -9.103   7.255  66.204  1.00  0.00    -0.160 A  
HETATM   48  C   UNL     1      -6.768   5.986  65.369  1.00  0.00    -0.047 A  
HETATM   49  C   UNL     1      -9.152   5.949  65.708  1.00  0.00    -0.101 A  
HETATM   50  C   UNL     1      -7.987   5.317  65.282  1.00  0.00    -0.106 A  
ENDBRANCH  44  45
ENDBRANCH  17  44
ENDBRANCH  15  17
ENDBRANCH   3  13
TORSDOF 14
ENDMDL
MODEL      282
REMARK 921   NORMALIZED FREE ENERGY PREDICTED BY IDOCK:   -1.63 KCAL/MOL
REMARK 922        TOTAL FREE ENERGY PREDICTED BY IDOCK:   -7.52 KCAL/MOL
REMARK 923 INTER-LIGAND FREE ENERGY PREDICTED BY IDOCK:   -6.48 KCAL/MOL
REMARK 924 INTRA-LIGAND FREE ENERGY PREDICTED BY IDOCK:   -1.03 KCAL/MOL
REMARK 927      BINDING AFFINITY PREDICTED BY RF-SCORE:    0.00 PKD
ROOT
HETATM    1  C   UNL     1     -11.490  15.823  67.727  1.00  0.00    -0.175 C  
HETATM    2  C   UNL     1     -11.054  14.394  67.370  1.00  0.00    -0.317 C  
HETATM    3  C   UNL     1      -9.747  14.000  68.125  1.00  0.00    -0.220 C  
HETATM    4  C   UNL     1     -12.229  13.449  67.630  1.00  0.00    -0.202 C  
ENDROOT
BRANCH   3   5
HETATM    5  N   UNL     1      -8.619  14.887  67.759  1.00  0.00    -0.161 N  
HETATM    6  H   UNL     1      -6.061  16.411  69.048  1.00  0.00     0.000 HD 
HETATM    7  O   UNL     1      -7.489  14.553  69.737  1.00  0.00    -0.045 OA 
HETATM    8  C   UNL     1      -8.475  15.376  66.393  1.00  0.00    -0.134 C  
HETATM    9  C   UNL     1      -7.623  15.153  68.675  1.00  0.00    -0.127 C  
HETATM   10  C   UNL     1      -8.152  16.857  66.429  1.00  0.00    -0.350 C  
HETATM   11  N   UNL     1      -6.793  16.194  68.370  1.00  0.00    -0.125 N  
HETATM   12  C   UNL     1      -6.848  17.019  67.182  1.00  0.00    -0.179 C  
ENDBRANCH   3   5
BRANCH   3  13
HETATM   13  C   UNL     1      -9.407  12.488  67.948  1.00  0.00    -0.200 C  
HETATM   14  O   UNL     1      -8.862  11.810  68.813  1.00  0.00    -0.102 OA 
HETATM   15  N   UNL     1      -9.686  11.980  66.695  1.00  0.00    -0.204 N  
HETATM   16  H   UNL     1     -10.157  12.608  66.044  1.00  0.00     0.000 HD 
BRANCH  15  17
HETATM   17  C   UNL     1      -9.382  10.639  66.199  1.00  0.00    -0.177 C  
BRANCH  17  18
HETATM   18  C   UNL     1      -9.860   9.505  67.131  1.00  0.00    -0.239 C  
BRANCH  18  19
HETATM   19  C   UNL     1      -9.797   8.004  66.746  1.00  0.00    -0.257 C  
HETATM   20  O   UNL     1     -11.097   7.425  66.887  1.00  0.00    -0.535 OA 
HETATM   21  H   UNL     1     -11.059   6.505  66.651  1.00  0.00     0.000 HD 
BRANCH  19  22
HETATM   22  C   UNL     1      -8.815   7.217  67.698  1.00  0.00    -0.123 C  
BRANCH  22  23
HETATM   23  N   UNL     1      -9.350   7.022  69.095  1.00  0.00    -0.141 N  
HETATM   24  C   UNL     1      -8.851   6.886  70.372  1.00  0.00    -0.152 C  
HETATM   25  H   UNL     1     -10.368   6.978  69.093  1.00  0.00     0.000 HD 
HETATM   26  O   UNL     1      -9.635   7.002  71.319  1.00  0.00    -0.165 OA 
BRANCH  24  27
HETATM   27  C   UNL     1      -7.384   6.482  70.601  1.00  0.00    -0.079 C  
BRANCH  27  28
HETATM   28  O   UNL     1      -6.967   5.135  70.757  1.00  0.00    -0.051 OA 
BRANCH  28  29
HETATM   29  C   UNL     1      -7.759   4.279  71.510  1.00  0.00    -0.073 A  
HETATM   30  C   UNL     1      -9.352   3.238  69.663  1.00  0.00    -0.236 C  
HETATM   31  C   UNL     1      -8.780   3.407  71.048  1.00  0.00    -0.123 A  
HETATM   32  C   UNL     1      -9.384   2.518  71.971  1.00  0.00    -0.171 A  
HETATM   33  C   UNL     1      -9.032   2.482  73.311  1.00  0.00    -0.083 A  
HETATM   34  C   UNL     1      -8.066   3.358  73.775  1.00  0.00    -0.074 A  
HETATM   35  C   UNL     1      -7.434   4.264  72.900  1.00  0.00    -0.079 A  
HETATM   36  C   UNL     1      -6.418   5.198  73.512  1.00  0.00    -0.062 C  
ENDBRANCH  28  29
ENDBRANCH  27  28
ENDBRANCH  24  27
ENDBRANCH  22  23
BRANCH  22  37
HETATM   37  C   UNL     1      -8.147   5.998  67.006  1.00  0.00    -0.106 C  
BRANCH  37  38
HETATM   38  C   UNL     1      -8.984   5.365  65.928  1.00  0.00    -0.151 A  
HETATM   39  C   UNL     1     -10.394   3.978  63.945  1.00  0.00    -0.159 A  
HETATM   40  C   UNL     1      -8.638   5.511  64.583  1.00  0.00    -0.067 A  
HETATM   41  C   UNL     1     -10.788   3.886  65.274  1.00  0.00     0.343 A  
HETATM   42  C   UNL     1     -10.115   4.616  66.250  1.00  0.00    -0.292 A  
HETATM   43  C   UNL     1      -9.340   4.821  63.597  1.00  0.00     0.093 A  
ENDBRANCH  37  38
ENDBRANCH  22  37
ENDBRANCH  19  22
ENDBRANCH  18  19
ENDBRANCH  17  18
BRANCH  17  44
HETATM   44  C   UNL     1      -7.985  10.510  65.555  1.00  0.00    -0.145 C  
BRANCH  44  45
HETATM   45  C   UNL     1      -7.909   9.449  64.473  1.00  0.00    -0.121 A  
HETATM   46  C   UNL     1      -6.874   8.500  64.451  1.00  0.00    -0.070 A  
HETATM   47  C   UNL     1      -8.867   9.416  63.453  1.00  0.00    -0.199 A  
HETATM   48  C   UNL     1      -6.781   7.570  63.410  1.00  0.00    -0.058 A  
HETATM   49  C   UNL     1      -8.775   8.484  62.415  1.00  0.00    -0.074 A  
HETATM   50  C   UNL     1      -7.727   7.567  62.388  1.00  0.00    -0.119 A  
ENDBRANCH  44  45
ENDBRANCH  17  44
ENDBRANCH  15  17
ENDBRANCH   3  13
TORSDOF 14
ENDMDL
MODEL      283
REMARK 921   NORMALIZED FREE ENERGY PREDICTED BY IDOCK:   -1.61 KCAL/MOL
REMARK 922        TOTAL FREE ENERGY PREDICTED BY IDOCK:   -7.49 KCAL/MOL
REMARK 923 INTER-LIGAND FREE ENERGY PREDICTED BY IDOCK:   -6.00 KCAL/MOL
REMARK 924 INTRA-LIGAND FREE ENERGY PREDICTED BY IDOCK:   -1.49 KCAL/MOL
REMARK 927      BINDING AFFINITY PREDICTED BY RF-SCORE:    0.00 PKD
ROOT
HETATM    1  C   UNL     1     -10.670  11.929  66.675  1.00  0.00    -0.291 C  
HETATM    2  C   UNL     1      -9.918  10.632  66.340  1.00  0.00    -0.273 C  
HETATM    3  C   UNL     1     -10.541   9.412  67.086  1.00  0.00    -0.224 C  
HETATM    4  C   UNL     1      -9.879  10.473  64.818  1.00  0.00    -0.387 C  
ENDROOT
BRANCH   3   5
HETATM    5  N   UNL     1     -10.460   9.576  68.557  1.00  0.00    -0.211 N  
HETATM    6  H   UNL     1      -8.363   9.386  71.024  1.00  0.00     0.000 HD 
HETATM    7  O   UNL     1      -8.158   9.601  68.601  1.00  0.00    -0.097 OA 
HETATM    8  C   UNL     1     -11.653   9.896  69.332  1.00  0.00     0.053 C  
HETATM    9  C   UNL     1      -9.235   9.556  69.188  1.00  0.00    -0.163 C  
HETATM   10  C   UNL     1     -11.692   9.015  70.566  1.00  0.00    -0.160 C  
HETATM   11  N   UNL     1      -9.264   9.418  70.547  1.00  0.00    -0.255 N  
HETATM   12  C   UNL     1     -10.447   9.312  71.375  1.00  0.00    -0.338 C  
ENDBRANCH   3   5
BRANCH   3  13
HETATM   13  C   UNL     1      -9.935   8.061  66.598  1.00  0.00    -0.256 C  
HETATM   14  O   UNL     1     -10.544   6.997  66.623  1.00  0.00    -0.239 OA 
HETATM   15  N   UNL     1      -8.612   8.131  66.210  1.00  0.00    -0.136 N  
HETATM   16  H   UNL     1      -8.190   9.059  66.202  1.00  0.00     0.000 HD 
BRANCH  15  17
HETATM   17  C   UNL     1      -7.749   7.022  65.810  1.00  0.00    -0.103 C  
BRANCH  17  18
HETATM   18  C   UNL     1      -6.367   7.024  66.501  1.00  0.00    -0.050 C  
BRANCH  18  19
HETATM   19  C   UNL     1      -5.657   5.734  66.984  1.00  0.00    -0.016 C  
HETATM   20  O   UNL     1      -5.828   4.705  66.005  1.00  0.00    -0.021 OA 
HETATM   21  H   UNL     1      -5.392   3.914  66.302  1.00  0.00     0.000 HD 
BRANCH  19  22
HETATM   22  C   UNL     1      -6.283   5.218  68.338  1.00  0.00    -0.031 C  
BRANCH  22  23
HETATM   23  N   UNL     1      -7.593   4.491  68.163  1.00  0.00    -0.076 N  
HETATM   24  C   UNL     1      -8.904   4.633  68.563  1.00  0.00    -0.101 C  
HETATM   25  H   UNL     1      -7.474   3.659  67.585  1.00  0.00     0.000 HD 
HETATM   26  O   UNL     1      -9.763   3.955  67.992  1.00  0.00    -0.151 OA 
BRANCH  24  27
HETATM   27  C   UNL     1      -9.264   5.521  69.766  1.00  0.00    -0.137 C  
BRANCH  27  28
HETATM   28  O   UNL     1      -8.353   5.812  70.813  1.00  0.00    -0.120 OA 
BRANCH  28  29
HETATM   29  C   UNL     1      -8.853   5.997  72.095  1.00  0.00    -0.135 A  
HETATM   30  C   UNL     1      -7.366   8.005  72.982  1.00  0.00    -0.141 C  
HETATM   31  C   UNL     1      -8.467   6.977  73.047  1.00  0.00    -0.131 A  
HETATM   32  C   UNL     1      -9.196   7.074  74.257  1.00  0.00    -0.260 A  
HETATM   33  C   UNL     1     -10.259   6.235  74.556  1.00  0.00    -0.320 A  
HETATM   34  C   UNL     1     -10.613   5.251  73.650  1.00  0.00    -0.322 A  
HETATM   35  C   UNL     1      -9.920   5.110  72.431  1.00  0.00    -0.225 A  
HETATM   36  C   UNL     1     -10.365   3.987  71.526  1.00  0.00     0.024 C  
ENDBRANCH  28  29
ENDBRANCH  27  28
ENDBRANCH  24  27
ENDBRANCH  22  23
BRANCH  22  37
HETATM   37  C   UNL     1      -5.231   4.587  69.290  1.00  0.00    -0.004 C  
BRANCH  37  38
HETATM   38  C   UNL     1      -5.819   3.886  70.484  1.00  0.00    -0.014 A  
HETATM   39  C   UNL     1      -6.682   2.474  72.742  1.00  0.00    -0.022 A  
HETATM   40  C   UNL     1      -6.417   2.631  70.346  1.00  0.00    -0.028 A  
HETATM   41  C   UNL     1      -6.154   3.751  72.879  1.00  0.00    -0.012 A  
HETATM   42  C   UNL     1      -5.772   4.469  71.750  1.00  0.00    -0.012 A  
HETATM   43  C   UNL     1      -6.847   1.930  71.470  1.00  0.00    -0.027 A  
ENDBRANCH  37  38
ENDBRANCH  22  37
ENDBRANCH  19  22
ENDBRANCH  18  19
ENDBRANCH  17  18
BRANCH  17  44
HETATM   44  C   UNL     1      -7.807   6.693  64.302  1.00  0.00    -0.115 C  
BRANCH  44  45
HETATM   45  C   UNL     1      -8.458   5.357  63.996  1.00  0.00    -0.077 A  
HETATM   46  C   UNL     1      -9.535   4.877  64.759  1.00  0.00     0.038 A  
HETATM   47  C   UNL     1      -7.973   4.562  62.951  1.00  0.00    -0.071 A  
HETATM   48  C   UNL     1     -10.082   3.614  64.505  1.00  0.00    -0.186 A  
HETATM   49  C   UNL     1      -8.523   3.302  62.696  1.00  0.00    -0.077 A  
HETATM   50  C   UNL     1      -9.570   2.824  63.479  1.00  0.00    -0.103 A  
ENDBRANCH  44  45
ENDBRANCH  17  44
ENDBRANCH  15  17
ENDBRANCH   3  13
TORSDOF 14
ENDMDL
MODEL      284
REMARK 921   NORMALIZED FREE ENERGY PREDICTED BY IDOCK:   -1.57 KCAL/MOL
REMARK 922        TOTAL FREE ENERGY PREDICTED BY IDOCK:   -7.41 KCAL/MOL
REMARK 923 INTER-LIGAND FREE ENERGY PREDICTED BY IDOCK:   -6.80 KCAL/MOL
REMARK 924 INTRA-LIGAND FREE ENERGY PREDICTED BY IDOCK:   -0.61 KCAL/MOL
REMARK 927      BINDING AFFINITY PREDICTED BY RF-SCORE:    0.00 PKD
ROOT
HETATM    1  C   UNL     1      -8.918  11.226  62.888  1.00  0.00    -0.246 C  
HETATM    2  C   UNL     1      -8.797  10.907  64.386  1.00  0.00    -0.070 C  
HETATM    3  C   UNL     1      -7.302  10.763  64.810  1.00  0.00     0.276 C  
HETATM    4  C   UNL     1      -9.564  11.972  65.173  1.00  0.00    -0.091 C  
ENDROOT
BRANCH   3   5
HETATM    5  N   UNL     1      -6.638   9.653  64.088  1.00  0.00    -0.106 N  
HETATM    6  H   UNL     1      -4.596   9.080  61.633  1.00  0.00     0.000 HD 
HETATM    7  O   UNL     1      -5.141  11.026  63.004  1.00  0.00    -0.182 OA 
HETATM    8  C   UNL     1      -6.911   8.267  64.448  1.00  0.00    -0.073 C  
HETATM    9  C   UNL     1      -5.657   9.923  63.158  1.00  0.00    -0.102 C  
HETATM   10  C   UNL     1      -7.127   7.460  63.182  1.00  0.00    -0.070 C  
HETATM   11  N   UNL     1      -5.309   8.888  62.337  1.00  0.00    -0.078 N  
HETATM   12  C   UNL     1      -5.854   7.547  62.367  1.00  0.00    -0.059 C  
ENDBRANCH   3   5
BRANCH   3  13
HETATM   13  C   UNL     1      -7.146  10.654  66.358  1.00  0.00    -0.134 C  
HETATM   14  O   UNL     1      -7.180  11.621  67.111  1.00  0.00    -0.127 OA 
HETATM   15  N   UNL     1      -6.873   9.382  66.820  1.00  0.00    -0.079 N  
HETATM   16  H   UNL     1      -6.883   8.635  66.126  1.00  0.00     0.000 HD 
BRANCH  15  17
HETATM   17  C   UNL     1      -6.573   8.988  68.194  1.00  0.00    -0.060 C  
BRANCH  17  18
HETATM   18  C   UNL     1      -6.415  10.179  69.165  1.00  0.00    -0.049 C  
BRANCH  18  19
HETATM   19  C   UNL     1      -7.296  10.369  70.427  1.00  0.00     0.243 C  
HETATM   20  O   UNL     1      -6.486  10.211  71.596  1.00  0.00    -0.197 OA 
HETATM   21  H   UNL     1      -7.025  10.327  72.370  1.00  0.00     0.000 HD 
BRANCH  19  22
HETATM   22  C   UNL     1      -8.440   9.283  70.486  1.00  0.00    -0.216 C  
BRANCH  22  23
HETATM   23  N   UNL     1      -9.205   9.137  69.195  1.00  0.00    -0.143 N  
HETATM   24  C   UNL     1     -10.248   9.764  68.546  1.00  0.00    -0.186 C  
HETATM   25  H   UNL     1      -8.852   8.353  68.647  1.00  0.00     0.000 HD 
HETATM   26  O   UNL     1     -10.430   9.505  67.353  1.00  0.00    -0.244 OA 
BRANCH  24  27
HETATM   27  C   UNL     1     -11.223  10.665  69.322  1.00  0.00    -0.273 C  
BRANCH  27  28
HETATM   28  O   UNL     1     -11.460  12.022  68.982  1.00  0.00    -0.253 OA 
BRANCH  28  29
HETATM   29  C   UNL     1     -11.910  12.884  69.971  1.00  0.00    -0.286 A  
HETATM   30  C   UNL     1     -13.135  11.222  71.635  1.00  0.00    -0.513 C  
HETATM   31  C   UNL     1     -12.608  12.554  71.163  1.00  0.00    -0.349 A  
HETATM   32  C   UNL     1     -12.865  13.577  72.108  1.00  0.00    -0.330 A  
HETATM   33  C   UNL     1     -12.481  14.893  71.903  1.00  0.00    -0.403 A  
HETATM   34  C   UNL     1     -11.837  15.230  70.725  1.00  0.00    -0.381 A  
HETATM   35  C   UNL     1     -11.557  14.250  69.751  1.00  0.00    -0.350 A  
HETATM   36  C   UNL     1     -10.880  14.726  68.489  1.00  0.00    -0.255 C  
ENDBRANCH  28  29
ENDBRANCH  27  28
ENDBRANCH  24  27
ENDBRANCH  22  23
BRANCH  22  37
HETATM   37  C   UNL     1      -8.004   7.983  71.215  1.00  0.00    -0.097 C  
BRANCH  37  38
HETATM   38  C   UNL     1      -9.088   7.343  72.038  1.00  0.00    -0.149 A  
HETATM   39  C   UNL     1     -11.266   6.194  73.372  1.00  0.00     0.028 A  
HETATM   40  C   UNL     1      -9.878   8.113  72.895  1.00  0.00    -0.339 A  
HETATM   41  C   UNL     1     -10.441   5.407  72.578  1.00  0.00    -0.262 A  
HETATM   42  C   UNL     1      -9.332   5.972  71.956  1.00  0.00    -0.158 A  
HETATM   43  C   UNL     1     -10.960   7.540  73.559  1.00  0.00    -0.093 A  
ENDBRANCH  37  38
ENDBRANCH  22  37
ENDBRANCH  19  22
ENDBRANCH  18  19
ENDBRANCH  17  18
BRANCH  17  44
HETATM   44  C   UNL     1      -5.568   7.821  68.308  1.00  0.00    -0.032 C  
BRANCH  44  45
HETATM   45  C   UNL     1      -6.197   6.455  68.110  1.00  0.00    -0.032 A  
HETATM   46  C   UNL     1      -7.562   6.236  68.360  1.00  0.00    -0.096 A  
HETATM   47  C   UNL     1      -5.412   5.373  67.696  1.00  0.00    -0.012 A  
HETATM   48  C   UNL     1      -8.113   4.956  68.237  1.00  0.00    -0.085 A  
HETATM   49  C   UNL     1      -5.965   4.095  67.569  1.00  0.00    -0.024 A  
HETATM   50  C   UNL     1      -7.312   3.884  67.849  1.00  0.00    -0.066 A  
ENDBRANCH  44  45
ENDBRANCH  17  44
ENDBRANCH  15  17
ENDBRANCH   3  13
TORSDOF 14
ENDMDL
MODEL      285
REMARK 921   NORMALIZED FREE ENERGY PREDICTED BY IDOCK:   -1.54 KCAL/MOL
REMARK 922        TOTAL FREE ENERGY PREDICTED BY IDOCK:   -7.36 KCAL/MOL
REMARK 923 INTER-LIGAND FREE ENERGY PREDICTED BY IDOCK:   -7.90 KCAL/MOL
REMARK 924 INTRA-LIGAND FREE ENERGY PREDICTED BY IDOCK:    0.54 KCAL/MOL
REMARK 927      BINDING AFFINITY PREDICTED BY RF-SCORE:    0.00 PKD
ROOT
HETATM    1  C   UNL     1      -9.882  19.981  66.599  1.00  0.00    -0.577 C  
HETATM    2  C   UNL     1      -9.406  18.545  66.327  1.00  0.00    -0.243 C  
HETATM    3  C   UNL     1      -8.783  17.908  67.608  1.00  0.00    -0.242 C  
HETATM    4  C   UNL     1     -10.575  17.748  65.745  1.00  0.00    -0.175 C  
ENDROOT
BRANCH   3   5
HETATM    5  N   UNL     1      -7.595  18.665  68.068  1.00  0.00    -0.254 N  
HETATM    6  H   UNL     1      -4.695  19.706  67.054  1.00  0.00     0.000 HD 
HETATM    7  O   UNL     1      -6.732  18.934  65.951  1.00  0.00    -0.222 OA 
HETATM    8  C   UNL     1      -7.514  19.152  69.440  1.00  0.00    -0.091 C  
HETATM    9  C   UNL     1      -6.615  19.026  67.169  1.00  0.00    -0.196 C  
HETATM   10  C   UNL     1      -6.134  18.851  69.991  1.00  0.00    -0.200 C  
HETATM   11  N   UNL     1      -5.434  19.451  67.709  1.00  0.00    -0.179 N  
HETATM   12  C   UNL     1      -5.129  19.575  69.119  1.00  0.00    -0.181 C  
ENDBRANCH   3   5
BRANCH   3  13
HETATM   13  C   UNL     1      -8.492  16.388  67.417  1.00  0.00    -0.178 C  
HETATM   14  O   UNL     1      -7.378  15.937  67.172  1.00  0.00    -0.191 OA 
HETATM   15  N   UNL     1      -9.610  15.579  67.459  1.00  0.00    -0.212 N  
HETATM   16  H   UNL     1     -10.492  16.036  67.688  1.00  0.00     0.000 HD 
BRANCH  15  17
HETATM   17  C   UNL     1      -9.668  14.141  67.209  1.00  0.00    -0.236 C  
BRANCH  17  18
HETATM   18  C   UNL     1     -10.166  13.772  65.794  1.00  0.00    -0.322 C  
BRANCH  18  19
HETATM   19  C   UNL     1     -10.934  12.462  65.478  1.00  0.00    -0.293 C  
HETATM   20  O   UNL     1     -12.295  12.600  65.899  1.00  0.00    -0.593 OA 
HETATM   21  H   UNL     1     -12.766  11.797  65.705  1.00  0.00     0.000 HD 
BRANCH  19  22
HETATM   22  C   UNL     1     -10.311  11.240  66.260  1.00  0.00    -0.247 C  
BRANCH  22  23
HETATM   23  N   UNL     1     -11.056  10.882  67.521  1.00  0.00    -0.299 N  
HETATM   24  C   UNL     1     -10.937   9.985  68.561  1.00  0.00    -0.209 C  
HETATM   25  H   UNL     1     -11.881  11.471  67.638  1.00  0.00     0.000 HD 
HETATM   26  O   UNL     1     -11.622  10.171  69.571  1.00  0.00    -0.206 OA 
BRANCH  24  27
HETATM   27  C   UNL     1     -10.066   8.727  68.412  1.00  0.00    -0.190 C  
BRANCH  27  28
HETATM   28  O   UNL     1     -10.454   7.454  68.904  1.00  0.00    -0.204 OA 
BRANCH  28  29
HETATM   29  C   UNL     1      -9.895   6.322  68.327  1.00  0.00    -0.126 A  
HETATM   30  C   UNL     1     -11.210   6.171  66.029  1.00  0.00     1.245 C  
HETATM   31  C   UNL     1     -10.178   5.765  67.052  1.00  0.00    -0.258 A  
HETATM   32  C   UNL     1      -9.400   4.672  66.598  1.00  0.00    -0.153 A  
HETATM   33  C   UNL     1      -8.387   4.112  67.361  1.00  0.00    -0.099 A  
HETATM   34  C   UNL     1      -8.133   4.624  68.621  1.00  0.00    -0.082 A  
HETATM   35  C   UNL     1      -8.878   5.711  69.121  1.00  0.00    -0.111 A  
HETATM   36  C   UNL     1      -8.544   6.173  70.519  1.00  0.00    -0.138 C  
ENDBRANCH  28  29
ENDBRANCH  27  28
ENDBRANCH  24  27
ENDBRANCH  22  23
BRANCH  22  37
HETATM   37  C   UNL     1      -9.883  10.078  65.322  1.00  0.00    -0.388 C  
BRANCH  37  38
HETATM   38  C   UNL     1      -8.485   9.577  65.558  1.00  0.00    -0.150 A  
HETATM   39  C   UNL     1      -5.881   8.566  65.753  1.00  0.00    -0.047 A  
HETATM   40  C   UNL     1      -8.265   8.273  66.009  1.00  0.00    -0.119 A  
HETATM   41  C   UNL     1      -6.090   9.886  65.374  1.00  0.00    -0.084 A  
HETATM   42  C   UNL     1      -7.383  10.398  65.326  1.00  0.00    -0.108 A  
HETATM   43  C   UNL     1      -6.969   7.771  66.106  1.00  0.00    -0.062 A  
ENDBRANCH  37  38
ENDBRANCH  22  37
ENDBRANCH  19  22
ENDBRANCH  18  19
ENDBRANCH  17  18
BRANCH  17  44
HETATM   44  C   UNL     1     -10.197  13.317  68.403  1.00  0.00    -0.249 C  
BRANCH  44  45
HETATM   45  C   UNL     1     -11.014  14.130  69.389  1.00  0.00    -0.216 A  
HETATM   46  C   UNL     1     -12.418  14.132  69.349  1.00  0.00    -0.114 A  
HETATM   47  C   UNL     1     -10.373  14.922  70.349  1.00  0.00     0.168 A  
HETATM   48  C   UNL     1     -13.156  14.939  70.222  1.00  0.00    -0.112 A  
HETATM   49  C   UNL     1     -11.111  15.725  71.223  1.00  0.00    -0.264 A  
HETATM   50  C   UNL     1     -12.501  15.741  71.155  1.00  0.00    -0.490 A  
ENDBRANCH  44  45
ENDBRANCH  17  44
ENDBRANCH  15  17
ENDBRANCH   3  13
TORSDOF 14
ENDMDL
MODEL      286
REMARK 921   NORMALIZED FREE ENERGY PREDICTED BY IDOCK:   -1.18 KCAL/MOL
REMARK 922        TOTAL FREE ENERGY PREDICTED BY IDOCK:   -6.70 KCAL/MOL
REMARK 923 INTER-LIGAND FREE ENERGY PREDICTED BY IDOCK:   -4.79 KCAL/MOL
REMARK 924 INTRA-LIGAND FREE ENERGY PREDICTED BY IDOCK:   -1.91 KCAL/MOL
REMARK 927      BINDING AFFINITY PREDICTED BY RF-SCORE:    0.00 PKD
ROOT
HETATM    1  C   UNL     1     -12.844   7.374  71.604  1.00  0.00    -0.406 C  
HETATM    2  C   UNL     1     -12.625   8.686  70.835  1.00  0.00     0.029 C  
HETATM    3  C   UNL     1     -11.473   8.541  69.793  1.00  0.00     0.252 C  
HETATM    4  C   UNL     1     -13.959   9.121  70.227  1.00  0.00     1.298 C  
ENDROOT
BRANCH   3   5
HETATM    5  N   UNL     1     -10.184   8.217  70.449  1.00  0.00    -0.198 N  
HETATM    6  H   UNL     1      -7.758   6.067  70.361  1.00  0.00     0.000 HD 
HETATM    7  O   UNL     1      -9.533   6.727  68.819  1.00  0.00    -0.132 OA 
HETATM    8  C   UNL     1      -9.703   9.015  71.570  1.00  0.00    -0.295 C  
HETATM    9  C   UNL     1      -9.368   7.240  69.922  1.00  0.00    -0.154 C  
HETATM   10  C   UNL     1      -9.197   8.087  72.657  1.00  0.00    -0.304 C  
HETATM   11  N   UNL     1      -8.359   6.801  70.733  1.00  0.00    -0.127 N  
HETATM   12  C   UNL     1      -8.062   7.275  72.068  1.00  0.00    -0.094 C  
ENDBRANCH   3   5
BRANCH   3  13
HETATM   13  C   UNL     1     -11.377   9.785  68.857  1.00  0.00     0.058 C  
HETATM   14  O   UNL     1     -12.281  10.601  68.721  1.00  0.00    -0.381 OA 
HETATM   15  N   UNL     1     -10.216   9.855  68.113  1.00  0.00    -0.170 N  
HETATM   16  H   UNL     1      -9.510   9.145  68.305  1.00  0.00     0.000 HD 
BRANCH  15  17
HETATM   17  C   UNL     1      -9.888  10.836  67.081  1.00  0.00    -0.185 C  
BRANCH  17  18
HETATM   18  C   UNL     1      -9.190  12.103  67.622  1.00  0.00    -0.181 C  
BRANCH  18  19
HETATM   19  C   UNL     1      -7.886  12.063  68.461  1.00  0.00    -0.129 C  
HETATM   20  O   UNL     1      -8.108  11.287  69.642  1.00  0.00    -0.322 OA 
HETATM   21  H   UNL     1      -7.310  11.263  70.156  1.00  0.00     0.000 HD 
BRANCH  19  22
HETATM   22  C   UNL     1      -7.460  13.515  68.912  1.00  0.00    -0.017 C  
BRANCH  22  23
HETATM   23  N   UNL     1      -7.001  14.393  67.776  1.00  0.00    -0.163 N  
HETATM   24  C   UNL     1      -6.108  15.424  67.576  1.00  0.00    -0.066 C  
HETATM   25  H   UNL     1      -7.489  14.159  66.912  1.00  0.00     0.000 HD 
HETATM   26  O   UNL     1      -5.820  15.727  66.414  1.00  0.00     0.636 OA 
BRANCH  24  27
HETATM   27  C   UNL     1      -5.583  16.247  68.764  1.00  0.00    -0.109 C  
BRANCH  27  28
HETATM   28  O   UNL     1      -6.388  17.164  69.487  1.00  0.00    -0.228 OA 
BRANCH  28  29
HETATM   29  C   UNL     1      -6.147  18.522  69.334  1.00  0.00    -0.259 A  
HETATM   30  C   UNL     1      -6.930  18.942  66.836  1.00  0.00    -0.210 C  
HETATM   31  C   UNL     1      -6.415  19.331  68.199  1.00  0.00    -0.249 A  
HETATM   32  C   UNL     1      -6.209  20.729  68.295  1.00  0.00    -0.373 A  
HETATM   33  C   UNL     1      -5.736  21.335  69.449  1.00  0.00     0.180 A  
HETATM   34  C   UNL     1      -5.434  20.546  70.546  1.00  0.00    -0.319 A  
HETATM   35  C   UNL     1      -5.620  19.150  70.503  1.00  0.00    -0.243 A  
HETATM   36  C   UNL     1      -5.230  18.379  71.741  1.00  0.00    -0.000 C  
ENDBRANCH  28  29
ENDBRANCH  27  28
ENDBRANCH  24  27
ENDBRANCH  22  23
BRANCH  22  37
HETATM   37  C   UNL     1      -8.431  14.133  69.954  1.00  0.00     1.210 C  
BRANCH  37  38
HETATM   38  C   UNL     1      -9.425  15.101  69.374  1.00  0.00    -0.185 A  
HETATM   39  C   UNL     1     -11.197  16.827  68.061  1.00  0.00    -0.119 A  
HETATM   40  C   UNL     1      -9.056  16.421  69.104  1.00  0.00    -0.202 A  
HETATM   41  C   UNL     1     -11.596  15.538  68.392  1.00  0.00    -0.368 A  
HETATM   42  C   UNL     1     -10.729  14.700  69.087  1.00  0.00    -0.263 A  
HETATM   43  C   UNL     1      -9.939  17.279  68.452  1.00  0.00    -0.322 A  
ENDBRANCH  37  38
ENDBRANCH  22  37
ENDBRANCH  19  22
ENDBRANCH  18  19
ENDBRANCH  17  18
BRANCH  17  44
HETATM   44  C   UNL     1     -10.987  11.014  66.011  1.00  0.00    -0.136 C  
BRANCH  44  45
HETATM   45  C   UNL     1     -11.176  12.451  65.565  1.00  0.00    -0.364 A  
HETATM   46  C   UNL     1     -12.378  13.138  65.803  1.00  0.00    -0.496 A  
HETATM   47  C   UNL     1     -10.152  13.115  64.879  1.00  0.00    -0.236 A  
HETATM   48  C   UNL     1     -12.560  14.442  65.328  1.00  0.00    -0.333 A  
HETATM   49  C   UNL     1     -10.335  14.418  64.408  1.00  0.00     0.273 A  
HETATM   50  C   UNL     1     -11.541  15.079  64.624  1.00  0.00    -0.386 A  
ENDBRANCH  44  45
ENDBRANCH  17  44
ENDBRANCH  15  17
ENDBRANCH   3  13
TORSDOF 14
ENDMDL
MODEL      287
REMARK 921   NORMALIZED FREE ENERGY PREDICTED BY IDOCK:   -1.17 KCAL/MOL
REMARK 922        TOTAL FREE ENERGY PREDICTED BY IDOCK:   -6.68 KCAL/MOL
REMARK 923 INTER-LIGAND FREE ENERGY PREDICTED BY IDOCK:   -8.06 KCAL/MOL
REMARK 924 INTRA-LIGAND FREE ENERGY PREDICTED BY IDOCK:    1.38 KCAL/MOL
REMARK 927      BINDING AFFINITY PREDICTED BY RF-SCORE:    0.00 PKD
ROOT
HETATM    1  C   UNL     1     -10.508  19.598  65.907  1.00  0.00    -0.591 C  
HETATM    2  C   UNL     1      -9.971  18.159  65.908  1.00  0.00    -0.105 C  
HETATM    3  C   UNL     1      -8.997  17.923  67.104  1.00  0.00    -0.251 C  
HETATM    4  C   UNL     1     -11.160  17.196  65.879  1.00  0.00     0.354 C  
ENDROOT
BRANCH   3   5
HETATM    5  N   UNL     1      -7.815  18.814  67.025  1.00  0.00    -0.236 N  
HETATM    6  H   UNL     1      -5.362  19.613  65.060  1.00  0.00     0.000 HD 
HETATM    7  O   UNL     1      -7.516  18.502  64.764  1.00  0.00     0.852 OA 
HETATM    8  C   UNL     1      -7.457  19.669  68.150  1.00  0.00    -0.304 C  
HETATM    9  C   UNL     1      -7.120  18.936  65.841  1.00  0.00    -0.260 C  
HETATM   10  C   UNL     1      -5.962  19.576  68.386  1.00  0.00    -0.252 C  
HETATM   11  N   UNL     1      -5.893  19.530  65.926  1.00  0.00    -0.164 N  
HETATM   12  C   UNL     1      -5.273  20.054  67.125  1.00  0.00    -0.154 C  
ENDBRANCH   3   5
BRANCH   3  13
HETATM   13  C   UNL     1      -8.610  16.420  67.250  1.00  0.00    -0.181 C  
HETATM   14  O   UNL     1      -7.592  15.933  66.769  1.00  0.00    -0.226 OA 
HETATM   15  N   UNL     1      -9.552  15.644  67.894  1.00  0.00    -0.206 N  
HETATM   16  H   UNL     1     -10.358  16.135  68.279  1.00  0.00     0.000 HD 
BRANCH  15  17
HETATM   17  C   UNL     1      -9.521  14.195  68.086  1.00  0.00    -0.213 C  
BRANCH  17  18
HETATM   18  C   UNL     1     -10.238  13.403  66.970  1.00  0.00    -0.249 C  
BRANCH  18  19
HETATM   19  C   UNL     1     -10.881  12.010  67.196  1.00  0.00    -0.253 C  
HETATM   20  O   UNL     1     -12.306  12.138  67.163  1.00  0.00    -0.372 OA 
HETATM   21  H   UNL     1     -12.701  11.284  67.302  1.00  0.00     0.000 HD 
BRANCH  19  22
HETATM   22  C   UNL     1     -10.484  11.427  68.609  1.00  0.00    -0.201 C  
BRANCH  22  23
HETATM   23  N   UNL     1     -11.667  11.042  69.461  1.00  0.00    -0.299 N  
HETATM   24  C   UNL     1     -11.947  10.166  70.487  1.00  0.00    -0.311 C  
HETATM   25  H   UNL     1     -12.493  11.583  69.206  1.00  0.00     0.000 HD 
HETATM   26  O   UNL     1     -12.997  10.324  71.117  1.00  0.00    -0.364 OA 
BRANCH  24  27
HETATM   27  C   UNL     1     -11.033   8.958  70.757  1.00  0.00    -0.253 C  
BRANCH  27  28
HETATM   28  O   UNL     1     -11.489   7.765  71.373  1.00  0.00    -0.251 OA 
BRANCH  28  29
HETATM   29  C   UNL     1     -10.634   6.673  71.417  1.00  0.00    -0.224 A  
HETATM   30  C   UNL     1      -9.718   6.792  73.903  1.00  0.00    -0.286 C  
HETATM   31  C   UNL     1      -9.881   6.201  72.525  1.00  0.00    -0.180 A  
HETATM   32  C   UNL     1      -9.164   4.987  72.393  1.00  0.00    -0.150 A  
HETATM   33  C   UNL     1      -9.153   4.253  71.217  1.00  0.00    -0.181 A  
HETATM   34  C   UNL     1      -9.852   4.728  70.122  1.00  0.00    -0.308 A  
HETATM   35  C   UNL     1     -10.581   5.931  70.198  1.00  0.00    -0.362 A  
HETATM   36  C   UNL     1     -11.283   6.378  68.939  1.00  0.00    -0.385 C  
ENDBRANCH  28  29
ENDBRANCH  27  28
ENDBRANCH  24  27
ENDBRANCH  22  23
BRANCH  22  37
HETATM   37  C   UNL     1      -9.293  10.434  68.539  1.00  0.00    -0.160 C  
BRANCH  37  38
HETATM   38  C   UNL     1      -8.981   9.938  67.154  1.00  0.00    -0.150 A  
HETATM   39  C   UNL     1      -8.637   9.092  64.507  1.00  0.00    -0.198 A  
HETATM   40  C   UNL     1      -9.275   8.622  66.789  1.00  0.00    -0.211 A  
HETATM   41  C   UNL     1      -8.276  10.381  64.880  1.00  0.00    -0.145 A  
HETATM   42  C   UNL     1      -8.402  10.781  66.207  1.00  0.00    -0.160 A  
HETATM   43  C   UNL     1      -9.102   8.202  65.472  1.00  0.00    -0.021 A  
ENDBRANCH  37  38
ENDBRANCH  22  37
ENDBRANCH  19  22
ENDBRANCH  18  19
ENDBRANCH  17  18
BRANCH  17  44
HETATM   44  C   UNL     1      -9.739  13.750  69.548  1.00  0.00     0.775 C  
BRANCH  44  45
HETATM   45  C   UNL     1     -10.866  14.486  70.247  1.00  0.00     0.083 A  
HETATM   46  C   UNL     1     -12.199  14.053  70.139  1.00  0.00    -0.425 A  
HETATM   47  C   UNL     1     -10.597  15.637  70.997  1.00  0.00     0.146 A  
HETATM   48  C   UNL     1     -13.235  14.781  70.734  1.00  0.00    -0.355 A  
HETATM   49  C   UNL     1     -11.632  16.360  71.594  1.00  0.00    -0.335 A  
HETATM   50  C   UNL     1     -12.952  15.939  71.456  1.00  0.00    -0.332 A  
ENDBRANCH  44  45
ENDBRANCH  17  44
ENDBRANCH  15  17
ENDBRANCH   3  13
TORSDOF 14
ENDMDL
MODEL      288
REMARK 921   NORMALIZED FREE ENERGY PREDICTED BY IDOCK:   -1.08 KCAL/MOL
REMARK 922        TOTAL FREE ENERGY PREDICTED BY IDOCK:   -6.52 KCAL/MOL
REMARK 923 INTER-LIGAND FREE ENERGY PREDICTED BY IDOCK:   -4.99 KCAL/MOL
REMARK 924 INTRA-LIGAND FREE ENERGY PREDICTED BY IDOCK:   -1.53 KCAL/MOL
REMARK 927      BINDING AFFINITY PREDICTED BY RF-SCORE:    0.00 PKD
ROOT
HETATM    1  C   UNL     1     -11.725   6.189  66.517  1.00  0.00     1.389 C  
HETATM    2  C   UNL     1     -10.204   5.973  66.568  1.00  0.00    -0.200 C  
HETATM    3  C   UNL     1      -9.498   7.129  67.340  1.00  0.00    -0.131 C  
HETATM    4  C   UNL     1      -9.931   4.583  67.148  1.00  0.00    -0.201 C  
ENDROOT
BRANCH   3   5
HETATM    5  N   UNL     1      -9.714   8.437  66.677  1.00  0.00    -0.229 N  
HETATM    6  H   UNL     1      -8.640  10.241  64.204  1.00  0.00     0.000 HD 
HETATM    7  O   UNL     1      -8.513   7.875  64.795  1.00  0.00    -0.108 OA 
HETATM    8  C   UNL     1     -10.682   9.387  67.212  1.00  0.00    -0.188 C  
HETATM    9  C   UNL     1      -9.097   8.713  65.476  1.00  0.00    -0.131 C  
HETATM   10  C   UNL     1     -10.061  10.771  67.225  1.00  0.00    -0.233 C  
HETATM   11  N   UNL     1      -9.107  10.021  65.084  1.00  0.00    -0.186 N  
HETATM   12  C   UNL     1      -9.715  11.127  65.795  1.00  0.00    -0.225 C  
ENDBRANCH   3   5
BRANCH   3  13
HETATM   13  C   UNL     1      -7.989   6.824  67.591  1.00  0.00    -0.113 C  
HETATM   14  O   UNL     1      -7.214   6.471  66.708  1.00  0.00    -0.074 OA 
HETATM   15  N   UNL     1      -7.600   6.895  68.913  1.00  0.00    -0.102 N  
HETATM   16  H   UNL     1      -8.305   7.216  69.577  1.00  0.00     0.000 HD 
BRANCH  15  17
HETATM   17  C   UNL     1      -6.290   6.561  69.467  1.00  0.00    -0.038 C  
BRANCH  17  18
HETATM   18  C   UNL     1      -6.311   6.261  70.982  1.00  0.00    -0.048 C  
BRANCH  18  19
HETATM   19  C   UNL     1      -7.240   6.997  71.982  1.00  0.00    -0.081 C  
HETATM   20  O   UNL     1      -6.450   7.566  73.030  1.00  0.00    -0.059 OA 
HETATM   21  H   UNL     1      -7.019   8.017  73.643  1.00  0.00     0.000 HD 
BRANCH  19  22
HETATM   22  C   UNL     1      -8.264   5.994  72.643  1.00  0.00    -0.111 C  
BRANCH  22  23
HETATM   23  N   UNL     1      -9.491   6.664  73.208  1.00  0.00    -0.139 N  
HETATM   24  C   UNL     1     -10.852   6.661  72.988  1.00  0.00    -0.267 C  
HETATM   25  H   UNL     1      -9.245   7.298  73.967  1.00  0.00     0.000 HD 
HETATM   26  O   UNL     1     -11.581   7.166  73.847  1.00  0.00     0.776 OA 
BRANCH  24  27
HETATM   27  C   UNL     1     -11.429   6.151  71.657  1.00  0.00    -0.272 C  
BRANCH  27  28
HETATM   28  O   UNL     1     -11.762   7.010  70.578  1.00  0.00    -0.324 OA 
BRANCH  28  29
HETATM   29  C   UNL     1     -12.028   8.345  70.851  1.00  0.00    -0.177 A  
HETATM   30  C   UNL     1      -9.676   9.479  70.389  1.00  0.00    -0.328 C  
HETATM   31  C   UNL     1     -11.144   9.450  70.734  1.00  0.00    -0.365 A  
HETATM   32  C   UNL     1     -11.654  10.755  70.941  1.00  0.00    -0.233 A  
HETATM   33  C   UNL     1     -12.979  10.992  71.274  1.00  0.00    -0.472 A  
HETATM   34  C   UNL     1     -13.836   9.917  71.430  1.00  0.00    -0.090 A  
HETATM   35  C   UNL     1     -13.380   8.597  71.236  1.00  0.00    -0.176 A  
HETATM   36  C   UNL     1     -14.385   7.495  71.460  1.00  0.00    -0.603 C  
ENDBRANCH  28  29
ENDBRANCH  27  28
ENDBRANCH  24  27
ENDBRANCH  22  23
BRANCH  22  37
HETATM   37  C   UNL     1      -8.470   4.701  71.808  1.00  0.00    -0.117 C  
BRANCH  37  38
HETATM   38  C   UNL     1      -9.120   3.574  72.563  1.00  0.00    -0.129 A  
HETATM   39  C   UNL     1     -10.369   1.643  74.161  1.00  0.00    -0.153 A  
HETATM   40  C   UNL     1      -8.360   2.738  73.385  1.00  0.00    -0.071 A  
HETATM   41  C   UNL     1     -11.123   2.423  73.293  1.00  0.00    -0.255 A  
HETATM   42  C   UNL     1     -10.492   3.347  72.465  1.00  0.00    -0.136 A  
HETATM   43  C   UNL     1      -8.982   1.778  74.179  1.00  0.00    -0.067 A  
ENDBRANCH  37  38
ENDBRANCH  22  37
ENDBRANCH  19  22
ENDBRANCH  18  19
ENDBRANCH  17  18
BRANCH  17  44
HETATM   44  C   UNL     1      -5.135   7.424  68.913  1.00  0.00    -0.015 C  
BRANCH  44  45
HETATM   45  C   UNL     1      -5.453   8.906  68.863  1.00  0.00    -0.037 A  
HETATM   46  C   UNL     1      -5.376   9.710  70.013  1.00  0.00    -0.032 A  
HETATM   47  C   UNL     1      -5.859   9.499  67.661  1.00  0.00    -0.044 A  
HETATM   48  C   UNL     1      -5.737  11.061  69.965  1.00  0.00    -0.089 A  
HETATM   49  C   UNL     1      -6.215  10.849  67.614  1.00  0.00    -0.051 A  
HETATM   50  C   UNL     1      -6.163  11.628  68.766  1.00  0.00    -0.052 A  
ENDBRANCH  44  45
ENDBRANCH  17  44
ENDBRANCH  15  17
ENDBRANCH   3  13
TORSDOF 14
ENDMDL
MODEL      289
REMARK 921   NORMALIZED FREE ENERGY PREDICTED BY IDOCK:   -0.81 KCAL/MOL
REMARK 922        TOTAL FREE ENERGY PREDICTED BY IDOCK:   -6.02 KCAL/MOL
REMARK 923 INTER-LIGAND FREE ENERGY PREDICTED BY IDOCK:   -5.77 KCAL/MOL
REMARK 924 INTRA-LIGAND FREE ENERGY PREDICTED BY IDOCK:   -0.25 KCAL/MOL
REMARK 927      BINDING AFFINITY PREDICTED BY RF-SCORE:    0.00 PKD
ROOT
HETATM    1  C   UNL     1      -8.001  16.247  69.481  1.00  0.00     0.073 C  
HETATM    2  C   UNL     1      -8.198  14.763  69.135  1.00  0.00    -0.106 C  
HETATM    3  C   UNL     1      -9.619  14.508  68.544  1.00  0.00    -0.220 C  
HETATM    4  C   UNL     1      -7.057  14.323  68.216  1.00  0.00    -0.111 C  
ENDROOT
BRANCH   3   5
HETATM    5  N   UNL     1     -10.682  14.859  69.515  1.00  0.00    -0.250 N  
HETATM    6  H   UNL     1     -13.834  15.610  69.671  1.00  0.00     0.000 HD 
HETATM    7  O   UNL     1     -12.398  14.535  68.014  1.00  0.00    -0.172 OA 
HETATM    8  C   UNL     1     -10.374  14.998  70.933  1.00  0.00     0.515 C  
HETATM    9  C   UNL     1     -11.996  14.930  69.104  1.00  0.00    -0.278 C  
HETATM   10  C   UNL     1     -11.042  16.251  71.465  1.00  0.00     0.172 C  
HETATM   11  N   UNL     1     -12.862  15.537  69.969  1.00  0.00    -0.140 N  
HETATM   12  C   UNL     1     -12.535  16.088  71.268  1.00  0.00    -0.258 C  
ENDBRANCH   3   5
BRANCH   3  13
HETATM   13  C   UNL     1      -9.766  13.058  67.989  1.00  0.00    -0.224 C  
HETATM   14  O   UNL     1      -8.994  12.564  67.174  1.00  0.00    -0.186 OA 
HETATM   15  N   UNL     1     -10.894  12.390  68.419  1.00  0.00    -0.228 N  
HETATM   16  H   UNL     1     -11.470  12.868  69.111  1.00  0.00     0.000 HD 
BRANCH  15  17
HETATM   17  C   UNL     1     -11.355  11.071  67.991  1.00  0.00    -0.306 C  
BRANCH  17  18
HETATM   18  C   UNL     1     -11.512  10.059  69.147  1.00  0.00    -0.090 C  
BRANCH  18  19
HETATM   19  C   UNL     1     -10.338   9.624  70.062  1.00  0.00    -0.257 C  
HETATM   20  O   UNL     1     -10.141  10.610  71.079  1.00  0.00     0.683 OA 
HETATM   21  H   UNL     1      -9.421  10.344  71.639  1.00  0.00     0.000 HD 
BRANCH  19  22
HETATM   22  C   UNL     1      -8.995   9.507  69.240  1.00  0.00    -0.160 C  
BRANCH  22  23
HETATM   23  N   UNL     1      -7.778   9.976  69.995  1.00  0.00    -0.180 N  
HETATM   24  C   UNL     1      -6.989   9.539  71.037  1.00  0.00    -0.015 C  
HETATM   25  H   UNL     1      -7.444  10.869  69.633  1.00  0.00     0.000 HD 
HETATM   26  O   UNL     1      -5.897  10.089  71.211  1.00  0.00    -0.169 OA 
BRANCH  24  27
HETATM   27  C   UNL     1      -7.510   8.480  72.024  1.00  0.00    -0.084 C  
BRANCH  27  28
HETATM   28  O   UNL     1      -6.993   7.161  72.089  1.00  0.00    -0.066 OA 
BRANCH  28  29
HETATM   29  C   UNL     1      -7.834   6.103  71.774  1.00  0.00    -0.102 A  
HETATM   30  C   UNL     1      -9.653   6.255  73.698  1.00  0.00    -0.168 C  
HETATM   31  C   UNL     1      -9.027   5.713  72.437  1.00  0.00    -0.135 A  
HETATM   32  C   UNL     1      -9.810   4.675  71.875  1.00  0.00    -0.241 A  
HETATM   33  C   UNL     1      -9.446   4.013  70.713  1.00  0.00    -0.240 A  
HETATM   34  C   UNL     1      -8.263   4.361  70.084  1.00  0.00    -0.067 A  
HETATM   35  C   UNL     1      -7.446   5.386  70.602  1.00  0.00    -0.079 A  
HETATM   36  C   UNL     1      -6.162   5.667  69.859  1.00  0.00    -0.026 C  
ENDBRANCH  28  29
ENDBRANCH  27  28
ENDBRANCH  24  27
ENDBRANCH  22  23
BRANCH  22  37
HETATM   37  C   UNL     1      -8.884   8.174  68.450  1.00  0.00    -0.133 C  
BRANCH  37  38
HETATM   38  C   UNL     1      -7.935   8.224  67.284  1.00  0.00    -0.105 A  
HETATM   39  C   UNL     1      -6.372   8.362  64.965  1.00  0.00    -0.052 A  
HETATM   40  C   UNL     1      -7.623   7.063  66.573  1.00  0.00    -0.089 A  
HETATM   41  C   UNL     1      -6.619   9.509  65.708  1.00  0.00    -0.075 A  
HETATM   42  C   UNL     1      -7.354   9.428  66.887  1.00  0.00    -0.090 A  
HETATM   43  C   UNL     1      -6.845   7.132  65.419  1.00  0.00    -0.052 A  
ENDBRANCH  37  38
ENDBRANCH  22  37
ENDBRANCH  19  22
ENDBRANCH  18  19
ENDBRANCH  17  18
BRANCH  17  44
HETATM   44  C   UNL     1     -10.713  10.576  66.676  1.00  0.00    -0.222 C  
BRANCH  44  45
HETATM   45  C   UNL     1     -11.113  11.391  65.461  1.00  0.00    -0.203 A  
HETATM   46  C   UNL     1     -12.163  12.322  65.518  1.00  0.00    -0.242 A  
HETATM   47  C   UNL     1     -10.450  11.207  64.241  1.00  0.00    -0.427 A  
HETATM   48  C   UNL     1     -12.563  13.017  64.371  1.00  0.00    -0.356 A  
HETATM   49  C   UNL     1     -10.848  11.905  63.098  1.00  0.00    -0.294 A  
HETATM   50  C   UNL     1     -11.910  12.803  63.160  1.00  0.00    -0.314 A  
ENDBRANCH  44  45
ENDBRANCH  17  44
ENDBRANCH  15  17
ENDBRANCH   3  13
TORSDOF 14
ENDMDL
MODEL      290
REMARK 921   NORMALIZED FREE ENERGY PREDICTED BY IDOCK:   -0.79 KCAL/MOL
REMARK 922        TOTAL FREE ENERGY PREDICTED BY IDOCK:   -5.99 KCAL/MOL
REMARK 923 INTER-LIGAND FREE ENERGY PREDICTED BY IDOCK:   -8.95 KCAL/MOL
REMARK 924 INTRA-LIGAND FREE ENERGY PREDICTED BY IDOCK:    2.96 KCAL/MOL
REMARK 927      BINDING AFFINITY PREDICTED BY RF-SCORE:    0.00 PKD
ROOT
HETATM    1  C   UNL     1      -8.144   2.723  63.640  1.00  0.00    -0.082 C  
HETATM    2  C   UNL     1      -8.774   3.966  64.288  1.00  0.00    -0.110 C  
HETATM    3  C   UNL     1      -7.682   5.002  64.696  1.00  0.00    -0.081 C  
HETATM    4  C   UNL     1      -9.834   4.525  63.335  1.00  0.00     0.136 C  
ENDROOT
BRANCH   3   5
HETATM    5  N   UNL     1      -6.744   4.438  65.694  1.00  0.00    -0.051 N  
HETATM    6  H   UNL     1      -6.545   2.152  67.987  1.00  0.00     0.000 HD 
HETATM    7  O   UNL     1      -8.014   2.557  66.079  1.00  0.00    -0.080 OA 
HETATM    8  C   UNL     1      -5.417   5.015  65.872  1.00  0.00    -0.013 C  
HETATM    9  C   UNL     1      -7.069   3.283  66.373  1.00  0.00    -0.058 C  
HETATM   10  C   UNL     1      -5.133   5.158  67.355  1.00  0.00    -0.004 C  
HETATM   11  N   UNL     1      -6.304   2.996  67.467  1.00  0.00    -0.035 N  
HETATM   12  C   UNL     1      -5.186   3.772  67.962  1.00  0.00    -0.012 C  
ENDBRANCH   3   5
BRANCH   3  13
HETATM   13  C   UNL     1      -8.308   6.355  65.155  1.00  0.00    -0.109 C  
HETATM   14  O   UNL     1      -7.750   7.439  65.022  1.00  0.00    -0.099 OA 
HETATM   15  N   UNL     1      -9.516   6.236  65.811  1.00  0.00    -0.378 N  
HETATM   16  H   UNL     1      -9.917   5.299  65.859  1.00  0.00     0.000 HD 
BRANCH  15  17
HETATM   17  C   UNL     1     -10.285   7.304  66.445  1.00  0.00     0.066 C  
BRANCH  17  18
HETATM   18  C   UNL     1      -9.655   8.706  66.287  1.00  0.00    -0.322 C  
BRANCH  18  19
HETATM   19  C   UNL     1      -8.765   9.365  67.372  1.00  0.00    -0.125 C  
HETATM   20  O   UNL     1      -8.095   8.344  68.117  1.00  0.00    -0.117 OA 
HETATM   21  H   UNL     1      -7.549   8.747  68.783  1.00  0.00     0.000 HD 
BRANCH  19  22
HETATM   22  C   UNL     1      -9.638  10.204  68.385  1.00  0.00    -0.143 C  
BRANCH  22  23
HETATM   23  N   UNL     1     -10.844  10.853  67.755  1.00  0.00    -0.237 N  
HETATM   24  C   UNL     1     -11.163  12.050  67.150  1.00  0.00    -0.316 C  
HETATM   25  H   UNL     1     -11.651  10.231  67.784  1.00  0.00     0.000 HD 
HETATM   26  O   UNL     1     -12.219  12.117  66.513  1.00  0.00    -0.584 OA 
BRANCH  24  27
HETATM   27  C   UNL     1     -10.285  13.294  67.364  1.00  0.00    -0.229 C  
BRANCH  27  28
HETATM   28  O   UNL     1     -10.114  13.912  68.630  1.00  0.00    -0.228 OA 
BRANCH  28  29
HETATM   29  C   UNL     1      -9.441  15.125  68.690  1.00  0.00    -0.206 A  
HETATM   30  C   UNL     1      -6.909  14.359  68.513  1.00  0.00    -0.098 C  
HETATM   31  C   UNL     1      -8.043  15.350  68.598  1.00  0.00    -0.156 A  
HETATM   32  C   UNL     1      -7.570  16.684  68.554  1.00  0.00    -0.212 A  
HETATM   33  C   UNL     1      -8.419  17.778  68.620  1.00  0.00    -0.271 A  
HETATM   34  C   UNL     1      -9.780  17.565  68.751  1.00  0.00    -0.298 A  
HETATM   35  C   UNL     1     -10.304  16.258  68.800  1.00  0.00    -0.261 A  
HETATM   36  C   UNL     1     -11.797  16.134  68.976  1.00  0.00    -0.181 C  
ENDBRANCH  28  29
ENDBRANCH  27  28
ENDBRANCH  24  27
ENDBRANCH  22  23
BRANCH  22  37
HETATM   37  C   UNL     1      -9.835   9.489  69.750  1.00  0.00    -0.236 C  
BRANCH  37  38
HETATM   38  C   UNL     1     -11.090   9.885  70.479  1.00  0.00    -0.398 A  
HETATM   39  C   UNL     1     -13.274  10.716  72.022  1.00  0.00    -0.473 A  
HETATM   40  C   UNL     1     -11.701   9.001  71.371  1.00  0.00    -0.392 A  
HETATM   41  C   UNL     1     -12.717  11.575  71.084  1.00  0.00    -0.458 A  
HETATM   42  C   UNL     1     -11.663  11.141  70.285  1.00  0.00    -0.431 A  
HETATM   43  C   UNL     1     -12.788   9.415  72.138  1.00  0.00    -0.480 A  
ENDBRANCH  37  38
ENDBRANCH  22  37
ENDBRANCH  19  22
ENDBRANCH  18  19
ENDBRANCH  17  18
BRANCH  17  44
HETATM   44  C   UNL     1     -10.873   6.924  67.822  1.00  0.00    -0.312 C  
BRANCH  44  45
HETATM   45  C   UNL     1     -10.087   5.843  68.541  1.00  0.00    -0.210 A  
HETATM   46  C   UNL     1     -10.083   4.515  68.083  1.00  0.00    -0.031 A  
HETATM   47  C   UNL     1      -9.368   6.151  69.701  1.00  0.00    -0.156 A  
HETATM   48  C   UNL     1      -9.408   3.517  68.795  1.00  0.00    -0.233 A  
HETATM   49  C   UNL     1      -8.690   5.154  70.409  1.00  0.00    -0.130 A  
HETATM   50  C   UNL     1      -8.718   3.836  69.962  1.00  0.00    -0.119 A  
ENDBRANCH  44  45
ENDBRANCH  17  44
ENDBRANCH  15  17
ENDBRANCH   3  13
TORSDOF 14
ENDMDL
MODEL      291
REMARK 921   NORMALIZED FREE ENERGY PREDICTED BY IDOCK:   -0.77 KCAL/MOL
REMARK 922        TOTAL FREE ENERGY PREDICTED BY IDOCK:   -5.95 KCAL/MOL
REMARK 923 INTER-LIGAND FREE ENERGY PREDICTED BY IDOCK:   -6.31 KCAL/MOL
REMARK 924 INTRA-LIGAND FREE ENERGY PREDICTED BY IDOCK:    0.36 KCAL/MOL
REMARK 927      BINDING AFFINITY PREDICTED BY RF-SCORE:    0.00 PKD
ROOT
HETATM    1  C   UNL     1     -11.716  14.637  65.884  1.00  0.00    -0.301 C  
HETATM    2  C   UNL     1     -11.295  13.525  66.857  1.00  0.00    -0.350 C  
HETATM    3  C   UNL     1      -9.931  12.896  66.436  1.00  0.00    -0.267 C  
HETATM    4  C   UNL     1     -11.302  14.094  68.277  1.00  0.00    -0.319 C  
ENDROOT
BRANCH   3   5
HETATM    5  N   UNL     1     -10.012  12.272  65.094  1.00  0.00    -0.247 N  
HETATM    6  H   UNL     1     -12.064  10.678  63.152  1.00  0.00     0.000 HD 
HETATM    7  O   UNL     1     -12.308  12.096  65.126  1.00  0.00    -0.488 OA 
HETATM    8  C   UNL     1      -8.844  12.236  64.223  1.00  0.00     1.377 C  
HETATM    9  C   UNL     1     -11.226  11.836  64.607  1.00  0.00    -0.286 C  
HETATM   10  C   UNL     1      -8.721  10.851  63.617  1.00  0.00    -0.030 C  
HETATM   11  N   UNL     1     -11.174  11.020  63.513  1.00  0.00     0.066 N  
HETATM   12  C   UNL     1      -9.979  10.593  62.815  1.00  0.00    -0.071 C  
ENDBRANCH   3   5
BRANCH   3  13
HETATM   13  C   UNL     1      -9.382  11.920  67.521  1.00  0.00    -0.177 C  
HETATM   14  O   UNL     1      -8.519  12.230  68.336  1.00  0.00    -0.170 OA 
HETATM   15  N   UNL     1      -9.879  10.635  67.443  1.00  0.00    -0.167 N  
HETATM   16  H   UNL     1     -10.607  10.471  66.748  1.00  0.00     0.000 HD 
BRANCH  15  17
HETATM   17  C   UNL     1      -9.477   9.483  68.247  1.00  0.00    -0.133 C  
BRANCH  17  18
HETATM   18  C   UNL     1      -8.256   8.724  67.683  1.00  0.00    -0.110 C  
BRANCH  18  19
HETATM   19  C   UNL     1      -8.041   7.200  67.871  1.00  0.00    -0.119 C  
HETATM   20  O   UNL     1      -9.293   6.524  67.720  1.00  0.00    -0.120 OA 
HETATM   21  H   UNL     1      -9.162   5.590  67.835  1.00  0.00     0.000 HD 
BRANCH  19  22
HETATM   22  C   UNL     1      -7.494   6.880  69.316  1.00  0.00    -0.094 C  
BRANCH  22  23
HETATM   23  N   UNL     1      -7.166   8.109  70.127  1.00  0.00    -0.055 N  
HETATM   24  C   UNL     1      -7.311   8.547  71.426  1.00  0.00    -0.095 C  
HETATM   25  H   UNL     1      -6.709   8.815  69.552  1.00  0.00     0.000 HD 
HETATM   26  O   UNL     1      -6.671   9.541  71.780  1.00  0.00    -0.304 OA 
BRANCH  24  27
HETATM   27  C   UNL     1      -8.332   7.884  72.366  1.00  0.00    -0.138 C  
BRANCH  27  28
HETATM   28  O   UNL     1      -7.960   7.004  73.415  1.00  0.00    -0.096 OA 
BRANCH  28  29
HETATM   29  C   UNL     1      -8.217   5.648  73.264  1.00  0.00    -0.117 A  
HETATM   30  C   UNL     1      -5.803   4.687  72.735  1.00  0.00    -0.012 C  
HETATM   31  C   UNL     1      -7.284   4.608  73.009  1.00  0.00    -0.080 A  
HETATM   32  C   UNL     1      -7.739   3.267  73.017  1.00  0.00    -0.060 A  
HETATM   33  C   UNL     1      -9.065   2.933  73.244  1.00  0.00    -0.095 A  
HETATM   34  C   UNL     1      -9.987   3.944  73.452  1.00  0.00    -0.181 A  
HETATM   35  C   UNL     1      -9.587   5.295  73.454  1.00  0.00    -0.148 A  
HETATM   36  C   UNL     1     -10.675   6.321  73.659  1.00  0.00    -0.229 C  
ENDBRANCH  28  29
ENDBRANCH  27  28
ENDBRANCH  24  27
ENDBRANCH  22  23
BRANCH  22  37
HETATM   37  C   UNL     1      -8.277   5.740  70.022  1.00  0.00    -0.115 C  
BRANCH  37  38
HETATM   38  C   UNL     1      -8.118   4.390  69.377  1.00  0.00    -0.061 A  
HETATM   39  C   UNL     1      -7.848   1.775  68.412  1.00  0.00    -0.055 A  
HETATM   40  C   UNL     1      -6.852   3.816  69.237  1.00  0.00    -0.045 A  
HETATM   41  C   UNL     1      -9.103   2.367  68.482  1.00  0.00    -0.207 A  
HETATM   42  C   UNL     1      -9.227   3.684  68.915  1.00  0.00    -0.223 A  
HETATM   43  C   UNL     1      -6.719   2.515  68.756  1.00  0.00    -0.033 A  
ENDBRANCH  37  38
ENDBRANCH  22  37
ENDBRANCH  19  22
ENDBRANCH  18  19
ENDBRANCH  17  18
BRANCH  17  44
HETATM   44  C   UNL     1     -10.660   8.652  68.791  1.00  0.00    -0.169 C  
BRANCH  44  45
HETATM   45  C   UNL     1     -11.374   9.304  69.960  1.00  0.00    -0.137 A  
HETATM   46  C   UNL     1     -11.692  10.672  69.952  1.00  0.00    -0.395 A  
HETATM   47  C   UNL     1     -11.706   8.548  71.091  1.00  0.00    -0.322 A  
HETATM   48  C   UNL     1     -12.290  11.271  71.066  1.00  0.00    -0.472 A  
HETATM   49  C   UNL     1     -12.307   9.147  72.201  1.00  0.00    -0.424 A  
HETATM   50  C   UNL     1     -12.591  10.510  72.193  1.00  0.00    -0.032 A  
ENDBRANCH  44  45
ENDBRANCH  17  44
ENDBRANCH  15  17
ENDBRANCH   3  13
TORSDOF 14
ENDMDL
MODEL      292
REMARK 921   NORMALIZED FREE ENERGY PREDICTED BY IDOCK:   -0.67 KCAL/MOL
REMARK 922        TOTAL FREE ENERGY PREDICTED BY IDOCK:   -5.78 KCAL/MOL
REMARK 923 INTER-LIGAND FREE ENERGY PREDICTED BY IDOCK:   -6.89 KCAL/MOL
REMARK 924 INTRA-LIGAND FREE ENERGY PREDICTED BY IDOCK:    1.11 KCAL/MOL
REMARK 927      BINDING AFFINITY PREDICTED BY RF-SCORE:    0.00 PKD
ROOT
HETATM    1  C   UNL     1      -8.871  15.107  68.064  1.00  0.00    -0.170 C  
HETATM    2  C   UNL     1      -8.680  13.659  68.540  1.00  0.00    -0.102 C  
HETATM    3  C   UNL     1      -9.925  12.785  68.194  1.00  0.00    -0.229 C  
HETATM    4  C   UNL     1      -7.369  13.126  67.960  1.00  0.00    -0.125 C  
ENDROOT
BRANCH   3   5
HETATM    5  N   UNL     1     -11.147  13.290  68.863  1.00  0.00    -0.258 N  
HETATM    6  H   UNL     1     -13.517  15.477  68.512  1.00  0.00     0.000 HD 
HETATM    7  O   UNL     1     -11.892  14.440  67.013  1.00  0.00    -0.391 OA 
HETATM    8  C   UNL     1     -11.554  12.760  70.159  1.00  0.00    -0.052 C  
HETATM    9  C   UNL     1     -11.979  14.172  68.207  1.00  0.00    -0.332 C  
HETATM   10  C   UNL     1     -11.946  13.913  71.064  1.00  0.00    -0.262 C  
HETATM   11  N   UNL     1     -12.905  14.810  68.983  1.00  0.00     0.477 N  
HETATM   12  C   UNL     1     -13.104  14.633  70.406  1.00  0.00    -0.115 C  
ENDBRANCH   3   5
BRANCH   3  13
HETATM   13  C   UNL     1      -9.668  11.272  68.472  1.00  0.00    -0.198 C  
HETATM   14  O   UNL     1     -10.446  10.382  68.147  1.00  0.00    -0.166 OA 
HETATM   15  N   UNL     1      -8.525  11.008  69.200  1.00  0.00    -0.356 N  
HETATM   16  H   UNL     1      -7.926  11.806  69.411  1.00  0.00     0.000 HD 
BRANCH  15  17
HETATM   17  C   UNL     1      -8.079   9.710  69.703  1.00  0.00    -0.141 C  
BRANCH  17  18
HETATM   18  C   UNL     1      -6.544   9.539  69.714  1.00  0.00    -0.051 C  
BRANCH  18  19
HETATM   19  C   UNL     1      -5.823   8.299  69.126  1.00  0.00    -0.035 C  
HETATM   20  O   UNL     1      -5.544   8.526  67.742  1.00  0.00    -0.034 OA 
HETATM   21  H   UNL     1      -5.102   7.766  67.382  1.00  0.00     0.000 HD 
BRANCH  19  22
HETATM   22  C   UNL     1      -6.736   7.014  69.227  1.00  0.00    -0.049 C  
BRANCH  22  23
HETATM   23  N   UNL     1      -6.916   6.293  67.915  1.00  0.00    -0.070 N  
HETATM   24  C   UNL     1      -7.339   6.584  66.637  1.00  0.00    -0.078 C  
HETATM   25  H   UNL     1      -6.648   5.312  67.998  1.00  0.00     0.000 HD 
HETATM   26  O   UNL     1      -7.098   5.767  65.743  1.00  0.00    -0.066 OA 
BRANCH  24  27
HETATM   27  C   UNL     1      -8.192   7.834  66.360  1.00  0.00    -0.116 C  
BRANCH  27  28
HETATM   28  O   UNL     1      -7.634   9.089  66.006  1.00  0.00    -0.093 OA 
BRANCH  28  29
HETATM   29  C   UNL     1      -8.039   9.684  64.820  1.00  0.00    -0.139 A  
HETATM   30  C   UNL     1     -10.560  10.309  65.350  1.00  0.00    -0.002 C  
HETATM   31  C   UNL     1      -9.300  10.264  64.523  1.00  0.00    -0.328 A  
HETATM   32  C   UNL     1      -9.466  10.936  63.287  1.00  0.00    -0.347 A  
HETATM   33  C   UNL     1      -8.451  11.031  62.348  1.00  0.00    -0.319 A  
HETATM   34  C   UNL     1      -7.232  10.432  62.614  1.00  0.00    -0.140 A  
HETATM   35  C   UNL     1      -7.013   9.750  63.828  1.00  0.00    -0.119 A  
HETATM   36  C   UNL     1      -5.660   9.106  64.007  1.00  0.00    -0.069 C  
ENDBRANCH  28  29
ENDBRANCH  27  28
ENDBRANCH  24  27
ENDBRANCH  22  23
BRANCH  22  37
HETATM   37  C   UNL     1      -6.436   6.156  70.486  1.00  0.00    -0.043 C  
BRANCH  37  38
HETATM   38  C   UNL     1      -6.869   4.721  70.373  1.00  0.00    -0.037 A  
HETATM   39  C   UNL     1      -7.620   2.063  69.911  1.00  0.00    -0.043 A  
HETATM   40  C   UNL     1      -8.201   4.400  70.104  1.00  0.00    -0.067 A  
HETATM   41  C   UNL     1      -6.308   2.367  70.249  1.00  0.00    -0.024 A  
HETATM   42  C   UNL     1      -5.950   3.683  70.526  1.00  0.00    -0.018 A  
HETATM   43  C   UNL     1      -8.574   3.077  69.875  1.00  0.00    -0.110 A  
ENDBRANCH  37  38
ENDBRANCH  22  37
ENDBRANCH  19  22
ENDBRANCH  18  19
ENDBRANCH  17  18
BRANCH  17  44
HETATM   44  C   UNL     1      -8.939   8.521  69.222  1.00  0.00    -0.146 C  
BRANCH  44  45
HETATM   45  C   UNL     1     -10.018   8.113  70.208  1.00  0.00    -0.189 A  
HETATM   46  C   UNL     1     -10.399   8.956  71.265  1.00  0.00    -0.355 A  
HETATM   47  C   UNL     1     -10.639   6.864  70.093  1.00  0.00    -0.249 A  
HETATM   48  C   UNL     1     -11.348   8.538  72.204  1.00  0.00    -0.442 A  
HETATM   49  C   UNL     1     -11.590   6.449  71.029  1.00  0.00    -0.386 A  
HETATM   50  C   UNL     1     -11.938   7.281  72.090  1.00  0.00    -0.307 A  
ENDBRANCH  44  45
ENDBRANCH  17  44
ENDBRANCH  15  17
ENDBRANCH   3  13
TORSDOF 14
ENDMDL
MODEL      293
REMARK 921   NORMALIZED FREE ENERGY PREDICTED BY IDOCK:   -0.39 KCAL/MOL
REMARK 922        TOTAL FREE ENERGY PREDICTED BY IDOCK:   -5.26 KCAL/MOL
REMARK 923 INTER-LIGAND FREE ENERGY PREDICTED BY IDOCK:   -5.11 KCAL/MOL
REMARK 924 INTRA-LIGAND FREE ENERGY PREDICTED BY IDOCK:   -0.15 KCAL/MOL
REMARK 927      BINDING AFFINITY PREDICTED BY RF-SCORE:    0.00 PKD
ROOT
HETATM    1  C   UNL     1      -6.498   7.656  73.434  1.00  0.00    -0.069 C  
HETATM    2  C   UNL     1      -6.107   8.729  72.406  1.00  0.00    -0.066 C  
HETATM    3  C   UNL     1      -7.195   8.867  71.297  1.00  0.00    -0.097 C  
HETATM    4  C   UNL     1      -5.814  10.032  73.151  1.00  0.00     0.715 C  
ENDROOT
BRANCH   3   5
HETATM    5  N   UNL     1      -7.366   7.603  70.542  1.00  0.00    -0.072 N  
HETATM    6  H   UNL     1      -9.659   5.587  69.447  1.00  0.00     0.000 HD 
HETATM    7  O   UNL     1      -9.623   7.907  70.207  1.00  0.00    -0.171 OA 
HETATM    8  C   UNL     1      -6.203   6.847  70.092  1.00  0.00    -0.031 C  
HETATM    9  C   UNL     1      -8.623   7.198  70.148  1.00  0.00    -0.140 C  
HETATM   10  C   UNL     1      -6.421   5.377  70.395  1.00  0.00    -0.034 C  
HETATM   11  N   UNL     1      -8.730   5.903  69.727  1.00  0.00    -0.127 N  
HETATM   12  C   UNL     1      -7.656   4.936  69.639  1.00  0.00    -0.056 C  
ENDBRANCH   3   5
BRANCH   3  13
HETATM   13  C   UNL     1      -6.926  10.091  70.368  1.00  0.00    -0.131 C  
HETATM   14  O   UNL     1      -6.650  11.210  70.787  1.00  0.00    -0.189 OA 
HETATM   15  N   UNL     1      -7.111   9.843  69.023  1.00  0.00    -0.065 N  
HETATM   16  H   UNL     1      -7.321   8.879  68.763  1.00  0.00     0.000 HD 
BRANCH  15  17
HETATM   17  C   UNL     1      -7.039  10.810  67.930  1.00  0.00    -0.085 C  
BRANCH  17  18
HETATM   18  C   UNL     1      -7.855  10.404  66.683  1.00  0.00    -0.120 C  
BRANCH  18  19
HETATM   19  C   UNL     1      -9.202   9.640  66.760  1.00  0.00    -0.149 C  
HETATM   20  O   UNL     1      -9.369   9.108  68.078  1.00  0.00    -0.137 OA 
HETATM   21  H   UNL     1     -10.194   8.640  68.126  1.00  0.00     0.000 HD 
BRANCH  19  22
HETATM   22  C   UNL     1      -9.223   8.428  65.748  1.00  0.00    -0.111 C  
BRANCH  22  23
HETATM   23  N   UNL     1      -8.646   8.758  64.394  1.00  0.00    -0.348 N  
HETATM   24  C   UNL     1      -8.665   9.809  63.502  1.00  0.00    -0.222 C  
HETATM   25  H   UNL     1      -8.084   7.986  64.038  1.00  0.00     0.000 HD 
HETATM   26  O   UNL     1      -7.839   9.808  62.584  1.00  0.00    -0.116 OA 
BRANCH  24  27
HETATM   27  C   UNL     1      -9.760  10.885  63.583  1.00  0.00    -0.329 C  
BRANCH  27  28
HETATM   28  O   UNL     1      -9.555  12.155  64.180  1.00  0.00    -0.104 OA 
BRANCH  28  29
HETATM   29  C   UNL     1     -10.663  12.867  64.621  1.00  0.00    -0.353 A  
HETATM   30  C   UNL     1     -12.601  11.852  63.123  1.00  0.00    -0.329 C  
HETATM   31  C   UNL     1     -12.012  12.723  64.205  1.00  0.00    -0.499 A  
HETATM   32  C   UNL     1     -13.015  13.465  64.876  1.00  0.00    -0.177 A  
HETATM   33  C   UNL     1     -12.725  14.341  65.910  1.00  0.00    -0.310 A  
HETATM   34  C   UNL     1     -11.407  14.517  66.293  1.00  0.00    -0.352 A  
HETATM   35  C   UNL     1     -10.371  13.804  65.658  1.00  0.00    -0.321 A  
HETATM   36  C   UNL     1      -8.966  14.091  66.129  1.00  0.00     0.179 C  
ENDBRANCH  28  29
ENDBRANCH  27  28
ENDBRANCH  24  27
ENDBRANCH  22  23
BRANCH  22  37
HETATM   37  C   UNL     1      -8.800   7.085  66.403  1.00  0.00    -0.158 C  
BRANCH  37  38
HETATM   38  C   UNL     1      -8.901   5.894  65.490  1.00  0.00    -0.100 A  
HETATM   39  C   UNL     1      -8.984   3.537  63.981  1.00  0.00    -0.102 A  
HETATM   40  C   UNL     1      -7.850   5.569  64.629  1.00  0.00    -0.108 A  
HETATM   41  C   UNL     1     -10.063   3.891  64.780  1.00  0.00    -0.203 A  
HETATM   42  C   UNL     1     -10.038   5.088  65.491  1.00  0.00    -0.022 A  
HETATM   43  C   UNL     1      -7.893   4.396  63.878  1.00  0.00    -0.088 A  
ENDBRANCH  37  38
ENDBRANCH  22  37
ENDBRANCH  19  22
ENDBRANCH  18  19
ENDBRANCH  17  18
BRANCH  17  44
HETATM   44  C   UNL     1      -5.633  11.410  67.713  1.00  0.00    -0.046 C  
BRANCH  44  45
HETATM   45  C   UNL     1      -5.519  12.861  68.142  1.00  0.00    -0.085 A  
HETATM   46  C   UNL     1      -5.585  13.907  67.206  1.00  0.00     0.532 A  
HETATM   47  C   UNL     1      -5.317  13.183  69.489  1.00  0.00    -0.079 A  
HETATM   48  C   UNL     1      -5.412  15.236  67.609  1.00  0.00    -0.042 A  
HETATM   49  C   UNL     1      -5.148  14.511  69.890  1.00  0.00    -0.092 A  
HETATM   50  C   UNL     1      -5.186  15.537  68.950  1.00  0.00    -0.099 A  
ENDBRANCH  44  45
ENDBRANCH  17  44
ENDBRANCH  15  17
ENDBRANCH   3  13
TORSDOF 14
ENDMDL
MODEL      294
REMARK 921   NORMALIZED FREE ENERGY PREDICTED BY IDOCK:   -0.29 KCAL/MOL
REMARK 922        TOTAL FREE ENERGY PREDICTED BY IDOCK:   -5.08 KCAL/MOL
REMARK 923 INTER-LIGAND FREE ENERGY PREDICTED BY IDOCK:   -6.41 KCAL/MOL
REMARK 924 INTRA-LIGAND FREE ENERGY PREDICTED BY IDOCK:    1.33 KCAL/MOL
REMARK 927      BINDING AFFINITY PREDICTED BY RF-SCORE:    0.00 PKD
ROOT
HETATM    1  C   UNL     1     -10.390  19.184  66.080  1.00  0.00    -0.538 C  
HETATM    2  C   UNL     1      -9.594  17.888  65.864  1.00  0.00     0.034 C  
HETATM    3  C   UNL     1      -8.265  17.903  66.680  1.00  0.00    -0.258 C  
HETATM    4  C   UNL     1     -10.504  16.700  66.185  1.00  0.00    -0.291 C  
ENDROOT
BRANCH   3   5
HETATM    5  N   UNL     1      -7.381  19.015  66.258  1.00  0.00    -0.249 N  
HETATM    6  H   UNL     1      -6.828  22.166  66.795  1.00  0.00     0.000 HD 
HETATM    7  O   UNL     1      -7.992  20.390  68.001  1.00  0.00    -0.201 OA 
HETATM    8  C   UNL     1      -6.377  18.810  65.221  1.00  0.00    -0.274 C  
HETATM    9  C   UNL     1      -7.412  20.216  66.933  1.00  0.00    -0.281 C  
HETATM   10  C   UNL     1      -6.422  19.976  64.252  1.00  0.00    -0.067 C  
HETATM   11  N   UNL     1      -6.799  21.268  66.313  1.00  0.00    -0.014 N  
HETATM   12  C   UNL     1      -6.111  21.232  65.039  1.00  0.00    -0.032 C  
ENDBRANCH   3   5
BRANCH   3  13
HETATM   13  C   UNL     1      -7.547  16.518  66.648  1.00  0.00    -0.275 C  
HETATM   14  O   UNL     1      -6.617  16.255  65.894  1.00  0.00     0.738 OA 
HETATM   15  N   UNL     1      -8.100  15.566  67.480  1.00  0.00    -0.153 N  
HETATM   16  H   UNL     1      -8.859  15.877  68.086  1.00  0.00     0.000 HD 
BRANCH  15  17
HETATM   17  C   UNL     1      -7.718  14.159  67.588  1.00  0.00    -0.174 C  
BRANCH  17  18
HETATM   18  C   UNL     1      -8.431  13.239  66.573  1.00  0.00     0.270 C  
BRANCH  18  19
HETATM   19  C   UNL     1      -9.440  12.137  66.987  1.00  0.00    -0.201 C  
HETATM   20  O   UNL     1     -10.717  12.734  67.232  1.00  0.00    -0.234 OA 
HETATM   21  H   UNL     1     -11.335  12.058  67.486  1.00  0.00     0.000 HD 
BRANCH  19  22
HETATM   22  C   UNL     1      -8.980  11.422  68.318  1.00  0.00    -0.175 C  
BRANCH  22  23
HETATM   23  N   UNL     1     -10.123  10.999  69.205  1.00  0.00    -0.398 N  
HETATM   24  C   UNL     1     -10.391  10.010  70.128  1.00  0.00    -0.266 C  
HETATM   25  H   UNL     1     -10.925  11.618  69.090  1.00  0.00     0.000 HD 
HETATM   26  O   UNL     1     -11.379  10.145  70.855  1.00  0.00    -0.332 OA 
BRANCH  24  27
HETATM   27  C   UNL     1      -9.548   8.724  70.164  1.00  0.00    -0.173 C  
BRANCH  27  28
HETATM   28  O   UNL     1      -9.166   8.083  71.370  1.00  0.00    -0.135 OA 
BRANCH  28  29
HETATM   29  C   UNL     1      -9.573   6.773  71.583  1.00  0.00    -0.162 A  
HETATM   30  C   UNL     1      -8.123   5.449  69.801  1.00  0.00    -0.096 C  
HETATM   31  C   UNL     1      -9.101   5.599  70.940  1.00  0.00    -0.160 A  
HETATM   32  C   UNL     1      -9.561   4.340  71.397  1.00  0.00    -0.239 A  
HETATM   33  C   UNL     1     -10.471   4.212  72.435  1.00  0.00    -0.172 A  
HETATM   34  C   UNL     1     -10.966   5.355  73.039  1.00  0.00    -0.348 A  
HETATM   35  C   UNL     1     -10.542   6.632  72.623  1.00  0.00    -0.249 A  
HETATM   36  C   UNL     1     -11.166   7.814  73.324  1.00  0.00    -0.106 C  
ENDBRANCH  28  29
ENDBRANCH  27  28
ENDBRANCH  24  27
ENDBRANCH  22  23
BRANCH  22  37
HETATM   37  C   UNL     1      -7.829  10.405  68.092  1.00  0.00    -0.108 C  
BRANCH  37  38
HETATM   38  C   UNL     1      -7.984   9.560  66.857  1.00  0.00    -0.109 A  
HETATM   39  C   UNL     1      -8.448   8.158  64.478  1.00  0.00    -0.013 A  
HETATM   40  C   UNL     1      -8.926   8.529  66.817  1.00  0.00    -0.173 A  
HETATM   41  C   UNL     1      -7.460   9.133  64.531  1.00  0.00    -0.101 A  
HETATM   42  C   UNL     1      -7.199   9.793  65.729  1.00  0.00    -0.104 A  
HETATM   43  C   UNL     1      -9.155   7.832  65.633  1.00  0.00     0.010 A  
ENDBRANCH  37  38
ENDBRANCH  22  37
ENDBRANCH  19  22
ENDBRANCH  18  19
ENDBRANCH  17  18
BRANCH  17  44
HETATM   44  C   UNL     1      -7.567  13.659  69.041  1.00  0.00     0.056 C  
BRANCH  44  45
HETATM   45  C   UNL     1      -6.679  14.540  69.899  1.00  0.00    -0.132 A  
HETATM   46  C   UNL     1      -6.018  14.031  71.029  1.00  0.00    -0.172 A  
HETATM   47  C   UNL     1      -6.523  15.896  69.588  1.00  0.00    -0.186 A  
HETATM   48  C   UNL     1      -5.256  14.872  71.848  1.00  0.00    -0.086 A  
HETATM   49  C   UNL     1      -5.758  16.733  70.405  1.00  0.00    -0.115 A  
HETATM   50  C   UNL     1      -5.132  16.225  71.540  1.00  0.00     0.035 A  
ENDBRANCH  44  45
ENDBRANCH  17  44
ENDBRANCH  15  17
ENDBRANCH   3  13
TORSDOF 14
ENDMDL
MODEL      295
REMARK 921   NORMALIZED FREE ENERGY PREDICTED BY IDOCK:   -0.27 KCAL/MOL
REMARK 922        TOTAL FREE ENERGY PREDICTED BY IDOCK:   -5.05 KCAL/MOL
REMARK 923 INTER-LIGAND FREE ENERGY PREDICTED BY IDOCK:   -6.90 KCAL/MOL
REMARK 924 INTRA-LIGAND FREE ENERGY PREDICTED BY IDOCK:    1.84 KCAL/MOL
REMARK 927      BINDING AFFINITY PREDICTED BY RF-SCORE:    0.00 PKD
ROOT
HETATM    1  C   UNL     1     -11.716  12.828  70.662  1.00  0.00     0.190 C  
HETATM    2  C   UNL     1     -11.672  11.537  69.830  1.00  0.00    -0.420 C  
HETATM    3  C   UNL     1     -10.336  11.427  69.033  1.00  0.00    -0.142 C  
HETATM    4  C   UNL     1     -11.939  10.351  70.760  1.00  0.00    -0.462 C  
ENDROOT
BRANCH   3   5
HETATM    5  N   UNL     1     -10.179  12.549  68.078  1.00  0.00    -0.218 N  
HETATM    6  H   UNL     1      -8.175  14.987  67.328  1.00  0.00     0.000 HD 
HETATM    7  O   UNL     1      -7.970  12.918  68.609  1.00  0.00    -0.114 OA 
HETATM    8  C   UNL     1     -11.209  12.824  67.084  1.00  0.00    -0.292 C  
HETATM    9  C   UNL     1      -8.999  13.261  68.036  1.00  0.00    -0.191 C  
HETATM   10  C   UNL     1     -11.477  14.316  67.048  1.00  0.00    -0.377 C  
HETATM   11  N   UNL     1      -9.038  14.443  67.353  1.00  0.00    -0.190 N  
HETATM   12  C   UNL     1     -10.182  15.000  66.662  1.00  0.00    -0.268 C  
ENDBRANCH   3   5
BRANCH   3  13
HETATM   13  C   UNL     1     -10.178  10.032  68.355  1.00  0.00    -0.172 C  
HETATM   14  O   UNL     1      -9.919   9.882  67.166  1.00  0.00    -0.180 OA 
HETATM   15  N   UNL     1     -10.440   8.958  69.182  1.00  0.00    -0.227 N  
HETATM   16  H   UNL     1     -10.627   9.173  70.161  1.00  0.00     0.000 HD 
BRANCH  15  17
HETATM   17  C   UNL     1     -10.478   7.546  68.809  1.00  0.00    -0.194 C  
BRANCH  17  18
HETATM   18  C   UNL     1     -10.518   7.303  67.284  1.00  0.00    -0.380 C  
BRANCH  18  19
HETATM   19  C   UNL     1     -10.401   5.896  66.643  1.00  0.00    -0.226 C  
HETATM   20  O   UNL     1     -10.751   4.905  67.614  1.00  0.00     0.057 OA 
HETATM   21  H   UNL     1     -10.680   4.042  67.222  1.00  0.00     0.000 HD 
BRANCH  19  22
HETATM   22  C   UNL     1      -8.921   5.609  66.177  1.00  0.00    -0.151 C  
BRANCH  22  23
HETATM   23  N   UNL     1      -8.347   4.329  66.730  1.00  0.00    -0.101 N  
HETATM   24  C   UNL     1      -7.214   3.921  67.400  1.00  0.00    -0.067 C  
HETATM   25  H   UNL     1      -8.974   3.544  66.561  1.00  0.00     0.000 HD 
HETATM   26  O   UNL     1      -7.218   2.803  67.924  1.00  0.00    -0.049 OA 
BRANCH  24  27
HETATM   27  C   UNL     1      -5.943   4.788  67.390  1.00  0.00    -0.023 C  
BRANCH  27  28
HETATM   28  O   UNL     1      -5.964   6.194  67.578  1.00  0.00    -0.016 OA 
BRANCH  28  29
HETATM   29  C   UNL     1      -5.964   6.689  68.874  1.00  0.00    -0.022 A  
HETATM   30  C   UNL     1      -6.466   9.263  68.480  1.00  0.00    -0.053 C  
HETATM   31  C   UNL     1      -6.224   8.019  69.298  1.00  0.00    -0.035 A  
HETATM   32  C   UNL     1      -6.300   8.288  70.686  1.00  0.00    -0.036 A  
HETATM   33  C   UNL     1      -6.111   7.307  71.647  1.00  0.00    -0.037 A  
HETATM   34  C   UNL     1      -5.817   6.018  71.241  1.00  0.00    -0.026 A  
HETATM   35  C   UNL     1      -5.728   5.695  69.872  1.00  0.00    -0.016 A  
HETATM   36  C   UNL     1      -5.372   4.268  69.536  1.00  0.00    -0.008 C  
ENDBRANCH  28  29
ENDBRANCH  27  28
ENDBRANCH  24  27
ENDBRANCH  22  23
BRANCH  22  37
HETATM   37  C   UNL     1      -8.693   5.908  64.670  1.00  0.00     0.116 C  
BRANCH  37  38
HETATM   38  C   UNL     1      -8.158   7.285  64.387  1.00  0.00    -0.065 A  
HETATM   39  C   UNL     1      -6.926   9.744  63.857  1.00  0.00    -0.119 A  
HETATM   40  C   UNL     1      -7.800   8.137  65.436  1.00  0.00    -0.115 A  
HETATM   41  C   UNL     1      -7.345   8.934  62.809  1.00  0.00    -0.096 A  
HETATM   42  C   UNL     1      -8.000   7.735  63.077  1.00  0.00    -0.123 A  
HETATM   43  C   UNL     1      -7.189   9.360  65.171  1.00  0.00    -0.101 A  
ENDBRANCH  37  38
ENDBRANCH  22  37
ENDBRANCH  19  22
ENDBRANCH  18  19
ENDBRANCH  17  18
BRANCH  17  44
HETATM   44  C   UNL     1     -11.394   6.683  69.705  1.00  0.00    -0.387 C  
BRANCH  44  45
HETATM   45  C   UNL     1     -10.833   6.442  71.094  1.00  0.00    -0.308 A  
HETATM   46  C   UNL     1     -10.028   5.325  71.373  1.00  0.00    -0.245 A  
HETATM   47  C   UNL     1     -11.134   7.326  72.137  1.00  0.00    -0.281 A  
HETATM   48  C   UNL     1      -9.574   5.081  72.674  1.00  0.00    -0.165 A  
HETATM   49  C   UNL     1     -10.676   7.082  73.435  1.00  0.00    -0.379 A  
HETATM   50  C   UNL     1      -9.904   5.956  73.706  1.00  0.00    -0.179 A  
ENDBRANCH  44  45
ENDBRANCH  17  44
ENDBRANCH  15  17
ENDBRANCH   3  13
TORSDOF 14
ENDMDL
MODEL      296
REMARK 921   NORMALIZED FREE ENERGY PREDICTED BY IDOCK:   -0.26 KCAL/MOL
REMARK 922        TOTAL FREE ENERGY PREDICTED BY IDOCK:   -5.02 KCAL/MOL
REMARK 923 INTER-LIGAND FREE ENERGY PREDICTED BY IDOCK:   -5.79 KCAL/MOL
REMARK 924 INTRA-LIGAND FREE ENERGY PREDICTED BY IDOCK:    0.77 KCAL/MOL
REMARK 927      BINDING AFFINITY PREDICTED BY RF-SCORE:    0.00 PKD
ROOT
HETATM    1  C   UNL     1     -12.196  11.640  70.701  1.00  0.00    -0.461 C  
HETATM    2  C   UNL     1     -11.152  11.183  69.671  1.00  0.00    -0.297 C  
HETATM    3  C   UNL     1     -11.490   9.763  69.121  1.00  0.00     0.099 C  
HETATM    4  C   UNL     1     -11.037  12.256  68.586  1.00  0.00    -0.291 C  
ENDROOT
BRANCH   3   5
HETATM    5  N   UNL     1     -11.489   8.747  70.200  1.00  0.00    -0.102 N  
HETATM    6  H   UNL     1      -9.954   6.053  71.152  1.00  0.00     0.000 HD 
HETATM    7  O   UNL     1      -9.438   7.879  69.616  1.00  0.00    -0.160 OA 
HETATM    8  C   UNL     1     -12.480   8.801  71.267  1.00  0.00    -0.260 C  
HETATM    9  C   UNL     1     -10.472   7.820  70.274  1.00  0.00    -0.225 C  
HETATM   10  C   UNL     1     -13.032   7.407  71.500  1.00  0.00    -0.421 C  
HETATM   11  N   UNL     1     -10.693   6.754  71.100  1.00  0.00    -0.225 N  
HETATM   12  C   UNL     1     -11.872   6.522  71.908  1.00  0.00    -0.334 C  
ENDBRANCH   3   5
BRANCH   3  13
HETATM   13  C   UNL     1     -10.571   9.370  67.923  1.00  0.00    -0.237 C  
HETATM   14  O   UNL     1     -10.888   8.551  67.067  1.00  0.00    -0.211 OA 
HETATM   15  N   UNL     1      -9.320   9.953  67.944  1.00  0.00    -0.137 N  
HETATM   16  H   UNL     1      -9.149  10.636  68.681  1.00  0.00     0.000 HD 
BRANCH  15  17
HETATM   17  C   UNL     1      -8.213   9.698  67.025  1.00  0.00    -0.117 C  
BRANCH  17  18
HETATM   18  C   UNL     1      -8.626   8.941  65.744  1.00  0.00    -0.181 C  
BRANCH  18  19
HETATM   19  C   UNL     1      -8.461   7.409  65.572  1.00  0.00    -0.118 C  
HETATM   20  O   UNL     1      -9.694   6.761  65.898  1.00  0.00    -0.391 OA 
HETATM   21  H   UNL     1      -9.593   5.822  65.793  1.00  0.00     0.000 HD 
BRANCH  19  22
HETATM   22  C   UNL     1      -7.351   6.848  66.544  1.00  0.00    -0.073 C  
BRANCH  22  23
HETATM   23  N   UNL     1      -7.870   5.843  67.542  1.00  0.00    -0.097 N  
HETATM   24  C   UNL     1      -7.619   5.472  68.845  1.00  0.00    -0.087 C  
HETATM   25  H   UNL     1      -8.618   5.280  67.139  1.00  0.00     0.000 HD 
HETATM   26  O   UNL     1      -8.447   4.756  69.417  1.00  0.00    -0.082 OA 
BRANCH  24  27
HETATM   27  C   UNL     1      -6.288   5.841  69.522  1.00  0.00    -0.040 C  
BRANCH  27  28
HETATM   28  O   UNL     1      -6.214   6.501  70.776  1.00  0.00    -0.034 OA 
BRANCH  28  29
HETATM   29  C   UNL     1      -6.609   5.810  71.913  1.00  0.00    -0.058 A  
HETATM   30  C   UNL     1      -5.657   3.381  71.440  1.00  0.00    -0.008 C  
HETATM   31  C   UNL     1      -6.341   4.457  72.246  1.00  0.00    -0.022 A  
HETATM   32  C   UNL     1      -6.729   3.980  73.522  1.00  0.00    -0.048 A  
HETATM   33  C   UNL     1      -7.379   4.779  74.450  1.00  0.00    -0.078 A  
HETATM   34  C   UNL     1      -7.680   6.088  74.115  1.00  0.00    -0.097 A  
HETATM   35  C   UNL     1      -7.317   6.612  72.859  1.00  0.00    -0.081 A  
HETATM   36  C   UNL     1      -7.720   8.040  72.580  1.00  0.00    -0.160 C  
ENDBRANCH  28  29
ENDBRANCH  27  28
ENDBRANCH  24  27
ENDBRANCH  22  23
BRANCH  22  37
HETATM   37  C   UNL     1      -6.020   6.518  65.816  1.00  0.00    -0.029 C  
BRANCH  37  38
HETATM   38  C   UNL     1      -5.866   5.072  65.434  1.00  0.00    -0.018 A  
HETATM   39  C   UNL     1      -5.798   2.334  64.849  1.00  0.00    -0.017 A  
HETATM   40  C   UNL     1      -5.159   4.191  66.256  1.00  0.00    -0.008 A  
HETATM   41  C   UNL     1      -6.443   3.214  63.989  1.00  0.00    -0.031 A  
HETATM   42  C   UNL     1      -6.431   4.580  64.258  1.00  0.00    -0.038 A  
HETATM   43  C   UNL     1      -5.125   2.829  65.964  1.00  0.00    -0.008 A  
ENDBRANCH  37  38
ENDBRANCH  22  37
ENDBRANCH  19  22
ENDBRANCH  18  19
ENDBRANCH  17  18
BRANCH  17  44
HETATM   44  C   UNL     1      -6.900   9.282  67.723  1.00  0.00    -0.079 C  
BRANCH  44  45
HETATM   45  C   UNL     1      -6.463  10.238  68.817  1.00  0.00    -0.051 A  
HETATM   46  C   UNL     1      -6.705  11.619  68.720  1.00  0.00    -0.077 A  
HETATM   47  C   UNL     1      -5.780   9.757  69.940  1.00  0.00    -0.041 A  
HETATM   48  C   UNL     1      -6.236  12.495  69.706  1.00  0.00    -0.113 A  
HETATM   49  C   UNL     1      -5.316  10.633  70.925  1.00  0.00    -0.100 A  
HETATM   50  C   UNL     1      -5.536  12.003  70.804  1.00  0.00    -0.146 A  
ENDBRANCH  44  45
ENDBRANCH  17  44
ENDBRANCH  15  17
ENDBRANCH   3  13
TORSDOF 14
ENDMDL
MODEL      297
REMARK 921   NORMALIZED FREE ENERGY PREDICTED BY IDOCK:   -0.03 KCAL/MOL
REMARK 922        TOTAL FREE ENERGY PREDICTED BY IDOCK:   -4.61 KCAL/MOL
REMARK 923 INTER-LIGAND FREE ENERGY PREDICTED BY IDOCK:   -3.68 KCAL/MOL
REMARK 924 INTRA-LIGAND FREE ENERGY PREDICTED BY IDOCK:   -0.93 KCAL/MOL
REMARK 927      BINDING AFFINITY PREDICTED BY RF-SCORE:    0.00 PKD
ROOT
HETATM    1  C   UNL     1      -5.259  13.545  73.122  1.00  0.00    -0.046 C  
HETATM    2  C   UNL     1      -5.970  12.298  72.576  1.00  0.00     2.424 C  
HETATM    3  C   UNL     1      -5.598  12.048  71.082  1.00  0.00     0.044 C  
HETATM    4  C   UNL     1      -5.657  11.118  73.498  1.00  0.00     1.277 C  
ENDROOT
BRANCH   3   5
HETATM    5  N   UNL     1      -6.014  13.180  70.221  1.00  0.00    -0.153 N  
HETATM    6  H   UNL     1      -5.514  14.454  67.280  1.00  0.00     0.000 HD 
HETATM    7  O   UNL     1      -5.129  12.269  68.301  1.00  0.00    -0.052 OA 
HETATM    8  C   UNL     1      -6.933  14.194  70.724  1.00  0.00     0.861 C  
HETATM    9  C   UNL     1      -5.637  13.215  68.895  1.00  0.00    -0.073 C  
HETATM   10  C   UNL     1      -6.413  15.567  70.343  1.00  0.00     0.125 C  
HETATM   11  N   UNL     1      -5.803  14.411  68.257  1.00  0.00    -0.107 N  
HETATM   12  C   UNL     1      -6.349  15.623  68.831  1.00  0.00    -0.114 C  
ENDBRANCH   3   5
BRANCH   3  13
HETATM   13  C   UNL     1      -6.134  10.675  70.571  1.00  0.00    -0.113 C  
HETATM   14  O   UNL     1      -7.321  10.446  70.365  1.00  0.00    -0.245 OA 
HETATM   15  N   UNL     1      -5.172   9.692  70.450  1.00  0.00    -0.031 N  
HETATM   16  H   UNL     1      -4.208   9.976  70.623  1.00  0.00     0.000 HD 
BRANCH  15  17
HETATM   17  C   UNL     1      -5.384   8.289  70.101  1.00  0.00    -0.022 C  
BRANCH  17  18
HETATM   18  C   UNL     1      -6.389   8.077  68.947  1.00  0.00    -0.040 C  
BRANCH  18  19
HETATM   19  C   UNL     1      -7.919   7.952  69.165  1.00  0.00    -0.118 C  
HETATM   20  O   UNL     1      -8.298   6.576  69.074  1.00  0.00    -0.115 OA 
HETATM   21  H   UNL     1      -9.235   6.499  69.207  1.00  0.00     0.000 HD 
BRANCH  19  22
HETATM   22  C   UNL     1      -8.714   8.744  68.054  1.00  0.00    -0.141 C  
BRANCH  22  23
HETATM   23  N   UNL     1      -8.054   8.714  66.698  1.00  0.00    -0.099 N  
HETATM   24  C   UNL     1      -8.193   9.342  65.479  1.00  0.00    -0.124 C  
HETATM   25  H   UNL     1      -7.290   8.040  66.678  1.00  0.00     0.000 HD 
HETATM   26  O   UNL     1      -7.275   9.232  64.660  1.00  0.00    -0.096 OA 
BRANCH  24  27
HETATM   27  C   UNL     1      -9.504  10.056  65.110  1.00  0.00    -0.270 C  
BRANCH  27  28
HETATM   28  O   UNL     1      -9.551  11.392  64.638  1.00  0.00    -0.232 OA 
BRANCH  28  29
HETATM   29  C   UNL     1     -10.504  12.250  65.169  1.00  0.00    -0.288 A  
HETATM   30  C   UNL     1     -12.493  12.008  63.431  1.00  0.00    -0.625 C  
HETATM   31  C   UNL     1     -11.814  12.504  64.684  1.00  0.00    -0.439 A  
HETATM   32  C   UNL     1     -12.678  13.324  65.451  1.00  0.00    -0.460 A  
HETATM   33  C   UNL     1     -12.285  13.904  66.647  1.00  0.00    -0.465 A  
HETATM   34  C   UNL     1     -10.996  13.694  67.105  1.00  0.00    -0.299 A  
HETATM   35  C   UNL     1     -10.096  12.887  66.380  1.00  0.00    -0.272 A  
HETATM   36  C   UNL     1      -8.705  12.747  66.949  1.00  0.00    -0.169 C  
ENDBRANCH  28  29
ENDBRANCH  27  28
ENDBRANCH  24  27
ENDBRANCH  22  23
BRANCH  22  37
HETATM   37  C   UNL     1     -10.245   8.497  68.115  1.00  0.00    -0.254 C  
BRANCH  37  38
HETATM   38  C   UNL     1     -10.984   9.426  69.039  1.00  0.00    -0.094 A  
HETATM   39  C   UNL     1     -12.132  11.260  70.817  1.00  0.00    -0.450 A  
HETATM   40  C   UNL     1     -11.201   9.075  70.374  1.00  0.00    -0.275 A  
HETATM   41  C   UNL     1     -11.986  11.588  69.475  1.00  0.00    -0.402 A  
HETATM   42  C   UNL     1     -11.460  10.656  68.586  1.00  0.00    -0.332 A  
HETATM   43  C   UNL     1     -11.773   9.988  71.257  1.00  0.00    -0.452 A  
ENDBRANCH  37  38
ENDBRANCH  22  37
ENDBRANCH  19  22
ENDBRANCH  18  19
ENDBRANCH  17  18
BRANCH  17  44
HETATM   44  C   UNL     1      -5.468   7.344  71.319  1.00  0.00    -0.031 C  
BRANCH  44  45
HETATM   45  C   UNL     1      -6.864   7.222  71.899  1.00  0.00    -0.059 A  
HETATM   46  C   UNL     1      -7.546   8.340  72.406  1.00  0.00    -0.160 A  
HETATM   47  C   UNL     1      -7.492   5.972  71.962  1.00  0.00    -0.095 A  
HETATM   48  C   UNL     1      -8.806   8.199  72.998  1.00  0.00    -0.316 A  
HETATM   49  C   UNL     1      -8.752   5.834  72.550  1.00  0.00    -0.124 A  
HETATM   50  C   UNL     1      -9.406   6.944  73.076  1.00  0.00    -0.162 A  
ENDBRANCH  44  45
ENDBRANCH  17  44
ENDBRANCH  15  17
ENDBRANCH   3  13
TORSDOF 14
ENDMDL
MODEL      298
REMARK 921   NORMALIZED FREE ENERGY PREDICTED BY IDOCK:    0.38 KCAL/MOL
REMARK 922        TOTAL FREE ENERGY PREDICTED BY IDOCK:   -3.86 KCAL/MOL
REMARK 923 INTER-LIGAND FREE ENERGY PREDICTED BY IDOCK:   -5.47 KCAL/MOL
REMARK 924 INTRA-LIGAND FREE ENERGY PREDICTED BY IDOCK:    1.61 KCAL/MOL
REMARK 927      BINDING AFFINITY PREDICTED BY RF-SCORE:    0.00 PKD
ROOT
HETATM    1  C   UNL     1     -12.212  11.629  70.712  1.00  0.00    -0.443 C  
HETATM    2  C   UNL     1     -11.185  11.154  69.671  1.00  0.00    -0.333 C  
HETATM    3  C   UNL     1     -11.313   9.621  69.416  1.00  0.00     0.002 C  
HETATM    4  C   UNL     1     -11.342  12.007  68.411  1.00  0.00    -0.332 C  
ENDROOT
BRANCH   3   5
HETATM    5  N   UNL     1     -11.053   8.841  70.649  1.00  0.00    -0.242 N  
HETATM    6  H   UNL     1     -12.585   7.460  73.153  1.00  0.00     0.000 HD 
HETATM    7  O   UNL     1     -13.256   8.238  70.937  1.00  0.00     0.043 OA 
HETATM    8  C   UNL     1      -9.688   8.529  71.053  1.00  0.00    -0.193 C  
HETATM    9  C   UNL     1     -12.104   8.294  71.355  1.00  0.00    -0.300 C  
HETATM   10  C   UNL     1      -9.539   8.792  72.540  1.00  0.00    -0.114 C  
HETATM   11  N   UNL     1     -11.813   7.853  72.614  1.00  0.00    -0.336 N  
HETATM   12  C   UNL     1     -10.518   7.888  73.260  1.00  0.00    -0.191 C  
ENDBRANCH   3   5
BRANCH   3  13
HETATM   13  C   UNL     1     -10.434   9.157  68.214  1.00  0.00    -0.208 C  
HETATM   14  O   UNL     1     -10.749   8.246  67.457  1.00  0.00    -0.242 OA 
HETATM   15  N   UNL     1      -9.215   9.797  68.114  1.00  0.00    -0.129 N  
HETATM   16  H   UNL     1      -9.044  10.556  68.773  1.00  0.00     0.000 HD 
BRANCH  15  17
HETATM   17  C   UNL     1      -8.141   9.507  67.166  1.00  0.00    -0.106 C  
BRANCH  17  18
HETATM   18  C   UNL     1      -8.612   8.760  65.898  1.00  0.00    -0.174 C  
BRANCH  18  19
HETATM   19  C   UNL     1      -8.683   7.215  65.799  1.00  0.00    -0.107 C  
HETATM   20  O   UNL     1      -9.952   6.768  66.286  1.00  0.00    -0.401 OA 
HETATM   21  H   UNL     1      -9.996   5.820  66.226  1.00  0.00     0.000 HD 
BRANCH  19  22
HETATM   22  C   UNL     1      -7.564   6.540  66.685  1.00  0.00    -0.094 C  
BRANCH  22  23
HETATM   23  N   UNL     1      -8.107   5.697  67.812  1.00  0.00    -0.101 N  
HETATM   24  C   UNL     1      -7.771   5.386  69.112  1.00  0.00    -0.089 C  
HETATM   25  H   UNL     1      -8.966   5.223  67.532  1.00  0.00     0.000 HD 
HETATM   26  O   UNL     1      -8.625   4.844  69.820  1.00  0.00    -0.085 OA 
BRANCH  24  27
HETATM   27  C   UNL     1      -6.337   5.602  69.622  1.00  0.00    -0.037 C  
BRANCH  27  28
HETATM   28  O   UNL     1      -6.037   5.959  70.962  1.00  0.00    -0.031 OA 
BRANCH  28  29
HETATM   29  C   UNL     1      -6.249   5.020  71.961  1.00  0.00    -0.030 A  
HETATM   30  C   UNL     1      -7.228   6.514  73.921  1.00  0.00    -0.084 C  
HETATM   31  C   UNL     1      -6.809   5.230  73.249  1.00  0.00    -0.078 A  
HETATM   32  C   UNL     1      -7.058   4.107  74.075  1.00  0.00    -0.062 A  
HETATM   33  C   UNL     1      -6.756   2.812  73.683  1.00  0.00    -0.027 A  
HETATM   34  C   UNL     1      -6.172   2.604  72.445  1.00  0.00    -0.013 A  
HETATM   35  C   UNL     1      -5.903   3.687  71.584  1.00  0.00    -0.013 A  
HETATM   36  C   UNL     1      -5.236   3.356  70.271  1.00  0.00    -0.004 C  
ENDBRANCH  28  29
ENDBRANCH  27  28
ENDBRANCH  24  27
ENDBRANCH  22  23
BRANCH  22  37
HETATM   37  C   UNL     1      -6.399   5.953  65.844  1.00  0.00    -0.042 C  
BRANCH  37  38
HETATM   38  C   UNL     1      -6.791   4.796  64.967  1.00  0.00    -0.053 A  
HETATM   39  C   UNL     1      -7.753   2.652  63.445  1.00  0.00    -0.064 A  
HETATM   40  C   UNL     1      -6.601   3.481  65.400  1.00  0.00    -0.036 A  
HETATM   41  C   UNL     1      -7.881   3.953  62.975  1.00  0.00    -0.074 A  
HETATM   42  C   UNL     1      -7.357   5.011  63.711  1.00  0.00    -0.051 A  
HETATM   43  C   UNL     1      -7.080   2.415  64.641  1.00  0.00    -0.053 A  
ENDBRANCH  37  38
ENDBRANCH  22  37
ENDBRANCH  19  22
ENDBRANCH  18  19
ENDBRANCH  17  18
BRANCH  17  44
HETATM   44  C   UNL     1      -6.823   9.051  67.829  1.00  0.00    -0.070 C  
BRANCH  44  45
HETATM   45  C   UNL     1      -6.280  10.039  68.844  1.00  0.00    -0.044 A  
HETATM   46  C   UNL     1      -5.822   9.616  70.103  1.00  0.00    -0.044 A  
HETATM   47  C   UNL     1      -6.251  11.407  68.548  1.00  0.00    -0.046 A  
HETATM   48  C   UNL     1      -5.386  10.547  71.053  1.00  0.00    -0.093 A  
HETATM   49  C   UNL     1      -5.812  12.335  69.497  1.00  0.00    -0.101 A  
HETATM   50  C   UNL     1      -5.388  11.907  70.752  1.00  0.00    -0.149 A  
ENDBRANCH  44  45
ENDBRANCH  17  44
ENDBRANCH  15  17
ENDBRANCH   3  13
TORSDOF 14
ENDMDL
MODEL      299
REMARK 921   NORMALIZED FREE ENERGY PREDICTED BY IDOCK:    0.53 KCAL/MOL
REMARK 922        TOTAL FREE ENERGY PREDICTED BY IDOCK:   -3.59 KCAL/MOL
REMARK 923 INTER-LIGAND FREE ENERGY PREDICTED BY IDOCK:   -5.28 KCAL/MOL
REMARK 924 INTRA-LIGAND FREE ENERGY PREDICTED BY IDOCK:    1.69 KCAL/MOL
REMARK 927      BINDING AFFINITY PREDICTED BY RF-SCORE:    0.00 PKD
ROOT
HETATM    1  C   UNL     1     -10.154   3.425  68.899  1.00  0.00     0.686 C  
HETATM    2  C   UNL     1      -9.026   4.453  68.723  1.00  0.00    -0.152 C  
HETATM    3  C   UNL     1      -9.106   5.141  67.326  1.00  0.00    -0.113 C  
HETATM    4  C   UNL     1      -9.072   5.431  69.899  1.00  0.00    -0.165 C  
ENDROOT
BRANCH   3   5
HETATM    5  N   UNL     1      -8.956   4.159  66.227  1.00  0.00    -0.118 N  
HETATM    6  H   UNL     1     -10.633   2.736  63.843  1.00  0.00     0.000 HD 
HETATM    7  O   UNL     1     -10.938   4.738  65.208  1.00  0.00    -0.145 OA 
HETATM    8  C   UNL     1      -7.691   3.463  66.024  1.00  0.00    -0.081 C  
HETATM    9  C   UNL     1      -9.969   3.991  65.307  1.00  0.00    -0.189 C  
HETATM   10  C   UNL     1      -7.969   1.991  65.785  1.00  0.00    -0.078 C  
HETATM   11  N   UNL     1      -9.882   2.880  64.517  1.00  0.00    -0.115 N  
HETATM   12  C   UNL     1      -8.828   1.887  64.542  1.00  0.00    -0.106 C  
ENDBRANCH   3   5
BRANCH   3  13
HETATM   13  C   UNL     1      -8.109   6.334  67.208  1.00  0.00    -0.109 C  
HETATM   14  O   UNL     1      -6.898   6.222  67.366  1.00  0.00    -0.059 OA 
HETATM   15  N   UNL     1      -8.704   7.562  66.997  1.00  0.00    -0.124 N  
HETATM   16  H   UNL     1      -9.714   7.559  66.858  1.00  0.00     0.000 HD 
BRANCH  15  17
HETATM   17  C   UNL     1      -8.045   8.865  66.951  1.00  0.00    -0.109 C  
BRANCH  17  18
HETATM   18  C   UNL     1      -8.272   9.633  65.630  1.00  0.00    -0.121 C  
BRANCH  18  19
HETATM   19  C   UNL     1      -9.539  10.481  65.346  1.00  0.00    -0.237 C  
HETATM   20  O   UNL     1      -9.258  11.415  64.300  1.00  0.00    -0.388 OA 
HETATM   21  H   UNL     1     -10.034  11.935  64.126  1.00  0.00     0.000 HD 
BRANCH  19  22
HETATM   22  C   UNL     1      -9.965  11.304  66.624  1.00  0.00    -0.209 C  
BRANCH  22  23
HETATM   23  N   UNL     1      -9.025  12.435  66.959  1.00  0.00    -0.204 N  
HETATM   24  C   UNL     1      -9.027  13.569  67.743  1.00  0.00    -0.201 C  
HETATM   25  H   UNL     1      -8.138  12.331  66.468  1.00  0.00     0.000 HD 
HETATM   26  O   UNL     1      -7.947  14.126  67.962  1.00  0.00    -0.125 OA 
BRANCH  24  27
HETATM   27  C   UNL     1     -10.351  14.184  68.227  1.00  0.00    -0.245 C  
BRANCH  27  28
HETATM   28  O   UNL     1     -10.654  15.564  68.102  1.00  0.00    -0.253 OA 
BRANCH  28  29
HETATM   29  C   UNL     1      -9.667  16.420  67.633  1.00  0.00    -0.238 A  
HETATM   30  C   UNL     1     -10.357  16.712  65.089  1.00  0.00    -0.000 C  
HETATM   31  C   UNL     1      -9.540  16.971  66.331  1.00  0.00    -0.301 A  
HETATM   32  C   UNL     1      -8.525  17.930  66.093  1.00  0.00    -0.147 A  
HETATM   33  C   UNL     1      -7.639  18.336  67.079  1.00  0.00    -0.234 A  
HETATM   34  C   UNL     1      -7.732  17.773  68.339  1.00  0.00    -0.278 A  
HETATM   35  C   UNL     1      -8.723  16.813  68.629  1.00  0.00    -0.255 A  
HETATM   36  C   UNL     1      -8.719  16.238  70.024  1.00  0.00     1.071 C  
ENDBRANCH  28  29
ENDBRANCH  27  28
ENDBRANCH  24  27
ENDBRANCH  22  23
BRANCH  22  37
HETATM   37  C   UNL     1     -11.490  11.596  66.675  1.00  0.00    -0.280 C  
BRANCH  37  38
HETATM   38  C   UNL     1     -11.979  12.515  65.590  1.00  0.00    -0.492 A  
HETATM   39  C   UNL     1     -12.646  14.250  63.495  1.00  0.00     0.563 A  
HETATM   40  C   UNL     1     -12.080  13.890  65.817  1.00  0.00    -0.449 A  
HETATM   41  C   UNL     1     -12.619  12.878  63.282  1.00  0.00    -0.185 A  
HETATM   42  C   UNL     1     -12.335  12.016  64.337  1.00  0.00    -0.346 A  
HETATM   43  C   UNL     1     -12.412  14.752  64.774  1.00  0.00    -0.222 A  
ENDBRANCH  37  38
ENDBRANCH  22  37
ENDBRANCH  19  22
ENDBRANCH  18  19
ENDBRANCH  17  18
BRANCH  17  44
HETATM   44  C   UNL     1      -6.627   8.875  67.562  1.00  0.00    -0.062 C  
BRANCH  44  45
HETATM   45  C   UNL     1      -6.199  10.234  68.084  1.00  0.00    -0.052 A  
HETATM   46  C   UNL     1      -6.534  10.657  69.381  1.00  0.00    -0.067 A  
HETATM   47  C   UNL     1      -5.477  11.107  67.262  1.00  0.00    -0.053 A  
HETATM   48  C   UNL     1      -6.189  11.939  69.824  1.00  0.00    -0.137 A  
HETATM   49  C   UNL     1      -5.130  12.385  67.707  1.00  0.00    -0.087 A  
HETATM   50  C   UNL     1      -5.493  12.806  68.984  1.00  0.00    -0.068 A  
ENDBRANCH  44  45
ENDBRANCH  17  44
ENDBRANCH  15  17
ENDBRANCH   3  13
TORSDOF 14
ENDMDL
MODEL      300
REMARK 921   NORMALIZED FREE ENERGY PREDICTED BY IDOCK:    0.57 KCAL/MOL
REMARK 922        TOTAL FREE ENERGY PREDICTED BY IDOCK:   -3.52 KCAL/MOL
REMARK 923 INTER-LIGAND FREE ENERGY PREDICTED BY IDOCK:   -5.01 KCAL/MOL
REMARK 924 INTRA-LIGAND FREE ENERGY PREDICTED BY IDOCK:    1.49 KCAL/MOL
REMARK 927      BINDING AFFINITY PREDICTED BY RF-SCORE:    0.00 PKD
ROOT
HETATM    1  C   UNL     1     -10.658   4.771  66.068  1.00  0.00    -0.300 C  
HETATM    2  C   UNL     1      -9.498   5.156  67.000  1.00  0.00    -0.143 C  
HETATM    3  C   UNL     1      -9.083   6.646  66.793  1.00  0.00    -0.142 C  
HETATM    4  C   UNL     1      -9.899   4.819  68.438  1.00  0.00    -0.187 C  
ENDROOT
BRANCH   3   5
HETATM    5  N   UNL     1      -8.610   6.891  65.411  1.00  0.00    -0.096 N  
HETATM    6  H   UNL     1      -8.626   9.150  63.083  1.00  0.00     0.000 HD 
HETATM    7  O   UNL     1      -9.003   9.158  65.495  1.00  0.00    -0.180 OA 
HETATM    8  C   UNL     1      -7.909   5.848  64.672  1.00  0.00    -0.114 C  
HETATM    9  C   UNL     1      -8.715   8.150  64.858  1.00  0.00     0.077 C  
HETATM   10  C   UNL     1      -8.468   5.778  63.263  1.00  0.00     0.046 C  
HETATM   11  N   UNL     1      -8.536   8.227  63.506  1.00  0.00     0.077 N  
HETATM   12  C   UNL     1      -8.232   7.127  62.615  1.00  0.00    -0.024 C  
ENDBRANCH   3   5
BRANCH   3  13
HETATM   13  C   UNL     1      -8.060   7.118  67.872  1.00  0.00    -0.119 C  
HETATM   14  O   UNL     1      -6.897   6.734  67.916  1.00  0.00    -0.071 OA 
HETATM   15  N   UNL     1      -8.589   7.946  68.842  1.00  0.00    -0.131 N  
HETATM   16  H   UNL     1      -9.561   8.230  68.716  1.00  0.00     0.000 HD 
BRANCH  15  17
HETATM   17  C   UNL     1      -7.911   8.459  70.030  1.00  0.00    -0.109 C  
BRANCH  17  18
HETATM   18  C   UNL     1      -7.960   9.997  70.162  1.00  0.00    -0.123 C  
BRANCH  18  19
HETATM   19  C   UNL     1      -6.884  10.936  69.560  1.00  0.00    -0.125 C  
HETATM   20  O   UNL     1      -7.224  12.294  69.855  1.00  0.00    -0.150 OA 
HETATM   21  H   UNL     1      -6.564  12.870  69.486  1.00  0.00     0.000 HD 
BRANCH  19  22
HETATM   22  C   UNL     1      -6.820  10.788  67.989  1.00  0.00    -0.068 C  
BRANCH  22  23
HETATM   23  N   UNL     1      -6.903  12.100  67.251  1.00  0.00    -0.161 N  
HETATM   24  C   UNL     1      -7.488  13.336  67.424  1.00  0.00    -0.124 C  
HETATM   25  H   UNL     1      -6.378  12.063  66.378  1.00  0.00     0.000 HD 
HETATM   26  O   UNL     1      -7.108  14.266  66.706  1.00  0.00     0.315 OA 
BRANCH  24  27
HETATM   27  C   UNL     1      -8.662  13.517  68.402  1.00  0.00    -0.140 C  
BRANCH  27  28
HETATM   28  O   UNL     1      -9.994  13.147  68.087  1.00  0.00    -0.223 OA 
BRANCH  28  29
HETATM   29  C   UNL     1     -10.963  13.256  69.076  1.00  0.00    -0.206 A  
HETATM   30  C   UNL     1     -12.153  10.890  68.942  1.00  0.00    -0.186 C  
HETATM   31  C   UNL     1     -11.891  12.267  69.498  1.00  0.00    -0.380 A  
HETATM   32  C   UNL     1     -12.714  12.540  70.617  1.00  0.00    -0.132 A  
HETATM   33  C   UNL     1     -12.664  13.744  71.303  1.00  0.00    -0.450 A  
HETATM   34  C   UNL     1     -11.790  14.727  70.872  1.00  0.00    -0.379 A  
HETATM   35  C   UNL     1     -10.949  14.507  69.763  1.00  0.00    -0.187 A  
HETATM   36  C   UNL     1     -10.056  15.654  69.355  1.00  0.00    -0.269 C  
ENDBRANCH  28  29
ENDBRANCH  27  28
ENDBRANCH  24  27
ENDBRANCH  22  23
BRANCH  22  37
HETATM   37  C   UNL     1      -5.749   9.765  67.522  1.00  0.00    -0.039 C  
BRANCH  37  38
HETATM   38  C   UNL     1      -5.555   9.711  66.031  1.00  0.00    -0.048 A  
HETATM   39  C   UNL     1      -5.444   9.550  63.238  1.00  0.00    -0.079 A  
HETATM   40  C   UNL     1      -5.183   8.518  65.407  1.00  0.00    -0.034 A  
HETATM   41  C   UNL     1      -5.744  10.758  63.854  1.00  0.00     0.055 A  
HETATM   42  C   UNL     1      -5.750  10.845  65.244  1.00  0.00    -0.015 A  
HETATM   43  C   UNL     1      -5.128   8.439  64.017  1.00  0.00    -0.040 A  
ENDBRANCH  37  38
ENDBRANCH  22  37
ENDBRANCH  19  22
ENDBRANCH  18  19
ENDBRANCH  17  18
BRANCH  17  44
HETATM   44  C   UNL     1      -6.581   7.744  70.352  1.00  0.00    -0.038 C  
BRANCH  44  45
HETATM   45  C   UNL     1      -6.523   7.168  71.754  1.00  0.00    -0.047 A  
HETATM   46  C   UNL     1      -5.882   5.946  72.016  1.00  0.00    -0.031 A  
HETATM   47  C   UNL     1      -7.137   7.842  72.817  1.00  0.00    -0.089 A  
HETATM   48  C   UNL     1      -5.895   5.396  73.303  1.00  0.00    -0.024 A  
HETATM   49  C   UNL     1      -7.145   7.293  74.102  1.00  0.00    -0.098 A  
HETATM   50  C   UNL     1      -6.534   6.066  74.344  1.00  0.00    -0.075 A  
ENDBRANCH  44  45
ENDBRANCH  17  44
ENDBRANCH  15  17
ENDBRANCH   3  13
TORSDOF 14
ENDMDL
MODEL      301
REMARK 921   NORMALIZED FREE ENERGY PREDICTED BY IDOCK:    0.65 KCAL/MOL
REMARK 922        TOTAL FREE ENERGY PREDICTED BY IDOCK:   -3.37 KCAL/MOL
REMARK 923 INTER-LIGAND FREE ENERGY PREDICTED BY IDOCK:   -4.21 KCAL/MOL
REMARK 924 INTRA-LIGAND FREE ENERGY PREDICTED BY IDOCK:    0.84 KCAL/MOL
REMARK 927      BINDING AFFINITY PREDICTED BY RF-SCORE:    0.00 PKD
ROOT
HETATM    1  C   UNL     1     -12.150  11.026  70.690  1.00  0.00    -0.471 C  
HETATM    2  C   UNL     1     -11.302  10.390  69.578  1.00  0.00    -0.325 C  
HETATM    3  C   UNL     1     -11.456   8.837  69.572  1.00  0.00     0.389 C  
HETATM    4  C   UNL     1     -11.668  11.054  68.249  1.00  0.00    -0.301 C  
ENDROOT
BRANCH   3   5
HETATM    5  N   UNL     1     -10.994   8.240  70.847  1.00  0.00    -0.241 N  
HETATM    6  H   UNL     1      -8.394   8.076  72.780  1.00  0.00     0.000 HD 
HETATM    7  O   UNL     1      -9.116   9.566  70.985  1.00  0.00    -0.224 OA 
HETATM    8  C   UNL     1     -11.868   7.360  71.612  1.00  0.00    -0.291 C  
HETATM    9  C   UNL     1      -9.781   8.615  71.385  1.00  0.00    -0.244 C  
HETATM   10  C   UNL     1     -11.076   6.147  72.064  1.00  0.00    -0.322 C  
HETATM   11  N   UNL     1      -9.298   7.819  72.384  1.00  0.00    -0.155 N  
HETATM   12  C   UNL     1      -9.942   6.645  72.936  1.00  0.00    -0.172 C  
ENDBRANCH   3   5
BRANCH   3  13
HETATM   13  C   UNL     1     -10.780   8.191  68.324  1.00  0.00    -0.016 C  
HETATM   14  O   UNL     1     -11.195   7.173  67.781  1.00  0.00    -0.076 OA 
HETATM   15  N   UNL     1      -9.612   8.806  67.921  1.00  0.00    -0.142 N  
HETATM   16  H   UNL     1      -9.352   9.658  68.417  1.00  0.00     0.000 HD 
BRANCH  15  17
HETATM   17  C   UNL     1      -8.706   8.370  66.860  1.00  0.00    -0.130 C  
BRANCH  17  18
HETATM   18  C   UNL     1      -9.330   7.343  65.889  1.00  0.00     0.040 C  
BRANCH  18  19
HETATM   19  C   UNL     1      -9.378   5.821  66.179  1.00  0.00    -0.144 C  
HETATM   20  O   UNL     1     -10.495   5.536  67.025  1.00  0.00    -0.231 OA 
HETATM   21  H   UNL     1     -10.525   4.603  67.203  1.00  0.00     0.000 HD 
BRANCH  19  22
HETATM   22  C   UNL     1      -8.073   5.347  66.930  1.00  0.00    -0.105 C  
BRANCH  22  23
HETATM   23  N   UNL     1      -8.313   4.931  68.360  1.00  0.00    -0.091 N  
HETATM   24  C   UNL     1      -7.628   4.937  69.556  1.00  0.00    -0.056 C  
HETATM   25  H   UNL     1      -9.244   4.533  68.473  1.00  0.00     0.000 HD 
HETATM   26  O   UNL     1      -8.268   4.740  70.594  1.00  0.00    -0.088 OA 
BRANCH  24  27
HETATM   27  C   UNL     1      -6.096   5.066  69.581  1.00  0.00    -0.022 C  
BRANCH  27  28
HETATM   28  O   UNL     1      -5.385   5.645  70.663  1.00  0.00    -0.008 OA 
BRANCH  28  29
HETATM   29  C   UNL     1      -5.391   4.990  71.886  1.00  0.00    -0.005 A  
HETATM   30  C   UNL     1      -5.233   2.447  71.149  1.00  0.00    -0.004 C  
HETATM   31  C   UNL     1      -5.283   3.595  72.127  1.00  0.00     0.000 A  
HETATM   32  C   UNL     1      -5.181   3.141  73.465  1.00  0.00     0.000 A  
HETATM   33  C   UNL     1      -5.205   4.005  74.549  1.00  0.00    -0.004 A  
HETATM   34  C   UNL     1      -5.352   5.362  74.322  1.00  0.00    -0.027 A  
HETATM   35  C   UNL     1      -5.458   5.867  73.011  1.00  0.00    -0.031 A  
HETATM   36  C   UNL     1      -5.647   7.358  72.874  1.00  0.00    -0.040 C  
ENDBRANCH  28  29
ENDBRANCH  27  28
ENDBRANCH  24  27
ENDBRANCH  22  23
BRANCH  22  37
HETATM   37  C   UNL     1      -7.169   4.435  66.057  1.00  0.00    -0.076 C  
BRANCH  37  38
HETATM   38  C   UNL     1      -6.528   5.136  64.890  1.00  0.00    -0.035 A  
HETATM   39  C   UNL     1      -5.531   6.606  62.725  1.00  0.00    -0.031 A  
HETATM   40  C   UNL     1      -6.841   4.764  63.580  1.00  0.00    -0.043 A  
HETATM   41  C   UNL     1      -5.159   6.936  64.022  1.00  0.00    -0.027 A  
HETATM   42  C   UNL     1      -5.617   6.172  65.092  1.00  0.00    -0.017 A  
HETATM   43  C   UNL     1      -6.344   5.496  62.504  1.00  0.00    -0.018 A  
ENDBRANCH  37  38
ENDBRANCH  22  37
ENDBRANCH  19  22
ENDBRANCH  18  19
ENDBRANCH  17  18
BRANCH  17  44
HETATM   44  C   UNL     1      -7.254   8.136  67.331  1.00  0.00    -0.088 C  
BRANCH  44  45
HETATM   45  C   UNL     1      -6.573   9.389  67.847  1.00  0.00    -0.063 A  
HETATM   46  C   UNL     1      -6.337   9.581  69.219  1.00  0.00    -0.044 A  
HETATM   47  C   UNL     1      -6.187  10.398  66.956  1.00  0.00    -0.067 A  
HETATM   48  C   UNL     1      -5.768  10.771  69.685  1.00  0.00    -0.044 A  
HETATM   49  C   UNL     1      -5.615  11.584  67.423  1.00  0.00    -0.072 A  
HETATM   50  C   UNL     1      -5.414  11.776  68.788  1.00  0.00    -0.049 A  
ENDBRANCH  44  45
ENDBRANCH  17  44
ENDBRANCH  15  17
ENDBRANCH   3  13
TORSDOF 14
ENDMDL
MODEL      302
REMARK 921   NORMALIZED FREE ENERGY PREDICTED BY IDOCK:    1.18 KCAL/MOL
REMARK 922        TOTAL FREE ENERGY PREDICTED BY IDOCK:   -2.41 KCAL/MOL
REMARK 923 INTER-LIGAND FREE ENERGY PREDICTED BY IDOCK:   -1.63 KCAL/MOL
REMARK 924 INTRA-LIGAND FREE ENERGY PREDICTED BY IDOCK:   -0.78 KCAL/MOL
REMARK 927      BINDING AFFINITY PREDICTED BY RF-SCORE:    0.00 PKD
ROOT
HETATM    1  C   UNL     1      -5.126  13.085  73.833  1.00  0.00     0.047 C  
HETATM    2  C   UNL     1      -5.912  11.949  73.162  1.00  0.00     2.823 C  
HETATM    3  C   UNL     1      -5.477  11.767  71.675  1.00  0.00     0.294 C  
HETATM    4  C   UNL     1      -5.759  10.685  74.012  1.00  0.00     0.961 C  
ENDROOT
BRANCH   3   5
HETATM    5  N   UNL     1      -5.741  12.988  70.878  1.00  0.00    -0.179 N  
HETATM    6  H   UNL     1      -5.416  14.185  67.881  1.00  0.00     0.000 HD 
HETATM    7  O   UNL     1      -5.407  11.945  68.853  1.00  0.00    -0.050 OA 
HETATM    8  C   UNL     1      -6.302  14.176  71.509  1.00  0.00     0.519 C  
HETATM    9  C   UNL     1      -5.578  12.968  69.510  1.00  0.00    -0.089 C  
HETATM   10  C   UNL     1      -5.536  15.397  71.035  1.00  0.00     0.033 C  
HETATM   11  N   UNL     1      -5.551  14.186  68.892  1.00  0.00    -0.080 N  
HETATM   12  C   UNL     1      -5.696  15.477  69.531  1.00  0.00    -0.117 C  
ENDBRANCH   3   5
BRANCH   3  13
HETATM   13  C   UNL     1      -6.102  10.487  71.040  1.00  0.00     0.094 C  
HETATM   14  O   UNL     1      -7.310  10.310  70.922  1.00  0.00    -0.141 OA 
HETATM   15  N   UNL     1      -5.188   9.512  70.694  1.00  0.00    -0.031 N  
HETATM   16  H   UNL     1      -4.204   9.752  70.808  1.00  0.00     0.000 HD 
BRANCH  15  17
HETATM   17  C   UNL     1      -5.476   8.174  70.182  1.00  0.00    -0.022 C  
BRANCH  17  18
HETATM   18  C   UNL     1      -6.191   8.170  68.813  1.00  0.00    -0.044 C  
BRANCH  18  19
HETATM   19  C   UNL     1      -7.710   7.906  68.647  1.00  0.00    -0.113 C  
HETATM   20  O   UNL     1      -7.907   6.582  68.142  1.00  0.00    -0.103 OA 
HETATM   21  H   UNL     1      -8.838   6.420  68.040  1.00  0.00     0.000 HD 
BRANCH  19  22
HETATM   22  C   UNL     1      -8.349   8.914  67.614  1.00  0.00    -0.110 C  
BRANCH  22  23
HETATM   23  N   UNL     1      -7.628   8.966  66.291  1.00  0.00    -0.094 N  
HETATM   24  C   UNL     1      -7.707   9.672  65.109  1.00  0.00    -0.117 C  
HETATM   25  H   UNL     1      -6.867   8.289  66.262  1.00  0.00     0.000 HD 
HETATM   26  O   UNL     1      -6.753   9.607  64.328  1.00  0.00    -0.100 OA 
BRANCH  24  27
HETATM   27  C   UNL     1      -8.996  10.418  64.728  1.00  0.00    -0.202 C  
BRANCH  27  28
HETATM   28  O   UNL     1      -9.038  11.814  64.478  1.00  0.00     0.137 OA 
BRANCH  28  29
HETATM   29  C   UNL     1     -10.024  12.569  65.097  1.00  0.00    -0.192 A  
HETATM   30  C   UNL     1      -8.665  13.765  67.035  1.00  0.00    -0.212 C  
HETATM   31  C   UNL     1      -9.878  13.463  66.190  1.00  0.00    -0.289 A  
HETATM   32  C   UNL     1     -10.994  14.237  66.591  1.00  0.00    -0.310 A  
HETATM   33  C   UNL     1     -12.230  14.139  65.970  1.00  0.00    -0.464 A  
HETATM   34  C   UNL     1     -12.389  13.240  64.931  1.00  0.00    -0.476 A  
HETATM   35  C   UNL     1     -11.311  12.445  64.492  1.00  0.00    -0.381 A  
HETATM   36  C   UNL     1     -11.598  11.474  63.374  1.00  0.00    -0.232 C  
ENDBRANCH  28  29
ENDBRANCH  27  28
ENDBRANCH  24  27
ENDBRANCH  22  23
BRANCH  22  37
HETATM   37  C   UNL     1      -9.900   8.850  67.587  1.00  0.00    -0.229 C  
BRANCH  37  38
HETATM   38  C   UNL     1     -10.555   9.164  68.905  1.00  0.00    -0.214 A  
HETATM   39  C   UNL     1     -11.983   9.627  71.269  1.00  0.00    -0.462 A  
HETATM   40  C   UNL     1     -11.269  10.352  69.077  1.00  0.00    -0.289 A  
HETATM   41  C   UNL     1     -11.216   8.477  71.131  1.00  0.00    -0.317 A  
HETATM   42  C   UNL     1     -10.469   8.274  69.975  1.00  0.00    -0.231 A  
HETATM   43  C   UNL     1     -11.978  10.582  70.254  1.00  0.00    -0.411 A  
ENDBRANCH  37  38
ENDBRANCH  22  37
ENDBRANCH  19  22
ENDBRANCH  18  19
ENDBRANCH  17  18
BRANCH  17  44
HETATM   44  C   UNL     1      -5.964   7.181  71.259  1.00  0.00    -0.036 C  
BRANCH  44  45
HETATM   45  C   UNL     1      -6.183   5.774  70.734  1.00  0.00    -0.031 A  
HETATM   46  C   UNL     1      -7.419   5.122  70.883  1.00  0.00    -0.078 A  
HETATM   47  C   UNL     1      -5.136   5.086  70.110  1.00  0.00    -0.003 A  
HETATM   48  C   UNL     1      -7.584   3.801  70.453  1.00  0.00    -0.044 A  
HETATM   49  C   UNL     1      -5.304   3.767  69.678  1.00  0.00    -0.011 A  
HETATM   50  C   UNL     1      -6.524   3.121  69.858  1.00  0.00    -0.033 A  
ENDBRANCH  44  45
ENDBRANCH  17  44
ENDBRANCH  15  17
ENDBRANCH   3  13
TORSDOF 14
ENDMDL
MODEL      303
REMARK 921   NORMALIZED FREE ENERGY PREDICTED BY IDOCK:    1.56 KCAL/MOL
REMARK 922        TOTAL FREE ENERGY PREDICTED BY IDOCK:   -1.72 KCAL/MOL
REMARK 923 INTER-LIGAND FREE ENERGY PREDICTED BY IDOCK:   -1.60 KCAL/MOL
REMARK 924 INTRA-LIGAND FREE ENERGY PREDICTED BY IDOCK:   -0.12 KCAL/MOL
REMARK 927      BINDING AFFINITY PREDICTED BY RF-SCORE:    0.00 PKD
ROOT
HETATM    1  C   UNL     1     -11.818   5.860  65.832  1.00  0.00     2.688 C  
HETATM    2  C   UNL     1     -10.336   5.453  65.838  1.00  0.00    -0.029 C  
HETATM    3  C   UNL     1      -9.506   6.371  66.788  1.00  0.00    -0.150 C  
HETATM    4  C   UNL     1     -10.243   3.964  66.178  1.00  0.00     0.179 C  
ENDROOT
BRANCH   3   5
HETATM    5  N   UNL     1      -9.552   7.787  66.353  1.00  0.00    -0.192 N  
HETATM    6  H   UNL     1     -11.517  10.367  66.302  1.00  0.00     0.000 HD 
HETATM    7  O   UNL     1     -11.452   8.275  67.559  1.00  0.00     0.789 OA 
HETATM    8  C   UNL     1      -8.422   8.382  65.651  1.00  0.00    -0.164 C  
HETATM    9  C   UNL     1     -10.611   8.589  66.722  1.00  0.00    -0.157 C  
HETATM   10  C   UNL     1      -8.937   9.179  64.468  1.00  0.00    -0.129 C  
HETATM   11  N   UNL     1     -10.729   9.771  66.049  1.00  0.00     0.121 N  
HETATM   12  C   UNL     1      -9.845  10.262  65.012  1.00  0.00    -0.329 C  
ENDBRANCH   3   5
BRANCH   3  13
HETATM   13  C   UNL     1      -8.050   5.846  66.977  1.00  0.00    -0.102 C  
HETATM   14  O   UNL     1      -7.344   5.461  66.051  1.00  0.00    -0.075 OA 
HETATM   15  N   UNL     1      -7.635   5.761  68.290  1.00  0.00    -0.084 N  
HETATM   16  H   UNL     1      -8.279   6.121  68.994  1.00  0.00     0.000 HD 
BRANCH  15  17
HETATM   17  C   UNL     1      -6.375   5.211  68.784  1.00  0.00    -0.035 C  
BRANCH  17  18
HETATM   18  C   UNL     1      -6.285   5.139  70.324  1.00  0.00    -0.022 C  
BRANCH  18  19
HETATM   19  C   UNL     1      -6.791   6.269  71.258  1.00  0.00    -0.067 C  
HETATM   20  O   UNL     1      -5.836   6.482  72.302  1.00  0.00    -0.037 OA 
HETATM   21  H   UNL     1      -6.146   7.174  72.875  1.00  0.00     0.000 HD 
BRANCH  19  22
HETATM   22  C   UNL     1      -8.161   5.871  71.935  1.00  0.00    -0.112 C  
BRANCH  22  23
HETATM   23  N   UNL     1      -8.923   7.044  72.498  1.00  0.00    -0.128 N  
HETATM   24  C   UNL     1     -10.198   7.562  72.432  1.00  0.00    -0.212 C  
HETATM   25  H   UNL     1      -8.326   7.615  73.095  1.00  0.00     0.000 HD 
HETATM   26  O   UNL     1     -10.521   8.422  73.258  1.00  0.00     0.090 OA 
BRANCH  24  27
HETATM   27  C   UNL     1     -11.147   7.166  71.289  1.00  0.00    -0.249 C  
BRANCH  27  28
HETATM   28  O   UNL     1     -11.613   8.086  70.315  1.00  0.00    -0.156 OA 
BRANCH  28  29
HETATM   29  C   UNL     1     -12.315   9.204  70.742  1.00  0.00    -0.053 A  
HETATM   30  C   UNL     1     -14.343   8.113  72.057  1.00  0.00    -0.524 C  
HETATM   31  C   UNL     1     -13.487   9.244  71.541  1.00  0.00    -0.437 A  
HETATM   32  C   UNL     1     -13.975  10.501  71.974  1.00  0.00     0.276 A  
HETATM   33  C   UNL     1     -13.363  11.696  71.629  1.00  0.00    -0.254 A  
HETATM   34  C   UNL     1     -12.243  11.667  70.816  1.00  0.00    -0.443 A  
HETATM   35  C   UNL     1     -11.717  10.443  70.357  1.00  0.00    -0.419 A  
HETATM   36  C   UNL     1     -10.512  10.522  69.451  1.00  0.00    -0.264 C  
ENDBRANCH  28  29
ENDBRANCH  27  28
ENDBRANCH  24  27
ENDBRANCH  22  23
BRANCH  22  37
HETATM   37  C   UNL     1      -8.958   4.821  71.115  1.00  0.00    -0.167 C  
BRANCH  37  38
HETATM   38  C   UNL     1      -9.524   3.695  71.936  1.00  0.00    -0.203 A  
HETATM   39  C   UNL     1     -10.491   1.723  73.673  1.00  0.00    -0.185 A  
HETATM   40  C   UNL     1      -8.744   2.576  72.238  1.00  0.00    -0.089 A  
HETATM   41  C   UNL     1     -11.298   2.797  73.319  1.00  0.00    -0.156 A  
HETATM   42  C   UNL     1     -10.831   3.749  72.417  1.00  0.00     0.134 A  
HETATM   43  C   UNL     1      -9.227   1.595  73.102  1.00  0.00    -0.080 A  
ENDBRANCH  37  38
ENDBRANCH  22  37
ENDBRANCH  19  22
ENDBRANCH  18  19
ENDBRANCH  17  18
BRANCH  17  44
HETATM   44  C   UNL     1      -5.131   5.693  68.006  1.00  0.00    -0.004 C  
BRANCH  44  45
HETATM   45  C   UNL     1      -5.135   7.182  67.715  1.00  0.00    -0.019 A  
HETATM   46  C   UNL     1      -5.145   8.130  68.751  1.00  0.00    -0.024 A  
HETATM   47  C   UNL     1      -5.157   7.639  66.392  1.00  0.00    -0.024 A  
HETATM   48  C   UNL     1      -5.216   9.498  68.466  1.00  0.00    -0.033 A  
HETATM   49  C   UNL     1      -5.224   9.006  66.109  1.00  0.00    -0.033 A  
HETATM   50  C   UNL     1      -5.263   9.935  67.145  1.00  0.00    -0.041 A  
ENDBRANCH  44  45
ENDBRANCH  17  44
ENDBRANCH  15  17
ENDBRANCH   3  13
TORSDOF 14
ENDMDL
MODEL      304
REMARK 921   NORMALIZED FREE ENERGY PREDICTED BY IDOCK:    1.87 KCAL/MOL
REMARK 922        TOTAL FREE ENERGY PREDICTED BY IDOCK:   -1.15 KCAL/MOL
REMARK 923 INTER-LIGAND FREE ENERGY PREDICTED BY IDOCK:   -2.98 KCAL/MOL
REMARK 924 INTRA-LIGAND FREE ENERGY PREDICTED BY IDOCK:    1.83 KCAL/MOL
REMARK 927      BINDING AFFINITY PREDICTED BY RF-SCORE:    0.00 PKD
ROOT
HETATM    1  C   UNL     1     -11.552  17.194  67.525  1.00  0.00     0.818 C  
HETATM    2  C   UNL     1     -11.063  15.827  67.023  1.00  0.00    -0.152 C  
HETATM    3  C   UNL     1      -9.945  15.256  67.949  1.00  0.00    -0.228 C  
HETATM    4  C   UNL     1     -12.274  14.904  66.872  1.00  0.00     0.139 C  
ENDROOT
BRANCH   3   5
HETATM    5  N   UNL     1      -8.758  16.142  67.978  1.00  0.00    -0.174 N  
HETATM    6  H   UNL     1      -6.415  17.187  69.963  1.00  0.00     0.000 HD 
HETATM    7  O   UNL     1      -7.965  15.300  69.969  1.00  0.00    -0.043 OA 
HETATM    8  C   UNL     1      -8.390  16.925  66.805  1.00  0.00    -0.235 C  
HETATM    9  C   UNL     1      -7.917  16.135  69.071  1.00  0.00    -0.236 C  
HETATM   10  C   UNL     1      -8.052  18.338  67.239  1.00  0.00    -0.233 C  
HETATM   11  N   UNL     1      -7.032  17.172  69.151  1.00  0.00    -0.237 N  
HETATM   12  C   UNL     1      -6.883  18.251  68.198  1.00  0.00    -0.217 C  
ENDBRANCH   3   5
BRANCH   3  13
HETATM   13  C   UNL     1      -9.587  13.781  67.587  1.00  0.00    -0.219 C  
HETATM   14  O   UNL     1      -9.009  13.018  68.352  1.00  0.00    -0.188 OA 
HETATM   15  N   UNL     1      -9.894  13.418  66.291  1.00  0.00    -0.287 N  
HETATM   16  H   UNL     1     -10.392  14.109  65.731  1.00  0.00     0.000 HD 
BRANCH  15  17
HETATM   17  C   UNL     1      -9.584  12.150  65.634  1.00  0.00    -0.165 C  
BRANCH  17  18
HETATM   18  C   UNL     1      -9.078  11.054  66.597  1.00  0.00    -0.177 C  
BRANCH  18  19
HETATM   19  C   UNL     1      -7.889  10.116  66.267  1.00  0.00    -0.113 C  
HETATM   20  O   UNL     1      -8.293   8.756  66.455  1.00  0.00    -0.108 OA 
HETATM   21  H   UNL     1      -7.564   8.181  66.253  1.00  0.00     0.000 HD 
BRANCH  19  22
HETATM   22  C   UNL     1      -6.668  10.391  67.230  1.00  0.00    -0.076 C  
BRANCH  22  23
HETATM   23  N   UNL     1      -7.059  10.541  68.678  1.00  0.00    -0.073 N  
HETATM   24  C   UNL     1      -7.136   9.749  69.804  1.00  0.00    -0.095 C  
HETATM   25  H   UNL     1      -7.347  11.497  68.883  1.00  0.00     0.000 HD 
HETATM   26  O   UNL     1      -7.262  10.306  70.899  1.00  0.00    -0.216 OA 
BRANCH  24  27
HETATM   27  C   UNL     1      -7.185   8.217  69.682  1.00  0.00    -0.065 C  
BRANCH  27  28
HETATM   28  O   UNL     1      -8.280   7.520  69.111  1.00  0.00    -0.127 OA 
BRANCH  28  29
HETATM   29  C   UNL     1      -9.262   7.020  69.955  1.00  0.00    -0.148 A  
HETATM   30  C   UNL     1     -10.495   9.234  70.736  1.00  0.00    -0.343 C  
HETATM   31  C   UNL     1     -10.269   7.745  70.644  1.00  0.00    -0.199 A  
HETATM   32  C   UNL     1     -11.258   7.026  71.358  1.00  0.00    -0.283 A  
HETATM   33  C   UNL     1     -11.267   5.641  71.428  1.00  0.00    -0.167 A  
HETATM   34  C   UNL     1     -10.264   4.930  70.793  1.00  0.00    -0.276 A  
HETATM   35  C   UNL     1      -9.256   5.597  70.068  1.00  0.00    -0.172 A  
HETATM   36  C   UNL     1      -8.191   4.731  69.439  1.00  0.00    -0.076 C  
ENDBRANCH  28  29
ENDBRANCH  27  28
ENDBRANCH  24  27
ENDBRANCH  22  23
BRANCH  22  37
HETATM   37  C   UNL     1      -5.431   9.511  66.904  1.00  0.00    -0.046 C  
BRANCH  37  38
HETATM   38  C   UNL     1      -5.766   8.151  66.358  1.00  0.00    -0.040 A  
HETATM   39  C   UNL     1      -6.145   5.555  65.378  1.00  0.00    -0.026 A  
HETATM   40  C   UNL     1      -5.660   7.890  64.990  1.00  0.00    -0.037 A  
HETATM   41  C   UNL     1      -6.323   5.822  66.730  1.00  0.00    -0.038 A  
HETATM   42  C   UNL     1      -6.182   7.123  67.204  1.00  0.00    -0.049 A  
HETATM   43  C   UNL     1      -5.850   6.598  64.503  1.00  0.00    -0.031 A  
ENDBRANCH  37  38
ENDBRANCH  22  37
ENDBRANCH  19  22
ENDBRANCH  18  19
ENDBRANCH  17  18
BRANCH  17  44
HETATM   44  C   UNL     1      -8.872  12.306  64.273  1.00  0.00     1.342 C  
BRANCH  44  45
HETATM   45  C   UNL     1      -8.490  10.986  63.631  1.00  0.00     0.175 A  
HETATM   46  C   UNL     1      -7.179  10.739  63.190  1.00  0.00     0.201 A  
HETATM   47  C   UNL     1      -9.456   9.991  63.441  1.00  0.00    -0.239 A  
HETATM   48  C   UNL     1      -6.859   9.542  62.540  1.00  0.00    -0.095 A  
HETATM   49  C   UNL     1      -9.133   8.794  62.796  1.00  0.00     0.414 A  
HETATM   50  C   UNL     1      -7.838   8.573  62.337  1.00  0.00    -0.139 A  
ENDBRANCH  44  45
ENDBRANCH  17  44
ENDBRANCH  15  17
ENDBRANCH   3  13
TORSDOF 14
ENDMDL
MODEL      305
REMARK 921   NORMALIZED FREE ENERGY PREDICTED BY IDOCK:    2.06 KCAL/MOL
REMARK 922        TOTAL FREE ENERGY PREDICTED BY IDOCK:   -0.81 KCAL/MOL
REMARK 923 INTER-LIGAND FREE ENERGY PREDICTED BY IDOCK:   -5.55 KCAL/MOL
REMARK 924 INTRA-LIGAND FREE ENERGY PREDICTED BY IDOCK:    4.75 KCAL/MOL
REMARK 927      BINDING AFFINITY PREDICTED BY RF-SCORE:    0.00 PKD
ROOT
HETATM    1  C   UNL     1     -10.197  13.129  65.597  1.00  0.00    -0.294 C  
HETATM    2  C   UNL     1      -9.760  11.977  66.516  1.00  0.00    -0.230 C  
HETATM    3  C   UNL     1      -8.388  11.387  66.064  1.00  0.00    -0.019 C  
HETATM    4  C   UNL     1      -9.773  12.478  67.962  1.00  0.00    -0.215 C  
ENDROOT
BRANCH   3   5
HETATM    5  N   UNL     1      -8.462  10.828  64.694  1.00  0.00    -0.085 N  
HETATM    6  H   UNL     1     -10.526   9.396  62.642  1.00  0.00     0.000 HD 
HETATM    7  O   UNL     1     -10.763  10.731  64.673  1.00  0.00    -0.284 OA 
HETATM    8  C   UNL     1      -7.278  10.790  63.845  1.00  0.00     0.392 C  
HETATM    9  C   UNL     1      -9.680  10.457  64.164  1.00  0.00    -0.324 C  
HETATM   10  C   UNL     1      -7.189   9.429  63.180  1.00  0.00    -0.100 C  
HETATM   11  N   UNL     1      -9.632   9.690  63.035  1.00  0.00     0.202 N  
HETATM   12  C   UNL     1      -8.438   9.252  62.342  1.00  0.00    -0.200 C  
ENDBRANCH   3   5
BRANCH   3  13
HETATM   13  C   UNL     1      -7.825  10.368  67.101  1.00  0.00    -0.110 C  
HETATM   14  O   UNL     1      -6.944  10.642  67.910  1.00  0.00    -0.075 OA 
HETATM   15  N   UNL     1      -8.332   9.090  66.985  1.00  0.00    -0.115 N  
HETATM   16  H   UNL     1      -9.075   8.957  66.299  1.00  0.00     0.000 HD 
BRANCH  15  17
HETATM   17  C   UNL     1      -7.923   7.906  67.737  1.00  0.00    -0.124 C  
BRANCH  17  18
HETATM   18  C   UNL     1      -6.673   7.203  67.163  1.00  0.00    -0.067 C  
BRANCH  18  19
HETATM   19  C   UNL     1      -6.340   5.712  67.428  1.00  0.00    -0.042 C  
HETATM   20  O   UNL     1      -7.471   4.907  67.084  1.00  0.00    -0.084 OA 
HETATM   21  H   UNL     1      -7.267   3.993  67.247  1.00  0.00     0.000 HD 
BRANCH  19  22
HETATM   22  C   UNL     1      -6.023   5.467  68.955  1.00  0.00    -0.024 C  
BRANCH  22  23
HETATM   23  N   UNL     1      -5.660   6.722  69.709  1.00  0.00    -0.015 N  
HETATM   24  C   UNL     1      -5.978   7.325  70.907  1.00  0.00    -0.035 C  
HETATM   25  H   UNL     1      -4.990   7.283  69.184  1.00  0.00     0.000 HD 
HETATM   26  O   UNL     1      -5.263   8.251  71.300  1.00  0.00    -0.029 OA 
BRANCH  24  27
HETATM   27  C   UNL     1      -7.256   6.931  71.666  1.00  0.00    -0.079 C  
BRANCH  27  28
HETATM   28  O   UNL     1      -7.267   5.989  72.726  1.00  0.00    -0.086 OA 
BRANCH  28  29
HETATM   29  C   UNL     1      -8.485   5.461  73.131  1.00  0.00    -0.118 A  
HETATM   30  C   UNL     1      -8.361   2.992  72.170  1.00  0.00    -0.072 C  
HETATM   31  C   UNL     1      -8.969   4.140  72.938  1.00  0.00    -0.115 A  
HETATM   32  C   UNL     1     -10.193   3.767  73.545  1.00  0.00    -0.213 A  
HETATM   33  C   UNL     1     -10.947   4.649  74.303  1.00  0.00    -0.022 A  
HETATM   34  C   UNL     1     -10.501   5.949  74.462  1.00  0.00    -0.127 A  
HETATM   35  C   UNL     1      -9.291   6.373  73.879  1.00  0.00    -0.161 A  
HETATM   36  C   UNL     1      -8.910   7.819  74.085  1.00  0.00    -0.256 C  
ENDBRANCH  28  29
ENDBRANCH  27  28
ENDBRANCH  24  27
ENDBRANCH  22  23
BRANCH  22  37
HETATM   37  C   UNL     1      -7.018   4.484  69.630  1.00  0.00    -0.049 C  
BRANCH  37  38
HETATM   38  C   UNL     1      -7.682   3.527  68.678  1.00  0.00    -0.055 A  
HETATM   39  C   UNL     1      -8.848   1.556  67.067  1.00  0.00    -0.130 A  
HETATM   40  C   UNL     1      -6.960   2.956  67.627  1.00  0.00    -0.049 A  
HETATM   41  C   UNL     1      -9.593   2.171  68.064  1.00  0.00    -0.091 A  
HETATM   42  C   UNL     1      -9.025   3.185  68.830  1.00  0.00    -0.188 A  
HETATM   43  C   UNL     1      -7.541   1.976  66.826  1.00  0.00    -0.065 A  
ENDBRANCH  37  38
ENDBRANCH  22  37
ENDBRANCH  19  22
ENDBRANCH  18  19
ENDBRANCH  17  18
BRANCH  17  44
HETATM   44  C   UNL     1      -9.099   7.025  68.211  1.00  0.00    -0.126 C  
BRANCH  44  45
HETATM   45  C   UNL     1      -9.862   7.609  69.385  1.00  0.00    -0.171 A  
HETATM   46  C   UNL     1      -9.700   8.951  69.768  1.00  0.00    -0.180 A  
HETATM   47  C   UNL     1     -10.731   6.802  70.130  1.00  0.00    -0.274 A  
HETATM   48  C   UNL     1     -10.361   9.456  70.893  1.00  0.00    -0.380 A  
HETATM   49  C   UNL     1     -11.394   7.310  71.251  1.00  0.00    -0.290 A  
HETATM   50  C   UNL     1     -11.202   8.633  71.639  1.00  0.00    -0.379 A  
ENDBRANCH  44  45
ENDBRANCH  17  44
ENDBRANCH  15  17
ENDBRANCH   3  13
TORSDOF 14
ENDMDL
MODEL      306
REMARK 921   NORMALIZED FREE ENERGY PREDICTED BY IDOCK:    2.09 KCAL/MOL
REMARK 922        TOTAL FREE ENERGY PREDICTED BY IDOCK:   -0.75 KCAL/MOL
REMARK 923 INTER-LIGAND FREE ENERGY PREDICTED BY IDOCK:   -3.75 KCAL/MOL
REMARK 924 INTRA-LIGAND FREE ENERGY PREDICTED BY IDOCK:    3.00 KCAL/MOL
REMARK 927      BINDING AFFINITY PREDICTED BY RF-SCORE:    0.00 PKD
ROOT
HETATM    1  C   UNL     1      -5.542  13.348  67.052  1.00  0.00     0.883 C  
HETATM    2  C   UNL     1      -5.619  12.088  67.928  1.00  0.00    -0.060 C  
HETATM    3  C   UNL     1      -6.720  12.231  69.023  1.00  0.00    -0.105 C  
HETATM    4  C   UNL     1      -5.807  10.874  67.015  1.00  0.00    -0.064 C  
ENDROOT
BRANCH   3   5
HETATM    5  N   UNL     1      -6.434  13.361  69.937  1.00  0.00    -0.054 N  
HETATM    6  H   UNL     1      -5.749  16.531  69.922  1.00  0.00     0.000 HD 
HETATM    7  O   UNL     1      -6.721  14.970  68.315  1.00  0.00    -0.098 OA 
HETATM    8  C   UNL     1      -6.355  13.146  71.377  1.00  0.00     1.492 C  
HETATM    9  C   UNL     1      -6.369  14.647  69.446  1.00  0.00    -0.125 C  
HETATM   10  C   UNL     1      -5.139  13.873  71.920  1.00  0.00    -0.180 C  
HETATM   11  N   UNL     1      -5.818  15.579  70.280  1.00  0.00    -0.149 N  
HETATM   12  C   UNL     1      -5.321  15.347  71.620  1.00  0.00     0.082 C  
ENDBRANCH   3   5
BRANCH   3  13
HETATM   13  C   UNL     1      -6.963  10.889  69.781  1.00  0.00    -0.120 C  
HETATM   14  O   UNL     1      -7.948  10.675  70.480  1.00  0.00     0.423 OA 
HETATM   15  N   UNL     1      -5.933   9.977  69.678  1.00  0.00    -0.041 N  
HETATM   16  H   UNL     1      -5.162  10.230  69.060  1.00  0.00     0.000 HD 
BRANCH  15  17
HETATM   17  C   UNL     1      -5.824   8.688  70.359  1.00  0.00    -0.027 C  
BRANCH  17  18
HETATM   18  C   UNL     1      -6.156   7.477  69.459  1.00  0.00    -0.031 C  
BRANCH  18  19
HETATM   19  C   UNL     1      -6.754   7.615  68.035  1.00  0.00    -0.063 C  
HETATM   20  O   UNL     1      -5.840   8.340  67.207  1.00  0.00    -0.041 OA 
HETATM   21  H   UNL     1      -6.206   8.425  66.334  1.00  0.00     0.000 HD 
BRANCH  19  22
HETATM   22  C   UNL     1      -8.113   8.418  68.068  1.00  0.00    -0.123 C  
BRANCH  22  23
HETATM   23  N   UNL     1      -8.681   8.707  66.701  1.00  0.00    -0.119 N  
HETATM   24  C   UNL     1      -8.915   9.805  65.901  1.00  0.00    -0.156 C  
HETATM   25  H   UNL     1      -8.974   7.848  66.238  1.00  0.00     0.000 HD 
HETATM   26  O   UNL     1      -9.167   9.613  64.708  1.00  0.00    -0.234 OA 
BRANCH  24  27
HETATM   27  C   UNL     1      -8.976  11.217  66.508  1.00  0.00    -0.178 C  
BRANCH  27  28
HETATM   28  O   UNL     1      -9.308  12.371  65.753  1.00  0.00    -0.151 OA 
BRANCH  28  29
HETATM   29  C   UNL     1     -10.550  12.957  65.949  1.00  0.00    -0.269 A  
HETATM   30  C   UNL     1     -10.196  14.240  68.243  1.00  0.00    -0.244 C  
HETATM   31  C   UNL     1     -10.951  13.814  67.008  1.00  0.00    -0.297 A  
HETATM   32  C   UNL     1     -12.234  14.411  66.953  1.00  0.00    -0.300 A  
HETATM   33  C   UNL     1     -13.121  14.174  65.915  1.00  0.00     0.061 A  
HETATM   34  C   UNL     1     -12.753  13.308  64.901  1.00  0.00    -0.391 A  
HETATM   35  C   UNL     1     -11.488  12.687  64.907  1.00  0.00    -0.361 A  
HETATM   36  C   UNL     1     -11.197  11.736  63.772  1.00  0.00    -0.518 C  
ENDBRANCH  28  29
ENDBRANCH  27  28
ENDBRANCH  24  27
ENDBRANCH  22  23
BRANCH  22  37
HETATM   37  C   UNL     1      -9.091   7.908  69.161  1.00  0.00    -0.145 C  
BRANCH  37  38
HETATM   38  C   UNL     1     -10.188   8.876  69.509  1.00  0.00    -0.204 A  
HETATM   39  C   UNL     1     -12.370  10.569  69.972  1.00  0.00    -0.290 A  
HETATM   40  C   UNL     1     -10.260  10.122  68.883  1.00  0.00    -0.213 A  
HETATM   41  C   UNL     1     -12.267   9.362  70.653  1.00  0.00    -0.147 A  
HETATM   42  C   UNL     1     -11.157   8.547  70.457  1.00  0.00    -0.265 A  
HETATM   43  C   UNL     1     -11.346  10.964  69.114  1.00  0.00    -0.350 A  
ENDBRANCH  37  38
ENDBRANCH  22  37
ENDBRANCH  19  22
ENDBRANCH  18  19
ENDBRANCH  17  18
BRANCH  17  44
HETATM   44  C   UNL     1      -6.371   8.692  71.803  1.00  0.00    -0.071 C  
BRANCH  44  45
HETATM   45  C   UNL     1      -6.951   7.359  72.236  1.00  0.00    -0.063 A  
HETATM   46  C   UNL     1      -8.339   7.161  72.330  1.00  0.00    -0.119 A  
HETATM   47  C   UNL     1      -6.102   6.300  72.580  1.00  0.00    -0.042 A  
HETATM   48  C   UNL     1      -8.857   5.947  72.796  1.00  0.00    -0.124 A  
HETATM   49  C   UNL     1      -6.621   5.087  73.041  1.00  0.00    -0.061 A  
HETATM   50  C   UNL     1      -7.997   4.913  73.158  1.00  0.00    -0.101 A  
ENDBRANCH  44  45
ENDBRANCH  17  44
ENDBRANCH  15  17
ENDBRANCH   3  13
TORSDOF 14
ENDMDL
MODEL      307
REMARK 921   NORMALIZED FREE ENERGY PREDICTED BY IDOCK:    3.30 KCAL/MOL
REMARK 922        TOTAL FREE ENERGY PREDICTED BY IDOCK:    1.45 KCAL/MOL
REMARK 923 INTER-LIGAND FREE ENERGY PREDICTED BY IDOCK:   -3.19 KCAL/MOL
REMARK 924 INTRA-LIGAND FREE ENERGY PREDICTED BY IDOCK:    4.64 KCAL/MOL
REMARK 927      BINDING AFFINITY PREDICTED BY RF-SCORE:    0.00 PKD
ROOT
HETATM    1  C   UNL     1     -11.873   5.061  65.221  1.00  0.00     1.984 C  
HETATM    2  C   UNL     1     -10.366   4.764  65.181  1.00  0.00     0.037 C  
HETATM    3  C   UNL     1      -9.609   5.548  66.297  1.00  0.00    -0.156 C  
HETATM    4  C   UNL     1     -10.169   3.248  65.246  1.00  0.00     0.354 C  
ENDROOT
BRANCH   3   5
HETATM    5  N   UNL     1      -9.753   7.012  66.125  1.00  0.00     0.027 N  
HETATM    6  H   UNL     1      -8.559   9.500  64.420  1.00  0.00     0.000 HD 
HETATM    7  O   UNL     1      -8.555   7.072  64.160  1.00  0.00     0.206 OA 
HETATM    8  C   UNL     1     -10.680   7.768  66.958  1.00  0.00    -0.246 C  
HETATM    9  C   UNL     1      -9.107   7.653  65.090  1.00  0.00     0.485 C  
HETATM   10  C   UNL     1      -9.994   9.030  67.445  1.00  0.00    -0.266 C  
HETATM   11  N   UNL     1      -9.048   9.015  65.172  1.00  0.00    -0.184 N  
HETATM   12  C   UNL     1      -9.612   9.838  66.222  1.00  0.00    -0.213 C  
ENDBRANCH   3   5
BRANCH   3  13
HETATM   13  C   UNL     1      -8.120   5.099  66.414  1.00  0.00    -0.108 C  
HETATM   14  O   UNL     1      -7.424   4.803  65.449  1.00  0.00    -0.075 OA 
HETATM   15  N   UNL     1      -7.658   4.971  67.709  1.00  0.00    -0.083 N  
HETATM   16  H   UNL     1      -8.298   5.258  68.449  1.00  0.00     0.000 HD 
BRANCH  15  17
HETATM   17  C   UNL     1      -6.353   4.471  68.135  1.00  0.00    -0.037 C  
BRANCH  17  18
HETATM   18  C   UNL     1      -6.057   4.698  69.634  1.00  0.00    -0.019 C  
BRANCH  18  19
HETATM   19  C   UNL     1      -6.279   6.056  70.348  1.00  0.00    -0.031 C  
HETATM   20  O   UNL     1      -5.278   6.229  71.355  1.00  0.00    -0.020 OA 
HETATM   21  H   UNL     1      -5.414   7.062  71.793  1.00  0.00     0.000 HD 
BRANCH  19  22
HETATM   22  C   UNL     1      -7.688   6.095  71.060  1.00  0.00    -0.102 C  
BRANCH  22  23
HETATM   23  N   UNL     1      -8.149   7.486  71.416  1.00  0.00    -0.095 N  
HETATM   24  C   UNL     1      -9.339   8.141  71.649  1.00  0.00    -0.174 C  
HETATM   25  H   UNL     1      -7.357   8.120  71.513  1.00  0.00     0.000 HD 
HETATM   26  O   UNL     1      -9.296   9.255  72.179  1.00  0.00    -0.177 OA 
BRANCH  24  27
HETATM   27  C   UNL     1     -10.669   7.550  71.150  1.00  0.00    -0.227 C  
BRANCH  27  28
HETATM   28  O   UNL     1     -11.616   8.295  70.402  1.00  0.00    -0.198 OA 
BRANCH  28  29
HETATM   29  C   UNL     1     -11.886   9.601  70.788  1.00  0.00    -0.300 A  
HETATM   30  C   UNL     1     -10.142  10.975  69.337  1.00  0.00    -0.060 C  
HETATM   31  C   UNL     1     -11.285  10.793  70.305  1.00  0.00    -0.326 A  
HETATM   32  C   UNL     1     -11.798  12.039  70.741  1.00  0.00     0.045 A  
HETATM   33  C   UNL     1     -12.851  12.138  71.638  1.00  0.00    -0.390 A  
HETATM   34  C   UNL     1     -13.414  10.980  72.143  1.00  0.00    -0.200 A  
HETATM   35  C   UNL     1     -12.941   9.714  71.743  1.00  0.00    -0.514 A  
HETATM   36  C   UNL     1     -13.602   8.514  72.377  1.00  0.00    -0.327 C  
ENDBRANCH  28  29
ENDBRANCH  27  28
ENDBRANCH  24  27
ENDBRANCH  22  23
BRANCH  22  37
HETATM   37  C   UNL     1      -8.722   5.138  70.408  1.00  0.00    -0.130 C  
BRANCH  37  38
HETATM   38  C   UNL     1      -9.662   4.485  71.385  1.00  0.00    -0.248 A  
HETATM   39  C   UNL     1     -11.242   3.331  73.387  1.00  0.00    -0.249 A  
HETATM   40  C   UNL     1      -9.550   3.123  71.676  1.00  0.00    -0.227 A  
HETATM   41  C   UNL     1     -11.409   4.669  73.053  1.00  0.00    -0.287 A  
HETATM   42  C   UNL     1     -10.655   5.226  72.023  1.00  0.00    -0.279 A  
HETATM   43  C   UNL     1     -10.337   2.550  72.672  1.00  0.00    -0.228 A  
ENDBRANCH  37  38
ENDBRANCH  22  37
ENDBRANCH  19  22
ENDBRANCH  18  19
ENDBRANCH  17  18
BRANCH  17  44
HETATM   44  C   UNL     1      -5.218   4.733  67.122  1.00  0.00    -0.008 C  
BRANCH  44  45
HETATM   45  C   UNL     1      -5.235   6.134  66.539  1.00  0.00    -0.009 A  
HETATM   46  C   UNL     1      -5.182   6.348  65.151  1.00  0.00    -0.014 A  
HETATM   47  C   UNL     1      -5.278   7.248  67.385  1.00  0.00    -0.020 A  
HETATM   48  C   UNL     1      -5.132   7.647  64.632  1.00  0.00    -0.029 A  
HETATM   49  C   UNL     1      -5.232   8.544  66.864  1.00  0.00    -0.036 A  
HETATM   50  C   UNL     1      -5.149   8.744  65.489  1.00  0.00    -0.033 A  
ENDBRANCH  44  45
ENDBRANCH  17  44
ENDBRANCH  15  17
ENDBRANCH   3  13
TORSDOF 14
ENDMDL
MODEL      308
REMARK 921   NORMALIZED FREE ENERGY PREDICTED BY IDOCK:    3.98 KCAL/MOL
REMARK 922        TOTAL FREE ENERGY PREDICTED BY IDOCK:    2.68 KCAL/MOL
REMARK 923 INTER-LIGAND FREE ENERGY PREDICTED BY IDOCK:   -1.61 KCAL/MOL
REMARK 924 INTRA-LIGAND FREE ENERGY PREDICTED BY IDOCK:    4.30 KCAL/MOL
REMARK 927      BINDING AFFINITY PREDICTED BY RF-SCORE:    0.00 PKD
ROOT
HETATM    1  C   UNL     1     -10.653  16.134  66.155  1.00  0.00    -0.288 C  
HETATM    2  C   UNL     1     -10.388  14.652  66.462  1.00  0.00    -0.283 C  
HETATM    3  C   UNL     1      -9.886  14.462  67.926  1.00  0.00    -0.224 C  
HETATM    4  C   UNL     1     -11.651  13.854  66.132  1.00  0.00    -0.371 C  
ENDROOT
BRANCH   3   5
HETATM    5  N   UNL     1      -8.608  15.175  68.160  1.00  0.00    -0.154 N  
HETATM    6  H   UNL     1      -7.425  17.932  69.393  1.00  0.00     0.000 HD 
HETATM    7  O   UNL     1      -9.533  16.717  69.598  1.00  0.00    -0.003 OA 
HETATM    8  C   UNL     1      -7.347  14.602  67.706  1.00  0.00    -0.173 C  
HETATM    9  C   UNL     1      -8.587  16.324  68.922  1.00  0.00    -0.260 C  
HETATM   10  C   UNL     1      -6.525  15.684  67.034  1.00  0.00     0.186 C  
HETATM   11  N   UNL     1      -7.447  17.072  68.845  1.00  0.00    -0.239 N  
HETATM   12  C   UNL     1      -6.267  16.764  68.064  1.00  0.00    -0.136 C  
ENDBRANCH   3   5
BRANCH   3  13
HETATM   13  C   UNL     1      -9.817  12.956  68.326  1.00  0.00    -0.228 C  
HETATM   14  O   UNL     1      -8.770  12.369  68.574  1.00  0.00    -0.152 OA 
HETATM   15  N   UNL     1     -11.030  12.298  68.297  1.00  0.00    -0.218 N  
HETATM   16  H   UNL     1     -11.852  12.869  68.100  1.00  0.00     0.000 HD 
BRANCH  15  17
HETATM   17  C   UNL     1     -11.266  10.873  68.515  1.00  0.00    -0.274 C  
BRANCH  17  18
HETATM   18  C   UNL     1     -10.849  10.379  69.918  1.00  0.00    -0.353 C  
BRANCH  18  19
HETATM   19  C   UNL     1      -9.510  10.772  70.594  1.00  0.00     2.429 C  
HETATM   20  O   UNL     1      -8.556  11.119  69.587  1.00  0.00    -0.281 OA 
HETATM   21  H   UNL     1      -7.735  11.360  70.001  1.00  0.00     0.000 HD 
BRANCH  19  22
HETATM   22  C   UNL     1      -8.918   9.563  71.420  1.00  0.00     0.534 C  
BRANCH  22  23
HETATM   23  N   UNL     1      -9.865   9.016  72.459  1.00  0.00     0.155 N  
HETATM   24  C   UNL     1     -10.536   7.840  72.714  1.00  0.00    -0.328 C  
HETATM   25  H   UNL     1     -10.064   9.714  73.175  1.00  0.00     0.000 HD 
HETATM   26  O   UNL     1     -11.033   7.684  73.833  1.00  0.00    -0.072 OA 
BRANCH  24  27
HETATM   27  C   UNL     1     -10.759   6.808  71.595  1.00  0.00    -0.225 C  
BRANCH  27  28
HETATM   28  O   UNL     1     -11.068   5.447  71.848  1.00  0.00    -0.207 OA 
BRANCH  28  29
HETATM   29  C   UNL     1     -10.022   4.548  72.010  1.00  0.00    -0.191 A  
HETATM   30  C   UNL     1      -9.286   5.006  74.516  1.00  0.00    -0.119 C  
HETATM   31  C   UNL     1      -9.255   4.306  73.180  1.00  0.00    -0.122 A  
HETATM   32  C   UNL     1      -8.313   3.250  73.170  1.00  0.00    -0.078 A  
HETATM   33  C   UNL     1      -8.095   2.456  72.054  1.00  0.00    -0.053 A  
HETATM   34  C   UNL     1      -8.810   2.713  70.897  1.00  0.00    -0.143 A  
HETATM   35  C   UNL     1      -9.760   3.753  70.853  1.00  0.00    -0.248 A  
HETATM   36  C   UNL     1     -10.463   3.971  69.535  1.00  0.00     1.171 C  
ENDBRANCH  28  29
ENDBRANCH  27  28
ENDBRANCH  24  27
ENDBRANCH  22  23
BRANCH  22  37
HETATM   37  C   UNL     1      -8.153   8.543  70.534  1.00  0.00    -0.112 C  
BRANCH  37  38
HETATM   38  C   UNL     1      -7.165   7.692  71.284  1.00  0.00    -0.062 A  
HETATM   39  C   UNL     1      -5.483   6.126  72.884  1.00  0.00    -0.036 A  
HETATM   40  C   UNL     1      -6.117   8.282  71.996  1.00  0.00    -0.052 A  
HETATM   41  C   UNL     1      -6.477   5.526  72.122  1.00  0.00    -0.056 A  
HETATM   42  C   UNL     1      -7.279   6.303  71.291  1.00  0.00    -0.079 A  
HETATM   43  C   UNL     1      -5.281   7.501  72.791  1.00  0.00    -0.037 A  
ENDBRANCH  37  38
ENDBRANCH  22  37
ENDBRANCH  19  22
ENDBRANCH  18  19
ENDBRANCH  17  18
BRANCH  17  44
HETATM   44  C   UNL     1     -10.920   9.984  67.300  1.00  0.00    -0.225 C  
BRANCH  44  45
HETATM   45  C   UNL     1      -9.577  10.308  66.673  1.00  0.00    -0.220 A  
HETATM   46  C   UNL     1      -9.482  11.110  65.524  1.00  0.00    -0.251 A  
HETATM   47  C   UNL     1      -8.400   9.784  67.221  1.00  0.00    -0.121 A  
HETATM   48  C   UNL     1      -8.242  11.345  64.919  1.00  0.00     0.660 A  
HETATM   49  C   UNL     1      -7.162  10.023  66.618  1.00  0.00    -0.099 A  
HETATM   50  C   UNL     1      -7.083  10.795  65.462  1.00  0.00     0.025 A  
ENDBRANCH  44  45
ENDBRANCH  17  44
ENDBRANCH  15  17
ENDBRANCH   3  13
TORSDOF 14
ENDMDL
MODEL      309
REMARK 921   NORMALIZED FREE ENERGY PREDICTED BY IDOCK:    4.41 KCAL/MOL
REMARK 922        TOTAL FREE ENERGY PREDICTED BY IDOCK:    3.46 KCAL/MOL
REMARK 923 INTER-LIGAND FREE ENERGY PREDICTED BY IDOCK:   -0.36 KCAL/MOL
REMARK 924 INTRA-LIGAND FREE ENERGY PREDICTED BY IDOCK:    3.82 KCAL/MOL
REMARK 927      BINDING AFFINITY PREDICTED BY RF-SCORE:    0.00 PKD
ROOT
HETATM    1  C   UNL     1     -10.201  13.159  65.596  1.00  0.00    -0.294 C  
HETATM    2  C   UNL     1      -9.693  12.092  66.579  1.00  0.00    -0.234 C  
HETATM    3  C   UNL     1      -8.287  11.564  66.157  1.00  0.00    -0.018 C  
HETATM    4  C   UNL     1      -9.737  12.675  67.993  1.00  0.00    -0.215 C  
ENDROOT
BRANCH   3   5
HETATM    5  N   UNL     1      -8.326  10.922  64.822  1.00  0.00     0.009 N  
HETATM    6  H   UNL     1     -10.374   9.513  62.738  1.00  0.00     0.000 HD 
HETATM    7  O   UNL     1     -10.622  10.994  64.665  1.00  0.00    -0.333 OA 
HETATM    8  C   UNL     1      -7.101  10.741  64.052  1.00  0.00     0.414 C  
HETATM    9  C   UNL     1      -9.536  10.608  64.242  1.00  0.00    -0.296 C  
HETATM   10  C   UNL     1      -7.080   9.337  63.479  1.00  0.00    -0.090 C  
HETATM   11  N   UNL     1      -9.484   9.766  63.167  1.00  0.00    -0.102 N  
HETATM   12  C   UNL     1      -8.290   9.197  62.578  1.00  0.00    -0.189 C  
ENDBRANCH   3   5
BRANCH   3  13
HETATM   13  C   UNL     1      -7.661  10.644  67.250  1.00  0.00    -0.100 C  
HETATM   14  O   UNL     1      -6.690  10.963  67.927  1.00  0.00    -0.063 OA 
HETATM   15  N   UNL     1      -8.231   9.391  67.341  1.00  0.00    -0.120 N  
HETATM   16  H   UNL     1      -9.047   9.219  66.754  1.00  0.00     0.000 HD 
BRANCH  15  17
HETATM   17  C   UNL     1      -7.795   8.283  68.188  1.00  0.00    -0.118 C  
BRANCH  17  18
HETATM   18  C   UNL     1      -6.619   7.473  67.599  1.00  0.00    -0.062 C  
BRANCH  18  19
HETATM   19  C   UNL     1      -6.316   6.004  67.994  1.00  0.00    -0.044 C  
HETATM   20  O   UNL     1      -7.462   5.194  67.716  1.00  0.00    -0.078 OA 
HETATM   21  H   UNL     1      -7.277   4.294  67.958  1.00  0.00     0.000 HD 
BRANCH  19  22
HETATM   22  C   UNL     1      -6.009   5.886  69.538  1.00  0.00    -0.024 C  
BRANCH  22  23
HETATM   23  N   UNL     1      -5.609   7.191  70.179  1.00  0.00    -0.023 N  
HETATM   24  C   UNL     1      -5.937   7.924  71.299  1.00  0.00    -0.034 C  
HETATM   25  H   UNL     1      -4.894   7.666  69.628  1.00  0.00     0.000 HD 
HETATM   26  O   UNL     1      -5.190   8.851  71.628  1.00  0.00    -0.035 OA 
BRANCH  24  27
HETATM   27  C   UNL     1      -7.258   7.668  72.044  1.00  0.00    -0.070 C  
BRANCH  27  28
HETATM   28  O   UNL     1      -7.390   6.704  73.077  1.00  0.00    -0.081 OA 
BRANCH  28  29
HETATM   29  C   UNL     1      -8.663   6.391  73.533  1.00  0.00    -0.123 A  
HETATM   30  C   UNL     1      -9.756   8.792  73.803  1.00  0.00     2.191 C  
HETATM   31  C   UNL     1      -9.730   7.284  73.817  1.00  0.00    -0.344 A  
HETATM   32  C   UNL     1     -10.997   6.746  74.151  1.00  0.00     0.716 A  
HETATM   33  C   UNL     1     -11.229   5.382  74.233  1.00  0.00     1.008 A  
HETATM   34  C   UNL     1     -10.182   4.508  73.997  1.00  0.00    -0.253 A  
HETATM   35  C   UNL     1      -8.902   4.989  73.661  1.00  0.00    -0.108 A  
HETATM   36  C   UNL     1      -7.823   3.954  73.454  1.00  0.00    -0.084 C  
ENDBRANCH  28  29
ENDBRANCH  27  28
ENDBRANCH  24  27
ENDBRANCH  22  23
BRANCH  22  37
HETATM   37  C   UNL     1      -7.035   4.998  70.293  1.00  0.00    -0.052 C  
BRANCH  37  38
HETATM   38  C   UNL     1      -6.451   3.741  70.879  1.00  0.00    -0.030 A  
HETATM   39  C   UNL     1      -5.133   1.490  71.897  1.00  0.00     0.000 A  
HETATM   40  C   UNL     1      -6.298   2.597  70.092  1.00  0.00    -0.028 A  
HETATM   41  C   UNL     1      -5.346   2.599  72.707  1.00  0.00     0.000 A  
HETATM   42  C   UNL     1      -6.045   3.696  72.212  1.00  0.00    -0.013 A  
HETATM   43  C   UNL     1      -5.643   1.477  70.601  1.00  0.00    -0.012 A  
ENDBRANCH  37  38
ENDBRANCH  22  37
ENDBRANCH  19  22
ENDBRANCH  18  19
ENDBRANCH  17  18
BRANCH  17  44
HETATM   44  C   UNL     1      -8.952   7.505  68.851  1.00  0.00    -0.134 C  
BRANCH  44  45
HETATM   45  C   UNL     1      -9.873   8.377  69.684  1.00  0.00    -0.184 A  
HETATM   46  C   UNL     1     -11.060   7.867  70.237  1.00  0.00    -0.232 A  
HETATM   47  C   UNL     1      -9.564   9.726  69.894  1.00  0.00    -0.269 A  
HETATM   48  C   UNL     1     -11.931   8.701  70.946  1.00  0.00    -0.220 A  
HETATM   49  C   UNL     1     -10.433  10.556  70.607  1.00  0.00     0.472 A  
HETATM   50  C   UNL     1     -11.621  10.047  71.124  1.00  0.00    -0.460 A  
ENDBRANCH  44  45
ENDBRANCH  17  44
ENDBRANCH  15  17
ENDBRANCH   3  13
TORSDOF 14
ENDMDL
MODEL      310
REMARK 921   NORMALIZED FREE ENERGY PREDICTED BY IDOCK:    4.89 KCAL/MOL
REMARK 922        TOTAL FREE ENERGY PREDICTED BY IDOCK:    4.34 KCAL/MOL
REMARK 923 INTER-LIGAND FREE ENERGY PREDICTED BY IDOCK:    5.02 KCAL/MOL
REMARK 924 INTRA-LIGAND FREE ENERGY PREDICTED BY IDOCK:   -0.68 KCAL/MOL
REMARK 927      BINDING AFFINITY PREDICTED BY RF-SCORE:    0.00 PKD
ROOT
HETATM    1  C   UNL     1     -12.944  16.862  69.111  1.00  0.00     4.689 C  
HETATM    2  C   UNL     1     -11.416  16.718  69.047  1.00  0.00     0.157 C  
HETATM    3  C   UNL     1     -11.007  15.368  68.379  1.00  0.00    -0.284 C  
HETATM    4  C   UNL     1     -10.840  17.953  68.350  1.00  0.00    -0.043 C  
ENDROOT
BRANCH   3   5
HETATM    5  N   UNL     1     -11.506  14.207  69.151  1.00  0.00    -0.277 N  
HETATM    6  H   UNL     1     -11.011  12.593  71.921  1.00  0.00     0.000 HD 
HETATM    7  O   UNL     1     -10.429  14.815  71.093  1.00  0.00     0.394 OA 
HETATM    8  C   UNL     1     -12.559  13.356  68.610  1.00  0.00     0.646 C  
HETATM    9  C   UNL     1     -11.071  13.997  70.442  1.00  0.00     0.336 C  
HETATM   10  C   UNL     1     -12.181  11.903  68.826  1.00  0.00    -0.007 C  
HETATM   11  N   UNL     1     -11.341  12.767  70.972  1.00  0.00     1.599 N  
HETATM   12  C   UNL     1     -12.049  11.686  70.319  1.00  0.00    -0.358 C  
ENDBRANCH   3   5
BRANCH   3  13
HETATM   13  C   UNL     1      -9.472  15.296  68.108  1.00  0.00    -0.203 C  
HETATM   14  O   UNL     1      -8.980  15.340  66.986  1.00  0.00    -0.204 OA 
HETATM   15  N   UNL     1      -8.699  15.088  69.233  1.00  0.00    -0.348 N  
HETATM   16  H   UNL     1      -9.190  15.085  70.127  1.00  0.00     0.000 HD 
BRANCH  15  17
HETATM   17  C   UNL     1      -7.255  14.872  69.284  1.00  0.00    -0.172 C  
BRANCH  17  18
HETATM   18  C   UNL     1      -6.838  13.397  69.096  1.00  0.00    -0.076 C  
BRANCH  18  19
HETATM   19  C   UNL     1      -7.809  12.295  68.601  1.00  0.00    -0.063 C  
HETATM   20  O   UNL     1      -7.695  11.148  69.450  1.00  0.00    -0.321 OA 
HETATM   21  H   UNL     1      -8.290  10.472  69.146  1.00  0.00     0.000 HD 
BRANCH  19  22
HETATM   22  C   UNL     1      -7.450  11.843  67.132  1.00  0.00    -0.146 C  
BRANCH  22  23
HETATM   23  N   UNL     1      -8.190  12.607  66.063  1.00  0.00     0.224 N  
HETATM   24  C   UNL     1      -9.489  12.967  65.776  1.00  0.00     0.033 C  
HETATM   25  H   UNL     1      -7.548  12.956  65.353  1.00  0.00     0.000 HD 
HETATM   26  O   UNL     1      -9.676  13.836  64.920  1.00  0.00    -0.091 OA 
BRANCH  24  27
HETATM   27  C   UNL     1     -10.669  12.220  66.421  1.00  0.00    -0.251 C  
BRANCH  27  28
HETATM   28  O   UNL     1     -10.923  10.841  66.204  1.00  0.00    -0.115 OA 
BRANCH  28  29
HETATM   29  C   UNL     1     -10.350  10.227  65.100  1.00  0.00    -0.128 A  
HETATM   30  C   UNL     1     -11.614  11.414  63.093  1.00  0.00     0.138 C  
HETATM   31  C   UNL     1     -10.604  10.490  63.728  1.00  0.00     0.309 A  
HETATM   32  C   UNL     1      -9.814   9.836  62.751  1.00  0.00     0.666 A  
HETATM   33  C   UNL     1      -8.817   8.933  63.083  1.00  0.00     0.040 A  
HETATM   34  C   UNL     1      -8.591   8.641  64.417  1.00  0.00    -0.068 A  
HETATM   35  C   UNL     1      -9.349   9.263  65.429  1.00  0.00    -0.292 A  
HETATM   36  C   UNL     1      -9.047   8.853  66.850  1.00  0.00    -0.163 C  
ENDBRANCH  28  29
ENDBRANCH  27  28
ENDBRANCH  24  27
ENDBRANCH  22  23
BRANCH  22  37
HETATM   37  C   UNL     1      -5.928  11.608  66.927  1.00  0.00    -0.145 C  
BRANCH  37  38
HETATM   38  C   UNL     1      -5.593  10.350  66.174  1.00  0.00    -0.074 A  
HETATM   39  C   UNL     1      -5.222   7.965  64.754  1.00  0.00    -0.029 A  
HETATM   40  C   UNL     1      -5.405   9.145  66.855  1.00  0.00    -0.039 A  
HETATM   41  C   UNL     1      -5.336   9.170  64.074  1.00  0.00    -0.060 A  
HETATM   42  C   UNL     1      -5.471  10.359  64.786  1.00  0.00    -0.139 A  
HETATM   43  C   UNL     1      -5.220   7.959  66.148  1.00  0.00    -0.025 A  
ENDBRANCH  37  38
ENDBRANCH  22  37
ENDBRANCH  19  22
ENDBRANCH  18  19
ENDBRANCH  17  18
BRANCH  17  44
HETATM   44  C   UNL     1      -6.534  15.699  70.370  1.00  0.00     0.172 C  
BRANCH  44  45
HETATM   45  C   UNL     1      -6.209  17.117  69.940  1.00  0.00    -0.128 A  
HETATM   46  C   UNL     1      -6.068  18.151  70.880  1.00  0.00     0.736 A  
HETATM   47  C   UNL     1      -6.069  17.425  68.582  1.00  0.00    -0.172 A  
HETATM   48  C   UNL     1      -5.835  19.466  70.463  1.00  0.00    -0.232 A  
HETATM   49  C   UNL     1      -5.831  18.739  68.167  1.00  0.00    -0.207 A  
HETATM   50  C   UNL     1      -5.724  19.761  69.106  1.00  0.00    -0.261 A  
ENDBRANCH  44  45
ENDBRANCH  17  44
ENDBRANCH  15  17
ENDBRANCH   3  13
TORSDOF 14
ENDMDL
MODEL      311
REMARK 921   NORMALIZED FREE ENERGY PREDICTED BY IDOCK:    5.06 KCAL/MOL
REMARK 922        TOTAL FREE ENERGY PREDICTED BY IDOCK:    4.65 KCAL/MOL
REMARK 923 INTER-LIGAND FREE ENERGY PREDICTED BY IDOCK:    0.84 KCAL/MOL
REMARK 924 INTRA-LIGAND FREE ENERGY PREDICTED BY IDOCK:    3.81 KCAL/MOL
REMARK 927      BINDING AFFINITY PREDICTED BY RF-SCORE:    0.00 PKD
ROOT
HETATM    1  C   UNL     1      -9.436  16.650  64.331  1.00  0.00     4.839 C  
HETATM    2  C   UNL     1      -9.315  15.970  65.704  1.00  0.00    -0.124 C  
HETATM    3  C   UNL     1      -9.993  16.828  66.817  1.00  0.00    -0.282 C  
HETATM    4  C   UNL     1      -9.872  14.549  65.592  1.00  0.00    -0.337 C  
ENDROOT
BRANCH   3   5
HETATM    5  N   UNL     1      -9.349  18.155  66.948  1.00  0.00    -0.270 N  
HETATM    6  H   UNL     1     -10.060  21.309  67.220  1.00  0.00     0.000 HD 
HETATM    7  O   UNL     1     -11.292  19.228  67.560  1.00  0.00    -0.165 OA 
HETATM    8  C   UNL     1      -7.897  18.279  66.925  1.00  0.00    -0.230 C  
HETATM    9  C   UNL     1     -10.113  19.270  67.221  1.00  0.00    -0.384 C  
HETATM   10  C   UNL     1      -7.512  19.436  66.023  1.00  0.00    -0.305 C  
HETATM   11  N   UNL     1      -9.500  20.476  67.035  1.00  0.00    -0.400 N  
HETATM   12  C   UNL     1      -8.135  20.690  66.602  1.00  0.00    -0.017 C  
ENDBRANCH   3   5
BRANCH   3  13
HETATM   13  C   UNL     1     -10.073  16.061  68.173  1.00  0.00    -0.234 C  
HETATM   14  O   UNL     1     -10.728  16.451  69.133  1.00  0.00    -0.274 OA 
HETATM   15  N   UNL     1      -9.272  14.939  68.247  1.00  0.00    -0.182 N  
HETATM   16  H   UNL     1      -8.777  14.678  67.394  1.00  0.00     0.000 HD 
BRANCH  15  17
HETATM   17  C   UNL     1      -9.054  14.086  69.412  1.00  0.00     0.616 C  
BRANCH  17  18
HETATM   18  C   UNL     1     -10.272  13.999  70.358  1.00  0.00     1.688 C  
BRANCH  18  19
HETATM   19  C   UNL     1     -11.597  13.290  69.976  1.00  0.00    -0.142 C  
HETATM   20  O   UNL     1     -12.454  13.239  71.120  1.00  0.00    -0.363 OA 
HETATM   21  H   UNL     1     -13.265  12.805  70.886  1.00  0.00     0.000 HD 
BRANCH  19  22
HETATM   22  C   UNL     1     -11.329  11.805  69.510  1.00  0.00    -0.248 C  
BRANCH  22  23
HETATM   23  N   UNL     1     -11.007  10.863  70.643  1.00  0.00    -0.231 N  
HETATM   24  C   UNL     1     -10.694   9.531  70.809  1.00  0.00    -0.321 C  
HETATM   25  H   UNL     1     -11.026  11.348  71.539  1.00  0.00     0.000 HD 
HETATM   26  O   UNL     1     -10.233   9.172  71.897  1.00  0.00    -0.332 OA 
BRANCH  24  27
HETATM   27  C   UNL     1     -11.022   8.507  69.709  1.00  0.00    -0.127 C  
BRANCH  27  28
HETATM   28  O   UNL     1     -11.445   7.182  69.986  1.00  0.00    -0.241 OA 
BRANCH  28  29
HETATM   29  C   UNL     1     -10.654   6.392  70.809  1.00  0.00    -0.238 A  
HETATM   30  C   UNL     1      -8.652   5.746  69.194  1.00  0.00    -0.110 C  
HETATM   31  C   UNL     1      -9.407   5.788  70.500  1.00  0.00    -0.189 A  
HETATM   32  C   UNL     1      -8.698   5.123  71.530  1.00  0.00    -0.141 A  
HETATM   33  C   UNL     1      -9.185   5.022  72.824  1.00  0.00    -0.144 A  
HETATM   34  C   UNL     1     -10.419   5.573  73.122  1.00  0.00    -0.252 A  
HETATM   35  C   UNL     1     -11.166   6.245  72.134  1.00  0.00    -0.326 A  
HETATM   36  C   UNL     1     -12.513   6.782  72.554  1.00  0.00     0.188 C  
ENDBRANCH  28  29
ENDBRANCH  27  28
ENDBRANCH  24  27
ENDBRANCH  22  23
BRANCH  22  37
HETATM   37  C   UNL     1     -12.335  11.318  68.432  1.00  0.00     0.405 C  
BRANCH  37  38
HETATM   38  C   UNL     1     -11.739  11.152  67.061  1.00  0.00     0.224 A  
HETATM   39  C   UNL     1     -10.439  10.998  64.586  1.00  0.00    -0.398 A  
HETATM   40  C   UNL     1     -12.081  12.028  66.028  1.00  0.00     0.062 A  
HETATM   41  C   UNL     1     -10.146  10.079  65.585  1.00  0.00    -0.321 A  
HETATM   42  C   UNL     1     -10.830  10.129  66.796  1.00  0.00    -0.129 A  
HETATM   43  C   UNL     1     -11.434  11.950  64.797  1.00  0.00    -0.323 A  
ENDBRANCH  37  38
ENDBRANCH  22  37
ENDBRANCH  19  22
ENDBRANCH  18  19
ENDBRANCH  17  18
BRANCH  17  44
HETATM   44  C   UNL     1      -7.653  14.230  70.044  1.00  0.00     0.557 C  
BRANCH  44  45
HETATM   45  C   UNL     1      -7.058  15.618  69.895  1.00  0.00    -0.016 A  
HETATM   46  C   UNL     1      -5.687  15.850  70.093  1.00  0.00    -0.166 A  
HETATM   47  C   UNL     1      -7.881  16.705  69.581  1.00  0.00     0.443 A  
HETATM   48  C   UNL     1      -5.165  17.147  70.017  1.00  0.00    -0.202 A  
HETATM   49  C   UNL     1      -7.358  17.999  69.502  1.00  0.00     0.214 A  
HETATM   50  C   UNL     1      -6.003  18.222  69.729  1.00  0.00    -0.237 A  
ENDBRANCH  44  45
ENDBRANCH  17  44
ENDBRANCH  15  17
ENDBRANCH   3  13
TORSDOF 14
ENDMDL
MODEL      312
REMARK 921   NORMALIZED FREE ENERGY PREDICTED BY IDOCK:    5.85 KCAL/MOL
REMARK 922        TOTAL FREE ENERGY PREDICTED BY IDOCK:    6.09 KCAL/MOL
REMARK 923 INTER-LIGAND FREE ENERGY PREDICTED BY IDOCK:   -0.10 KCAL/MOL
REMARK 924 INTRA-LIGAND FREE ENERGY PREDICTED BY IDOCK:    6.19 KCAL/MOL
REMARK 927      BINDING AFFINITY PREDICTED BY RF-SCORE:    0.00 PKD
ROOT
HETATM    1  C   UNL     1      -5.183  13.250  66.089  1.00  0.00     3.960 C  
HETATM    2  C   UNL     1      -5.620  12.140  67.057  1.00  0.00    -0.079 C  
HETATM    3  C   UNL     1      -6.911  12.548  67.832  1.00  0.00    -0.105 C  
HETATM    4  C   UNL     1      -5.756  10.835  66.269  1.00  0.00    -0.113 C  
ENDROOT
BRANCH   3   5
HETATM    5  N   UNL     1      -6.691  13.760  68.655  1.00  0.00    -0.092 N  
HETATM    6  H   UNL     1      -6.509  16.991  68.421  1.00  0.00     0.000 HD 
HETATM    7  O   UNL     1      -7.420  15.210  67.020  1.00  0.00    -0.184 OA 
HETATM    8  C   UNL     1      -6.403  13.646  70.079  1.00  0.00    -0.065 C  
HETATM    9  C   UNL     1      -6.885  15.011  68.107  1.00  0.00    -0.131 C  
HETATM   10  C   UNL     1      -5.256  14.576  70.428  1.00  0.00    -0.106 C  
HETATM   11  N   UNL     1      -6.386  16.061  68.823  1.00  0.00    -0.113 N  
HETATM   12  C   UNL     1      -5.698  15.986  70.095  1.00  0.00    -0.164 C  
ENDBRANCH   3   5
BRANCH   3  13
HETATM   13  C   UNL     1      -7.493  11.358  68.656  1.00  0.00    -0.119 C  
HETATM   14  O   UNL     1      -8.639  11.333  69.092  1.00  0.00    -0.039 OA 
HETATM   15  N   UNL     1      -6.586  10.358  68.941  1.00  0.00    -0.051 N  
HETATM   16  H   UNL     1      -5.661  10.451  68.522  1.00  0.00     0.000 HD 
BRANCH  15  17
HETATM   17  C   UNL     1      -6.805   9.180  69.777  1.00  0.00    -0.051 C  
BRANCH  17  18
HETATM   18  C   UNL     1      -7.165   7.906  68.980  1.00  0.00    -0.075 C  
BRANCH  18  19
HETATM   19  C   UNL     1      -7.505   7.919  67.467  1.00  0.00    -0.093 C  
HETATM   20  O   UNL     1      -6.339   8.283  66.723  1.00  0.00    -0.053 OA 
HETATM   21  H   UNL     1      -6.547   8.291  65.796  1.00  0.00     0.000 HD 
BRANCH  19  22
HETATM   22  C   UNL     1      -8.629   8.981  67.149  1.00  0.00    -0.116 C  
BRANCH  22  23
HETATM   23  N   UNL     1      -8.870   9.188  65.675  1.00  0.00    -0.173 N  
HETATM   24  C   UNL     1      -8.813  10.220  64.764  1.00  0.00    -0.196 C  
HETATM   25  H   UNL     1      -9.156   8.319  65.226  1.00  0.00     0.000 HD 
HETATM   26  O   UNL     1      -8.835   9.938  63.562  1.00  0.00    -0.197 OA 
BRANCH  24  27
HETATM   27  C   UNL     1      -8.841  11.684  65.236  1.00  0.00     0.237 C  
BRANCH  27  28
HETATM   28  O   UNL     1      -8.958  12.782  64.346  1.00  0.00     1.126 OA 
BRANCH  28  29
HETATM   29  C   UNL     1     -10.163  13.469  64.296  1.00  0.00    -0.007 A  
HETATM   30  C   UNL     1      -9.635  15.612  65.767  1.00  0.00    -0.361 C  
HETATM   31  C   UNL     1     -10.471  14.729  64.873  1.00  0.00    -0.398 A  
HETATM   32  C   UNL     1     -11.729  15.317  64.594  1.00  0.00    -0.308 A  
HETATM   33  C   UNL     1     -12.679  14.698  63.796  1.00  0.00     0.662 A  
HETATM   34  C   UNL     1     -12.401  13.452  63.264  1.00  0.00    -0.244 A  
HETATM   35  C   UNL     1     -11.165  12.822  63.510  1.00  0.00    -0.429 A  
HETATM   36  C   UNL     1     -10.973  11.451  62.910  1.00  0.00     0.218 C  
ENDBRANCH  28  29
ENDBRANCH  27  28
ENDBRANCH  24  27
ENDBRANCH  22  23
BRANCH  22  37
HETATM   37  C   UNL     1      -9.872   8.841  68.070  1.00  0.00    -0.201 C  
BRANCH  37  38
HETATM   38  C   UNL     1     -10.797  10.026  68.043  1.00  0.00    -0.311 A  
HETATM   39  C   UNL     1     -12.312  12.381  68.012  1.00  0.00     0.462 A  
HETATM   40  C   UNL     1     -11.311  10.551  69.232  1.00  0.00    -0.325 A  
HETATM   41  C   UNL     1     -11.864  11.824  66.821  1.00  0.00    -0.067 A  
HETATM   42  C   UNL     1     -11.154  10.627  66.837  1.00  0.00    -0.162 A  
HETATM   43  C   UNL     1     -12.065  11.723  69.215  1.00  0.00    -0.292 A  
ENDBRANCH  37  38
ENDBRANCH  22  37
ENDBRANCH  19  22
ENDBRANCH  18  19
ENDBRANCH  17  18
BRANCH  17  44
HETATM   44  C   UNL     1      -7.587   9.468  71.077  1.00  0.00     0.057 C  
BRANCH  44  45
HETATM   45  C   UNL     1      -8.932   8.770  71.144  1.00  0.00    -0.280 A  
HETATM   46  C   UNL     1      -9.106   7.468  70.647  1.00  0.00    -0.155 A  
HETATM   47  C   UNL     1     -10.041   9.432  71.686  1.00  0.00    -0.063 A  
HETATM   48  C   UNL     1     -10.368   6.864  70.657  1.00  0.00    -0.220 A  
HETATM   49  C   UNL     1     -11.300   8.825  71.699  1.00  0.00    -0.390 A  
HETATM   50  C   UNL     1     -11.466   7.546  71.176  1.00  0.00    -0.295 A  
ENDBRANCH  44  45
ENDBRANCH  17  44
ENDBRANCH  15  17
ENDBRANCH   3  13
TORSDOF 14
ENDMDL
MODEL      313
REMARK 921   NORMALIZED FREE ENERGY PREDICTED BY IDOCK:    6.77 KCAL/MOL
REMARK 922        TOTAL FREE ENERGY PREDICTED BY IDOCK:    7.76 KCAL/MOL
REMARK 923 INTER-LIGAND FREE ENERGY PREDICTED BY IDOCK:    3.59 KCAL/MOL
REMARK 924 INTRA-LIGAND FREE ENERGY PREDICTED BY IDOCK:    4.17 KCAL/MOL
REMARK 927      BINDING AFFINITY PREDICTED BY RF-SCORE:    0.00 PKD
ROOT
HETATM    1  C   UNL     1     -11.700   4.334  65.551  1.00  0.00     2.488 C  
HETATM    2  C   UNL     1     -10.175   4.523  65.529  1.00  0.00    -0.251 C  
HETATM    3  C   UNL     1      -9.699   5.391  66.735  1.00  0.00    -0.157 C  
HETATM    4  C   UNL     1      -9.517   3.143  65.460  1.00  0.00    -0.077 C  
ENDROOT
BRANCH   3   5
HETATM    5  N   UNL     1     -10.291   6.748  66.695  1.00  0.00    -0.188 N  
HETATM    6  H   UNL     1     -10.120   9.548  65.066  1.00  0.00     0.000 HD 
HETATM    7  O   UNL     1      -9.431   7.249  64.618  1.00  0.00     1.424 OA 
HETATM    8  C   UNL     1     -11.285   7.152  67.682  1.00  0.00     0.078 C  
HETATM    9  C   UNL     1     -10.004   7.596  65.647  1.00  0.00     1.131 C  
HETATM   10  C   UNL     1     -10.946   8.542  68.186  1.00  0.00     0.126 C  
HETATM   11  N   UNL     1     -10.341   8.908  65.828  1.00  0.00     0.438 N  
HETATM   12  C   UNL     1     -10.982   9.477  66.995  1.00  0.00     0.084 C  
ENDBRANCH   3   5
BRANCH   3  13
HETATM   13  C   UNL     1      -8.144   5.415  66.855  1.00  0.00    -0.105 C  
HETATM   14  O   UNL     1      -7.392   5.472  65.888  1.00  0.00    -0.075 OA 
HETATM   15  N   UNL     1      -7.665   5.278  68.142  1.00  0.00    -0.084 N  
HETATM   16  H   UNL     1      -8.362   5.257  68.886  1.00  0.00     0.000 HD 
BRANCH  15  17
HETATM   17  C   UNL     1      -6.269   5.159  68.555  1.00  0.00    -0.031 C  
BRANCH  17  18
HETATM   18  C   UNL     1      -5.987   5.711  69.970  1.00  0.00    -0.025 C  
BRANCH  18  19
HETATM   19  C   UNL     1      -6.195   7.197  70.360  1.00  0.00    -0.034 C  
HETATM   20  O   UNL     1      -5.166   7.595  71.270  1.00  0.00    -0.027 OA 
HETATM   21  H   UNL     1      -5.293   8.506  71.509  1.00  0.00     0.000 HD 
BRANCH  19  22
HETATM   22  C   UNL     1      -7.583   7.402  71.084  1.00  0.00    -0.082 C  
BRANCH  22  23
HETATM   23  N   UNL     1      -8.037   8.839  71.131  1.00  0.00    -0.145 N  
HETATM   24  C   UNL     1      -8.585   9.768  70.273  1.00  0.00    -0.129 C  
HETATM   25  H   UNL     1      -7.899   9.236  72.060  1.00  0.00     0.000 HD 
HETATM   26  O   UNL     1      -9.069  10.795  70.759  1.00  0.00     1.696 OA 
BRANCH  24  27
HETATM   27  C   UNL     1      -8.488   9.580  68.750  1.00  0.00    -0.122 C  
BRANCH  27  28
HETATM   28  O   UNL     1      -7.790  10.477  67.902  1.00  0.00    -0.102 OA 
BRANCH  28  29
HETATM   29  C   UNL     1      -7.746  11.820  68.251  1.00  0.00    -0.130 A  
HETATM   30  C   UNL     1      -5.791  11.859  70.042  1.00  0.00    -0.150 C  
HETATM   31  C   UNL     1      -6.853  12.456  69.152  1.00  0.00    -0.069 A  
HETATM   32  C   UNL     1      -6.895  13.867  69.270  1.00  0.00    -0.094 A  
HETATM   33  C   UNL     1      -7.790  14.648  68.556  1.00  0.00    -0.133 A  
HETATM   34  C   UNL     1      -8.691  14.030  67.706  1.00  0.00    -0.185 A  
HETATM   35  C   UNL     1      -8.692  12.630  67.551  1.00  0.00    -0.184 A  
HETATM   36  C   UNL     1      -9.735  12.053  66.626  1.00  0.00    -0.221 C  
ENDBRANCH  28  29
ENDBRANCH  27  28
ENDBRANCH  24  27
ENDBRANCH  22  23
BRANCH  22  37
HETATM   37  C   UNL     1      -8.634   6.327  70.694  1.00  0.00    -0.139 C  
BRANCH  37  38
HETATM   38  C   UNL     1      -8.695   5.154  71.632  1.00  0.00    -0.140 A  
HETATM   39  C   UNL     1      -8.571   2.910  73.304  1.00  0.00    -0.079 A  
HETATM   40  C   UNL     1      -9.175   3.917  71.192  1.00  0.00    -0.201 A  
HETATM   41  C   UNL     1      -8.160   4.151  73.772  1.00  0.00    -0.089 A  
HETATM   42  C   UNL     1      -8.269   5.273  72.954  1.00  0.00    -0.109 A  
HETATM   43  C   UNL     1      -9.113   2.802  72.025  1.00  0.00    -0.142 A  
ENDBRANCH  37  38
ENDBRANCH  22  37
ENDBRANCH  19  22
ENDBRANCH  18  19
ENDBRANCH  17  18
BRANCH  17  44
HETATM   44  C   UNL     1      -5.253   5.476  67.437  1.00  0.00    -0.005 C  
BRANCH  44  45
HETATM   45  C   UNL     1      -5.177   6.949  67.083  1.00  0.00    -0.013 A  
HETATM   46  C   UNL     1      -5.147   7.939  68.079  1.00  0.00    -0.031 A  
HETATM   47  C   UNL     1      -5.164   7.351  65.742  1.00  0.00    -0.025 A  
HETATM   48  C   UNL     1      -5.145   9.296  67.736  1.00  0.00    -0.033 A  
HETATM   49  C   UNL     1      -5.157   8.706  65.401  1.00  0.00    -0.034 A  
HETATM   50  C   UNL     1      -5.157   9.679  66.397  1.00  0.00    -0.042 A  
ENDBRANCH  44  45
ENDBRANCH  17  44
ENDBRANCH  15  17
ENDBRANCH   3  13
TORSDOF 14
ENDMDL
MODEL      314
REMARK 921   NORMALIZED FREE ENERGY PREDICTED BY IDOCK:    7.16 KCAL/MOL
REMARK 922        TOTAL FREE ENERGY PREDICTED BY IDOCK:    8.46 KCAL/MOL
REMARK 923 INTER-LIGAND FREE ENERGY PREDICTED BY IDOCK:    9.58 KCAL/MOL
REMARK 924 INTRA-LIGAND FREE ENERGY PREDICTED BY IDOCK:   -1.12 KCAL/MOL
REMARK 927      BINDING AFFINITY PREDICTED BY RF-SCORE:    0.00 PKD
ROOT
HETATM    1  C   UNL     1      -9.282  16.588  64.397  1.00  0.00     5.589 C  
HETATM    2  C   UNL     1      -9.055  16.227  65.873  1.00  0.00    -0.246 C  
HETATM    3  C   UNL     1      -9.967  17.081  66.806  1.00  0.00    -0.295 C  
HETATM    4  C   UNL     1      -9.240  14.717  66.037  1.00  0.00    -0.175 C  
ENDROOT
BRANCH   3   5
HETATM    5  N   UNL     1      -9.675  18.528  66.677  1.00  0.00    -0.325 N  
HETATM    6  H   UNL     1     -11.052  21.330  65.797  1.00  0.00     0.000 HD 
HETATM    7  O   UNL     1     -11.886  19.129  66.448  1.00  0.00     1.483 OA 
HETATM    8  C   UNL     1      -8.343  19.043  66.968  1.00  0.00    -0.276 C  
HETATM    9  C   UNL     1     -10.693  19.417  66.407  1.00  0.00    -0.412 C  
HETATM   10  C   UNL     1      -7.939  20.015  65.876  1.00  0.00    -0.253 C  
HETATM   11  N   UNL     1     -10.308  20.667  66.015  1.00  0.00     0.129 N  
HETATM   12  C   UNL     1      -8.948  21.145  65.879  1.00  0.00     1.777 C  
ENDBRANCH   3   5
BRANCH   3  13
HETATM   13  C   UNL     1      -9.912  16.585  68.284  1.00  0.00    -0.250 C  
HETATM   14  O   UNL     1     -10.124  17.311  69.250  1.00  0.00    -0.267 OA 
HETATM   15  N   UNL     1      -9.516  15.271  68.435  1.00  0.00    -0.201 N  
HETATM   16  H   UNL     1      -9.381  14.737  67.577  1.00  0.00     0.000 HD 
BRANCH  15  17
HETATM   17  C   UNL     1      -9.270  14.562  69.688  1.00  0.00     0.455 C  
BRANCH  17  18
HETATM   18  C   UNL     1     -10.557  14.152  70.437  1.00  0.00     0.871 C  
BRANCH  18  19
HETATM   19  C   UNL     1     -11.836  13.651  69.717  1.00  0.00    -0.327 C  
HETATM   20  O   UNL     1     -12.533  12.741  70.572  1.00  0.00    -0.289 OA 
HETATM   21  H   UNL     1     -13.317  12.434  70.131  1.00  0.00     0.000 HD 
BRANCH  19  22
HETATM   22  C   UNL     1     -11.471  12.879  68.389  1.00  0.00    -0.312 C  
BRANCH  22  23
HETATM   23  N   UNL     1     -10.575  11.686  68.608  1.00  0.00    -0.203 N  
HETATM   24  C   UNL     1      -9.878  10.776  67.842  1.00  0.00    -0.167 C  
HETATM   25  H   UNL     1     -10.450  11.499  69.602  1.00  0.00     0.000 HD 
HETATM   26  O   UNL     1      -9.027  10.076  68.401  1.00  0.00    -0.118 OA 
BRANCH  24  27
HETATM   27  C   UNL     1     -10.236  10.560  66.362  1.00  0.00    -0.237 C  
BRANCH  27  28
HETATM   28  O   UNL     1     -10.249   9.282  65.748  1.00  0.00    -0.187 OA 
BRANCH  28  29
HETATM   29  C   UNL     1      -9.198   8.412  66.003  1.00  0.00    -0.187 A  
HETATM   30  C   UNL     1      -7.284   9.391  64.452  1.00  0.00    -0.105 C  
HETATM   31  C   UNL     1      -7.879   8.464  65.483  1.00  0.00    -0.109 A  
HETATM   32  C   UNL     1      -6.916   7.549  65.973  1.00  0.00    -0.061 A  
HETATM   33  C   UNL     1      -7.219   6.590  66.928  1.00  0.00    -0.078 A  
HETATM   34  C   UNL     1      -8.514   6.508  67.410  1.00  0.00    -0.119 A  
HETATM   35  C   UNL     1      -9.510   7.394  66.955  1.00  0.00    -0.208 A  
HETATM   36  C   UNL     1     -10.897   7.200  67.519  1.00  0.00    -0.311 C  
ENDBRANCH  28  29
ENDBRANCH  27  28
ENDBRANCH  24  27
ENDBRANCH  22  23
BRANCH  22  37
HETATM   37  C   UNL     1     -12.686  12.703  67.439  1.00  0.00     1.668 C  
BRANCH  37  38
HETATM   38  C   UNL     1     -12.499  13.314  66.077  1.00  0.00    -0.388 A  
HETATM   39  C   UNL     1     -12.400  14.408  63.501  1.00  0.00     0.379 A  
HETATM   40  C   UNL     1     -12.140  12.519  64.986  1.00  0.00    -0.504 A  
HETATM   41  C   UNL     1     -12.687  15.219  64.592  1.00  0.00     0.347 A  
HETATM   42  C   UNL     1     -12.686  14.681  65.876  1.00  0.00     0.076 A  
HETATM   43  C   UNL     1     -12.091  13.065  63.705  1.00  0.00    -0.604 A  
ENDBRANCH  37  38
ENDBRANCH  22  37
ENDBRANCH  19  22
ENDBRANCH  18  19
ENDBRANCH  17  18
BRANCH  17  44
HETATM   44  C   UNL     1      -8.101  15.138  70.517  1.00  0.00     1.252 C  
BRANCH  44  45
HETATM   45  C   UNL     1      -7.084  14.094  70.941  1.00  0.00     1.305 A  
HETATM   46  C   UNL     1      -6.277  14.279  72.076  1.00  0.00     0.572 A  
HETATM   47  C   UNL     1      -6.915  12.929  70.184  1.00  0.00     0.896 A  
HETATM   48  C   UNL     1      -5.299  13.339  72.416  1.00  0.00     0.069 A  
HETATM   49  C   UNL     1      -5.940  11.988  70.528  1.00  0.00    -0.049 A  
HETATM   50  C   UNL     1      -5.125  12.197  71.637  1.00  0.00    -0.023 A  
ENDBRANCH  44  45
ENDBRANCH  17  44
ENDBRANCH  15  17
ENDBRANCH   3  13
TORSDOF 14
ENDMDL
MODEL      315
REMARK 921   NORMALIZED FREE ENERGY PREDICTED BY IDOCK:   17.03 KCAL/MOL
REMARK 922        TOTAL FREE ENERGY PREDICTED BY IDOCK:   26.42 KCAL/MOL
REMARK 923 INTER-LIGAND FREE ENERGY PREDICTED BY IDOCK:    4.54 KCAL/MOL
REMARK 924 INTRA-LIGAND FREE ENERGY PREDICTED BY IDOCK:   21.88 KCAL/MOL
REMARK 927      BINDING AFFINITY PREDICTED BY RF-SCORE:    0.00 PKD
ROOT
HETATM    1  C   UNL     1      -6.578  11.221  66.518  1.00  0.00    -0.108 C  
HETATM    2  C   UNL     1      -7.879  11.273  67.335  1.00  0.00    -0.128 C  
HETATM    3  C   UNL     1      -7.960  12.582  68.179  1.00  0.00    -0.157 C  
HETATM    4  C   UNL     1      -9.059  11.076  66.381  1.00  0.00    -0.191 C  
ENDROOT
BRANCH   3   5
HETATM    5  N   UNL     1      -6.847  12.670  69.153  1.00  0.00    -0.088 N  
HETATM    6  H   UNL     1      -4.848  10.809  70.902  1.00  0.00     0.000 HD 
HETATM    7  O   UNL     1      -6.257  10.455  68.940  1.00  0.00    -0.044 OA 
HETATM    8  C   UNL     1      -6.387  13.966  69.636  1.00  0.00    -0.123 C  
HETATM    9  C   UNL     1      -6.153  11.535  69.513  1.00  0.00    -0.100 C  
HETATM   10  C   UNL     1      -6.201  13.897  71.140  1.00  0.00     0.101 C  
HETATM   11  N   UNL     1      -5.355  11.646  70.616  1.00  0.00    -0.128 N  
HETATM   12  C   UNL     1      -5.159  12.835  71.420  1.00  0.00    -0.162 C  
ENDBRANCH   3   5
BRANCH   3  13
HETATM   13  C   UNL     1      -9.359  12.758  68.845  1.00  0.00     0.295 C  
HETATM   14  O   UNL     1      -9.731  12.112  69.819  1.00  0.00     1.246 OA 
HETATM   15  N   UNL     1     -10.197  13.643  68.197  1.00  0.00    -0.241 N  
HETATM   16  H   UNL     1      -9.798  14.151  67.407  1.00  0.00     0.000 HD 
BRANCH  15  17
HETATM   17  C   UNL     1     -11.592  13.934  68.518  1.00  0.00    -0.332 C  
BRANCH  17  18
HETATM   18  C   UNL     1     -11.875  15.430  68.777  1.00  0.00    -0.339 C  
BRANCH  18  19
HETATM   19  C   UNL     1     -11.099  16.575  68.077  1.00  0.00    -0.275 C  
HETATM   20  O   UNL     1     -11.145  16.381  66.661  1.00  0.00    -0.056 OA 
HETATM   21  H   UNL     1     -10.669  17.083  66.232  1.00  0.00     0.000 HD 
BRANCH  19  22
HETATM   22  C   UNL     1      -9.581  16.576  68.512  1.00  0.00    -0.233 C  
BRANCH  22  23
HETATM   23  N   UNL     1      -8.618  16.456  67.358  1.00  0.00    -0.175 N  
HETATM   24  C   UNL     1      -8.385  15.597  66.305  1.00  0.00    -0.057 C  
HETATM   25  H   UNL     1      -7.951  17.227  67.356  1.00  0.00     0.000 HD 
HETATM   26  O   UNL     1      -7.643  15.980  65.396  1.00  0.00     2.078 OA 
BRANCH  24  27
HETATM   27  C   UNL     1      -8.941  14.163  66.326  1.00  0.00     0.060 C  
BRANCH  27  28
HETATM   28  O   UNL     1      -9.808  13.654  65.325  1.00  0.00    -0.223 OA 
BRANCH  28  29
HETATM   29  C   UNL     1     -11.000  14.321  65.078  1.00  0.00    -0.387 A  
HETATM   30  C   UNL     1     -10.145  16.722  64.346  1.00  0.00     2.936 C  
HETATM   31  C   UNL     1     -11.173  15.650  64.608  1.00  0.00    -0.380 A  
HETATM   32  C   UNL     1     -12.480  16.098  64.299  1.00  0.00     0.932 A  
HETATM   33  C   UNL     1     -13.599  15.295  64.459  1.00  0.00     2.459 A  
HETATM   34  C   UNL     1     -13.442  14.013  64.955  1.00  0.00     0.819 A  
HETATM   35  C   UNL     1     -12.163  13.518  65.279  1.00  0.00    -0.474 A  
HETATM   36  C   UNL     1     -12.103  12.119  65.843  1.00  0.00    -0.128 C  
ENDBRANCH  28  29
ENDBRANCH  27  28
ENDBRANCH  24  27
ENDBRANCH  22  23
BRANCH  22  37
HETATM   37  C   UNL     1      -9.266  17.633  69.606  1.00  0.00     0.814 C  
BRANCH  37  38
HETATM   38  C   UNL     1      -8.223  18.641  69.209  1.00  0.00     0.131 A  
HETATM   39  C   UNL     1      -6.142  20.321  68.377  1.00  0.00    -0.323 A  
HETATM   40  C   UNL     1      -7.200  18.989  70.094  1.00  0.00     0.642 A  
HETATM   41  C   UNL     1      -7.194  20.035  67.516  1.00  0.00    -0.313 A  
HETATM   42  C   UNL     1      -8.250  19.240  67.950  1.00  0.00    -0.340 A  
HETATM   43  C   UNL     1      -6.166  19.826  69.680  1.00  0.00    -0.365 A  
ENDBRANCH  37  38
ENDBRANCH  22  37
ENDBRANCH  19  22
ENDBRANCH  18  19
ENDBRANCH  17  18
BRANCH  17  44
HETATM   44  C   UNL     1     -12.250  12.898  69.455  1.00  0.00    -0.177 C  
BRANCH  44  45
HETATM   45  C   UNL     1     -11.615  11.522  69.383  1.00  0.00    -0.388 A  
HETATM   46  C   UNL     1     -11.287  10.806  70.547  1.00  0.00    -0.289 A  
HETATM   47  C   UNL     1     -11.318  10.949  68.141  1.00  0.00    -0.383 A  
HETATM   48  C   UNL     1     -10.640   9.568  70.464  1.00  0.00    -0.358 A  
HETATM   49  C   UNL     1     -10.676   9.710  68.060  1.00  0.00    -0.284 A  
HETATM   50  C   UNL     1     -10.329   9.024  69.220  1.00  0.00    -0.227 A  
ENDBRANCH  44  45
ENDBRANCH  17  44
ENDBRANCH  15  17
ENDBRANCH   3  13
TORSDOF 14
ENDMDL
MODEL      316
REMARK 921   NORMALIZED FREE ENERGY PREDICTED BY IDOCK:   17.61 KCAL/MOL
REMARK 922        TOTAL FREE ENERGY PREDICTED BY IDOCK:   27.47 KCAL/MOL
REMARK 923 INTER-LIGAND FREE ENERGY PREDICTED BY IDOCK:   12.27 KCAL/MOL
REMARK 924 INTRA-LIGAND FREE ENERGY PREDICTED BY IDOCK:   15.20 KCAL/MOL
REMARK 927      BINDING AFFINITY PREDICTED BY RF-SCORE:    0.00 PKD
ROOT
HETATM    1  C   UNL     1     -13.458   7.250  70.748  1.00  0.00     0.212 C  
HETATM    2  C   UNL     1     -13.038   8.545  70.036  1.00  0.00     2.147 C  
HETATM    3  C   UNL     1     -11.826   8.295  69.086  1.00  0.00     1.573 C  
HETATM    4  C   UNL     1     -14.264   9.132  69.333  1.00  0.00     5.688 C  
ENDROOT
BRANCH   3   5
HETATM    5  N   UNL     1     -10.637   7.823  69.835  1.00  0.00    -0.236 N  
HETATM    6  H   UNL     1      -8.092   5.829  69.568  1.00  0.00     0.000 HD 
HETATM    7  O   UNL     1      -9.643   6.867  67.992  1.00  0.00    -0.124 OA 
HETATM    8  C   UNL     1     -10.391   8.279  71.197  1.00  0.00    -0.202 C  
HETATM    9  C   UNL     1      -9.686   7.049  69.205  1.00  0.00    -0.156 C  
HETATM   10  C   UNL     1     -10.002   7.091  72.055  1.00  0.00    -0.172 C  
HETATM   11  N   UNL     1      -8.792   6.417  70.021  1.00  0.00    -0.142 N  
HETATM   12  C   UNL     1      -8.739   6.500  71.466  1.00  0.00    -0.132 C  
ENDBRANCH   3   5
BRANCH   3  13
HETATM   13  C   UNL     1     -11.520   9.538  68.195  1.00  0.00     0.561 C  
HETATM   14  O   UNL     1     -12.364  10.371  67.884  1.00  0.00     0.857 OA 
HETATM   15  N   UNL     1     -10.232   9.589  67.701  1.00  0.00    -0.205 N  
HETATM   16  H   UNL     1      -9.592   8.866  68.028  1.00  0.00     0.000 HD 
BRANCH  15  17
HETATM   17  C   UNL     1      -9.685  10.565  66.761  1.00  0.00    -0.179 C  
BRANCH  17  18
HETATM   18  C   UNL     1      -9.030  11.787  67.441  1.00  0.00    -0.173 C  
BRANCH  18  19
HETATM   19  C   UNL     1      -8.405  11.738  68.859  1.00  0.00     0.078 C  
HETATM   20  O   UNL     1      -9.364  11.211  69.780  1.00  0.00    -0.115 OA 
HETATM   21  H   UNL     1      -8.981  11.180  70.649  1.00  0.00     0.000 HD 
BRANCH  19  22
HETATM   22  C   UNL     1      -8.010  13.185  69.352  1.00  0.00     0.790 C  
BRANCH  22  23
HETATM   23  N   UNL     1      -6.962  13.852  68.499  1.00  0.00    -0.093 N  
HETATM   24  C   UNL     1      -6.024  14.854  68.626  1.00  0.00    -0.088 C  
HETATM   25  H   UNL     1      -6.941  13.449  67.563  1.00  0.00     0.000 HD 
HETATM   26  O   UNL     1      -5.149  14.946  67.760  1.00  0.00    -0.244 OA 
BRANCH  24  27
HETATM   27  C   UNL     1      -6.139  15.896  69.752  1.00  0.00    -0.169 C  
BRANCH  27  28
HETATM   28  O   UNL     1      -7.109  16.931  69.752  1.00  0.00     0.002 OA 
BRANCH  28  29
HETATM   29  C   UNL     1      -6.812  18.117  69.094  1.00  0.00    -0.232 A  
HETATM   30  C   UNL     1      -5.927  19.639  71.077  1.00  0.00    -0.169 C  
HETATM   31  C   UNL     1      -6.254  19.301  69.644  1.00  0.00    -0.304 A  
HETATM   32  C   UNL     1      -5.909  20.361  68.770  1.00  0.00    -0.348 A  
HETATM   33  C   UNL     1      -6.115  20.294  67.401  1.00  0.00    -0.235 A  
HETATM   34  C   UNL     1      -6.696  19.159  66.864  1.00  0.00    -0.204 A  
HETATM   35  C   UNL     1      -7.059  18.075  67.688  1.00  0.00    -0.202 A  
HETATM   36  C   UNL     1      -7.714  16.898  67.009  1.00  0.00    -0.230 C  
ENDBRANCH  28  29
ENDBRANCH  27  28
ENDBRANCH  24  27
ENDBRANCH  22  23
BRANCH  22  37
HETATM   37  C   UNL     1      -9.238  14.034  69.781  1.00  0.00     1.236 C  
BRANCH  37  38
HETATM   38  C   UNL     1     -10.523  13.648  69.101  1.00  0.00    -0.016 A  
HETATM   39  C   UNL     1     -12.775  12.875  67.628  1.00  0.00     1.406 A  
HETATM   40  C   UNL     1     -11.261  14.597  68.389  1.00  0.00    -0.290 A  
HETATM   41  C   UNL     1     -12.088  11.941  68.391  1.00  0.00    -0.086 A  
HETATM   42  C   UNL     1     -10.999  12.339  69.161  1.00  0.00    -0.217 A  
HETATM   43  C   UNL     1     -12.382  14.211  67.657  1.00  0.00    -0.073 A  
ENDBRANCH  37  38
ENDBRANCH  22  37
ENDBRANCH  19  22
ENDBRANCH  18  19
ENDBRANCH  17  18
BRANCH  17  44
HETATM   44  C   UNL     1     -10.575  10.812  65.523  1.00  0.00    -0.205 C  
BRANCH  44  45
HETATM   45  C   UNL     1     -10.537  12.244  65.023  1.00  0.00    -0.322 A  
HETATM   46  C   UNL     1     -10.698  12.547  63.661  1.00  0.00    -0.469 A  
HETATM   47  C   UNL     1     -10.311  13.296  65.919  1.00  0.00    -0.293 A  
HETATM   48  C   UNL     1     -10.594  13.866  63.207  1.00  0.00     3.044 A  
HETATM   49  C   UNL     1     -10.212  14.614  65.464  1.00  0.00    -0.395 A  
HETATM   50  C   UNL     1     -10.343  14.898  64.108  1.00  0.00     1.401 A  
ENDBRANCH  44  45
ENDBRANCH  17  44
ENDBRANCH  15  17
ENDBRANCH   3  13
TORSDOF 14
ENDMDL
MODEL      317
REMARK 921   NORMALIZED FREE ENERGY PREDICTED BY IDOCK:   20.42 KCAL/MOL
REMARK 922        TOTAL FREE ENERGY PREDICTED BY IDOCK:   32.59 KCAL/MOL
REMARK 923 INTER-LIGAND FREE ENERGY PREDICTED BY IDOCK:    5.94 KCAL/MOL
REMARK 924 INTRA-LIGAND FREE ENERGY PREDICTED BY IDOCK:   26.65 KCAL/MOL
REMARK 927      BINDING AFFINITY PREDICTED BY RF-SCORE:    0.00 PKD
ROOT
HETATM    1  C   UNL     1      -8.622  15.936  68.771  1.00  0.00    -0.212 C  
HETATM    2  C   UNL     1      -9.042  14.529  68.320  1.00  0.00    -0.196 C  
HETATM    3  C   UNL     1     -10.512  14.523  67.797  1.00  0.00    -0.242 C  
HETATM    4  C   UNL     1      -8.020  14.020  67.301  1.00  0.00    -0.157 C  
ENDROOT
BRANCH   3   5
HETATM    5  N   UNL     1     -11.467  14.928  68.855  1.00  0.00    -0.283 N  
HETATM    6  H   UNL     1     -11.653  16.696  71.568  1.00  0.00     0.000 HD 
HETATM    7  O   UNL     1     -10.113  16.600  69.676  1.00  0.00    -0.190 OA 
HETATM    8  C   UNL     1     -12.832  14.416  68.856  1.00  0.00     0.968 C  
HETATM    9  C   UNL     1     -11.112  15.893  69.773  1.00  0.00    -0.324 C  
HETATM   10  C   UNL     1     -13.198  13.987  70.264  1.00  0.00     0.283 C  
HETATM   11  N   UNL     1     -11.914  15.996  70.874  1.00  0.00    -0.386 N  
HETATM   12  C   UNL     1     -13.098  15.210  71.151  1.00  0.00    -0.450 C  
ENDBRANCH   3   5
BRANCH   3  13
HETATM   13  C   UNL     1     -10.888  13.161  67.136  1.00  0.00    -0.257 C  
HETATM   14  O   UNL     1     -10.629  12.880  65.971  1.00  0.00    -0.264 OA 
HETATM   15  N   UNL     1     -11.622  12.314  67.942  1.00  0.00    -0.335 N  
HETATM   16  H   UNL     1     -11.774  12.621  68.903  1.00  0.00     0.000 HD 
BRANCH  15  17
HETATM   17  C   UNL     1     -12.205  11.027  67.570  1.00  0.00     1.358 C  
BRANCH  17  18
HETATM   18  C   UNL     1     -12.242  10.002  68.724  1.00  0.00     1.136 C  
BRANCH  18  19
HETATM   19  C   UNL     1     -10.976   9.537  69.489  1.00  0.00    -0.195 C  
HETATM   20  O   UNL     1     -11.190   9.694  70.895  1.00  0.00    -0.293 OA 
HETATM   21  H   UNL     1     -10.414   9.409  71.364  1.00  0.00     0.000 HD 
BRANCH  19  22
HETATM   22  C   UNL     1      -9.724  10.414  69.094  1.00  0.00    -0.220 C  
BRANCH  22  23
HETATM   23  N   UNL     1      -8.568  10.289  70.054  1.00  0.00    -0.358 N  
HETATM   24  C   UNL     1      -7.632   9.343  70.413  1.00  0.00    -0.145 C  
HETATM   25  H   UNL     1      -8.444  11.148  70.590  1.00  0.00     0.000 HD 
HETATM   26  O   UNL     1      -6.659   9.710  71.078  1.00  0.00    -0.188 OA 
BRANCH  24  27
HETATM   27  C   UNL     1      -7.860   7.856  70.093  1.00  0.00    -0.097 C  
BRANCH  27  28
HETATM   28  O   UNL     1      -8.468   6.953  71.002  1.00  0.00    -0.128 OA 
BRANCH  28  29
HETATM   29  C   UNL     1      -7.829   5.750  71.269  1.00  0.00    -0.111 A  
HETATM   30  C   UNL     1      -8.543   4.274  69.185  1.00  0.00    -0.109 C  
HETATM   31  C   UNL     1      -7.811   4.578  70.468  1.00  0.00    -0.053 A  
HETATM   32  C   UNL     1      -6.988   3.496  70.864  1.00  0.00    -0.033 A  
HETATM   33  C   UNL     1      -6.215   3.530  72.014  1.00  0.00    -0.014 A  
HETATM   34  C   UNL     1      -6.259   4.653  72.820  1.00  0.00    -0.025 A  
HETATM   35  C   UNL     1      -7.062   5.758  72.473  1.00  0.00    -0.085 A  
HETATM   36  C   UNL     1      -7.064   6.921  73.436  1.00  0.00    -0.074 C  
ENDBRANCH  28  29
ENDBRANCH  27  28
ENDBRANCH  24  27
ENDBRANCH  22  23
BRANCH  22  37
HETATM   37  C   UNL     1      -9.406  10.363  67.574  1.00  0.00    -0.163 C  
BRANCH  37  38
HETATM   38  C   UNL     1      -8.190  11.150  67.171  1.00  0.00    -0.137 A  
HETATM   39  C   UNL     1      -5.994  12.790  66.596  1.00  0.00     1.247 A  
HETATM   40  C   UNL     1      -8.266  12.100  66.150  1.00  0.00     0.390 A  
HETATM   41  C   UNL     1      -5.889  11.799  67.564  1.00  0.00    -0.088 A  
HETATM   42  C   UNL     1      -6.967  10.954  67.812  1.00  0.00    -0.077 A  
HETATM   43  C   UNL     1      -7.173  12.915  65.864  1.00  0.00     3.575 A  
ENDBRANCH  37  38
ENDBRANCH  22  37
ENDBRANCH  19  22
ENDBRANCH  18  19
ENDBRANCH  17  18
BRANCH  17  44
HETATM   44  C   UNL     1     -11.788  10.530  66.169  1.00  0.00     2.261 C  
BRANCH  44  45
HETATM   45  C   UNL     1     -11.810  11.612  65.107  1.00  0.00     0.065 A  
HETATM   46  C   UNL     1     -10.630  12.247  64.684  1.00  0.00    -0.338 A  
HETATM   47  C   UNL     1     -13.026  12.020  64.544  1.00  0.00     0.181 A  
HETATM   48  C   UNL     1     -10.676  13.290  63.752  1.00  0.00     0.033 A  
HETATM   49  C   UNL     1     -13.069  13.059  63.610  1.00  0.00     0.616 A  
HETATM   50  C   UNL     1     -11.896  13.700  63.221  1.00  0.00     0.052 A  
ENDBRANCH  44  45
ENDBRANCH  17  44
ENDBRANCH  15  17
ENDBRANCH   3  13
TORSDOF 14
ENDMDL
MODEL      318
REMARK 921   NORMALIZED FREE ENERGY PREDICTED BY IDOCK:   22.78 KCAL/MOL
REMARK 922        TOTAL FREE ENERGY PREDICTED BY IDOCK:   36.86 KCAL/MOL
REMARK 923 INTER-LIGAND FREE ENERGY PREDICTED BY IDOCK:   25.79 KCAL/MOL
REMARK 924 INTRA-LIGAND FREE ENERGY PREDICTED BY IDOCK:   11.07 KCAL/MOL
REMARK 927      BINDING AFFINITY PREDICTED BY RF-SCORE:    0.00 PKD
ROOT
HETATM    1  C   UNL     1      -8.252  14.436  65.718  1.00  0.00     2.567 C  
HETATM    2  C   UNL     1      -8.162  14.602  67.243  1.00  0.00    -0.235 C  
HETATM    3  C   UNL     1      -8.590  16.038  67.678  1.00  0.00    -0.166 C  
HETATM    4  C   UNL     1      -8.976  13.487  67.902  1.00  0.00    -0.200 C  
ENDROOT
BRANCH   3   5
HETATM    5  N   UNL     1      -7.705  17.071  67.089  1.00  0.00    -0.166 N  
HETATM    6  H   UNL     1      -4.587  17.951  66.922  1.00  0.00     0.000 HD 
HETATM    7  O   UNL     1      -5.769  15.895  67.507  1.00  0.00    -0.167 OA 
HETATM    8  C   UNL     1      -8.265  18.174  66.318  1.00  0.00    -0.212 C  
HETATM    9  C   UNL     1      -6.335  16.926  67.156  1.00  0.00    -0.186 C  
HETATM   10  C   UNL     1      -7.603  19.467  66.752  1.00  0.00    -0.268 C  
HETATM   11  N   UNL     1      -5.601  18.040  66.862  1.00  0.00    -0.133 N  
HETATM   12  C   UNL     1      -6.121  19.334  66.473  1.00  0.00    -0.165 C  
ENDBRANCH   3   5
BRANCH   3  13
HETATM   13  C   UNL     1      -8.712  16.163  69.228  1.00  0.00    -0.190 C  
HETATM   14  O   UNL     1      -8.125  17.014  69.887  1.00  0.00     0.811 OA 
HETATM   15  N   UNL     1      -9.471  15.177  69.825  1.00  0.00    -0.465 N  
HETATM   16  H   UNL     1      -9.939  14.522  69.199  1.00  0.00     0.000 HD 
BRANCH  15  17
HETATM   17  C   UNL     1      -9.679  14.968  71.256  1.00  0.00     2.286 C  
BRANCH  17  18
HETATM   18  C   UNL     1     -11.162  15.008  71.685  1.00  0.00    -0.221 C  
BRANCH  18  19
HETATM   19  C   UNL     1     -12.335  15.125  70.677  1.00  0.00    -0.368 C  
HETATM   20  O   UNL     1     -13.348  14.174  71.019  1.00  0.00    -0.317 OA 
HETATM   21  H   UNL     1     -14.066  14.245  70.401  1.00  0.00     0.000 HD 
BRANCH  19  22
HETATM   22  C   UNL     1     -11.852  14.806  69.209  1.00  0.00    -0.318 C  
BRANCH  22  23
HETATM   23  N   UNL     1     -11.051  13.533  69.096  1.00  0.00    -0.345 N  
HETATM   24  C   UNL     1     -10.758  12.590  68.135  1.00  0.00    -0.227 C  
HETATM   25  H   UNL     1     -10.598  13.306  69.981  1.00  0.00     0.000 HD 
HETATM   26  O   UNL     1      -9.833  11.802  68.355  1.00  0.00    -0.193 OA 
BRANCH  24  27
HETATM   27  C   UNL     1     -11.637  12.450  66.881  1.00  0.00    -0.370 C  
BRANCH  27  28
HETATM   28  O   UNL     1     -11.810  11.224  66.189  1.00  0.00    -0.094 OA 
BRANCH  28  29
HETATM   29  C   UNL     1     -10.739  10.344  66.123  1.00  0.00    -0.006 A  
HETATM   30  C   UNL     1     -11.444   8.489  67.883  1.00  0.00     1.311 C  
HETATM   31  C   UNL     1     -10.575   9.119  66.822  1.00  0.00    -0.207 A  
HETATM   32  C   UNL     1      -9.460   8.303  66.514  1.00  0.00    -0.284 A  
HETATM   33  C   UNL     1      -8.510   8.665  65.571  1.00  0.00    -0.181 A  
HETATM   34  C   UNL     1      -8.642   9.876  64.916  1.00  0.00    -0.183 A  
HETATM   35  C   UNL     1      -9.733  10.727  65.185  1.00  0.00    -0.319 A  
HETATM   36  C   UNL     1      -9.767  12.039  64.440  1.00  0.00    -0.097 C  
ENDBRANCH  28  29
ENDBRANCH  27  28
ENDBRANCH  24  27
ENDBRANCH  22  23
BRANCH  22  37
HETATM   37  C   UNL     1     -12.950  15.062  68.141  1.00  0.00     2.055 C  
BRANCH  37  38
HETATM   38  C   UNL     1     -12.438  15.657  66.858  1.00  0.00     1.662 A  
HETATM   39  C   UNL     1     -11.675  16.937  64.487  1.00  0.00     1.024 A  
HETATM   40  C   UNL     1     -12.915  15.204  65.626  1.00  0.00     0.960 A  
HETATM   41  C   UNL     1     -11.141  17.346  65.703  1.00  0.00     0.348 A  
HETATM   42  C   UNL     1     -11.486  16.675  66.873  1.00  0.00     0.713 A  
HETATM   43  C   UNL     1     -12.534  15.841  64.447  1.00  0.00     0.340 A  
ENDBRANCH  37  38
ENDBRANCH  22  37
ENDBRANCH  19  22
ENDBRANCH  18  19
ENDBRANCH  17  18
BRANCH  17  44
HETATM   44  C   UNL     1      -8.645  15.685  72.152  1.00  0.00     8.082 C  
BRANCH  44  45
HETATM   45  C   UNL     1      -7.449  14.824  72.510  1.00  0.00     4.814 A  
HETATM   46  C   UNL     1      -7.141  14.519  73.847  1.00  0.00     4.051 A  
HETATM   47  C   UNL     1      -6.608  14.334  71.503  1.00  0.00     0.976 A  
HETATM   48  C   UNL     1      -5.997  13.779  74.164  1.00  0.00     0.202 A  
HETATM   49  C   UNL     1      -5.468  13.592  71.822  1.00  0.00    -0.141 A  
HETATM   50  C   UNL     1      -5.156  13.322  73.152  1.00  0.00     0.010 A  
ENDBRANCH  44  45
ENDBRANCH  17  44
ENDBRANCH  15  17
ENDBRANCH   3  13
TORSDOF 14
ENDMDL
MODEL      319
REMARK 921   NORMALIZED FREE ENERGY PREDICTED BY IDOCK:   25.87 KCAL/MOL
REMARK 922        TOTAL FREE ENERGY PREDICTED BY IDOCK:   42.48 KCAL/MOL
REMARK 923 INTER-LIGAND FREE ENERGY PREDICTED BY IDOCK:   12.17 KCAL/MOL
REMARK 924 INTRA-LIGAND FREE ENERGY PREDICTED BY IDOCK:   30.31 KCAL/MOL
REMARK 927      BINDING AFFINITY PREDICTED BY RF-SCORE:    0.00 PKD
ROOT
HETATM    1  C   UNL     1      -8.622  15.936  68.771  1.00  0.00    -0.212 C  
HETATM    2  C   UNL     1      -9.042  14.529  68.320  1.00  0.00    -0.196 C  
HETATM    3  C   UNL     1     -10.512  14.523  67.797  1.00  0.00    -0.242 C  
HETATM    4  C   UNL     1      -8.020  14.020  67.301  1.00  0.00    -0.157 C  
ENDROOT
BRANCH   3   5
HETATM    5  N   UNL     1     -11.467  14.928  68.855  1.00  0.00    -0.283 N  
HETATM    6  H   UNL     1     -11.653  16.696  71.568  1.00  0.00     0.000 HD 
HETATM    7  O   UNL     1     -10.113  16.600  69.676  1.00  0.00    -0.190 OA 
HETATM    8  C   UNL     1     -12.832  14.416  68.856  1.00  0.00     0.968 C  
HETATM    9  C   UNL     1     -11.112  15.893  69.773  1.00  0.00    -0.324 C  
HETATM   10  C   UNL     1     -13.198  13.987  70.264  1.00  0.00     0.283 C  
HETATM   11  N   UNL     1     -11.914  15.996  70.874  1.00  0.00    -0.386 N  
HETATM   12  C   UNL     1     -13.098  15.210  71.151  1.00  0.00    -0.450 C  
ENDBRANCH   3   5
BRANCH   3  13
HETATM   13  C   UNL     1     -10.888  13.161  67.136  1.00  0.00    -0.257 C  
HETATM   14  O   UNL     1     -10.629  12.880  65.971  1.00  0.00    -0.264 OA 
HETATM   15  N   UNL     1     -11.622  12.314  67.942  1.00  0.00    -0.335 N  
HETATM   16  H   UNL     1     -11.774  12.621  68.903  1.00  0.00     0.000 HD 
BRANCH  15  17
HETATM   17  C   UNL     1     -12.205  11.027  67.570  1.00  0.00     1.358 C  
BRANCH  17  18
HETATM   18  C   UNL     1     -12.242  10.002  68.724  1.00  0.00     1.136 C  
BRANCH  18  19
HETATM   19  C   UNL     1     -10.976   9.537  69.489  1.00  0.00    -0.195 C  
HETATM   20  O   UNL     1     -11.190   9.694  70.895  1.00  0.00    -0.293 OA 
HETATM   21  H   UNL     1     -10.414   9.409  71.364  1.00  0.00     0.000 HD 
BRANCH  19  22
HETATM   22  C   UNL     1      -9.724  10.414  69.094  1.00  0.00    -0.220 C  
BRANCH  22  23
HETATM   23  N   UNL     1      -8.568  10.289  70.054  1.00  0.00    -0.358 N  
HETATM   24  C   UNL     1      -7.632   9.343  70.413  1.00  0.00    -0.145 C  
HETATM   25  H   UNL     1      -8.444  11.148  70.590  1.00  0.00     0.000 HD 
HETATM   26  O   UNL     1      -6.659   9.710  71.078  1.00  0.00    -0.188 OA 
BRANCH  24  27
HETATM   27  C   UNL     1      -7.860   7.856  70.093  1.00  0.00    -0.097 C  
BRANCH  27  28
HETATM   28  O   UNL     1      -8.468   6.953  71.002  1.00  0.00    -0.128 OA 
BRANCH  28  29
HETATM   29  C   UNL     1      -8.954   7.449  72.204  1.00  0.00    -0.131 A  
HETATM   30  C   UNL     1      -6.752   7.589  73.674  1.00  0.00    -0.080 C  
HETATM   31  C   UNL     1      -8.218   7.776  73.373  1.00  0.00    -0.220 A  
HETATM   32  C   UNL     1      -8.894   8.393  74.453  1.00  0.00     0.663 A  
HETATM   33  C   UNL     1     -10.252   8.670  74.421  1.00  0.00     5.622 A  
HETATM   34  C   UNL     1     -10.983   8.316  73.301  1.00  0.00     0.443 A  
HETATM   35  C   UNL     1     -10.360   7.700  72.198  1.00  0.00    -0.270 A  
HETATM   36  C   UNL     1     -11.252   7.326  71.039  1.00  0.00    -0.291 C  
ENDBRANCH  28  29
ENDBRANCH  27  28
ENDBRANCH  24  27
ENDBRANCH  22  23
BRANCH  22  37
HETATM   37  C   UNL     1      -9.406  10.363  67.574  1.00  0.00    -0.163 C  
BRANCH  37  38
HETATM   38  C   UNL     1      -8.190  11.150  67.171  1.00  0.00    -0.137 A  
HETATM   39  C   UNL     1      -5.994  12.790  66.596  1.00  0.00     1.247 A  
HETATM   40  C   UNL     1      -8.266  12.100  66.150  1.00  0.00     0.390 A  
HETATM   41  C   UNL     1      -5.889  11.799  67.564  1.00  0.00    -0.088 A  
HETATM   42  C   UNL     1      -6.967  10.954  67.812  1.00  0.00    -0.077 A  
HETATM   43  C   UNL     1      -7.173  12.915  65.864  1.00  0.00     3.575 A  
ENDBRANCH  37  38
ENDBRANCH  22  37
ENDBRANCH  19  22
ENDBRANCH  18  19
ENDBRANCH  17  18
BRANCH  17  44
HETATM   44  C   UNL     1     -11.788  10.530  66.169  1.00  0.00     2.261 C  
BRANCH  44  45
HETATM   45  C   UNL     1     -11.810  11.612  65.107  1.00  0.00     0.065 A  
HETATM   46  C   UNL     1     -10.630  12.247  64.684  1.00  0.00    -0.338 A  
HETATM   47  C   UNL     1     -13.026  12.020  64.544  1.00  0.00     0.181 A  
HETATM   48  C   UNL     1     -10.676  13.290  63.752  1.00  0.00     0.033 A  
HETATM   49  C   UNL     1     -13.069  13.059  63.610  1.00  0.00     0.616 A  
HETATM   50  C   UNL     1     -11.896  13.700  63.221  1.00  0.00     0.052 A  
ENDBRANCH  44  45
ENDBRANCH  17  44
ENDBRANCH  15  17
ENDBRANCH   3  13
TORSDOF 14
ENDMDL
MODEL      320
REMARK 921   NORMALIZED FREE ENERGY PREDICTED BY IDOCK:   36.21 KCAL/MOL
REMARK 922        TOTAL FREE ENERGY PREDICTED BY IDOCK:   61.30 KCAL/MOL
REMARK 923 INTER-LIGAND FREE ENERGY PREDICTED BY IDOCK:   48.22 KCAL/MOL
REMARK 924 INTRA-LIGAND FREE ENERGY PREDICTED BY IDOCK:   13.08 KCAL/MOL
REMARK 927      BINDING AFFINITY PREDICTED BY RF-SCORE:    0.00 PKD
ROOT
HETATM    1  C   UNL     1      -7.855  13.851  65.204  1.00  0.00     7.670 C  
HETATM    2  C   UNL     1      -7.482  13.893  66.694  1.00  0.00     1.222 C  
HETATM    3  C   UNL     1      -7.809  15.285  67.317  1.00  0.00    -0.209 C  
HETATM    4  C   UNL     1      -8.171  12.722  67.399  1.00  0.00    -0.186 C  
ENDROOT
BRANCH   3   5
HETATM    5  N   UNL     1      -7.039  16.368  66.661  1.00  0.00    -0.194 N  
HETATM    6  H   UNL     1      -5.291  19.015  67.341  1.00  0.00     0.000 HD 
HETATM    7  O   UNL     1      -6.025  17.061  68.608  1.00  0.00    -0.142 OA 
HETATM    8  C   UNL     1      -6.969  16.450  65.207  1.00  0.00     4.610 C  
HETATM    9  C   UNL     1      -6.277  17.230  67.419  1.00  0.00    -0.144 C  
HETATM   10  C   UNL     1      -7.191  17.889  64.781  1.00  0.00     2.973 C  
HETATM   11  N   UNL     1      -5.843  18.361  66.786  1.00  0.00    -0.145 N  
HETATM   12  C   UNL     1      -6.091  18.722  65.406  1.00  0.00    -0.263 C  
ENDBRANCH   3   5
BRANCH   3  13
HETATM   13  C   UNL     1      -7.641  15.282  68.867  1.00  0.00    -0.152 C  
HETATM   14  O   UNL     1      -6.761  15.902  69.454  1.00  0.00    -0.167 OA 
HETATM   15  N   UNL     1      -8.514  14.448  69.538  1.00  0.00    -0.311 N  
HETATM   16  H   UNL     1      -9.225  13.986  68.972  1.00  0.00     0.000 HD 
BRANCH  15  17
HETATM   17  C   UNL     1      -8.529  14.154  70.969  1.00  0.00     4.717 C  
BRANCH  17  18
HETATM   18  C   UNL     1      -9.574  14.969  71.762  1.00  0.00     3.678 C  
BRANCH  18  19
HETATM   19  C   UNL     1     -10.107  16.349  71.298  1.00  0.00     2.652 C  
HETATM   20  O   UNL     1     -11.402  16.570  71.865  1.00  0.00    -0.213 OA 
HETATM   21  H   UNL     1     -11.729  17.416  71.580  1.00  0.00     0.000 HD 
BRANCH  19  22
HETATM   22  C   UNL     1     -10.257  16.397  69.727  1.00  0.00    -0.142 C  
BRANCH  22  23
HETATM   23  N   UNL     1     -10.218  15.039  69.072  1.00  0.00    -0.235 N  
HETATM   24  C   UNL     1     -10.880  14.369  68.065  1.00  0.00    -0.243 C  
HETATM   25  H   UNL     1      -9.500  14.450  69.493  1.00  0.00     0.000 HD 
HETATM   26  O   UNL     1     -10.380  13.326  67.634  1.00  0.00    -0.225 OA 
BRANCH  24  27
HETATM   27  C   UNL     1     -12.258  14.849  67.579  1.00  0.00     0.155 C  
BRANCH  27  28
HETATM   28  O   UNL     1     -13.182  14.003  66.915  1.00  0.00     0.798 OA 
BRANCH  28  29
HETATM   29  C   UNL     1     -12.784  13.378  65.741  1.00  0.00    -0.318 A  
HETATM   30  C   UNL     1     -12.041  10.988  66.615  1.00  0.00     1.794 C  
HETATM   31  C   UNL     1     -12.322  12.046  65.578  1.00  0.00     0.287 A  
HETATM   32  C   UNL     1     -12.087  11.563  64.267  1.00  0.00     0.018 A  
HETATM   33  C   UNL     1     -12.271  12.349  63.140  1.00  0.00    -0.347 A  
HETATM   34  C   UNL     1     -12.682  13.661  63.295  1.00  0.00     0.498 A  
HETATM   35  C   UNL     1     -12.930  14.192  64.577  1.00  0.00     0.317 A  
HETATM   36  C   UNL     1     -13.344  15.642  64.639  1.00  0.00     2.035 C  
ENDBRANCH  28  29
ENDBRANCH  27  28
ENDBRANCH  24  27
ENDBRANCH  22  23
BRANCH  22  37
HETATM   37  C   UNL     1     -11.348  17.394  69.253  1.00  0.00     1.049 C  
BRANCH  37  38
HETATM   38  C   UNL     1     -10.989  18.158  68.008  1.00  0.00    -0.037 A  
HETATM   39  C   UNL     1     -10.381  19.794  65.818  1.00  0.00    -0.522 A  
HETATM   40  C   UNL     1     -11.956  18.426  67.036  1.00  0.00     2.922 A  
HETATM   41  C   UNL     1      -9.395  19.472  66.743  1.00  0.00    -0.431 A  
HETATM   42  C   UNL     1      -9.689  18.619  67.803  1.00  0.00    -0.344 A  
HETATM   43  C   UNL     1     -11.652  19.239  65.947  1.00  0.00     1.612 A  
ENDBRANCH  37  38
ENDBRANCH  22  37
ENDBRANCH  19  22
ENDBRANCH  18  19
ENDBRANCH  17  18
BRANCH  17  44
HETATM   44  C   UNL     1      -7.127  13.973  71.589  1.00  0.00     3.031 C  
BRANCH  44  45
HETATM   45  C   UNL     1      -6.696  12.523  71.707  1.00  0.00     4.688 A  
HETATM   46  C   UNL     1      -6.227  11.997  72.922  1.00  0.00     3.977 A  
HETATM   47  C   UNL     1      -6.735  11.685  70.586  1.00  0.00     1.223 A  
HETATM   48  C   UNL     1      -5.771  10.676  72.998  1.00  0.00     1.139 A  
HETATM   49  C   UNL     1      -6.283  10.365  70.665  1.00  0.00    -0.083 A  
HETATM   50  C   UNL     1      -5.792   9.862  71.867  1.00  0.00     0.204 A  
ENDBRANCH  44  45
ENDBRANCH  17  44
ENDBRANCH  15  17
ENDBRANCH   3  13
TORSDOF 14
ENDMDL
MODEL      321
REMARK 921   NORMALIZED FREE ENERGY PREDICTED BY IDOCK:   38.46 KCAL/MOL
REMARK 922        TOTAL FREE ENERGY PREDICTED BY IDOCK:   65.39 KCAL/MOL
REMARK 923 INTER-LIGAND FREE ENERGY PREDICTED BY IDOCK:   37.84 KCAL/MOL
REMARK 924 INTRA-LIGAND FREE ENERGY PREDICTED BY IDOCK:   27.55 KCAL/MOL
REMARK 927      BINDING AFFINITY PREDICTED BY RF-SCORE:    0.00 PKD
ROOT
HETATM    1  C   UNL     1     -13.266   7.371  70.404  1.00  0.00     0.828 C  
HETATM    2  C   UNL     1     -12.876   8.643  69.636  1.00  0.00     2.881 C  
HETATM    3  C   UNL     1     -11.655   8.381  68.701  1.00  0.00     1.387 C  
HETATM    4  C   UNL     1     -14.114   9.167  68.905  1.00  0.00     9.900 C  
ENDROOT
BRANCH   3   5
HETATM    5  N   UNL     1     -10.458   7.973  69.473  1.00  0.00    -0.225 N  
HETATM    6  H   UNL     1      -7.858   6.040  69.296  1.00  0.00     0.000 HD 
HETATM    7  O   UNL     1      -9.429   6.969  67.674  1.00  0.00    -0.122 OA 
HETATM    8  C   UNL     1     -10.230   8.491  70.816  1.00  0.00    -0.198 C  
HETATM    9  C   UNL     1      -9.483   7.200  68.878  1.00  0.00    -0.142 C  
HETATM   10  C   UNL     1      -9.813   7.349  71.724  1.00  0.00    -0.187 C  
HETATM   11  N   UNL     1      -8.575   6.626  69.723  1.00  0.00    -0.135 N  
HETATM   12  C   UNL     1      -8.531   6.769  71.163  1.00  0.00    -0.125 C  
ENDBRANCH   3   5
BRANCH   3  13
HETATM   13  C   UNL     1     -11.377   9.591  67.756  1.00  0.00     0.475 C  
HETATM   14  O   UNL     1     -12.249  10.361  67.369  1.00  0.00     1.210 OA 
HETATM   15  N   UNL     1     -10.075   9.683  67.308  1.00  0.00    -0.197 N  
HETATM   16  H   UNL     1      -9.413   9.012  67.696  1.00  0.00     0.000 HD 
BRANCH  15  17
HETATM   17  C   UNL     1      -9.542  10.636  66.337  1.00  0.00    -0.190 C  
BRANCH  17  18
HETATM   18  C   UNL     1      -9.033  11.951  66.968  1.00  0.00    -0.190 C  
BRANCH  18  19
HETATM   19  C   UNL     1      -8.546  12.057  68.436  1.00  0.00    -0.147 C  
HETATM   20  O   UNL     1      -9.515  11.455  69.300  1.00  0.00    -0.403 OA 
HETATM   21  H   UNL     1      -9.217  11.520  70.200  1.00  0.00     0.000 HD 
BRANCH  19  22
HETATM   22  C   UNL     1      -8.388  13.566  68.871  1.00  0.00     0.178 C  
BRANCH  22  23
HETATM   23  N   UNL     1      -7.274  14.290  68.158  1.00  0.00    -0.112 N  
HETATM   24  C   UNL     1      -6.437  15.361  68.387  1.00  0.00    -0.111 C  
HETATM   25  H   UNL     1      -7.087  13.868  67.249  1.00  0.00     0.000 HD 
HETATM   26  O   UNL     1      -5.452  15.497  67.655  1.00  0.00    -0.217 OA 
BRANCH  24  27
HETATM   27  C   UNL     1      -6.789  16.416  69.449  1.00  0.00    -0.217 C  
BRANCH  27  28
HETATM   28  O   UNL     1      -7.861  17.334  69.302  1.00  0.00    -0.110 OA 
BRANCH  28  29
HETATM   29  C   UNL     1      -9.145  16.908  69.614  1.00  0.00     0.603 A  
HETATM   30  C   UNL     1      -8.879  16.167  72.146  1.00  0.00     9.908 C  
HETATM   31  C   UNL     1      -9.626  16.434  70.863  1.00  0.00     2.891 A  
HETATM   32  C   UNL     1     -11.010  16.170  71.003  1.00  0.00    -0.023 A  
HETATM   33  C   UNL     1     -11.910  16.336  69.962  1.00  0.00     0.027 A  
HETATM   34  C   UNL     1     -11.441  16.759  68.731  1.00  0.00     0.082 A  
HETATM   35  C   UNL     1     -10.073  17.036  68.536  1.00  0.00    -0.303 A  
HETATM   36  C   UNL     1      -9.660  17.460  67.148  1.00  0.00    -0.265 C  
ENDBRANCH  28  29
ENDBRANCH  27  28
ENDBRANCH  24  27
ENDBRANCH  22  23
BRANCH  22  37
HETATM   37  C   UNL     1      -9.748  14.301  69.014  1.00  0.00    -0.040 C  
BRANCH  37  38
HETATM   38  C   UNL     1     -10.843  13.747  68.144  1.00  0.00    -0.261 A  
HETATM   39  C   UNL     1     -12.702  12.668  66.349  1.00  0.00     0.954 A  
HETATM   40  C   UNL     1     -11.534  14.578  67.258  1.00  0.00    -0.381 A  
HETATM   41  C   UNL     1     -12.072  11.848  67.276  1.00  0.00     0.175 A  
HETATM   42  C   UNL     1     -11.186  12.397  68.199  1.00  0.00    -0.313 A  
HETATM   43  C   UNL     1     -12.459  14.040  66.365  1.00  0.00    -0.395 A  
ENDBRANCH  37  38
ENDBRANCH  22  37
ENDBRANCH  19  22
ENDBRANCH  18  19
ENDBRANCH  17  18
BRANCH  17  44
HETATM   44  C   UNL     1     -10.359  10.726  65.030  1.00  0.00    -0.357 C  
BRANCH  44  45
HETATM   45  C   UNL     1     -10.419  12.125  64.446  1.00  0.00    -0.352 A  
HETATM   46  C   UNL     1     -10.482  12.335  63.058  1.00  0.00     0.141 A  
HETATM   47  C   UNL     1     -10.384  13.242  65.289  1.00  0.00    -0.324 A  
HETATM   48  C   UNL     1     -10.469  13.632  62.532  1.00  0.00     7.308 A  
HETATM   49  C   UNL     1     -10.376  14.536  64.762  1.00  0.00    -0.319 A  
HETATM   50  C   UNL     1     -10.409  14.732  63.384  1.00  0.00     5.249 A  
ENDBRANCH  44  45
ENDBRANCH  17  44
ENDBRANCH  15  17
ENDBRANCH   3  13
TORSDOF 14
ENDMDL
MODEL      322
REMARK 921   NORMALIZED FREE ENERGY PREDICTED BY IDOCK:   51.58 KCAL/MOL
REMARK 922        TOTAL FREE ENERGY PREDICTED BY IDOCK:   89.25 KCAL/MOL
REMARK 923 INTER-LIGAND FREE ENERGY PREDICTED BY IDOCK:   69.51 KCAL/MOL
REMARK 924 INTRA-LIGAND FREE ENERGY PREDICTED BY IDOCK:   19.74 KCAL/MOL
REMARK 927      BINDING AFFINITY PREDICTED BY RF-SCORE:    0.00 PKD
ROOT
HETATM    1  C   UNL     1     -10.873  17.752  67.063  1.00  0.00    -0.087 C  
HETATM    2  C   UNL     1     -10.218  16.378  66.851  1.00  0.00    -0.290 C  
HETATM    3  C   UNL     1     -10.348  15.491  68.127  1.00  0.00    -0.237 C  
HETATM    4  C   UNL     1     -10.816  15.744  65.593  1.00  0.00    -0.316 C  
ENDROOT
BRANCH   3   5
HETATM    5  N   UNL     1      -9.665  16.108  69.289  1.00  0.00    -0.246 N  
HETATM    6  H   UNL     1     -10.279  17.474  72.166  1.00  0.00     0.000 HD 
HETATM    7  O   UNL     1     -11.527  16.031  70.642  1.00  0.00    -0.362 OA 
HETATM    8  C   UNL     1      -8.217  16.275  69.293  1.00  0.00    -0.148 C  
HETATM    9  C   UNL     1     -10.379  16.409  70.429  1.00  0.00     0.414 C  
HETATM   10  C   UNL     1      -7.881  17.668  69.791  1.00  0.00     1.074 C  
HETATM   11  N   UNL     1      -9.756  17.231  71.325  1.00  0.00     4.845 N  
HETATM   12  C   UNL     1      -8.426  17.790  71.199  1.00  0.00     7.999 C  
ENDBRANCH   3   5
BRANCH   3  13
HETATM   13  C   UNL     1      -9.885  14.025  67.865  1.00  0.00    -0.233 C  
HETATM   14  O   UNL     1      -9.242  13.364  68.673  1.00  0.00    -0.126 OA 
HETATM   15  N   UNL     1     -10.178  13.547  66.604  1.00  0.00    -0.270 N  
HETATM   16  H   UNL     1     -10.733  14.157  66.005  1.00  0.00     0.000 HD 
BRANCH  15  17
HETATM   17  C   UNL     1      -9.781  12.261  66.034  1.00  0.00    -0.242 C  
BRANCH  17  18
HETATM   18  C   UNL     1     -10.971  11.352  65.656  1.00  0.00    -0.254 C  
BRANCH  18  19
HETATM   19  C   UNL     1     -12.010  10.838  66.686  1.00  0.00     1.910 C  
HETATM   20  O   UNL     1     -11.898  11.602  67.891  1.00  0.00    -0.543 OA 
HETATM   21  H   UNL     1     -12.534  11.287  68.522  1.00  0.00     0.000 HD 
BRANCH  19  22
HETATM   22  C   UNL     1     -11.743   9.325  67.051  1.00  0.00     3.156 C  
BRANCH  22  23
HETATM   23  N   UNL     1     -12.027   8.369  65.920  1.00  0.00     6.791 N  
HETATM   24  C   UNL     1     -11.494   8.052  64.689  1.00  0.00    14.113 C  
HETATM   25  H   UNL     1     -12.845   7.795  66.123  1.00  0.00     0.000 HD 
HETATM   26  O   UNL     1     -11.863   7.006  64.146  1.00  0.00    14.473 OA 
BRANCH  24  27
HETATM   27  C   UNL     1     -10.558   9.035  63.964  1.00  0.00     5.997 C  
BRANCH  27  28
HETATM   28  O   UNL     1      -9.446   8.616  63.190  1.00  0.00     1.082 OA 
BRANCH  28  29
HETATM   29  C   UNL     1      -8.287   8.231  63.848  1.00  0.00    -0.026 A  
HETATM   30  C   UNL     1      -8.047   5.697  63.101  1.00  0.00    -0.101 C  
HETATM   31  C   UNL     1      -7.631   6.973  63.791  1.00  0.00    -0.105 A  
HETATM   32  C   UNL     1      -6.382   6.826  64.443  1.00  0.00    -0.035 A  
HETATM   33  C   UNL     1      -5.786   7.858  65.152  1.00  0.00    -0.037 A  
HETATM   34  C   UNL     1      -6.440   9.074  65.245  1.00  0.00    -0.068 A  
HETATM   35  C   UNL     1      -7.685   9.273  64.616  1.00  0.00    -0.116 A  
HETATM   36  C   UNL     1      -8.329  10.625  64.805  1.00  0.00    -0.071 C  
ENDBRANCH  28  29
ENDBRANCH  27  28
ENDBRANCH  24  27
ENDBRANCH  22  23
BRANCH  22  37
HETATM   37  C   UNL     1     -10.431   9.119  67.855  1.00  0.00    -0.293 C  
BRANCH  37  38
HETATM   38  C   UNL     1     -10.266   7.738  68.425  1.00  0.00    -0.230 A  
HETATM   39  C   UNL     1     -10.114   5.082  69.300  1.00  0.00    -0.270 A  
HETATM   40  C   UNL     1     -11.140   7.266  69.408  1.00  0.00    -0.092 A  
HETATM   41  C   UNL     1      -9.196   5.565  68.376  1.00  0.00    -0.124 A  
HETATM   42  C   UNL     1      -9.245   6.899  67.981  1.00  0.00    -0.121 A  
HETATM   43  C   UNL     1     -11.063   5.945  69.843  1.00  0.00    -0.417 A  
ENDBRANCH  37  38
ENDBRANCH  22  37
ENDBRANCH  19  22
ENDBRANCH  18  19
ENDBRANCH  17  18
BRANCH  17  44
HETATM   44  C   UNL     1      -8.565  11.613  66.730  1.00  0.00    -0.180 C  
BRANCH  44  45
HETATM   45  C   UNL     1      -8.377  12.061  68.168  1.00  0.00    -0.165 A  
HETATM   46  C   UNL     1      -7.176  12.648  68.599  1.00  0.00    -0.108 A  
HETATM   47  C   UNL     1      -9.401  11.869  69.103  1.00  0.00     0.408 A  
HETATM   48  C   UNL     1      -6.994  12.994  69.943  1.00  0.00     0.502 A  
HETATM   49  C   UNL     1      -9.219  12.219  70.444  1.00  0.00     5.520 A  
HETATM   50  C   UNL     1      -8.013  12.773  70.866  1.00  0.00     7.142 A  
ENDBRANCH  44  45
ENDBRANCH  17  44
ENDBRANCH  15  17
ENDBRANCH   3  13
TORSDOF 14
ENDMDL
MODEL      323
REMARK 921   NORMALIZED FREE ENERGY PREDICTED BY IDOCK:   52.16 KCAL/MOL
REMARK 922        TOTAL FREE ENERGY PREDICTED BY IDOCK:   90.30 KCAL/MOL
REMARK 923 INTER-LIGAND FREE ENERGY PREDICTED BY IDOCK:   72.64 KCAL/MOL
REMARK 924 INTRA-LIGAND FREE ENERGY PREDICTED BY IDOCK:   17.67 KCAL/MOL
REMARK 927      BINDING AFFINITY PREDICTED BY RF-SCORE:    0.00 PKD
ROOT
HETATM    1  C   UNL     1      -7.242  12.618  66.883  1.00  0.00     0.206 C  
HETATM    2  C   UNL     1      -6.854  12.696  68.368  1.00  0.00    -0.090 C  
HETATM    3  C   UNL     1      -7.144  14.113  68.951  1.00  0.00    -0.110 C  
HETATM    4  C   UNL     1      -7.561  11.562  69.114  1.00  0.00    -0.003 C  
ENDROOT
BRANCH   3   5
HETATM    5  N   UNL     1      -6.357  15.158  68.255  1.00  0.00    -0.107 N  
HETATM    6  H   UNL     1      -4.601  17.824  68.834  1.00  0.00     0.000 HD 
HETATM    7  O   UNL     1      -5.368  15.938  70.183  1.00  0.00    -0.134 OA 
HETATM    8  C   UNL     1      -6.263  15.169  66.801  1.00  0.00     1.461 C  
HETATM    9  C   UNL     1      -5.600  16.052  68.983  1.00  0.00    -0.113 C  
HETATM   10  C   UNL     1      -6.469  16.587  66.302  1.00  0.00     0.594 C  
HETATM   11  N   UNL     1      -5.149  17.147  68.303  1.00  0.00    -0.122 N  
HETATM   12  C   UNL     1      -5.373  17.443  66.903  1.00  0.00    -0.162 C  
ENDBRANCH   3   5
BRANCH   3  13
HETATM   13  C   UNL     1      -6.962  14.153  70.499  1.00  0.00     0.530 C  
HETATM   14  O   UNL     1      -6.031  14.724  71.057  1.00  0.00    -0.112 OA 
HETATM   15  N   UNL     1      -7.889  13.414  71.206  1.00  0.00     5.586 N  
HETATM   16  H   UNL     1      -8.639  12.988  70.663  1.00  0.00     0.000 HD 
BRANCH  15  17
HETATM   17  C   UNL     1      -7.912  13.174  72.647  1.00  0.00    13.771 C  
BRANCH  17  18
HETATM   18  C   UNL     1      -8.804  14.163  73.430  1.00  0.00    10.490 C  
BRANCH  18  19
HETATM   19  C   UNL     1      -9.220  15.551  72.879  1.00  0.00     9.340 C  
HETATM   20  O   UNL     1     -10.389  16.002  73.570  1.00  0.00     4.619 OA 
HETATM   21  H   UNL     1     -10.645  16.853  73.233  1.00  0.00     0.000 HD 
BRANCH  19  22
HETATM   22  C   UNL     1      -9.574  15.465  71.343  1.00  0.00     2.719 C  
BRANCH  22  23
HETATM   23  N   UNL     1      -9.342  14.102  70.741  1.00  0.00     2.666 N  
HETATM   24  C   UNL     1     -10.005  13.223  69.912  1.00  0.00     1.895 C  
HETATM   25  H   UNL     1      -8.439  13.725  71.028  1.00  0.00     0.000 HD 
HETATM   26  O   UNL     1      -9.364  12.286  69.426  1.00  0.00     0.674 OA 
BRANCH  24  27
HETATM   27  C   UNL     1     -11.523  13.341  69.700  1.00  0.00    -0.198 C  
BRANCH  27  28
HETATM   28  O   UNL     1     -12.338  12.247  69.312  1.00  0.00    -0.110 OA 
BRANCH  28  29
HETATM   29  C   UNL     1     -12.057  11.602  68.115  1.00  0.00     0.039 A  
HETATM   30  C   UNL     1     -11.902  13.634  66.418  1.00  0.00    -0.433 C  
HETATM   31  C   UNL     1     -11.819  12.189  66.845  1.00  0.00    -0.295 A  
HETATM   32  C   UNL     1     -11.421  11.354  65.772  1.00  0.00     0.034 A  
HETATM   33  C   UNL     1     -11.275   9.982  65.911  1.00  0.00     1.144 A  
HETATM   34  C   UNL     1     -11.545   9.399  67.137  1.00  0.00     2.037 A  
HETATM   35  C   UNL     1     -11.945  10.184  68.237  1.00  0.00     0.940 A  
HETATM   36  C   UNL     1     -12.245   9.447  69.519  1.00  0.00     1.017 C  
ENDBRANCH  28  29
ENDBRANCH  27  28
ENDBRANCH  24  27
ENDBRANCH  22  23
BRANCH  22  37
HETATM   37  C   UNL     1     -10.898  16.194  70.986  1.00  0.00     0.154 C  
BRANCH  37  38
HETATM   38  C   UNL     1     -10.882  16.887  69.651  1.00  0.00    -0.101 A  
HETATM   39  C   UNL     1     -11.100  18.230  67.204  1.00  0.00     0.131 A  
HETATM   40  C   UNL     1     -11.179  16.182  68.482  1.00  0.00    -0.365 A  
HETATM   41  C   UNL     1     -10.734  18.925  68.350  1.00  0.00     0.039 A  
HETATM   42  C   UNL     1     -10.578  18.244  69.554  1.00  0.00     0.764 A  
HETATM   43  C   UNL     1     -11.286  16.851  67.265  1.00  0.00     0.400 A  
ENDBRANCH  37  38
ENDBRANCH  22  37
ENDBRANCH  19  22
ENDBRANCH  18  19
ENDBRANCH  17  18
BRANCH  17  44
HETATM   44  C   UNL     1      -6.538  12.805  73.246  1.00  0.00     5.024 C  
BRANCH  44  45
HETATM   45  C   UNL     1      -6.348  11.315  73.461  1.00  0.00     3.982 A  
HETATM   46  C   UNL     1      -5.370  10.823  74.342  1.00  0.00     0.340 A  
HETATM   47  C   UNL     1      -7.136  10.397  72.757  1.00  0.00     4.410 A  
HETATM   48  C   UNL     1      -5.163   9.446  74.479  1.00  0.00    -0.134 A  
HETATM   49  C   UNL     1      -6.930   9.022  72.899  1.00  0.00     0.343 A  
HETATM   50  C   UNL     1      -5.939   8.545  73.752  1.00  0.00    -0.124 A  
ENDBRANCH  44  45
ENDBRANCH  17  44
ENDBRANCH  15  17
ENDBRANCH   3  13
TORSDOF 14
ENDMDL
MODEL      324
REMARK 921   NORMALIZED FREE ENERGY PREDICTED BY IDOCK:   90.25 KCAL/MOL
REMARK 922        TOTAL FREE ENERGY PREDICTED BY IDOCK:  159.56 KCAL/MOL
REMARK 923 INTER-LIGAND FREE ENERGY PREDICTED BY IDOCK:   91.01 KCAL/MOL
REMARK 924 INTRA-LIGAND FREE ENERGY PREDICTED BY IDOCK:   68.54 KCAL/MOL
REMARK 927      BINDING AFFINITY PREDICTED BY RF-SCORE:    0.00 PKD
ROOT
HETATM    1  C   UNL     1      -6.691  11.242  66.477  1.00  0.00    -0.105 C  
HETATM    2  C   UNL     1      -8.183  11.425  66.794  1.00  0.00    -0.160 C  
HETATM    3  C   UNL     1      -8.442  12.790  67.505  1.00  0.00    -0.181 C  
HETATM    4  C   UNL     1      -8.981  11.238  65.502  1.00  0.00    -0.139 C  
ENDROOT
BRANCH   3   5
HETATM    5  N   UNL     1      -7.723  12.874  68.798  1.00  0.00    -0.051 N  
HETATM    6  H   UNL     1      -6.834  11.059  71.335  1.00  0.00     0.000 HD 
HETATM    7  O   UNL     1      -7.551  10.592  69.048  1.00  0.00    -0.096 OA 
HETATM    8  C   UNL     1      -7.201  14.150  69.272  1.00  0.00    -0.049 C  
HETATM    9  C   UNL     1      -7.430  11.726  69.501  1.00  0.00     0.331 C  
HETATM   10  C   UNL     1      -7.544  14.310  70.741  1.00  0.00     1.957 C  
HETATM   11  N   UNL     1      -7.040  11.902  70.799  1.00  0.00     2.416 N  
HETATM   12  C   UNL     1      -6.889  13.167  71.487  1.00  0.00     3.717 C  
ENDBRANCH   3   5
BRANCH   3  13
HETATM   13  C   UNL     1      -9.966  13.093  67.642  1.00  0.00    -0.219 C  
HETATM   14  O   UNL     1     -10.700  12.524  68.443  1.00  0.00    -0.225 OA 
HETATM   15  N   UNL     1     -10.457  13.998  66.723  1.00  0.00    -0.276 N  
HETATM   16  H   UNL     1      -9.772  14.437  66.108  1.00  0.00     0.000 HD 
BRANCH  15  17
HETATM   17  C   UNL     1     -11.849  14.398  66.535  1.00  0.00    -0.390 C  
BRANCH  17  18
HETATM   18  C   UNL     1     -12.065  15.927  66.528  1.00  0.00     1.287 C  
BRANCH  18  19
HETATM   19  C   UNL     1     -11.113  16.916  65.807  1.00  0.00     0.238 C  
HETATM   20  O   UNL     1     -11.082  16.609  64.410  1.00  0.00    -1.133 OA 
HETATM   21  H   UNL     1     -10.498  17.215  63.968  1.00  0.00     0.000 HD 
BRANCH  19  22
HETATM   22  C   UNL     1      -9.640  16.787  66.360  1.00  0.00    -0.281 C  
BRANCH  22  23
HETATM   23  N   UNL     1      -8.676  16.164  65.382  1.00  0.00     0.696 N  
HETATM   24  C   UNL     1      -8.669  15.132  64.468  1.00  0.00     6.540 C  
HETATM   25  H   UNL     1      -7.776  16.642  65.401  1.00  0.00     0.000 HD 
HETATM   26  O   UNL     1      -7.749  15.088  63.647  1.00  0.00    15.419 OA 
BRANCH  24  27
HETATM   27  C   UNL     1      -9.713  14.005  64.552  1.00  0.00     0.906 C  
BRANCH  27  28
HETATM   28  O   UNL     1     -10.933  14.025  63.829  1.00  0.00     0.258 OA 
BRANCH  28  29
HETATM   29  C   UNL     1     -11.848  15.034  64.100  1.00  0.00    -0.167 A  
HETATM   30  C   UNL     1     -10.338  17.207  63.927  1.00  0.00     5.883 C  
HETATM   31  C   UNL     1     -11.621  16.435  64.106  1.00  0.00     0.351 A  
HETATM   32  C   UNL     1     -12.727  17.303  64.283  1.00  0.00     6.991 A  
HETATM   33  C   UNL     1     -14.018  16.835  64.471  1.00  0.00     7.841 A  
HETATM   34  C   UNL     1     -14.239  15.469  64.507  1.00  0.00     4.712 A  
HETATM   35  C   UNL     1     -13.174  14.562  64.337  1.00  0.00     1.165 A  
HETATM   36  C   UNL     1     -13.516  13.094  64.424  1.00  0.00     1.249 C  
ENDBRANCH  28  29
ENDBRANCH  27  28
ENDBRANCH  24  27
ENDBRANCH  22  23
BRANCH  22  37
HETATM   37  C   UNL     1      -9.169  18.051  67.129  1.00  0.00    -0.256 C  
BRANCH  37  38
HETATM   38  C   UNL     1      -8.837  17.807  68.576  1.00  0.00    -0.284 A  
HETATM   39  C   UNL     1      -8.472  17.354  71.315  1.00  0.00     8.686 A  
HETATM   40  C   UNL     1      -8.636  18.879  69.448  1.00  0.00     0.242 A  
HETATM   41  C   UNL     1      -8.600  16.281  70.442  1.00  0.00     2.211 A  
HETATM   42  C   UNL     1      -8.732  16.510  69.075  1.00  0.00    -0.215 A  
HETATM   43  C   UNL     1      -8.453  18.652  70.811  1.00  0.00     4.461 A  
ENDBRANCH  37  38
ENDBRANCH  22  37
ENDBRANCH  19  22
ENDBRANCH  18  19
ENDBRANCH  17  18
BRANCH  17  44
HETATM   44  C   UNL     1     -12.863  13.525  67.307  1.00  0.00     1.099 C  
BRANCH  44  45
HETATM   45  C   UNL     1     -12.375  12.113  67.569  1.00  0.00     0.704 A  
HETATM   46  C   UNL     1     -13.080  10.996  67.092  1.00  0.00     7.956 A  
HETATM   47  C   UNL     1     -11.215  11.899  68.323  1.00  0.00    -0.317 A  
HETATM   48  C   UNL     1     -12.652   9.699  67.399  1.00  0.00     8.024 A  
HETATM   49  C   UNL     1     -10.787  10.603  68.625  1.00  0.00    -0.266 A  
HETATM   50  C   UNL     1     -11.510   9.503  68.171  1.00  0.00     0.486 A  
ENDBRANCH  44  45
ENDBRANCH  17  44
ENDBRANCH  15  17
ENDBRANCH   3  13
TORSDOF 14
ENDMDL
