MODEL        1
REMARK 921   NORMALIZED FREE ENERGY PREDICTED BY IDOCK:   -8.00 KCAL/MOL
REMARK 922        TOTAL FREE ENERGY PREDICTED BY IDOCK:   -9.09 KCAL/MOL
REMARK 923 INTER-LIGAND FREE ENERGY PREDICTED BY IDOCK:   -8.47 KCAL/MOL
REMARK 924 INTRA-LIGAND FREE ENERGY PREDICTED BY IDOCK:   -0.62 KCAL/MOL
REMARK 927      BINDING AFFINITY PREDICTED BY RF-SCORE:    0.00 PKD
ROOT
HETATM    1  O   UNL     1     -11.475  16.343  63.827  1.00  0.00    -1.590 OA 
HETATM    2  H   UNL     1     -12.136  15.836  63.370  1.00  0.00     0.000 HD 
HETATM    3  C   UNL     1     -11.259  15.825  65.120  1.00  0.00    -0.248 C  
HETATM    4  N   UNL     1     -10.250  16.598  65.817  1.00  0.00    -0.500 NA 
HETATM    5  H   UNL     1      -9.619  17.200  65.288  1.00  0.00     0.000 HD 
HETATM    6  C   UNL     1     -10.145  16.531  67.096  1.00  0.00    -0.274 C  
HETATM    7  C   UNL     1     -11.428  16.078  69.186  1.00  0.00    -0.347 A  
HETATM    8  C   UNL     1     -10.961  15.603  67.951  1.00  0.00    -0.319 A  
HETATM    9 CL   UNL     1     -12.596  15.794  71.601  1.00  0.00    -0.497 Cl 
HETATM   10  C   UNL     1     -11.194  14.259  67.588  1.00  0.00    -0.304 A  
HETATM   11  N   UNL     1     -10.850  13.692  66.350  1.00  0.00    -0.289 N  
HETATM   12  C   UNL     1     -11.812  13.398  68.505  1.00  0.00    -0.401 A  
HETATM   13  O   UNL     1     -10.482  13.697  64.132  1.00  0.00    -0.305 OA 
HETATM   14  C   UNL     1     -12.254  13.874  69.741  1.00  0.00    -0.388 A  
HETATM   15  C   UNL     1     -10.799  14.339  65.135  1.00  0.00    -0.378 C  
HETATM   16  C   UNL     1     -12.066  15.212  70.072  1.00  0.00    -0.345 A  
HETATM   17  H   UNL     1     -10.614  12.700  66.351  1.00  0.00     0.000 HD 
ENDROOT
BRANCH   6  18
HETATM   18  C   UNL     1      -9.111  17.425  67.746  1.00  0.00    -0.243 A  
HETATM   19  C   UNL     1      -7.137  19.012  68.991  1.00  0.00    -0.361 A  
HETATM   20  C   UNL     1      -6.927  17.649  68.818  1.00  0.00    -0.245 A  
HETATM   21  C   UNL     1      -9.309  18.810  67.921  1.00  0.00    -0.298 A  
HETATM   22  C   UNL     1      -7.895  16.865  68.180  1.00  0.00    -0.189 A  
HETATM   23  C   UNL     1      -8.318  19.592  68.531  1.00  0.00    -0.372 A  
HETATM   24 CL   UNL     1     -10.760  19.652  67.489  1.00  0.00    -0.572 Cl 
ENDBRANCH   6  18
TORSDOF 1
ENDMDL
MODEL        2
REMARK 921   NORMALIZED FREE ENERGY PREDICTED BY IDOCK:   -7.66 KCAL/MOL
REMARK 922        TOTAL FREE ENERGY PREDICTED BY IDOCK:   -8.73 KCAL/MOL
REMARK 923 INTER-LIGAND FREE ENERGY PREDICTED BY IDOCK:   -8.10 KCAL/MOL
REMARK 924 INTRA-LIGAND FREE ENERGY PREDICTED BY IDOCK:   -0.63 KCAL/MOL
REMARK 927      BINDING AFFINITY PREDICTED BY RF-SCORE:    0.00 PKD
ROOT
HETATM    1  O   UNL     1     -12.457  14.279  63.096  1.00  0.00    -1.102 OA 
HETATM    2  H   UNL     1     -12.967  13.499  62.912  1.00  0.00     0.000 HD 
HETATM    3  C   UNL     1     -11.934  14.233  64.404  1.00  0.00    -0.456 C  
HETATM    4  N   UNL     1     -11.156  15.423  64.684  1.00  0.00    -0.646 NA 
HETATM    5  H   UNL     1     -10.821  16.002  63.914  1.00  0.00     0.000 HD 
HETATM    6  C   UNL     1     -10.884  15.754  65.896  1.00  0.00    -0.268 C  
HETATM    7  C   UNL     1     -11.695  15.573  68.248  1.00  0.00    -0.287 A  
HETATM    8  C   UNL     1     -11.248  14.918  67.090  1.00  0.00    -0.345 A  
HETATM    9 CL   UNL     1     -12.414  15.671  70.845  1.00  0.00    -0.478 Cl 
HETATM   10  C   UNL     1     -11.074  13.518  67.106  1.00  0.00    -0.293 A  
HETATM   11  N   UNL     1     -10.713  12.743  65.991  1.00  0.00    -0.269 N  
HETATM   12  C   UNL     1     -11.266  12.815  68.303  1.00  0.00    -0.308 A  
HETATM   13  O   UNL     1     -10.631  12.220  63.806  1.00  0.00    -0.379 OA 
HETATM   14  C   UNL     1     -11.690  13.479  69.456  1.00  0.00    -0.382 A  
HETATM   15  C   UNL     1     -11.018  13.005  64.673  1.00  0.00    -0.342 C  
HETATM   16  C   UNL     1     -11.908  14.852  69.421  1.00  0.00    -0.324 A  
HETATM   17  H   UNL     1     -10.169  11.900  66.176  1.00  0.00     0.000 HD 
ENDROOT
BRANCH   6  18
HETATM   18  C   UNL     1     -10.128  17.050  66.098  1.00  0.00    -0.332 A  
HETATM   19  C   UNL     1      -8.790  19.513  66.426  1.00  0.00    -0.400 A  
HETATM   20  C   UNL     1     -10.113  19.491  66.000  1.00  0.00    -0.521 A  
HETATM   21  C   UNL     1      -8.788  17.086  66.536  1.00  0.00    -0.264 A  
HETATM   22  C   UNL     1     -10.785  18.273  65.860  1.00  0.00    -0.168 A  
HETATM   23  C   UNL     1      -8.135  18.315  66.706  1.00  0.00    -0.268 A  
HETATM   24 CL   UNL     1      -7.818  15.682  66.831  1.00  0.00    -0.268 Cl 
ENDBRANCH   6  18
TORSDOF 1
ENDMDL
MODEL        3
REMARK 921   NORMALIZED FREE ENERGY PREDICTED BY IDOCK:   -7.33 KCAL/MOL
REMARK 922        TOTAL FREE ENERGY PREDICTED BY IDOCK:   -8.38 KCAL/MOL
REMARK 923 INTER-LIGAND FREE ENERGY PREDICTED BY IDOCK:   -7.76 KCAL/MOL
REMARK 924 INTRA-LIGAND FREE ENERGY PREDICTED BY IDOCK:   -0.62 KCAL/MOL
REMARK 927      BINDING AFFINITY PREDICTED BY RF-SCORE:    0.00 PKD
ROOT
HETATM    1  O   UNL     1     -12.529  13.905  62.842  1.00  0.00    -1.034 OA 
HETATM    2  H   UNL     1     -13.060  13.158  62.592  1.00  0.00     0.000 HD 
HETATM    3  C   UNL     1     -12.029  13.744  64.149  1.00  0.00    -0.432 C  
HETATM    4  N   UNL     1     -11.219  14.884  64.530  1.00  0.00    -0.625 NA 
HETATM    5  H   UNL     1     -10.854  15.509  63.811  1.00  0.00     0.000 HD 
HETATM    6  C   UNL     1     -10.958  15.114  65.767  1.00  0.00    -0.349 C  
HETATM    7  C   UNL     1     -11.813  14.782  68.087  1.00  0.00    -0.318 A  
HETATM    8  C   UNL     1     -11.368  14.202  66.889  1.00  0.00    -0.343 A  
HETATM    9 CL   UNL     1     -12.572  14.707  70.674  1.00  0.00    -0.398 Cl 
HETATM   10  C   UNL     1     -11.237  12.800  66.801  1.00  0.00    -0.295 A  
HETATM   11  N   UNL     1     -10.882  12.100  65.636  1.00  0.00    -0.274 N  
HETATM   12  C   UNL     1     -11.472  12.015  67.938  1.00  0.00    -0.396 A  
HETATM   13  O   UNL     1     -10.780  11.741  63.419  1.00  0.00    -0.391 OA 
HETATM   14  C   UNL     1     -11.893  12.603  69.132  1.00  0.00    -0.349 A  
HETATM   15  C   UNL     1     -11.157  12.470  64.338  1.00  0.00    -0.339 C  
HETATM   16  C   UNL     1     -12.068  13.981  69.198  1.00  0.00    -0.337 A  
HETATM   17  H   UNL     1     -10.368  11.228  65.764  1.00  0.00     0.000 HD 
ENDROOT
BRANCH   6  18
HETATM   18  C   UNL     1     -10.165  16.366  66.078  1.00  0.00    -0.373 A  
HETATM   19  C   UNL     1      -8.754  18.752  66.607  1.00  0.00    -0.306 A  
HETATM   20  C   UNL     1     -10.051  18.806  66.109  1.00  0.00    -0.421 A  
HETATM   21  C   UNL     1      -8.852  16.324  66.590  1.00  0.00    -0.254 A  
HETATM   22  C   UNL     1     -10.760  17.625  65.868  1.00  0.00    -0.113 A  
HETATM   23  C   UNL     1      -8.163  17.516  66.859  1.00  0.00    -0.253 A  
HETATM   24 CL   UNL     1      -7.955  14.868  66.863  1.00  0.00    -0.159 Cl 
ENDBRANCH   6  18
TORSDOF 1
ENDMDL
MODEL        4
REMARK 921   NORMALIZED FREE ENERGY PREDICTED BY IDOCK:   -7.28 KCAL/MOL
REMARK 922        TOTAL FREE ENERGY PREDICTED BY IDOCK:   -8.33 KCAL/MOL
REMARK 923 INTER-LIGAND FREE ENERGY PREDICTED BY IDOCK:   -7.70 KCAL/MOL
REMARK 924 INTRA-LIGAND FREE ENERGY PREDICTED BY IDOCK:   -0.63 KCAL/MOL
REMARK 927      BINDING AFFINITY PREDICTED BY RF-SCORE:    0.00 PKD
ROOT
HETATM    1  O   UNL     1     -12.148  13.468  63.543  1.00  0.00    -0.725 OA 
HETATM    2  H   UNL     1     -11.895  13.791  62.687  1.00  0.00     0.000 HD 
HETATM    3  C   UNL     1     -11.370  14.070  64.552  1.00  0.00    -0.358 C  
HETATM    4  N   UNL     1     -11.756  13.577  65.858  1.00  0.00    -0.337 NA 
HETATM    5  H   UNL     1     -12.659  13.116  65.979  1.00  0.00     0.000 HD 
HETATM    6  C   UNL     1     -10.972  13.715  66.866  1.00  0.00    -0.289 C  
HETATM    7  C   UNL     1      -8.574  13.940  67.518  1.00  0.00    -0.195 A  
HETATM    8  C   UNL     1      -9.670  14.462  66.811  1.00  0.00    -0.278 A  
HETATM    9 CL   UNL     1      -6.071  14.039  68.515  1.00  0.00    -0.087 Cl 
HETATM   10  C   UNL     1      -9.543  15.702  66.149  1.00  0.00    -0.330 A  
HETATM   11  N   UNL     1     -10.536  16.285  65.345  1.00  0.00    -0.371 N  
HETATM   12  C   UNL     1      -8.354  16.432  66.279  1.00  0.00    -0.362 A  
HETATM   13  O   UNL     1     -12.283  16.280  63.930  1.00  0.00    -0.945 OA 
HETATM   14  C   UNL     1      -7.278  15.914  67.002  1.00  0.00    -0.232 A  
HETATM   15  C   UNL     1     -11.478  15.621  64.589  1.00  0.00    -0.303 C  
HETATM   16  C   UNL     1      -7.391  14.669  67.611  1.00  0.00    -0.185 A  
HETATM   17  H   UNL     1     -10.563  17.304  65.318  1.00  0.00     0.000 HD 
ENDROOT
BRANCH   6  18
HETATM   18  C   UNL     1     -11.426  13.107  68.176  1.00  0.00    -0.349 A  
HETATM   19  C   UNL     1     -12.279  11.885  70.573  1.00  0.00    -0.426 A  
HETATM   20  C   UNL     1     -11.874  11.101  69.498  1.00  0.00    -0.423 A  
HETATM   21  C   UNL     1     -11.832  13.890  69.275  1.00  0.00    -0.348 A  
HETATM   22  C   UNL     1     -11.429  11.706  68.317  1.00  0.00    -0.369 A  
HETATM   23  C   UNL     1     -12.245  13.274  70.466  1.00  0.00    -0.416 A  
HETATM   24 CL   UNL     1     -11.934  15.619  69.260  1.00  0.00    -0.375 Cl 
ENDBRANCH   6  18
TORSDOF 1
ENDMDL
MODEL        5
REMARK 921   NORMALIZED FREE ENERGY PREDICTED BY IDOCK:   -7.24 KCAL/MOL
REMARK 922        TOTAL FREE ENERGY PREDICTED BY IDOCK:   -8.29 KCAL/MOL
REMARK 923 INTER-LIGAND FREE ENERGY PREDICTED BY IDOCK:   -7.67 KCAL/MOL
REMARK 924 INTRA-LIGAND FREE ENERGY PREDICTED BY IDOCK:   -0.62 KCAL/MOL
REMARK 927      BINDING AFFINITY PREDICTED BY RF-SCORE:    0.00 PKD
ROOT
HETATM    1  O   UNL     1     -12.626  14.684  63.694  1.00  0.00    -1.017 OA 
HETATM    2  H   UNL     1     -13.432  14.196  63.570  1.00  0.00     0.000 HD 
HETATM    3  C   UNL     1     -12.101  14.458  64.982  1.00  0.00    -0.415 C  
HETATM    4  N   UNL     1     -10.872  15.201  65.170  1.00  0.00    -0.393 NA 
HETATM    5  H   UNL     1     -10.364  15.554  64.359  1.00  0.00     0.000 HD 
HETATM    6  C   UNL     1     -10.417  15.421  66.352  1.00  0.00    -0.303 C  
HETATM    7  C   UNL     1     -11.094  15.683  68.738  1.00  0.00    -0.307 A  
HETATM    8  C   UNL     1     -11.038  14.862  67.601  1.00  0.00    -0.315 A  
HETATM    9 CL   UNL     1     -11.554  16.164  71.352  1.00  0.00    -0.511 Cl 
HETATM   10  C   UNL     1     -11.484  13.526  67.684  1.00  0.00    -0.318 A  
HETATM   11  N   UNL     1     -11.555  12.637  66.599  1.00  0.00    -0.361 N  
HETATM   12  C   UNL     1     -11.893  13.014  68.923  1.00  0.00    -0.358 A  
HETATM   13  O   UNL     1     -11.828  12.061  64.443  1.00  0.00    -0.350 OA 
HETATM   14  C   UNL     1     -11.923  13.832  70.054  1.00  0.00    -0.407 A  
HETATM   15  C   UNL     1     -11.791  12.963  65.282  1.00  0.00    -0.392 C  
HETATM   16  C   UNL     1     -11.531  15.162  69.955  1.00  0.00    -0.288 A  
HETATM   17  H   UNL     1     -11.418  11.648  66.808  1.00  0.00     0.000 HD 
ENDROOT
BRANCH   6  18
HETATM   18  C   UNL     1      -9.166  16.267  66.458  1.00  0.00    -0.299 A  
HETATM   19  C   UNL     1      -6.788  17.767  66.699  1.00  0.00    -0.242 A  
HETATM   20  C   UNL     1      -6.764  16.390  66.887  1.00  0.00    -0.205 A  
HETATM   21  C   UNL     1      -9.176  17.663  66.263  1.00  0.00    -0.190 A  
HETATM   22  C   UNL     1      -7.937  15.642  66.745  1.00  0.00    -0.246 A  
HETATM   23  C   UNL     1      -7.987  18.399  66.374  1.00  0.00    -0.288 A  
HETATM   24 CL   UNL     1     -10.601  18.596  65.950  1.00  0.00    -0.463 Cl 
ENDBRANCH   6  18
TORSDOF 1
ENDMDL
MODEL        6
REMARK 921   NORMALIZED FREE ENERGY PREDICTED BY IDOCK:   -7.24 KCAL/MOL
REMARK 922        TOTAL FREE ENERGY PREDICTED BY IDOCK:   -8.28 KCAL/MOL
REMARK 923 INTER-LIGAND FREE ENERGY PREDICTED BY IDOCK:   -7.65 KCAL/MOL
REMARK 924 INTRA-LIGAND FREE ENERGY PREDICTED BY IDOCK:   -0.63 KCAL/MOL
REMARK 927      BINDING AFFINITY PREDICTED BY RF-SCORE:    0.00 PKD
ROOT
HETATM    1  O   UNL     1     -12.794  14.003  65.011  1.00  0.00    -0.695 OA 
HETATM    2  H   UNL     1     -13.406  13.300  64.827  1.00  0.00     0.000 HD 
HETATM    3  C   UNL     1     -12.393  13.972  66.361  1.00  0.00    -0.431 C  
HETATM    4  N   UNL     1     -11.460  15.045  66.641  1.00  0.00    -0.302 NA 
HETATM    5  H   UNL     1     -10.975  15.508  65.872  1.00  0.00     0.000 HD 
HETATM    6  C   UNL     1     -11.239  15.418  67.851  1.00  0.00    -0.329 C  
HETATM    7  C   UNL     1     -12.258  15.536  70.125  1.00  0.00    -0.404 A  
HETATM    8  C   UNL     1     -11.829  14.737  69.053  1.00  0.00    -0.337 A  
HETATM    9 CL   UNL     1     -13.162  15.933  72.635  1.00  0.00    -0.556 Cl 
HETATM   10  C   UNL     1     -11.883  13.331  69.168  1.00  0.00    -0.329 A  
HETATM   11  N   UNL     1     -11.561  12.431  68.140  1.00  0.00    -0.321 N  
HETATM   12  C   UNL     1     -12.283  12.756  70.382  1.00  0.00    -0.371 A  
HETATM   13  O   UNL     1     -11.385  11.744  66.006  1.00  0.00    -0.330 OA 
HETATM   14  C   UNL     1     -12.687  13.560  71.450  1.00  0.00    -0.423 A  
HETATM   15  C   UNL     1     -11.712  12.640  66.786  1.00  0.00    -0.392 C  
HETATM   16  C   UNL     1     -12.679  14.944  71.313  1.00  0.00    -0.340 A  
HETATM   17  H   UNL     1     -11.176  11.530  68.424  1.00  0.00     0.000 HD 
ENDROOT
BRANCH   6  18
HETATM   18  C   UNL     1     -10.304  16.592  68.045  1.00  0.00    -0.303 A  
HETATM   19  C   UNL     1      -8.623  18.839  68.355  1.00  0.00    -0.373 A  
HETATM   20  C   UNL     1      -9.924  19.001  67.894  1.00  0.00    -0.427 A  
HETATM   21  C   UNL     1      -8.985  16.441  68.519  1.00  0.00    -0.224 A  
HETATM   22  C   UNL     1     -10.766  17.892  67.762  1.00  0.00    -0.339 A  
HETATM   23  C   UNL     1      -8.160  17.565  68.679  1.00  0.00    -0.263 A  
HETATM   24 CL   UNL     1      -8.241  14.917  68.871  1.00  0.00    -0.163 Cl 
ENDBRANCH   6  18
TORSDOF 1
ENDMDL
MODEL        7
REMARK 921   NORMALIZED FREE ENERGY PREDICTED BY IDOCK:   -7.23 KCAL/MOL
REMARK 922        TOTAL FREE ENERGY PREDICTED BY IDOCK:   -8.28 KCAL/MOL
REMARK 923 INTER-LIGAND FREE ENERGY PREDICTED BY IDOCK:   -7.84 KCAL/MOL
REMARK 924 INTRA-LIGAND FREE ENERGY PREDICTED BY IDOCK:   -0.43 KCAL/MOL
REMARK 927      BINDING AFFINITY PREDICTED BY RF-SCORE:    0.00 PKD
ROOT
HETATM    1  O   UNL     1     -13.041  14.065  65.411  1.00  0.00    -0.763 OA 
HETATM    2  H   UNL     1     -12.959  13.580  64.598  1.00  0.00     0.000 HD 
HETATM    3  C   UNL     1     -12.231  13.497  66.413  1.00  0.00    -0.400 C  
HETATM    4  N   UNL     1     -12.357  14.237  67.652  1.00  0.00    -0.582 NA 
HETATM    5  H   UNL     1     -12.736  15.185  67.640  1.00  0.00     0.000 HD 
HETATM    6  C   UNL     1     -11.995  13.711  68.767  1.00  0.00    -0.359 C  
HETATM    7  C   UNL     1     -11.703  11.533  69.948  1.00  0.00    -0.420 A  
HETATM    8  C   UNL     1     -11.338  12.364  68.877  1.00  0.00    -0.342 A  
HETATM    9 CL   UNL     1     -11.448   9.349  71.510  1.00  0.00    -0.446 Cl 
HETATM   10  C   UNL     1     -10.316  11.953  67.995  1.00  0.00    -0.196 A  
HETATM   11  N   UNL     1      -9.921  12.656  66.845  1.00  0.00    -0.226 N  
HETATM   12  C   UNL     1      -9.623  10.763  68.253  1.00  0.00    -0.170 A  
HETATM   13  O   UNL     1     -10.221  13.999  65.067  1.00  0.00    -0.386 OA 
HETATM   14  C   UNL     1      -9.979   9.953  69.333  1.00  0.00    -0.227 A  
HETATM   15  C   UNL     1     -10.719  13.450  66.051  1.00  0.00    -0.278 C  
HETATM   16  C   UNL     1     -11.021  10.339  70.170  1.00  0.00    -0.314 A  
HETATM   17  H   UNL     1      -8.942  12.570  66.570  1.00  0.00     0.000 HD 
ENDROOT
BRANCH   6  18
HETATM   18  C   UNL     1     -12.228  14.529  70.019  1.00  0.00    -0.396 A  
HETATM   19  C   UNL     1     -12.759  16.027  72.352  1.00  0.00    -0.496 A  
HETATM   20  C   UNL     1     -13.682  15.090  71.901  1.00  0.00    -0.548 A  
HETATM   21  C   UNL     1     -11.297  15.477  70.490  1.00  0.00    -0.351 A  
HETATM   22  C   UNL     1     -13.410  14.330  70.758  1.00  0.00    -0.174 A  
HETATM   23  C   UNL     1     -11.565  16.209  71.656  1.00  0.00    -0.503 A  
HETATM   24 CL   UNL     1      -9.819  15.880  69.683  1.00  0.00    -0.265 Cl 
ENDBRANCH   6  18
TORSDOF 1
ENDMDL
MODEL        8
REMARK 921   NORMALIZED FREE ENERGY PREDICTED BY IDOCK:   -7.20 KCAL/MOL
REMARK 922        TOTAL FREE ENERGY PREDICTED BY IDOCK:   -8.25 KCAL/MOL
REMARK 923 INTER-LIGAND FREE ENERGY PREDICTED BY IDOCK:   -7.63 KCAL/MOL
REMARK 924 INTRA-LIGAND FREE ENERGY PREDICTED BY IDOCK:   -0.62 KCAL/MOL
REMARK 927      BINDING AFFINITY PREDICTED BY RF-SCORE:    0.00 PKD
ROOT
HETATM    1  O   UNL     1     -12.244  13.548  63.693  1.00  0.00    -0.698 OA 
HETATM    2  H   UNL     1     -11.959  13.820  62.829  1.00  0.00     0.000 HD 
HETATM    3  C   UNL     1     -11.426  14.119  64.688  1.00  0.00    -0.387 C  
HETATM    4  N   UNL     1     -11.861  13.705  66.007  1.00  0.00    -0.365 NA 
HETATM    5  H   UNL     1     -12.799  13.324  66.134  1.00  0.00     0.000 HD 
HETATM    6  C   UNL     1     -11.075  13.813  67.018  1.00  0.00    -0.302 C  
HETATM    7  C   UNL     1      -8.672  13.863  67.685  1.00  0.00    -0.187 A  
HETATM    8  C   UNL     1      -9.715  14.449  66.951  1.00  0.00    -0.266 A  
HETATM    9 CL   UNL     1      -6.176  13.792  68.703  1.00  0.00    -0.083 Cl 
HETATM   10  C   UNL     1      -9.482  15.650  66.248  1.00  0.00    -0.319 A  
HETATM   11  N   UNL     1     -10.418  16.284  65.415  1.00  0.00    -0.371 N  
HETATM   12  C   UNL     1      -8.238  16.284  66.365  1.00  0.00    -0.354 A  
HETATM   13  O   UNL     1     -12.150  16.374  63.983  1.00  0.00    -0.932 OA 
HETATM   14  C   UNL     1      -7.214  15.706  67.116  1.00  0.00    -0.230 A  
HETATM   15  C   UNL     1     -11.406  15.674  64.673  1.00  0.00    -0.349 C  
HETATM   16  C   UNL     1      -7.433  14.496  67.766  1.00  0.00    -0.169 A  
HETATM   17  H   UNL     1     -10.361  17.301  65.353  1.00  0.00     0.000 HD 
ENDROOT
BRANCH   6  18
HETATM   18  C   UNL     1     -11.587  13.290  68.343  1.00  0.00    -0.372 A  
HETATM   19  C   UNL     1     -12.533  12.407  70.851  1.00  0.00    -0.367 A  
HETATM   20  C   UNL     1     -12.462  13.767  70.574  1.00  0.00    -0.409 A  
HETATM   21  C   UNL     1     -11.669  11.913  68.634  1.00  0.00    -0.323 A  
HETATM   22  C   UNL     1     -12.016  14.207  69.323  1.00  0.00    -0.382 A  
HETATM   23  C   UNL     1     -12.151  11.484  69.879  1.00  0.00    -0.389 A  
HETATM   24 CL   UNL     1     -11.144  10.655  67.566  1.00  0.00    -0.373 Cl 
ENDBRANCH   6  18
TORSDOF 1
ENDMDL
MODEL        9
REMARK 921   NORMALIZED FREE ENERGY PREDICTED BY IDOCK:   -7.13 KCAL/MOL
REMARK 922        TOTAL FREE ENERGY PREDICTED BY IDOCK:   -8.17 KCAL/MOL
REMARK 923 INTER-LIGAND FREE ENERGY PREDICTED BY IDOCK:   -7.62 KCAL/MOL
REMARK 924 INTRA-LIGAND FREE ENERGY PREDICTED BY IDOCK:   -0.55 KCAL/MOL
REMARK 927      BINDING AFFINITY PREDICTED BY RF-SCORE:    0.00 PKD
ROOT
HETATM    1  O   UNL     1     -11.448  11.326  63.167  1.00  0.00    -0.850 OA 
HETATM    2  H   UNL     1     -11.271  11.650  62.292  1.00  0.00     0.000 HD 
HETATM    3  C   UNL     1     -11.071  12.279  64.134  1.00  0.00    -0.366 C  
HETATM    4  N   UNL     1     -11.342  11.786  65.470  1.00  0.00    -0.269 NA 
HETATM    5  H   UNL     1     -11.989  11.008  65.600  1.00  0.00     0.000 HD 
HETATM    6  C   UNL     1     -10.773  12.320  66.491  1.00  0.00    -0.246 C  
HETATM    7  C   UNL     1      -8.738  13.564  67.223  1.00  0.00    -0.228 A  
HETATM    8  C   UNL     1      -9.883  13.528  66.410  1.00  0.00    -0.299 A  
HETATM    9 CL   UNL     1      -6.587  14.767  68.317  1.00  0.00    -0.105 Cl 
HETATM   10  C   UNL     1     -10.208  14.648  65.616  1.00  0.00    -0.359 A  
HETATM   11  N   UNL     1     -11.275  14.701  64.705  1.00  0.00    -0.548 N  
HETATM   12  C   UNL     1      -9.430  15.810  65.716  1.00  0.00    -0.334 A  
HETATM   13  O   UNL     1     -12.738  13.858  63.220  1.00  0.00    -0.775 OA 
HETATM   14  C   UNL     1      -8.306  15.843  66.544  1.00  0.00    -0.330 A  
HETATM   15  C   UNL     1     -11.798  13.647  63.988  1.00  0.00    -0.400 C  
HETATM   16  C   UNL     1      -7.962  14.719  67.286  1.00  0.00    -0.205 A  
HETATM   17  H   UNL     1     -11.708  15.613  64.559  1.00  0.00     0.000 HD 
ENDROOT
BRANCH   6  18
HETATM   18  C   UNL     1     -11.059  11.695  67.839  1.00  0.00    -0.306 A  
HETATM   19  C   UNL     1     -11.575  10.440  70.314  1.00  0.00    -0.410 A  
HETATM   20  C   UNL     1     -10.967   9.728  69.286  1.00  0.00    -0.222 A  
HETATM   21  C   UNL     1     -11.669  12.408  68.891  1.00  0.00    -0.324 A  
HETATM   22  C   UNL     1     -10.689  10.355  68.067  1.00  0.00    -0.292 A  
HETATM   23  C   UNL     1     -11.912  11.778  70.121  1.00  0.00    -0.421 A  
HETATM   24 CL   UNL     1     -12.229  14.042  68.770  1.00  0.00    -0.330 Cl 
ENDBRANCH   6  18
TORSDOF 1
ENDMDL
MODEL       10
REMARK 921   NORMALIZED FREE ENERGY PREDICTED BY IDOCK:   -6.90 KCAL/MOL
REMARK 922        TOTAL FREE ENERGY PREDICTED BY IDOCK:   -7.93 KCAL/MOL
REMARK 923 INTER-LIGAND FREE ENERGY PREDICTED BY IDOCK:   -7.47 KCAL/MOL
REMARK 924 INTRA-LIGAND FREE ENERGY PREDICTED BY IDOCK:   -0.45 KCAL/MOL
REMARK 927      BINDING AFFINITY PREDICTED BY RF-SCORE:    0.00 PKD
ROOT
HETATM    1  O   UNL     1     -11.466  11.420  63.093  1.00  0.00    -0.849 OA 
HETATM    2  H   UNL     1     -11.288  11.757  62.223  1.00  0.00     0.000 HD 
HETATM    3  C   UNL     1     -11.103  12.362  64.075  1.00  0.00    -0.396 C  
HETATM    4  N   UNL     1     -11.376  11.848  65.402  1.00  0.00    -0.308 NA 
HETATM    5  H   UNL     1     -12.017  11.063  65.519  1.00  0.00     0.000 HD 
HETATM    6  C   UNL     1     -10.817  12.373  66.433  1.00  0.00    -0.258 C  
HETATM    7  C   UNL     1      -8.796  13.623  67.192  1.00  0.00    -0.237 A  
HETATM    8  C   UNL     1      -9.936  13.589  66.374  1.00  0.00    -0.296 A  
HETATM    9 CL   UNL     1      -6.660  14.829  68.314  1.00  0.00    -0.105 Cl 
HETATM   10  C   UNL     1     -10.266  14.717  65.593  1.00  0.00    -0.358 A  
HETATM   11  N   UNL     1     -11.330  14.774  64.678  1.00  0.00    -0.556 N  
HETATM   12  C   UNL     1      -9.499  15.884  65.713  1.00  0.00    -0.316 A  
HETATM   13  O   UNL     1     -12.778  13.940  63.174  1.00  0.00    -0.718 OA 
HETATM   14  C   UNL     1      -8.380  15.916  66.547  1.00  0.00    -0.330 A  
HETATM   15  C   UNL     1     -11.840  13.726  63.944  1.00  0.00    -0.327 C  
HETATM   16  C   UNL     1      -8.030  14.784  67.276  1.00  0.00    -0.205 A  
HETATM   17  H   UNL     1     -11.769  15.684  64.542  1.00  0.00     0.000 HD 
ENDROOT
BRANCH   6  18
HETATM   18  C   UNL     1     -11.104  11.727  67.772  1.00  0.00    -0.302 A  
HETATM   19  C   UNL     1     -11.656  10.613  70.305  1.00  0.00    -0.424 A  
HETATM   20  C   UNL     1     -11.985  11.938  70.041  1.00  0.00    -0.409 A  
HETATM   21  C   UNL     1     -10.781  10.384  68.050  1.00  0.00    -0.249 A  
HETATM   22  C   UNL     1     -11.734  12.485  68.778  1.00  0.00    -0.371 A  
HETATM   23  C   UNL     1     -11.069   9.836  69.309  1.00  0.00    -0.184 A  
HETATM   24 CL   UNL     1      -9.965   9.326  66.948  1.00  0.00    -0.275 Cl 
ENDBRANCH   6  18
TORSDOF 1
ENDMDL
MODEL       11
REMARK 921   NORMALIZED FREE ENERGY PREDICTED BY IDOCK:   -6.84 KCAL/MOL
REMARK 922        TOTAL FREE ENERGY PREDICTED BY IDOCK:   -7.86 KCAL/MOL
REMARK 923 INTER-LIGAND FREE ENERGY PREDICTED BY IDOCK:   -7.55 KCAL/MOL
REMARK 924 INTRA-LIGAND FREE ENERGY PREDICTED BY IDOCK:   -0.31 KCAL/MOL
REMARK 927      BINDING AFFINITY PREDICTED BY RF-SCORE:    0.00 PKD
ROOT
HETATM    1  O   UNL     1     -14.073   8.959  73.404  1.00  0.00    -1.256 OA 
HETATM    2  H   UNL     1     -14.133   8.191  73.960  1.00  0.00     0.000 HD 
HETATM    3  C   UNL     1     -13.085   8.780  72.416  1.00  0.00    -0.391 C  
HETATM    4  N   UNL     1     -12.993   9.952  71.568  1.00  0.00    -0.390 NA 
HETATM    5  H   UNL     1     -13.761  10.623  71.548  1.00  0.00     0.000 HD 
HETATM    6  C   UNL     1     -11.952  10.152  70.842  1.00  0.00    -0.365 C  
HETATM    7  C   UNL     1      -9.507   9.685  70.681  1.00  0.00    -0.190 A  
HETATM    8  C   UNL     1     -10.815   9.177  70.730  1.00  0.00    -0.331 A  
HETATM    9 CL   UNL     1      -6.841   9.470  70.335  1.00  0.00    -0.087 Cl 
HETATM   10  C   UNL     1     -11.028   7.789  70.589  1.00  0.00    -0.249 A  
HETATM   11  N   UNL     1     -12.275   7.155  70.703  1.00  0.00    -0.571 N  
HETATM   12  C   UNL     1      -9.938   6.951  70.316  1.00  0.00    -0.189 A  
HETATM   13  O   UNL     1     -14.366   6.884  71.484  1.00  0.00    -0.290 OA 
HETATM   14  C   UNL     1      -8.643   7.469  70.246  1.00  0.00    -0.144 A  
HETATM   15  C   UNL     1     -13.333   7.555  71.491  1.00  0.00    -0.352 C  
HETATM   16  C   UNL     1      -8.434   8.831  70.436  1.00  0.00    -0.153 A  
HETATM   17  H   UNL     1     -12.413   6.312  70.146  1.00  0.00     0.000 HD 
ENDROOT
BRANCH   6  18
HETATM   18  C   UNL     1     -11.911  11.437  70.043  1.00  0.00    -0.442 A  
HETATM   19  C   UNL     1     -11.883  13.878  68.627  1.00  0.00    -0.407 A  
HETATM   20  C   UNL     1     -12.197  13.863  69.981  1.00  0.00    -0.408 A  
HETATM   21  C   UNL     1     -11.588  11.467  68.671  1.00  0.00    -0.320 A  
HETATM   22  C   UNL     1     -12.189  12.657  70.690  1.00  0.00    -0.373 A  
HETATM   23  C   UNL     1     -11.566  12.686  67.978  1.00  0.00    -0.394 A  
HETATM   24 CL   UNL     1     -11.267  10.061  67.712  1.00  0.00    -0.251 Cl 
ENDBRANCH   6  18
TORSDOF 1
ENDMDL
MODEL       12
REMARK 921   NORMALIZED FREE ENERGY PREDICTED BY IDOCK:   -6.75 KCAL/MOL
REMARK 922        TOTAL FREE ENERGY PREDICTED BY IDOCK:   -7.77 KCAL/MOL
REMARK 923 INTER-LIGAND FREE ENERGY PREDICTED BY IDOCK:   -7.28 KCAL/MOL
REMARK 924 INTRA-LIGAND FREE ENERGY PREDICTED BY IDOCK:   -0.49 KCAL/MOL
REMARK 927      BINDING AFFINITY PREDICTED BY RF-SCORE:    0.00 PKD
ROOT
HETATM    1  O   UNL     1     -11.662  16.717  71.547  1.00  0.00    -0.641 OA 
HETATM    2  H   UNL     1     -11.716  16.728  72.495  1.00  0.00     0.000 HD 
HETATM    3  C   UNL     1     -11.923  15.425  71.049  1.00  0.00    -0.359 C  
HETATM    4  N   UNL     1     -11.840  15.409  69.602  1.00  0.00    -0.327 NA 
HETATM    5  H   UNL     1     -11.896  16.285  69.082  1.00  0.00     0.000 HD 
HETATM    6  C   UNL     1     -11.698  14.300  68.969  1.00  0.00    -0.317 C  
HETATM    7  C   UNL     1     -10.802  11.981  69.176  1.00  0.00    -0.175 A  
HETATM    8  C   UNL     1     -11.704  12.953  69.636  1.00  0.00    -0.367 A  
HETATM    9 CL   UNL     1      -9.788   9.484  69.064  1.00  0.00    -0.170 Cl 
HETATM   10  C   UNL     1     -12.635  12.618  70.642  1.00  0.00    -0.160 A  
HETATM   11  N   UNL     1     -13.528  13.523  71.240  1.00  0.00    -0.159 N  
HETATM   12  C   UNL     1     -12.704  11.296  71.102  1.00  0.00    -0.492 A  
HETATM   13  O   UNL     1     -14.207  15.532  71.988  1.00  0.00    -0.518 OA 
HETATM   14  C   UNL     1     -11.818  10.330  70.621  1.00  0.00    -0.439 A  
HETATM   15  C   UNL     1     -13.323  14.870  71.441  1.00  0.00    -0.413 C  
HETATM   16  C   UNL     1     -10.868  10.678  69.667  1.00  0.00    -0.268 A  
HETATM   17  H   UNL     1     -14.420  13.143  71.558  1.00  0.00     0.000 HD 
ENDROOT
BRANCH   6  18
HETATM   18  C   UNL     1     -11.549  14.384  67.465  1.00  0.00    -0.398 A  
HETATM   19  C   UNL     1     -11.340  14.469  64.652  1.00  0.00    -0.372 A  
HETATM   20  C   UNL     1     -12.413  13.817  65.251  1.00  0.00    -0.512 A  
HETATM   21  C   UNL     1     -10.470  15.047  66.846  1.00  0.00    -0.279 A  
HETATM   22  C   UNL     1     -12.530  13.794  66.644  1.00  0.00    -0.307 A  
HETATM   23  C   UNL     1     -10.381  15.093  65.447  1.00  0.00    -0.415 A  
HETATM   24 CL   UNL     1      -9.156  15.784  67.699  1.00  0.00    -0.191 Cl 
ENDBRANCH   6  18
TORSDOF 1
ENDMDL
MODEL       13
REMARK 921   NORMALIZED FREE ENERGY PREDICTED BY IDOCK:   -6.74 KCAL/MOL
REMARK 922        TOTAL FREE ENERGY PREDICTED BY IDOCK:   -7.76 KCAL/MOL
REMARK 923 INTER-LIGAND FREE ENERGY PREDICTED BY IDOCK:   -7.30 KCAL/MOL
REMARK 924 INTRA-LIGAND FREE ENERGY PREDICTED BY IDOCK:   -0.46 KCAL/MOL
REMARK 927      BINDING AFFINITY PREDICTED BY RF-SCORE:    0.00 PKD
ROOT
HETATM    1  O   UNL     1      -7.418  16.796  66.216  1.00  0.00    -0.284 OA 
HETATM    2  H   UNL     1      -6.996  17.398  66.817  1.00  0.00     0.000 HD 
HETATM    3  C   UNL     1      -8.640  16.339  66.747  1.00  0.00    -0.237 C  
HETATM    4  N   UNL     1      -9.285  15.420  65.830  1.00  0.00    -0.409 NA 
HETATM    5  H   UNL     1      -9.002  15.402  64.850  1.00  0.00     0.000 HD 
HETATM    6  C   UNL     1     -10.209  14.628  66.242  1.00  0.00    -0.292 C  
HETATM    7  C   UNL     1     -11.058  13.420  68.252  1.00  0.00    -0.289 A  
HETATM    8  C   UNL     1     -10.761  14.647  67.639  1.00  0.00    -0.271 A  
HETATM    9 CL   UNL     1     -12.099  11.884  70.209  1.00  0.00    -0.424 Cl 
HETATM   10  C   UNL     1     -11.064  15.851  68.310  1.00  0.00    -0.345 A  
HETATM   11  N   UNL     1     -10.740  17.134  67.839  1.00  0.00    -0.372 N  
HETATM   12  C   UNL     1     -11.735  15.803  69.539  1.00  0.00    -0.369 A  
HETATM   13  O   UNL     1      -9.508  18.653  66.729  1.00  0.00    -0.294 OA 
HETATM   14  C   UNL     1     -12.047  14.577  70.130  1.00  0.00    -0.394 A  
HETATM   15  C   UNL     1      -9.657  17.475  67.058  1.00  0.00    -0.268 C  
HETATM   16  C   UNL     1     -11.701  13.393  69.488  1.00  0.00    -0.324 A  
HETATM   17  H   UNL     1     -11.372  17.890  68.100  1.00  0.00     0.000 HD 
ENDROOT
BRANCH   6  18
HETATM   18  C   UNL     1     -10.777  13.654  65.231  1.00  0.00    -0.340 A  
HETATM   19  C   UNL     1     -11.912  11.899  63.336  1.00  0.00    -0.528 A  
HETATM   20  C   UNL     1     -12.400  13.194  63.464  1.00  0.00    -0.478 A  
HETATM   21  C   UNL     1     -10.286  12.341  65.086  1.00  0.00    -0.286 A  
HETATM   22  C   UNL     1     -11.823  14.073  64.387  1.00  0.00    -0.453 A  
HETATM   23  C   UNL     1     -10.850  11.479  64.134  1.00  0.00    -0.435 A  
HETATM   24 CL   UNL     1      -9.040  11.649  66.069  1.00  0.00    -0.210 Cl 
ENDBRANCH   6  18
TORSDOF 1
ENDMDL
MODEL       14
REMARK 921   NORMALIZED FREE ENERGY PREDICTED BY IDOCK:   -6.68 KCAL/MOL
REMARK 922        TOTAL FREE ENERGY PREDICTED BY IDOCK:   -7.69 KCAL/MOL
REMARK 923 INTER-LIGAND FREE ENERGY PREDICTED BY IDOCK:   -7.20 KCAL/MOL
REMARK 924 INTRA-LIGAND FREE ENERGY PREDICTED BY IDOCK:   -0.49 KCAL/MOL
REMARK 927      BINDING AFFINITY PREDICTED BY RF-SCORE:    0.00 PKD
ROOT
HETATM    1  O   UNL     1      -7.303  16.772  66.406  1.00  0.00    -0.258 OA 
HETATM    2  H   UNL     1      -6.952  17.421  67.004  1.00  0.00     0.000 HD 
HETATM    3  C   UNL     1      -8.556  16.309  66.855  1.00  0.00    -0.215 C  
HETATM    4  N   UNL     1      -9.091  15.319  65.942  1.00  0.00    -0.452 NA 
HETATM    5  H   UNL     1      -8.721  15.253  64.993  1.00  0.00     0.000 HD 
HETATM    6  C   UNL     1     -10.028  14.524  66.318  1.00  0.00    -0.305 C  
HETATM    7  C   UNL     1     -11.021  13.408  68.315  1.00  0.00    -0.282 A  
HETATM    8  C   UNL     1     -10.703  14.606  67.658  1.00  0.00    -0.271 A  
HETATM    9 CL   UNL     1     -12.193  11.956  70.263  1.00  0.00    -0.377 Cl 
HETATM   10  C   UNL     1     -11.096  15.837  68.225  1.00  0.00    -0.342 A  
HETATM   11  N   UNL     1     -10.765  17.100  67.707  1.00  0.00    -0.355 N  
HETATM   12  C   UNL     1     -11.873  15.839  69.391  1.00  0.00    -0.361 A  
HETATM   13  O   UNL     1      -9.478  18.589  66.620  1.00  0.00    -0.291 OA 
HETATM   14  C   UNL     1     -12.204  14.640  70.026  1.00  0.00    -0.385 A  
HETATM   15  C   UNL     1      -9.625  17.428  67.006  1.00  0.00    -0.273 C  
HETATM   16  C   UNL     1     -11.771  13.433  69.489  1.00  0.00    -0.324 A  
HETATM   17  H   UNL     1     -11.437  17.850  67.866  1.00  0.00     0.000 HD 
ENDROOT
BRANCH   6  18
HETATM   18  C   UNL     1     -10.476  13.475  65.323  1.00  0.00    -0.345 A  
HETATM   19  C   UNL     1     -11.230  11.469  63.486  1.00  0.00    -0.412 A  
HETATM   20  C   UNL     1     -10.197  11.235  64.388  1.00  0.00    -0.377 A  
HETATM   21  C   UNL     1     -11.526  13.697  64.408  1.00  0.00    -0.386 A  
HETATM   22  C   UNL     1      -9.838  12.220  65.314  1.00  0.00    -0.199 A  
HETATM   23  C   UNL     1     -11.900  12.690  63.507  1.00  0.00    -0.619 A  
HETATM   24 CL   UNL     1     -12.386  15.192  64.251  1.00  0.00    -0.370 Cl 
ENDBRANCH   6  18
TORSDOF 1
ENDMDL
MODEL       15
REMARK 921   NORMALIZED FREE ENERGY PREDICTED BY IDOCK:   -6.66 KCAL/MOL
REMARK 922        TOTAL FREE ENERGY PREDICTED BY IDOCK:   -7.67 KCAL/MOL
REMARK 923 INTER-LIGAND FREE ENERGY PREDICTED BY IDOCK:   -7.53 KCAL/MOL
REMARK 924 INTRA-LIGAND FREE ENERGY PREDICTED BY IDOCK:   -0.14 KCAL/MOL
REMARK 927      BINDING AFFINITY PREDICTED BY RF-SCORE:    0.00 PKD
ROOT
HETATM    1  O   UNL     1     -14.071   8.965  73.424  1.00  0.00    -1.256 OA 
HETATM    2  H   UNL     1     -14.107   8.202  73.989  1.00  0.00     0.000 HD 
HETATM    3  C   UNL     1     -13.109   8.787  72.409  1.00  0.00    -0.391 C  
HETATM    4  N   UNL     1     -13.054   9.951  71.548  1.00  0.00    -0.389 NA 
HETATM    5  H   UNL     1     -13.829  10.615  71.543  1.00  0.00     0.000 HD 
HETATM    6  C   UNL     1     -12.036  10.154  70.790  1.00  0.00    -0.343 C  
HETATM    7  C   UNL     1      -9.592   9.710  70.564  1.00  0.00    -0.261 A  
HETATM    8  C   UNL     1     -10.893   9.189  70.655  1.00  0.00    -0.321 A  
HETATM    9 CL   UNL     1      -6.935   9.518  70.143  1.00  0.00    -0.077 Cl 
HETATM   10  C   UNL     1     -11.096   7.798  70.534  1.00  0.00    -0.257 A  
HETATM   11  N   UNL     1     -12.333   7.153  70.690  1.00  0.00    -0.596 N  
HETATM   12  C   UNL     1     -10.006   6.968  70.237  1.00  0.00    -0.186 A  
HETATM   13  O   UNL     1     -14.398   6.869  71.533  1.00  0.00    -0.290 OA 
HETATM   14  C   UNL     1      -8.719   7.498  70.125  1.00  0.00    -0.142 A  
HETATM   15  C   UNL     1     -13.372   7.550  71.503  1.00  0.00    -0.352 C  
HETATM   16  C   UNL     1      -8.518   8.864  70.296  1.00  0.00    -0.160 A  
HETATM   17  H   UNL     1     -12.478   6.303  70.145  1.00  0.00     0.000 HD 
ENDROOT
BRANCH   6  18
HETATM   18  C   UNL     1     -12.032  11.432  69.978  1.00  0.00    -0.442 A  
HETATM   19  C   UNL     1     -11.971  13.765  68.392  1.00  0.00    -0.395 A  
HETATM   20  C   UNL     1     -11.630  12.537  67.836  1.00  0.00    -0.403 A  
HETATM   21  C   UNL     1     -12.382  12.682  70.527  1.00  0.00    -0.268 A  
HETATM   22  C   UNL     1     -11.682  11.376  68.615  1.00  0.00    -0.394 A  
HETATM   23  C   UNL     1     -12.359  13.834  69.728  1.00  0.00    -0.311 A  
HETATM   24 CL   UNL     1     -12.791  12.938  72.191  1.00  0.00    -0.294 Cl 
ENDBRANCH   6  18
TORSDOF 1
ENDMDL
MODEL       16
REMARK 921   NORMALIZED FREE ENERGY PREDICTED BY IDOCK:   -6.59 KCAL/MOL
REMARK 922        TOTAL FREE ENERGY PREDICTED BY IDOCK:   -7.59 KCAL/MOL
REMARK 923 INTER-LIGAND FREE ENERGY PREDICTED BY IDOCK:   -6.98 KCAL/MOL
REMARK 924 INTRA-LIGAND FREE ENERGY PREDICTED BY IDOCK:   -0.61 KCAL/MOL
REMARK 927      BINDING AFFINITY PREDICTED BY RF-SCORE:    0.00 PKD
ROOT
HETATM    1  O   UNL     1      -7.912  16.671  68.496  1.00  0.00    -0.201 OA 
HETATM    2  H   UNL     1      -7.567  17.202  69.204  1.00  0.00     0.000 HD 
HETATM    3  C   UNL     1      -9.178  16.154  68.833  1.00  0.00    -0.234 C  
HETATM    4  N   UNL     1      -9.704  15.344  67.753  1.00  0.00    -0.211 NA 
HETATM    5  H   UNL     1      -9.314  15.437  66.814  1.00  0.00     0.000 HD 
HETATM    6  C   UNL     1     -10.657  14.509  67.967  1.00  0.00    -0.237 C  
HETATM    7  C   UNL     1     -11.705  13.079  69.722  1.00  0.00    -0.346 A  
HETATM    8  C   UNL     1     -11.360  14.369  69.287  1.00  0.00    -0.319 A  
HETATM    9 CL   UNL     1     -12.934  11.330  71.366  1.00  0.00    -0.514 Cl 
HETATM   10  C   UNL     1     -11.752  15.489  70.051  1.00  0.00    -0.346 A  
HETATM   11  N   UNL     1     -11.397  16.817  69.765  1.00  0.00    -0.263 N  
HETATM   12  C   UNL     1     -12.555  15.300  71.184  1.00  0.00    -0.457 A  
HETATM   13  O   UNL     1     -10.072  18.454  68.977  1.00  0.00    -0.379 OA 
HETATM   14  C   UNL     1     -12.913  14.015  71.596  1.00  0.00    -0.430 A  
HETATM   15  C   UNL     1     -10.239  17.246  69.154  1.00  0.00    -0.283 C  
HETATM   16  C   UNL     1     -12.480  12.912  70.867  1.00  0.00    -0.296 A  
HETATM   17  H   UNL     1     -12.065  17.538  70.038  1.00  0.00     0.000 HD 
ENDROOT
BRANCH   6  18
HETATM   18  C   UNL     1     -11.095  13.654  66.797  1.00  0.00    -0.315 A  
HETATM   19  C   UNL     1     -12.003  12.099  64.624  1.00  0.00    -0.398 A  
HETATM   20  C   UNL     1     -12.775  13.154  65.095  1.00  0.00    -0.468 A  
HETATM   21  C   UNL     1     -10.317  12.586  66.305  1.00  0.00    -0.250 A  
HETATM   22  C   UNL     1     -12.316  13.940  66.157  1.00  0.00    -0.504 A  
HETATM   23  C   UNL     1     -10.772  11.826  65.218  1.00  0.00    -0.338 A  
HETATM   24 CL   UNL     1      -8.817  12.069  66.999  1.00  0.00    -0.190 Cl 
ENDBRANCH   6  18
TORSDOF 1
ENDMDL
MODEL       17
REMARK 921   NORMALIZED FREE ENERGY PREDICTED BY IDOCK:   -6.56 KCAL/MOL
REMARK 922        TOTAL FREE ENERGY PREDICTED BY IDOCK:   -7.57 KCAL/MOL
REMARK 923 INTER-LIGAND FREE ENERGY PREDICTED BY IDOCK:   -7.01 KCAL/MOL
REMARK 924 INTRA-LIGAND FREE ENERGY PREDICTED BY IDOCK:   -0.56 KCAL/MOL
REMARK 927      BINDING AFFINITY PREDICTED BY RF-SCORE:    0.00 PKD
ROOT
HETATM    1  O   UNL     1     -12.795  16.051  70.398  1.00  0.00    -0.612 OA 
HETATM    2  H   UNL     1     -13.120  16.929  70.236  1.00  0.00     0.000 HD 
HETATM    3  C   UNL     1     -12.223  15.510  69.230  1.00  0.00    -0.181 C  
HETATM    4  N   UNL     1     -11.727  14.171  69.477  1.00  0.00    -0.291 NA 
HETATM    5  H   UNL     1     -11.565  13.860  70.435  1.00  0.00     0.000 HD 
HETATM    6  C   UNL     1     -11.490  13.372  68.499  1.00  0.00    -0.310 C  
HETATM    7  C   UNL     1     -12.144  12.836  66.152  1.00  0.00    -0.429 A  
HETATM    8  C   UNL     1     -11.605  13.767  67.054  1.00  0.00    -0.391 A  
HETATM    9 CL   UNL     1     -12.761  11.939  63.684  1.00  0.00    -0.595 Cl 
HETATM   10  C   UNL     1     -11.115  15.000  66.572  1.00  0.00    -0.329 A  
HETATM   11  N   UNL     1     -10.632  16.040  67.382  1.00  0.00    -0.313 N  
HETATM   12  C   UNL     1     -11.094  15.238  65.191  1.00  0.00    -0.412 A  
HETATM   13  O   UNL     1     -10.519  17.300  69.241  1.00  0.00    -0.338 OA 
HETATM   14  C   UNL     1     -11.611  14.296  64.300  1.00  0.00    -0.299 A  
HETATM   15  C   UNL     1     -11.041  16.346  68.661  1.00  0.00    -0.352 C  
HETATM   16  C   UNL     1     -12.139  13.105  64.784  1.00  0.00    -0.409 A  
HETATM   17  H   UNL     1      -9.903  16.631  66.981  1.00  0.00     0.000 HD 
ENDROOT
BRANCH   6  18
HETATM   18  C   UNL     1     -11.043  11.969  68.853  1.00  0.00    -0.298 A  
HETATM   19  C   UNL     1     -10.283   9.350  69.579  1.00  0.00    -0.219 A  
HETATM   20  C   UNL     1     -11.519   9.850  69.972  1.00  0.00    -0.274 A  
HETATM   21  C   UNL     1      -9.795  11.448  68.454  1.00  0.00    -0.205 A  
HETATM   22  C   UNL     1     -11.908  11.140  69.593  1.00  0.00    -0.419 A  
HETATM   23  C   UNL     1      -9.431  10.142  68.811  1.00  0.00    -0.171 A  
HETATM   24 CL   UNL     1      -8.596  12.343  67.583  1.00  0.00    -0.161 Cl 
ENDBRANCH   6  18
TORSDOF 1
ENDMDL
MODEL       18
REMARK 921   NORMALIZED FREE ENERGY PREDICTED BY IDOCK:   -6.54 KCAL/MOL
REMARK 922        TOTAL FREE ENERGY PREDICTED BY IDOCK:   -7.54 KCAL/MOL
REMARK 923 INTER-LIGAND FREE ENERGY PREDICTED BY IDOCK:   -6.92 KCAL/MOL
REMARK 924 INTRA-LIGAND FREE ENERGY PREDICTED BY IDOCK:   -0.63 KCAL/MOL
REMARK 927      BINDING AFFINITY PREDICTED BY RF-SCORE:    0.00 PKD
ROOT
HETATM    1  O   UNL     1     -11.368  12.604  62.963  1.00  0.00    -0.753 OA 
HETATM    2  H   UNL     1     -11.906  11.893  62.636  1.00  0.00     0.000 HD 
HETATM    3  C   UNL     1     -11.062  12.411  64.325  1.00  0.00    -0.349 C  
HETATM    4  N   UNL     1     -10.242  13.496  64.823  1.00  0.00    -0.574 NA 
HETATM    5  H   UNL     1      -9.744  14.097  64.166  1.00  0.00     0.000 HD 
HETATM    6  C   UNL     1     -10.137  13.709  66.086  1.00  0.00    -0.306 C  
HETATM    7  C   UNL     1     -11.320  13.430  68.265  1.00  0.00    -0.330 A  
HETATM    8  C   UNL     1     -10.752  12.823  67.133  1.00  0.00    -0.264 A  
HETATM    9 CL   UNL     1     -12.426  13.401  70.724  1.00  0.00    -0.431 Cl 
HETATM   10  C   UNL     1     -10.699  11.416  67.050  1.00  0.00    -0.261 A  
HETATM   11  N   UNL     1     -10.233  10.696  65.938  1.00  0.00    -0.256 N  
HETATM   12  C   UNL     1     -11.135  10.647  68.138  1.00  0.00    -0.343 A  
HETATM   13  O   UNL     1      -9.853  10.333  63.752  1.00  0.00    -0.299 OA 
HETATM   14  C   UNL     1     -11.677  11.260  69.269  1.00  0.00    -0.403 A  
HETATM   15  C   UNL     1     -10.305  11.084  64.618  1.00  0.00    -0.345 C  
HETATM   16  C   UNL     1     -11.773  12.646  69.324  1.00  0.00    -0.322 A  
HETATM   17  H   UNL     1      -9.797   9.794  66.127  1.00  0.00     0.000 HD 
ENDROOT
BRANCH   6  18
HETATM   18  C   UNL     1      -9.317  14.907  66.514  1.00  0.00    -0.308 A  
HETATM   19  C   UNL     1      -7.848  17.200  67.254  1.00  0.00    -0.200 A  
HETATM   20  C   UNL     1      -9.083  17.336  66.631  1.00  0.00    -0.286 A  
HETATM   21  C   UNL     1      -8.067  14.782  67.152  1.00  0.00    -0.197 A  
HETATM   22  C   UNL     1      -9.823  16.201  66.284  1.00  0.00    -0.329 A  
HETATM   23  C   UNL     1      -7.349  15.927  67.526  1.00  0.00    -0.198 A  
HETATM   24 CL   UNL     1      -7.278  13.273  67.469  1.00  0.00    -0.164 Cl 
ENDBRANCH   6  18
TORSDOF 1
ENDMDL
MODEL       19
REMARK 921   NORMALIZED FREE ENERGY PREDICTED BY IDOCK:   -6.46 KCAL/MOL
REMARK 922        TOTAL FREE ENERGY PREDICTED BY IDOCK:   -7.46 KCAL/MOL
REMARK 923 INTER-LIGAND FREE ENERGY PREDICTED BY IDOCK:   -6.87 KCAL/MOL
REMARK 924 INTRA-LIGAND FREE ENERGY PREDICTED BY IDOCK:   -0.59 KCAL/MOL
REMARK 927      BINDING AFFINITY PREDICTED BY RF-SCORE:    0.00 PKD
ROOT
HETATM    1  O   UNL     1     -10.968  17.034  64.698  1.00  0.00    -0.968 OA 
HETATM    2  H   UNL     1     -10.538  17.510  63.997  1.00  0.00     0.000 HD 
HETATM    3  C   UNL     1     -10.294  17.235  65.920  1.00  0.00    -0.278 C  
HETATM    4  N   UNL     1     -10.950  16.510  66.989  1.00  0.00    -0.102 NA 
HETATM    5  H   UNL     1     -11.912  16.190  66.869  1.00  0.00     0.000 HD 
HETATM    6  C   UNL     1     -10.330  16.266  68.088  1.00  0.00    -0.277 C  
HETATM    7  C   UNL     1      -8.063  15.924  69.071  1.00  0.00    -0.229 A  
HETATM    8  C   UNL     1      -8.951  16.777  68.397  1.00  0.00    -0.233 A  
HETATM    9 CL   UNL     1      -5.765  15.360  70.365  1.00  0.00    -0.141 Cl 
HETATM   10  C   UNL     1      -8.560  18.101  68.108  1.00  0.00    -0.274 A  
HETATM   11  N   UNL     1      -9.324  19.020  67.370  1.00  0.00    -0.300 N  
HETATM   12  C   UNL     1      -7.324  18.570  68.576  1.00  0.00    -0.314 A  
HETATM   13  O   UNL     1     -10.802  19.650  65.797  1.00  0.00    -0.468 OA 
HETATM   14  C   UNL     1      -6.457  17.720  69.264  1.00  0.00    -0.244 A  
HETATM   15  C   UNL     1     -10.207  18.726  66.354  1.00  0.00    -0.421 C  
HETATM   16  C   UNL     1      -6.827  16.401  69.502  1.00  0.00    -0.187 A  
HETATM   17  H   UNL     1      -9.215  20.004  67.612  1.00  0.00     0.000 HD 
ENDROOT
BRANCH   6  18
HETATM   18  C   UNL     1     -11.067  15.442  69.122  1.00  0.00    -0.267 A  
HETATM   19  C   UNL     1     -12.426  13.978  71.116  1.00  0.00    -0.447 A  
HETATM   20  C   UNL     1     -12.167  15.331  71.301  1.00  0.00    -0.408 A  
HETATM   21  C   UNL     1     -11.342  14.071  68.943  1.00  0.00    -0.280 A  
HETATM   22  C   UNL     1     -11.514  16.064  70.304  1.00  0.00    -0.369 A  
HETATM   23  C   UNL     1     -12.027  13.354  69.935  1.00  0.00    -0.408 A  
HETATM   24 CL   UNL     1     -10.826  13.140  67.577  1.00  0.00    -0.262 Cl 
ENDBRANCH   6  18
TORSDOF 1
ENDMDL
MODEL       20
REMARK 921   NORMALIZED FREE ENERGY PREDICTED BY IDOCK:   -6.46 KCAL/MOL
REMARK 922        TOTAL FREE ENERGY PREDICTED BY IDOCK:   -7.46 KCAL/MOL
REMARK 923 INTER-LIGAND FREE ENERGY PREDICTED BY IDOCK:   -6.86 KCAL/MOL
REMARK 924 INTRA-LIGAND FREE ENERGY PREDICTED BY IDOCK:   -0.61 KCAL/MOL
REMARK 927      BINDING AFFINITY PREDICTED BY RF-SCORE:    0.00 PKD
ROOT
HETATM    1  O   UNL     1     -11.597  16.358  63.883  1.00  0.00    -1.564 OA 
HETATM    2  H   UNL     1     -11.269  16.939  63.207  1.00  0.00     0.000 HD 
HETATM    3  C   UNL     1     -10.695  16.295  64.964  1.00  0.00    -0.298 C  
HETATM    4  N   UNL     1     -11.196  15.409  65.996  1.00  0.00    -0.234 NA 
HETATM    5  H   UNL     1     -12.185  15.159  66.012  1.00  0.00     0.000 HD 
HETATM    6  C   UNL     1     -10.404  14.936  66.891  1.00  0.00    -0.264 C  
HETATM    7  C   UNL     1      -8.028  14.318  67.332  1.00  0.00    -0.211 A  
HETATM    8  C   UNL     1      -8.956  15.321  67.008  1.00  0.00    -0.254 A  
HETATM    9 CL   UNL     1      -5.581  13.423  68.028  1.00  0.00    -0.106 Cl 
HETATM   10  C   UNL     1      -8.523  16.658  66.888  1.00  0.00    -0.215 A  
HETATM   11  N   UNL     1      -9.337  17.730  66.489  1.00  0.00    -0.279 N  
HETATM   12  C   UNL     1      -7.190  16.977  67.179  1.00  0.00    -0.206 A  
HETATM   13  O   UNL     1     -11.027  18.709  65.375  1.00  0.00    -0.491 OA 
HETATM   14  C   UNL     1      -6.279  15.976  67.522  1.00  0.00    -0.194 A  
HETATM   15  C   UNL     1     -10.413  17.672  65.630  1.00  0.00    -0.144 C  
HETATM   16  C   UNL     1      -6.700  14.653  67.590  1.00  0.00    -0.174 A  
HETATM   17  H   UNL     1      -9.109  18.646  66.875  1.00  0.00     0.000 HD 
ENDROOT
BRANCH   6  18
HETATM   18  C   UNL     1     -10.999  13.963  67.886  1.00  0.00    -0.265 A  
HETATM   19  C   UNL     1     -12.124  12.085  69.668  1.00  0.00    -0.295 A  
HETATM   20  C   UNL     1     -11.776  11.699  68.378  1.00  0.00    -0.374 A  
HETATM   21  C   UNL     1     -11.349  14.340  69.199  1.00  0.00    -0.276 A  
HETATM   22  C   UNL     1     -11.197  12.623  67.501  1.00  0.00    -0.335 A  
HETATM   23  C   UNL     1     -11.898  13.397  70.080  1.00  0.00    -0.364 A  
HETATM   24 CL   UNL     1     -11.217  15.951  69.821  1.00  0.00    -0.311 Cl 
ENDBRANCH   6  18
TORSDOF 1
ENDMDL
MODEL       21
REMARK 921   NORMALIZED FREE ENERGY PREDICTED BY IDOCK:   -6.36 KCAL/MOL
REMARK 922        TOTAL FREE ENERGY PREDICTED BY IDOCK:   -7.35 KCAL/MOL
REMARK 923 INTER-LIGAND FREE ENERGY PREDICTED BY IDOCK:   -6.89 KCAL/MOL
REMARK 924 INTRA-LIGAND FREE ENERGY PREDICTED BY IDOCK:   -0.47 KCAL/MOL
REMARK 927      BINDING AFFINITY PREDICTED BY RF-SCORE:    0.00 PKD
ROOT
HETATM    1  O   UNL     1     -11.450  12.705  62.768  1.00  0.00    -0.607 OA 
HETATM    2  H   UNL     1     -12.012  12.004  62.461  1.00  0.00     0.000 HD 
HETATM    3  C   UNL     1     -11.142  12.534  64.133  1.00  0.00    -0.376 C  
HETATM    4  N   UNL     1     -10.284  13.603  64.601  1.00  0.00    -0.604 NA 
HETATM    5  H   UNL     1      -9.770  14.172  63.928  1.00  0.00     0.000 HD 
HETATM    6  C   UNL     1     -10.166  13.841  65.859  1.00  0.00    -0.313 C  
HETATM    7  C   UNL     1     -11.344  13.652  68.049  1.00  0.00    -0.316 A  
HETATM    8  C   UNL     1     -10.803  13.001  66.929  1.00  0.00    -0.282 A  
HETATM    9 CL   UNL     1     -12.438  13.716  70.513  1.00  0.00    -0.409 Cl 
HETATM   10  C   UNL     1     -10.796  11.591  66.879  1.00  0.00    -0.284 A  
HETATM   11  N   UNL     1     -10.361  10.831  65.782  1.00  0.00    -0.248 N  
HETATM   12  C   UNL     1     -11.251  10.863  67.987  1.00  0.00    -0.378 A  
HETATM   13  O   UNL     1     -10.004  10.405  63.603  1.00  0.00    -0.294 OA 
HETATM   14  C   UNL     1     -11.766  11.519  69.106  1.00  0.00    -0.395 A  
HETATM   15  C   UNL     1     -10.427  11.190  64.453  1.00  0.00    -0.353 C  
HETATM   16  C   UNL     1     -11.817  12.909  69.128  1.00  0.00    -0.303 A  
HETATM   17  H   UNL     1      -9.953   9.919  65.990  1.00  0.00     0.000 HD 
ENDROOT
BRANCH   6  18
HETATM   18  C   UNL     1      -9.305  15.022  66.254  1.00  0.00    -0.341 A  
HETATM   19  C   UNL     1      -7.655  17.166  67.059  1.00  0.00    -0.223 A  
HETATM   20  C   UNL     1      -7.349  15.868  67.450  1.00  0.00    -0.224 A  
HETATM   21  C   UNL     1      -9.600  16.342  65.858  1.00  0.00    -0.274 A  
HETATM   22  C   UNL     1      -8.153  14.801  67.033  1.00  0.00    -0.177 A  
HETATM   23  C   UNL     1      -8.769  17.400  66.254  1.00  0.00    -0.242 A  
HETATM   24 CL   UNL     1     -10.997  16.799  64.942  1.00  0.00    -0.244 Cl 
ENDBRANCH   6  18
TORSDOF 1
ENDMDL
MODEL       22
REMARK 921   NORMALIZED FREE ENERGY PREDICTED BY IDOCK:   -6.33 KCAL/MOL
REMARK 922        TOTAL FREE ENERGY PREDICTED BY IDOCK:   -7.32 KCAL/MOL
REMARK 923 INTER-LIGAND FREE ENERGY PREDICTED BY IDOCK:   -6.70 KCAL/MOL
REMARK 924 INTRA-LIGAND FREE ENERGY PREDICTED BY IDOCK:   -0.62 KCAL/MOL
REMARK 927      BINDING AFFINITY PREDICTED BY RF-SCORE:    0.00 PKD
ROOT
HETATM    1  O   UNL     1     -13.522  11.449  71.723  1.00  0.00    -0.316 OA 
HETATM    2  H   UNL     1     -13.856  11.651  72.589  1.00  0.00     0.000 HD 
HETATM    3  C   UNL     1     -12.609  10.378  71.780  1.00  0.00    -0.367 C  
HETATM    4  N   UNL     1     -12.099  10.070  70.459  1.00  0.00    -0.380 NA 
HETATM    5  H   UNL     1     -12.601  10.400  69.634  1.00  0.00     0.000 HD 
HETATM    6  C   UNL     1     -11.022   9.385  70.319  1.00  0.00    -0.262 C  
HETATM    7  C   UNL     1      -8.864   8.802  71.428  1.00  0.00    -0.292 A  
HETATM    8  C   UNL     1     -10.268   8.774  71.466  1.00  0.00    -0.371 A  
HETATM    9 CL   UNL     1      -6.408   8.129  72.315  1.00  0.00    -0.057 Cl 
HETATM   10  C   UNL     1     -10.922   8.108  72.524  1.00  0.00    -0.369 A  
HETATM   11  N   UNL     1     -12.313   8.083  72.716  1.00  0.00    -0.610 N  
HETATM   12  C   UNL     1     -10.161   7.411  73.472  1.00  0.00    -0.390 A  
HETATM   13  O   UNL     1     -14.406   8.896  72.605  1.00  0.00    -0.613 OA 
HETATM   14  C   UNL     1      -8.766   7.425  73.413  1.00  0.00    -0.202 A  
HETATM   15  C   UNL     1     -13.210   9.067  72.364  1.00  0.00    -0.447 C  
HETATM   16  C   UNL     1      -8.126   8.125  72.396  1.00  0.00    -0.146 A  
HETATM   17  H   UNL     1     -12.698   7.250  73.160  1.00  0.00     0.000 HD 
ENDROOT
BRANCH   6  18
HETATM   18  C   UNL     1     -10.525   9.171  68.905  1.00  0.00    -0.239 A  
HETATM   19  C   UNL     1      -9.601   8.873  66.254  1.00  0.00    -0.328 A  
HETATM   20  C   UNL     1      -9.602  10.127  66.854  1.00  0.00    -0.219 A  
HETATM   21  C   UNL     1     -10.513   7.904  68.288  1.00  0.00    -0.164 A  
HETATM   22  C   UNL     1     -10.037  10.273  68.175  1.00  0.00    -0.175 A  
HETATM   23  C   UNL     1     -10.042   7.764  66.974  1.00  0.00    -0.343 A  
HETATM   24 CL   UNL     1     -11.116   6.455  69.020  1.00  0.00    -0.412 Cl 
ENDBRANCH   6  18
TORSDOF 1
ENDMDL
MODEL       23
REMARK 921   NORMALIZED FREE ENERGY PREDICTED BY IDOCK:   -6.28 KCAL/MOL
REMARK 922        TOTAL FREE ENERGY PREDICTED BY IDOCK:   -7.27 KCAL/MOL
REMARK 923 INTER-LIGAND FREE ENERGY PREDICTED BY IDOCK:   -7.17 KCAL/MOL
REMARK 924 INTRA-LIGAND FREE ENERGY PREDICTED BY IDOCK:   -0.10 KCAL/MOL
REMARK 927      BINDING AFFINITY PREDICTED BY RF-SCORE:    0.00 PKD
ROOT
HETATM    1  O   UNL     1     -14.321  13.464  72.600  1.00  0.00    -0.709 OA 
HETATM    2  H   UNL     1     -14.745  14.313  72.629  1.00  0.00     0.000 HD 
HETATM    3  C   UNL     1     -13.348  13.429  71.582  1.00  0.00    -0.338 C  
HETATM    4  N   UNL     1     -12.701  12.134  71.537  1.00  0.00    -0.300 NA 
HETATM    5  H   UNL     1     -12.763  11.508  72.341  1.00  0.00     0.000 HD 
HETATM    6  C   UNL     1     -12.048  11.766  70.493  1.00  0.00    -0.347 C  
HETATM    7  C   UNL     1     -11.890  12.074  68.022  1.00  0.00    -0.338 A  
HETATM    8  C   UNL     1     -11.817  12.650  69.300  1.00  0.00    -0.358 A  
HETATM    9 CL   UNL     1     -11.597  12.092  65.342  1.00  0.00    -0.399 Cl 
HETATM   10  C   UNL     1     -11.451  14.006  69.432  1.00  0.00    -0.290 A  
HETATM   11  N   UNL     1     -11.423  14.714  70.645  1.00  0.00    -0.445 N  
HETATM   12  C   UNL     1     -11.081  14.732  68.292  1.00  0.00    -0.284 A  
HETATM   13  O   UNL     1     -12.086  15.215  72.734  1.00  0.00    -0.368 OA 
HETATM   14  C   UNL     1     -11.135  14.143  67.027  1.00  0.00    -0.314 A  
HETATM   15  C   UNL     1     -12.232  14.501  71.740  1.00  0.00    -0.310 C  
HETATM   16  C   UNL     1     -11.546  12.821  66.898  1.00  0.00    -0.366 A  
HETATM   17  H   UNL     1     -10.735  15.463  70.722  1.00  0.00     0.000 HD 
ENDROOT
BRANCH   6  18
HETATM   18  C   UNL     1     -11.465  10.369  70.507  1.00  0.00    -0.431 A  
HETATM   19  C   UNL     1     -10.305   7.796  70.473  1.00  0.00    -0.205 A  
HETATM   20  C   UNL     1      -9.581   8.892  70.017  1.00  0.00    -0.190 A  
HETATM   21  C   UNL     1     -12.186   9.251  70.972  1.00  0.00    -0.255 A  
HETATM   22  C   UNL     1     -10.146  10.172  70.055  1.00  0.00    -0.241 A  
HETATM   23  C   UNL     1     -11.597   7.978  70.961  1.00  0.00    -0.303 A  
HETATM   24 CL   UNL     1     -13.829   9.305  71.516  1.00  0.00    -0.378 Cl 
ENDBRANCH   6  18
TORSDOF 1
ENDMDL
MODEL       24
REMARK 921   NORMALIZED FREE ENERGY PREDICTED BY IDOCK:   -6.26 KCAL/MOL
REMARK 922        TOTAL FREE ENERGY PREDICTED BY IDOCK:   -7.25 KCAL/MOL
REMARK 923 INTER-LIGAND FREE ENERGY PREDICTED BY IDOCK:   -6.62 KCAL/MOL
REMARK 924 INTRA-LIGAND FREE ENERGY PREDICTED BY IDOCK:   -0.63 KCAL/MOL
REMARK 927      BINDING AFFINITY PREDICTED BY RF-SCORE:    0.00 PKD
ROOT
HETATM    1  O   UNL     1     -12.949  10.230  70.160  1.00  0.00    -0.576 OA 
HETATM    2  H   UNL     1     -12.816   9.967  71.063  1.00  0.00     0.000 HD 
HETATM    3  C   UNL     1     -11.714  10.477  69.528  1.00  0.00    -0.241 C  
HETATM    4  N   UNL     1     -11.916  10.879  68.151  1.00  0.00    -0.796 NA 
HETATM    5  H   UNL     1     -12.807  10.685  67.693  1.00  0.00     0.000 HD 
HETATM    6  C   UNL     1     -10.982  11.478  67.502  1.00  0.00    -0.255 C  
HETATM    7  C   UNL     1      -8.985  12.947  67.773  1.00  0.00    -0.191 A  
HETATM    8  C   UNL     1      -9.607  11.721  68.056  1.00  0.00    -0.187 A  
HETATM    9 CL   UNL     1      -6.893  14.650  67.755  1.00  0.00    -0.176 Cl 
HETATM   10  C   UNL     1      -8.900  10.731  68.771  1.00  0.00    -0.163 A  
HETATM   11  N   UNL     1      -9.441   9.503  69.185  1.00  0.00    -0.157 N  
HETATM   12  C   UNL     1      -7.560  10.955  69.112  1.00  0.00    -0.133 A  
HETATM   13  O   UNL     1     -11.073   8.115  69.870  1.00  0.00    -0.212 OA 
HETATM   14  C   UNL     1      -6.942  12.169  68.806  1.00  0.00    -0.101 A  
HETATM   15  C   UNL     1     -10.754   9.253  69.520  1.00  0.00    -0.222 C  
HETATM   16  C   UNL     1      -7.659  13.161  68.145  1.00  0.00    -0.141 A  
HETATM   17  H   UNL     1      -8.796   8.715  69.244  1.00  0.00     0.000 HD 
ENDROOT
BRANCH   6  18
HETATM   18  C   UNL     1     -11.306  11.924  66.092  1.00  0.00    -0.383 A  
HETATM   19  C   UNL     1     -11.983  12.813  63.500  1.00  0.00    -0.633 A  
HETATM   20  C   UNL     1     -12.502  13.461  64.616  1.00  0.00    -0.385 A  
HETATM   21  C   UNL     1     -10.781  11.280  64.954  1.00  0.00    -0.271 A  
HETATM   22  C   UNL     1     -12.149  13.036  65.901  1.00  0.00    -0.503 A  
HETATM   23  C   UNL     1     -11.115  11.736  63.670  1.00  0.00    -0.518 A  
HETATM   24 CL   UNL     1      -9.770   9.875  65.004  1.00  0.00    -0.377 Cl 
ENDBRANCH   6  18
TORSDOF 1
ENDMDL
MODEL       25
REMARK 921   NORMALIZED FREE ENERGY PREDICTED BY IDOCK:   -6.23 KCAL/MOL
REMARK 922        TOTAL FREE ENERGY PREDICTED BY IDOCK:   -7.21 KCAL/MOL
REMARK 923 INTER-LIGAND FREE ENERGY PREDICTED BY IDOCK:   -6.72 KCAL/MOL
REMARK 924 INTRA-LIGAND FREE ENERGY PREDICTED BY IDOCK:   -0.49 KCAL/MOL
REMARK 927      BINDING AFFINITY PREDICTED BY RF-SCORE:    0.00 PKD
ROOT
HETATM    1  O   UNL     1     -12.284  15.736  70.717  1.00  0.00    -0.391 OA 
HETATM    2  H   UNL     1     -12.720  16.576  70.632  1.00  0.00     0.000 HD 
HETATM    3  C   UNL     1     -11.829  15.284  69.462  1.00  0.00    -0.345 C  
HETATM    4  N   UNL     1     -11.164  14.003  69.591  1.00  0.00    -0.405 NA 
HETATM    5  H   UNL     1     -10.835  13.693  70.506  1.00  0.00     0.000 HD 
HETATM    6  C   UNL     1     -10.985  13.254  68.563  1.00  0.00    -0.266 C  
HETATM    7  C   UNL     1     -11.904  12.695  66.312  1.00  0.00    -0.471 A  
HETATM    8  C   UNL     1     -11.345  13.663  67.162  1.00  0.00    -0.340 A  
HETATM    9 CL   UNL     1     -12.766  11.783  63.925  1.00  0.00    -0.419 Cl 
HETATM   10  C   UNL     1     -11.062  14.950  66.660  1.00  0.00    -0.329 A  
HETATM   11  N   UNL     1     -10.582  16.022  67.430  1.00  0.00    -0.313 N  
HETATM   12  C   UNL     1     -11.262  15.216  65.299  1.00  0.00    -0.359 A  
HETATM   13  O   UNL     1     -10.341  17.250  69.298  1.00  0.00    -0.322 OA 
HETATM   14  C   UNL     1     -11.798  14.241  64.456  1.00  0.00    -0.456 A  
HETATM   15  C   UNL     1     -10.836  16.256  68.764  1.00  0.00    -0.317 C  
HETATM   16  C   UNL     1     -12.122  12.989  64.968  1.00  0.00    -0.427 A  
HETATM   17  H   UNL     1      -9.984  16.697  66.953  1.00  0.00     0.000 HD 
ENDROOT
BRANCH   6  18
HETATM   18  C   UNL     1     -10.345  11.903  68.802  1.00  0.00    -0.184 A  
HETATM   19  C   UNL     1      -9.089   9.403  69.173  1.00  0.00    -0.148 A  
HETATM   20  C   UNL     1      -8.484  10.375  68.385  1.00  0.00    -0.124 A  
HETATM   21  C   UNL     1     -10.945  10.912  69.605  1.00  0.00    -0.252 A  
HETATM   22  C   UNL     1      -9.094  11.623  68.219  1.00  0.00    -0.187 A  
HETATM   23  C   UNL     1     -10.308   9.676  69.792  1.00  0.00    -0.266 A  
HETATM   24 CL   UNL     1     -12.496  11.070  70.357  1.00  0.00    -0.400 Cl 
ENDBRANCH   6  18
TORSDOF 1
ENDMDL
MODEL       26
REMARK 921   NORMALIZED FREE ENERGY PREDICTED BY IDOCK:   -6.21 KCAL/MOL
REMARK 922        TOTAL FREE ENERGY PREDICTED BY IDOCK:   -7.20 KCAL/MOL
REMARK 923 INTER-LIGAND FREE ENERGY PREDICTED BY IDOCK:   -6.58 KCAL/MOL
REMARK 924 INTRA-LIGAND FREE ENERGY PREDICTED BY IDOCK:   -0.62 KCAL/MOL
REMARK 927      BINDING AFFINITY PREDICTED BY RF-SCORE:    0.00 PKD
ROOT
HETATM    1  O   UNL     1     -14.399   9.136  72.844  1.00  0.00    -1.006 OA 
HETATM    2  H   UNL     1     -15.105   9.559  72.370  1.00  0.00     0.000 HD 
HETATM    3  C   UNL     1     -13.226   9.107  72.064  1.00  0.00    -0.441 C  
HETATM    4  N   UNL     1     -12.148   8.462  72.787  1.00  0.00    -0.499 NA 
HETATM    5  H   UNL     1     -12.209   8.359  73.801  1.00  0.00     0.000 HD 
HETATM    6  C   UNL     1     -11.116   8.020  72.162  1.00  0.00    -0.311 C  
HETATM    7  C   UNL     1     -10.335   7.146  69.960  1.00  0.00    -0.219 A  
HETATM    8  C   UNL     1     -10.890   8.210  70.689  1.00  0.00    -0.246 A  
HETATM    9 CL   UNL     1      -9.258   6.029  67.754  1.00  0.00    -0.109 Cl 
HETATM   10  C   UNL     1     -11.137   9.441  70.045  1.00  0.00    -0.221 A  
HETATM   11  N   UNL     1     -11.762  10.547  70.644  1.00  0.00    -0.335 N  
HETATM   12  C   UNL     1     -10.744   9.609  68.711  1.00  0.00    -0.234 A  
HETATM   13  O   UNL     1     -13.178  11.578  72.054  1.00  0.00    -0.509 OA 
HETATM   14  C   UNL     1     -10.172   8.552  68.000  1.00  0.00    -0.264 A  
HETATM   15  C   UNL     1     -12.720  10.514  71.634  1.00  0.00    -0.445 C  
HETATM   16  C   UNL     1      -9.977   7.325  68.626  1.00  0.00    -0.166 A  
HETATM   17  H   UNL     1     -11.478  11.468  70.313  1.00  0.00     0.000 HD 
ENDROOT
BRANCH   6  18
HETATM   18  C   UNL     1     -10.073   7.297  72.988  1.00  0.00    -0.294 A  
HETATM   19  C   UNL     1      -8.062   6.019  74.500  1.00  0.00    -0.111 A  
HETATM   20  C   UNL     1      -7.864   7.313  74.031  1.00  0.00    -0.140 A  
HETATM   21  C   UNL     1     -10.265   5.988  73.475  1.00  0.00    -0.221 A  
HETATM   22  C   UNL     1      -8.869   7.956  73.301  1.00  0.00    -0.311 A  
HETATM   23  C   UNL     1      -9.263   5.366  74.235  1.00  0.00    -0.122 A  
HETATM   24 CL   UNL     1     -11.661   5.018  73.147  1.00  0.00    -0.373 Cl 
ENDBRANCH   6  18
TORSDOF 1
ENDMDL
MODEL       27
REMARK 921   NORMALIZED FREE ENERGY PREDICTED BY IDOCK:   -6.19 KCAL/MOL
REMARK 922        TOTAL FREE ENERGY PREDICTED BY IDOCK:   -7.17 KCAL/MOL
REMARK 923 INTER-LIGAND FREE ENERGY PREDICTED BY IDOCK:   -6.56 KCAL/MOL
REMARK 924 INTRA-LIGAND FREE ENERGY PREDICTED BY IDOCK:   -0.62 KCAL/MOL
REMARK 927      BINDING AFFINITY PREDICTED BY RF-SCORE:    0.00 PKD
ROOT
HETATM    1  O   UNL     1     -12.769  14.597  70.902  1.00  0.00    -0.313 OA 
HETATM    2  H   UNL     1     -13.300  15.383  70.948  1.00  0.00     0.000 HD 
HETATM    3  C   UNL     1     -12.226  14.440  69.611  1.00  0.00    -0.307 C  
HETATM    4  N   UNL     1     -11.416  13.240  69.541  1.00  0.00    -0.401 NA 
HETATM    5  H   UNL     1     -11.080  12.805  70.400  1.00  0.00     0.000 HD 
HETATM    6  C   UNL     1     -11.117  12.720  68.404  1.00  0.00    -0.262 C  
HETATM    7  C   UNL     1     -11.895  12.490  66.045  1.00  0.00    -0.478 A  
HETATM    8  C   UNL     1     -11.482  13.339  67.084  1.00  0.00    -0.380 A  
HETATM    9 CL   UNL     1     -12.570  11.946  63.491  1.00  0.00    -0.655 Cl 
HETATM   10  C   UNL     1     -11.340  14.721  66.839  1.00  0.00    -0.355 A  
HETATM   11  N   UNL     1     -11.015  15.678  67.814  1.00  0.00    -0.311 N  
HETATM   12  C   UNL     1     -11.530  15.211  65.539  1.00  0.00    -0.213 A  
HETATM   13  O   UNL     1     -10.980  16.556  69.883  1.00  0.00    -0.349 OA 
HETATM   14  C   UNL     1     -11.919  14.355  64.507  1.00  0.00    -0.487 A  
HETATM   15  C   UNL     1     -11.335  15.630  69.153  1.00  0.00    -0.338 C  
HETATM   16  C   UNL     1     -12.106  13.002  64.767  1.00  0.00    -0.415 A  
HETATM   17  H   UNL     1     -10.488  16.492  67.498  1.00  0.00     0.000 HD 
ENDROOT
BRANCH   6  18
HETATM   18  C   UNL     1     -10.328  11.429  68.428  1.00  0.00    -0.209 A  
HETATM   19  C   UNL     1      -8.925   8.982  68.532  1.00  0.00    -0.133 A  
HETATM   20  C   UNL     1     -10.238   9.052  68.986  1.00  0.00    -0.216 A  
HETATM   21  C   UNL     1      -8.999  11.343  67.965  1.00  0.00    -0.163 A  
HETATM   22  C   UNL     1     -10.942  10.258  68.914  1.00  0.00    -0.279 A  
HETATM   23  C   UNL     1      -8.314  10.120  68.011  1.00  0.00    -0.117 A  
HETATM   24 CL   UNL     1      -8.079  12.689  67.381  1.00  0.00    -0.173 Cl 
ENDBRANCH   6  18
TORSDOF 1
ENDMDL
MODEL       28
REMARK 921   NORMALIZED FREE ENERGY PREDICTED BY IDOCK:   -6.16 KCAL/MOL
REMARK 922        TOTAL FREE ENERGY PREDICTED BY IDOCK:   -7.14 KCAL/MOL
REMARK 923 INTER-LIGAND FREE ENERGY PREDICTED BY IDOCK:   -6.81 KCAL/MOL
REMARK 924 INTRA-LIGAND FREE ENERGY PREDICTED BY IDOCK:   -0.33 KCAL/MOL
REMARK 927      BINDING AFFINITY PREDICTED BY RF-SCORE:    0.00 PKD
ROOT
HETATM    1  O   UNL     1     -13.067  12.691  64.848  1.00  0.00    -0.850 OA 
HETATM    2  H   UNL     1     -13.060  12.116  64.092  1.00  0.00     0.000 HD 
HETATM    3  C   UNL     1     -11.973  12.416  65.691  1.00  0.00    -0.386 C  
HETATM    4  N   UNL     1     -11.984  13.293  66.845  1.00  0.00    -0.387 NA 
HETATM    5  H   UNL     1     -12.536  14.151  66.823  1.00  0.00     0.000 HD 
HETATM    6  C   UNL     1     -11.304  12.999  67.894  1.00  0.00    -0.288 C  
HETATM    7  C   UNL     1     -10.353  11.092  69.192  1.00  0.00    -0.210 A  
HETATM    8  C   UNL     1     -10.386  11.812  67.987  1.00  0.00    -0.212 A  
HETATM    9 CL   UNL     1      -9.358   9.227  70.867  1.00  0.00    -0.324 Cl 
HETATM   10  C   UNL     1      -9.508  11.459  66.941  1.00  0.00    -0.179 A  
HETATM   11  N   UNL     1      -9.504  12.049  65.666  1.00  0.00    -0.381 N  
HETATM   12  C   UNL     1      -8.557  10.452  67.153  1.00  0.00    -0.130 A  
HETATM   13  O   UNL     1     -10.421  13.055  63.877  1.00  0.00    -0.392 OA 
HETATM   14  C   UNL     1      -8.517   9.756  68.362  1.00  0.00    -0.114 A  
HETATM   15  C   UNL     1     -10.589  12.575  64.999  1.00  0.00    -0.300 C  
HETATM   16  C   UNL     1      -9.418  10.074  69.372  1.00  0.00    -0.223 A  
HETATM   17  H   UNL     1      -8.606  12.091  65.185  1.00  0.00     0.000 HD 
ENDROOT
BRANCH   6  18
HETATM   18  C   UNL     1     -11.430  13.935  69.077  1.00  0.00    -0.341 A  
HETATM   19  C   UNL     1     -11.747  15.629  71.312  1.00  0.00    -0.478 A  
HETATM   20  C   UNL     1     -12.437  14.424  71.249  1.00  0.00    -0.423 A  
HETATM   21  C   UNL     1     -10.730  15.156  69.156  1.00  0.00    -0.253 A  
HETATM   22  C   UNL     1     -12.264  13.572  70.153  1.00  0.00    -0.400 A  
HETATM   23  C   UNL     1     -10.886  15.986  70.276  1.00  0.00    -0.327 A  
HETATM   24 CL   UNL     1      -9.703  15.776  67.908  1.00  0.00    -0.215 Cl 
ENDBRANCH   6  18
TORSDOF 1
ENDMDL
MODEL       29
REMARK 921   NORMALIZED FREE ENERGY PREDICTED BY IDOCK:   -6.12 KCAL/MOL
REMARK 922        TOTAL FREE ENERGY PREDICTED BY IDOCK:   -7.10 KCAL/MOL
REMARK 923 INTER-LIGAND FREE ENERGY PREDICTED BY IDOCK:   -6.66 KCAL/MOL
REMARK 924 INTRA-LIGAND FREE ENERGY PREDICTED BY IDOCK:   -0.43 KCAL/MOL
REMARK 927      BINDING AFFINITY PREDICTED BY RF-SCORE:    0.00 PKD
ROOT
HETATM    1  O   UNL     1     -11.872  16.639  72.573  1.00  0.00    -0.554 OA 
HETATM    2  H   UNL     1     -12.279  16.053  73.201  1.00  0.00     0.000 HD 
HETATM    3  C   UNL     1     -11.669  15.984  71.343  1.00  0.00    -0.473 C  
HETATM    4  N   UNL     1     -11.049  16.877  70.385  1.00  0.00    -0.299 NA 
HETATM    5  H   UNL     1     -11.076  17.886  70.542  1.00  0.00     0.000 HD 
HETATM    6  C   UNL     1     -10.464  16.411  69.340  1.00  0.00    -0.309 C  
HETATM    7  C   UNL     1      -9.274  14.412  68.440  1.00  0.00    -0.195 A  
HETATM    8  C   UNL     1     -10.455  14.954  68.973  1.00  0.00    -0.247 A  
HETATM    9 CL   UNL     1      -7.822  12.466  67.266  1.00  0.00    -0.171 Cl 
HETATM   10  C   UNL     1     -11.609  14.148  69.067  1.00  0.00    -0.304 A  
HETATM   11  N   UNL     1     -12.820  14.550  69.654  1.00  0.00    -0.491 N  
HETATM   12  C   UNL     1     -11.583  12.847  68.548  1.00  0.00    -0.358 A  
HETATM   13  O   UNL     1     -14.110  15.687  71.103  1.00  0.00    -0.539 OA 
HETATM   14  C   UNL     1     -10.411  12.324  68.000  1.00  0.00    -0.220 A  
HETATM   15  C   UNL     1     -12.974  15.441  70.694  1.00  0.00    -0.398 C  
HETATM   16  C   UNL     1      -9.261  13.106  67.955  1.00  0.00    -0.211 A  
HETATM   17  H   UNL     1     -13.672  14.141  69.272  1.00  0.00     0.000 HD 
ENDROOT
BRANCH   6  18
HETATM   18  C   UNL     1      -9.783  17.412  68.432  1.00  0.00    -0.304 A  
HETATM   19  C   UNL     1      -8.591  19.275  66.679  1.00  0.00    -0.339 A  
HETATM   20  C   UNL     1      -9.947  18.988  66.572  1.00  0.00    -0.437 A  
HETATM   21  C   UNL     1      -8.410  17.717  68.534  1.00  0.00    -0.291 A  
HETATM   22  C   UNL     1     -10.545  18.082  67.455  1.00  0.00    -0.402 A  
HETATM   23  C   UNL     1      -7.830  18.652  67.665  1.00  0.00    -0.249 A  
HETATM   24 CL   UNL     1      -7.320  16.955  69.643  1.00  0.00     0.127 Cl 
ENDBRANCH   6  18
TORSDOF 1
ENDMDL
MODEL       30
REMARK 921   NORMALIZED FREE ENERGY PREDICTED BY IDOCK:   -6.10 KCAL/MOL
REMARK 922        TOTAL FREE ENERGY PREDICTED BY IDOCK:   -7.08 KCAL/MOL
REMARK 923 INTER-LIGAND FREE ENERGY PREDICTED BY IDOCK:   -6.69 KCAL/MOL
REMARK 924 INTRA-LIGAND FREE ENERGY PREDICTED BY IDOCK:   -0.39 KCAL/MOL
REMARK 927      BINDING AFFINITY PREDICTED BY RF-SCORE:    0.00 PKD
ROOT
HETATM    1  O   UNL     1      -9.646  15.931  69.120  1.00  0.00    -0.222 OA 
HETATM    2  H   UNL     1      -9.503  16.261  69.999  1.00  0.00     0.000 HD 
HETATM    3  C   UNL     1     -10.396  14.738  69.153  1.00  0.00    -0.233 C  
HETATM    4  N   UNL     1     -10.614  14.236  67.812  1.00  0.00    -0.251 NA 
HETATM    5  H   UNL     1     -10.494  14.858  67.012  1.00  0.00     0.000 HD 
HETATM    6  C   UNL     1     -10.959  13.012  67.622  1.00  0.00    -0.254 C  
HETATM    7  C   UNL     1     -10.816  10.721  68.597  1.00  0.00    -0.260 A  
HETATM    8  C   UNL     1     -11.254  12.048  68.735  1.00  0.00    -0.316 A  
HETATM    9 CL   UNL     1     -10.684   8.130  69.333  1.00  0.00    -0.204 Cl 
HETATM   10  C   UNL     1     -12.022  12.413  69.861  1.00  0.00    -0.299 A  
HETATM   11  N   UNL     1     -12.445  13.721  70.151  1.00  0.00    -0.303 N  
HETATM   12  C   UNL     1     -12.409  11.427  70.778  1.00  0.00    -0.483 A  
HETATM   13  O   UNL     1     -12.292  15.964  70.158  1.00  0.00    -0.338 OA 
HETATM   14  C   UNL     1     -11.988  10.105  70.620  1.00  0.00    -0.423 A  
HETATM   15  C   UNL     1     -11.790  14.889  69.827  1.00  0.00    -0.315 C  
HETATM   16  C   UNL     1     -11.189   9.761  69.536  1.00  0.00    -0.142 A  
HETATM   17  H   UNL     1     -13.327  13.815  70.653  1.00  0.00     0.000 HD 
ENDROOT
BRANCH   6  18
HETATM   18  C   UNL     1     -11.096  12.555  66.185  1.00  0.00    -0.336 A  
HETATM   19  C   UNL     1     -11.451  11.717  63.513  1.00  0.00    -0.489 A  
HETATM   20  C   UNL     1     -12.476  12.384  64.176  1.00  0.00    -0.534 A  
HETATM   21  C   UNL     1     -10.062  11.885  65.500  1.00  0.00    -0.245 A  
HETATM   22  C   UNL     1     -12.293  12.820  65.492  1.00  0.00    -0.495 A  
HETATM   23  C   UNL     1     -10.244  11.482  64.169  1.00  0.00    -0.374 A  
HETATM   24 CL   UNL     1      -8.548  11.438  66.212  1.00  0.00    -0.176 Cl 
ENDBRANCH   6  18
TORSDOF 1
ENDMDL
MODEL       31
REMARK 921   NORMALIZED FREE ENERGY PREDICTED BY IDOCK:   -6.05 KCAL/MOL
REMARK 922        TOTAL FREE ENERGY PREDICTED BY IDOCK:   -7.02 KCAL/MOL
REMARK 923 INTER-LIGAND FREE ENERGY PREDICTED BY IDOCK:   -6.39 KCAL/MOL
REMARK 924 INTRA-LIGAND FREE ENERGY PREDICTED BY IDOCK:   -0.63 KCAL/MOL
REMARK 927      BINDING AFFINITY PREDICTED BY RF-SCORE:    0.00 PKD
ROOT
HETATM    1  O   UNL     1     -13.458  15.697  69.959  1.00  0.00    -0.492 OA 
HETATM    2  H   UNL     1     -13.499  16.220  70.750  1.00  0.00     0.000 HD 
HETATM    3  C   UNL     1     -12.136  15.633  69.474  1.00  0.00    -0.286 C  
HETATM    4  N   UNL     1     -12.073  14.835  68.267  1.00  0.00    -0.573 NA 
HETATM    5  H   UNL     1     -12.836  14.195  68.042  1.00  0.00     0.000 HD 
HETATM    6  C   UNL     1     -11.063  14.925  67.477  1.00  0.00    -0.317 C  
HETATM    7  C   UNL     1      -9.259  16.467  66.707  1.00  0.00    -0.259 A  
HETATM    8  C   UNL     1      -9.850  15.763  67.768  1.00  0.00    -0.224 A  
HETATM    9 CL   UNL     1      -7.318  17.963  65.583  1.00  0.00    -0.135 Cl 
HETATM   10  C   UNL     1      -9.248  15.792  69.044  1.00  0.00    -0.243 A  
HETATM   11  N   UNL     1      -9.787  15.200  70.198  1.00  0.00    -0.483 N  
HETATM   12  C   UNL     1      -8.023  16.452  69.210  1.00  0.00    -0.136 A  
HETATM   13  O   UNL     1     -11.436  14.489  71.550  1.00  0.00    -0.159 OA 
HETATM   14  C   UNL     1      -7.431  17.131  68.143  1.00  0.00    -0.205 A  
HETATM   15  C   UNL     1     -11.123  15.027  70.487  1.00  0.00    -0.211 C  
HETATM   16  C   UNL     1      -8.055  17.140  66.900  1.00  0.00    -0.216 A  
HETATM   17  H   UNL     1      -9.121  14.863  70.892  1.00  0.00     0.000 HD 
ENDROOT
BRANCH   6  18
HETATM   18  C   UNL     1     -11.114  14.108  66.204  1.00  0.00    -0.312 A  
HETATM   19  C   UNL     1     -11.294  12.631  63.805  1.00  0.00    -0.529 A  
HETATM   20  C   UNL     1     -12.082  13.762  63.987  1.00  0.00    -0.448 A  
HETATM   21  C   UNL     1     -10.316  12.963  66.005  1.00  0.00    -0.283 A  
HETATM   22  C   UNL     1     -11.977  14.509  65.165  1.00  0.00    -0.369 A  
HETATM   23  C   UNL     1     -10.404  12.242  64.805  1.00  0.00    -0.320 A  
HETATM   24 CL   UNL     1      -9.238  12.306  67.190  1.00  0.00    -0.190 Cl 
ENDBRANCH   6  18
TORSDOF 1
ENDMDL
MODEL       32
REMARK 921   NORMALIZED FREE ENERGY PREDICTED BY IDOCK:   -6.04 KCAL/MOL
REMARK 922        TOTAL FREE ENERGY PREDICTED BY IDOCK:   -7.01 KCAL/MOL
REMARK 923 INTER-LIGAND FREE ENERGY PREDICTED BY IDOCK:   -6.48 KCAL/MOL
REMARK 924 INTRA-LIGAND FREE ENERGY PREDICTED BY IDOCK:   -0.53 KCAL/MOL
REMARK 927      BINDING AFFINITY PREDICTED BY RF-SCORE:    0.00 PKD
ROOT
HETATM    1  O   UNL     1      -9.637  20.133  65.431  1.00  0.00    -0.402 OA 
HETATM    2  H   UNL     1      -9.055  20.863  65.605  1.00  0.00     0.000 HD 
HETATM    3  C   UNL     1      -9.342  19.049  66.280  1.00  0.00    -0.298 C  
HETATM    4  N   UNL     1     -10.231  17.936  66.014  1.00  0.00    -0.537 NA 
HETATM    5  H   UNL     1     -11.103  18.093  65.508  1.00  0.00     0.000 HD 
HETATM    6  C   UNL     1      -9.930  16.751  66.411  1.00  0.00    -0.304 C  
HETATM    7  C   UNL     1      -8.012  15.255  66.966  1.00  0.00    -0.243 A  
HETATM    8  C   UNL     1      -8.721  16.435  67.246  1.00  0.00    -0.198 A  
HETATM    9 CL   UNL     1      -6.139  13.382  67.474  1.00  0.00    -0.128 Cl 
HETATM   10  C   UNL     1      -8.335  17.235  68.341  1.00  0.00    -0.261 A  
HETATM   11  N   UNL     1      -8.911  18.473  68.671  1.00  0.00    -0.318 N  
HETATM   12  C   UNL     1      -7.306  16.796  69.184  1.00  0.00    -0.213 A  
HETATM   13  O   UNL     1      -9.923  20.435  68.242  1.00  0.00    -0.306 OA 
HETATM   14  C   UNL     1      -6.621  15.610  68.911  1.00  0.00    -0.116 A  
HETATM   15  C   UNL     1      -9.459  19.385  67.795  1.00  0.00    -0.326 C  
HETATM   16  C   UNL     1      -6.973  14.851  67.801  1.00  0.00    -0.175 A  
HETATM   17  H   UNL     1      -8.926  18.722  69.659  1.00  0.00     0.000 HD 
ENDROOT
BRANCH   6  18
HETATM   18  C   UNL     1     -10.881  15.638  66.028  1.00  0.00    -0.276 A  
HETATM   19  C   UNL     1     -12.658  13.599  65.220  1.00  0.00    -0.512 A  
HETATM   20  C   UNL     1     -12.024  14.388  64.266  1.00  0.00    -0.433 A  
HETATM   21  C   UNL     1     -11.525  14.827  66.984  1.00  0.00    -0.353 A  
HETATM   22  C   UNL     1     -11.125  15.383  64.664  1.00  0.00    -0.361 A  
HETATM   23  C   UNL     1     -12.398  13.809  66.573  1.00  0.00    -0.432 A  
HETATM   24 CL   UNL     1     -11.376  15.030  68.698  1.00  0.00    -0.292 Cl 
ENDBRANCH   6  18
TORSDOF 1
ENDMDL
MODEL       33
REMARK 921   NORMALIZED FREE ENERGY PREDICTED BY IDOCK:   -6.00 KCAL/MOL
REMARK 922        TOTAL FREE ENERGY PREDICTED BY IDOCK:   -6.97 KCAL/MOL
REMARK 923 INTER-LIGAND FREE ENERGY PREDICTED BY IDOCK:   -6.34 KCAL/MOL
REMARK 924 INTRA-LIGAND FREE ENERGY PREDICTED BY IDOCK:   -0.63 KCAL/MOL
REMARK 927      BINDING AFFINITY PREDICTED BY RF-SCORE:    0.00 PKD
ROOT
HETATM    1  O   UNL     1     -10.742  10.806  62.588  1.00  0.00    -0.703 OA 
HETATM    2  H   UNL     1     -10.921  11.175  61.731  1.00  0.00     0.000 HD 
HETATM    3  C   UNL     1     -10.733  11.816  63.571  1.00  0.00    -0.436 C  
HETATM    4  N   UNL     1     -10.461  11.253  64.878  1.00  0.00    -0.302 NA 
HETATM    5  H   UNL     1     -10.584  10.252  65.034  1.00  0.00     0.000 HD 
HETATM    6  C   UNL     1     -10.066  12.004  65.843  1.00  0.00    -0.236 C  
HETATM    7  C   UNL     1      -8.855  14.123  66.360  1.00  0.00     0.031 A  
HETATM    8  C   UNL     1      -9.949  13.499  65.740  1.00  0.00    -0.266 A  
HETATM    9 CL   UNL     1      -7.458  16.267  67.211  1.00  0.00    -0.189 Cl 
HETATM   10  C   UNL     1     -10.940  14.288  65.118  1.00  0.00    -0.363 A  
HETATM   11  N   UNL     1     -12.033  13.780  64.397  1.00  0.00    -0.426 N  
HETATM   12  C   UNL     1     -10.861  15.685  65.206  1.00  0.00    -0.420 A  
HETATM   13  O   UNL     1     -13.107  12.301  63.088  1.00  0.00    -0.588 OA 
HETATM   14  C   UNL     1      -9.780  16.296  65.844  1.00  0.00    -0.354 A  
HETATM   15  C   UNL     1     -12.067  12.608  63.674  1.00  0.00    -0.547 C  
HETATM   16  C   UNL     1      -8.780  15.513  66.411  1.00  0.00    -0.298 A  
HETATM   17  H   UNL     1     -12.888  14.335  64.410  1.00  0.00     0.000 HD 
ENDROOT
BRANCH   6  18
HETATM   18  C   UNL     1      -9.738  11.321  67.153  1.00  0.00    -0.201 A  
HETATM   19  C   UNL     1      -9.056   9.994  69.549  1.00  0.00    -0.236 A  
HETATM   20  C   UNL     1      -8.220   9.904  68.441  1.00  0.00    -0.106 A  
HETATM   21  C   UNL     1     -10.573  11.410  68.285  1.00  0.00    -0.195 A  
HETATM   22  C   UNL     1      -8.545  10.580  67.260  1.00  0.00    -0.122 A  
HETATM   23  C   UNL     1     -10.221  10.755  69.475  1.00  0.00    -0.146 A  
HETATM   24 CL   UNL     1     -12.094  12.238  68.315  1.00  0.00    -0.236 Cl 
ENDBRANCH   6  18
TORSDOF 1
ENDMDL
MODEL       34
REMARK 921   NORMALIZED FREE ENERGY PREDICTED BY IDOCK:   -5.98 KCAL/MOL
REMARK 922        TOTAL FREE ENERGY PREDICTED BY IDOCK:   -6.95 KCAL/MOL
REMARK 923 INTER-LIGAND FREE ENERGY PREDICTED BY IDOCK:   -6.53 KCAL/MOL
REMARK 924 INTRA-LIGAND FREE ENERGY PREDICTED BY IDOCK:   -0.42 KCAL/MOL
REMARK 927      BINDING AFFINITY PREDICTED BY RF-SCORE:    0.00 PKD
ROOT
HETATM    1  O   UNL     1     -12.328  12.234  64.672  1.00  0.00    -0.424 OA 
HETATM    2  H   UNL     1     -11.954  12.234  63.798  1.00  0.00     0.000 HD 
HETATM    3  C   UNL     1     -11.327  12.442  65.641  1.00  0.00    -0.347 C  
HETATM    4  N   UNL     1     -11.898  12.442  66.973  1.00  0.00    -0.546 NA 
HETATM    5  H   UNL     1     -12.902  12.582  67.093  1.00  0.00     0.000 HD 
HETATM    6  C   UNL     1     -11.151  12.266  68.004  1.00  0.00    -0.239 C  
HETATM    7  C   UNL     1      -9.024  11.216  68.775  1.00  0.00    -0.136 A  
HETATM    8  C   UNL     1      -9.655  12.149  67.937  1.00  0.00    -0.198 A  
HETATM    9 CL   UNL     1      -6.873  10.055  69.913  1.00  0.00    -0.091 Cl 
HETATM   10  C   UNL     1      -8.871  12.998  67.127  1.00  0.00    -0.218 A  
HETATM   11  N   UNL     1      -9.385  13.910  66.191  1.00  0.00    -0.493 N  
HETATM   12  C   UNL     1      -7.475  12.957  67.238  1.00  0.00    -0.092 A  
HETATM   13  O   UNL     1     -10.864  14.670  64.677  1.00  0.00    -0.385 OA 
HETATM   14  C   UNL     1      -6.857  12.041  68.092  1.00  0.00    -0.069 A  
HETATM   15  C   UNL     1     -10.551  13.779  65.469  1.00  0.00    -0.307 C  
HETATM   16  C   UNL     1      -7.634  11.171  68.850  1.00  0.00    -0.133 A  
HETATM   17  H   UNL     1      -8.839  14.756  66.029  1.00  0.00     0.000 HD 
ENDROOT
BRANCH   6  18
HETATM   18  C   UNL     1     -11.843  12.210  69.349  1.00  0.00    -0.370 A  
HETATM   19  C   UNL     1     -13.155  12.009  71.840  1.00  0.00    -0.475 A  
HETATM   20  C   UNL     1     -12.851  10.860  71.118  1.00  0.00    -0.508 A  
HETATM   21  C   UNL     1     -12.149  13.367  70.093  1.00  0.00    -0.344 A  
HETATM   22  C   UNL     1     -12.180  10.956  69.894  1.00  0.00    -0.408 A  
HETATM   23  C   UNL     1     -12.792  13.256  71.335  1.00  0.00    -0.411 A  
HETATM   24 CL   UNL     1     -11.848  14.985  69.554  1.00  0.00    -0.339 Cl 
ENDBRANCH   6  18
TORSDOF 1
ENDMDL
MODEL       35
REMARK 921   NORMALIZED FREE ENERGY PREDICTED BY IDOCK:   -5.97 KCAL/MOL
REMARK 922        TOTAL FREE ENERGY PREDICTED BY IDOCK:   -6.94 KCAL/MOL
REMARK 923 INTER-LIGAND FREE ENERGY PREDICTED BY IDOCK:   -7.06 KCAL/MOL
REMARK 924 INTRA-LIGAND FREE ENERGY PREDICTED BY IDOCK:    0.12 KCAL/MOL
REMARK 927      BINDING AFFINITY PREDICTED BY RF-SCORE:    0.00 PKD
ROOT
HETATM    1  O   UNL     1     -14.198  15.382  72.331  1.00  0.00    -0.537 OA 
HETATM    2  H   UNL     1     -14.457  16.296  72.301  1.00  0.00     0.000 HD 
HETATM    3  C   UNL     1     -13.290  15.089  71.294  1.00  0.00    -0.438 C  
HETATM    4  N   UNL     1     -12.894  13.696  71.340  1.00  0.00    -0.355 NA 
HETATM    5  H   UNL     1     -13.038  13.157  72.195  1.00  0.00     0.000 HD 
HETATM    6  C   UNL     1     -12.364  13.134  70.314  1.00  0.00    -0.249 C  
HETATM    7  C   UNL     1     -12.253  13.218  67.823  1.00  0.00    -0.158 A  
HETATM    8  C   UNL     1     -12.023  13.866  69.047  1.00  0.00    -0.402 A  
HETATM    9 CL   UNL     1     -12.071  12.976  65.143  1.00  0.00    -0.441 Cl 
HETATM   10  C   UNL     1     -11.408  15.136  69.056  1.00  0.00    -0.294 A  
HETATM   11  N   UNL     1     -11.202  15.917  70.205  1.00  0.00    -0.335 N  
HETATM   12  C   UNL     1     -10.958  15.691  67.850  1.00  0.00    -0.319 A  
HETATM   13  O   UNL     1     -11.676  16.691  72.262  1.00  0.00    -0.460 OA 
HETATM   14  C   UNL     1     -11.171  15.027  66.640  1.00  0.00    -0.311 A  
HETATM   15  C   UNL     1     -11.990  15.943  71.335  1.00  0.00    -0.457 C  
HETATM   16  C   UNL     1     -11.823  13.799  66.632  1.00  0.00    -0.412 A  
HETATM   17  H   UNL     1     -10.385  16.527  70.203  1.00  0.00     0.000 HD 
ENDROOT
BRANCH   6  18
HETATM   18  C   UNL     1     -12.048  11.658  70.428  1.00  0.00    -0.462 A  
HETATM   19  C   UNL     1     -11.530   8.898  70.709  1.00  0.00    -0.319 A  
HETATM   20  C   UNL     1     -12.688   9.447  71.247  1.00  0.00    -0.391 A  
HETATM   21  C   UNL     1     -10.881  11.088  69.880  1.00  0.00    -0.077 A  
HETATM   22  C   UNL     1     -12.958  10.811  71.089  1.00  0.00    -0.467 A  
HETATM   23  C   UNL     1     -10.637   9.713  70.017  1.00  0.00    -0.300 A  
HETATM   24 CL   UNL     1      -9.637  11.988  69.079  1.00  0.00     0.120 Cl 
ENDBRANCH   6  18
TORSDOF 1
ENDMDL
MODEL       36
REMARK 921   NORMALIZED FREE ENERGY PREDICTED BY IDOCK:   -5.93 KCAL/MOL
REMARK 922        TOTAL FREE ENERGY PREDICTED BY IDOCK:   -6.90 KCAL/MOL
REMARK 923 INTER-LIGAND FREE ENERGY PREDICTED BY IDOCK:   -6.27 KCAL/MOL
REMARK 924 INTRA-LIGAND FREE ENERGY PREDICTED BY IDOCK:   -0.63 KCAL/MOL
REMARK 927      BINDING AFFINITY PREDICTED BY RF-SCORE:    0.00 PKD
ROOT
HETATM    1  O   UNL     1     -11.777  12.847  62.960  1.00  0.00    -0.831 OA 
HETATM    2  H   UNL     1     -11.913  13.700  62.564  1.00  0.00     0.000 HD 
HETATM    3  C   UNL     1     -11.241  12.981  64.256  1.00  0.00    -0.373 C  
HETATM    4  N   UNL     1     -11.033  11.681  64.860  1.00  0.00    -0.300 NA 
HETATM    5  H   UNL     1     -11.512  10.864  64.480  1.00  0.00     0.000 HD 
HETATM    6  C   UNL     1     -10.249  11.548  65.870  1.00  0.00    -0.244 C  
HETATM    7  C   UNL     1      -8.251  12.533  66.993  1.00  0.00    -0.125 A  
HETATM    8  C   UNL     1      -9.576  12.701  66.559  1.00  0.00    -0.248 A  
HETATM    9 CL   UNL     1      -6.029  13.286  68.323  1.00  0.00    -0.080 Cl 
HETATM   10  C   UNL     1     -10.257  13.901  66.852  1.00  0.00    -0.257 A  
HETATM   11  N   UNL     1     -11.549  14.219  66.402  1.00  0.00    -0.359 N  
HETATM   12  C   UNL     1      -9.631  14.870  67.648  1.00  0.00    -0.200 A  
HETATM   13  O   UNL     1     -13.283  14.177  64.971  1.00  0.00    -0.691 OA 
HETATM   14  C   UNL     1      -8.321  14.684  68.094  1.00  0.00    -0.144 A  
HETATM   15  C   UNL     1     -12.135  13.806  65.226  1.00  0.00    -0.407 C  
HETATM   16  C   UNL     1      -7.637  13.521  67.759  1.00  0.00    -0.162 A  
HETATM   17  H   UNL     1     -12.111  14.816  67.009  1.00  0.00     0.000 HD 
ENDROOT
BRANCH   6  18
HETATM   18  C   UNL     1     -10.035  10.143  66.391  1.00  0.00    -0.295 A  
HETATM   19  C   UNL     1      -9.603   7.497  67.272  1.00  0.00    -0.198 A  
HETATM   20  C   UNL     1      -9.045   7.931  66.075  1.00  0.00    -0.181 A  
HETATM   21  C   UNL     1     -10.589   9.692  67.606  1.00  0.00    -0.275 A  
HETATM   22  C   UNL     1      -9.239   9.249  65.648  1.00  0.00    -0.291 A  
HETATM   23  C   UNL     1     -10.360   8.378  68.041  1.00  0.00    -0.270 A  
HETATM   24 CL   UNL     1     -11.627  10.640  68.618  1.00  0.00    -0.338 Cl 
ENDBRANCH   6  18
TORSDOF 1
ENDMDL
MODEL       37
REMARK 921   NORMALIZED FREE ENERGY PREDICTED BY IDOCK:   -5.89 KCAL/MOL
REMARK 922        TOTAL FREE ENERGY PREDICTED BY IDOCK:   -6.85 KCAL/MOL
REMARK 923 INTER-LIGAND FREE ENERGY PREDICTED BY IDOCK:   -6.27 KCAL/MOL
REMARK 924 INTRA-LIGAND FREE ENERGY PREDICTED BY IDOCK:   -0.58 KCAL/MOL
REMARK 927      BINDING AFFINITY PREDICTED BY RF-SCORE:    0.00 PKD
ROOT
HETATM    1  O   UNL     1     -12.610  11.541  71.194  1.00  0.00    -0.389 OA 
HETATM    2  H   UNL     1     -13.447  11.900  71.463  1.00  0.00     0.000 HD 
HETATM    3  C   UNL     1     -12.201  12.099  69.967  1.00  0.00    -0.198 C  
HETATM    4  N   UNL     1     -10.925  11.551  69.556  1.00  0.00    -0.424 NA 
HETATM    5  H   UNL     1     -10.330  11.085  70.242  1.00  0.00     0.000 HD 
HETATM    6  C   UNL     1     -10.535  11.646  68.335  1.00  0.00    -0.213 C  
HETATM    7  C   UNL     1     -11.352  11.844  65.986  1.00  0.00    -0.375 A  
HETATM    8  C   UNL     1     -11.293  12.396  67.276  1.00  0.00    -0.384 A  
HETATM    9 CL   UNL     1     -11.949  11.902  63.357  1.00  0.00    -0.573 Cl 
HETATM   10  C   UNL     1     -11.866  13.662  67.518  1.00  0.00    -0.381 A  
HETATM   11  N   UNL     1     -11.943  14.279  68.777  1.00  0.00    -0.437 N  
HETATM   12  C   UNL     1     -12.408  14.386  66.447  1.00  0.00    -0.298 A  
HETATM   13  O   UNL     1     -12.116  14.334  71.018  1.00  0.00    -0.328 OA 
HETATM   14  C   UNL     1     -12.442  13.839  65.164  1.00  0.00    -0.483 A  
HETATM   15  C   UNL     1     -12.054  13.647  69.997  1.00  0.00    -0.348 C  
HETATM   16  C   UNL     1     -11.921  12.569  64.941  1.00  0.00    -0.412 A  
HETATM   17  H   UNL     1     -11.915  15.298  68.790  1.00  0.00     0.000 HD 
ENDROOT
BRANCH   6  18
HETATM   18  C   UNL     1      -9.222  10.982  67.981  1.00  0.00    -0.159 A  
HETATM   19  C   UNL     1      -6.730   9.836  67.314  1.00  0.00    -0.074 A  
HETATM   20  C   UNL     1      -6.803  11.172  67.690  1.00  0.00    -0.076 A  
HETATM   21  C   UNL     1      -9.134   9.627  67.605  1.00  0.00    -0.131 A  
HETATM   22  C   UNL     1      -8.034  11.736  68.043  1.00  0.00    -0.141 A  
HETATM   23  C   UNL     1      -7.890   9.063  67.286  1.00  0.00    -0.099 A  
HETATM   24 CL   UNL     1     -10.495   8.570  67.432  1.00  0.00    -0.350 Cl 
ENDBRANCH   6  18
TORSDOF 1
ENDMDL
MODEL       38
REMARK 921   NORMALIZED FREE ENERGY PREDICTED BY IDOCK:   -5.87 KCAL/MOL
REMARK 922        TOTAL FREE ENERGY PREDICTED BY IDOCK:   -6.84 KCAL/MOL
REMARK 923 INTER-LIGAND FREE ENERGY PREDICTED BY IDOCK:   -6.22 KCAL/MOL
REMARK 924 INTRA-LIGAND FREE ENERGY PREDICTED BY IDOCK:   -0.62 KCAL/MOL
REMARK 927      BINDING AFFINITY PREDICTED BY RF-SCORE:    0.00 PKD
ROOT
HETATM    1  O   UNL     1     -14.264   9.703  72.371  1.00  0.00    -0.420 OA 
HETATM    2  H   UNL     1     -15.060  10.210  72.261  1.00  0.00     0.000 HD 
HETATM    3  C   UNL     1     -13.265  10.148  71.482  1.00  0.00    -0.399 C  
HETATM    4  N   UNL     1     -12.050   9.375  71.651  1.00  0.00    -0.365 NA 
HETATM    5  H   UNL     1     -11.910   8.833  72.505  1.00  0.00     0.000 HD 
HETATM    6  C   UNL     1     -11.149   9.367  70.735  1.00  0.00    -0.300 C  
HETATM    7  C   UNL     1     -10.790   9.636  68.281  1.00  0.00    -0.230 A  
HETATM    8  C   UNL     1     -11.220  10.206  69.491  1.00  0.00    -0.288 A  
HETATM    9 CL   UNL     1     -10.137   9.722  65.666  1.00  0.00    -0.344 Cl 
HETATM   10  C   UNL     1     -11.620  11.559  69.519  1.00  0.00    -0.333 A  
HETATM   11  N   UNL     1     -12.144  12.215  70.645  1.00  0.00    -0.473 N  
HETATM   12  C   UNL     1     -11.499  12.335  68.359  1.00  0.00    -0.356 A  
HETATM   13  O   UNL     1     -13.283  12.363  72.577  1.00  0.00    -0.345 OA 
HETATM   14  C   UNL     1     -11.050  11.765  67.166  1.00  0.00    -0.350 A  
HETATM   15  C   UNL     1     -12.889  11.647  71.655  1.00  0.00    -0.349 C  
HETATM   16  C   UNL     1     -10.705  10.419  67.132  1.00  0.00    -0.256 A  
HETATM   17  H   UNL     1     -11.954  13.214  70.722  1.00  0.00     0.000 HD 
ENDROOT
BRANCH   6  18
HETATM   18  C   UNL     1      -9.947   8.477  70.965  1.00  0.00    -0.255 A  
HETATM   19  C   UNL     1      -7.647   6.898  71.392  1.00  0.00    -0.087 A  
HETATM   20  C   UNL     1      -7.584   8.277  71.553  1.00  0.00    -0.104 A  
HETATM   21  C   UNL     1     -10.000   7.076  70.812  1.00  0.00    -0.190 A  
HETATM   22  C   UNL     1      -8.728   9.059  71.364  1.00  0.00    -0.198 A  
HETATM   23  C   UNL     1      -8.854   6.299  71.037  1.00  0.00    -0.136 A  
HETATM   24 CL   UNL     1     -11.399   6.203  70.284  1.00  0.00    -0.442 Cl 
ENDBRANCH   6  18
TORSDOF 1
ENDMDL
MODEL       39
REMARK 921   NORMALIZED FREE ENERGY PREDICTED BY IDOCK:   -5.82 KCAL/MOL
REMARK 922        TOTAL FREE ENERGY PREDICTED BY IDOCK:   -6.79 KCAL/MOL
REMARK 923 INTER-LIGAND FREE ENERGY PREDICTED BY IDOCK:   -7.26 KCAL/MOL
REMARK 924 INTRA-LIGAND FREE ENERGY PREDICTED BY IDOCK:    0.47 KCAL/MOL
REMARK 927      BINDING AFFINITY PREDICTED BY RF-SCORE:    0.00 PKD
ROOT
HETATM    1  O   UNL     1     -10.985  13.834  64.368  1.00  0.00    -0.469 OA 
HETATM    2  H   UNL     1     -10.664  13.996  63.489  1.00  0.00     0.000 HD 
HETATM    3  C   UNL     1     -10.719  14.934  65.207  1.00  0.00    -0.393 C  
HETATM    4  N   UNL     1     -11.209  14.686  66.547  1.00  0.00    -0.341 NA 
HETATM    5  H   UNL     1     -11.901  13.953  66.706  1.00  0.00     0.000 HD 
HETATM    6  C   UNL     1     -10.779  15.381  67.539  1.00  0.00    -0.295 C  
HETATM    7  C   UNL     1      -8.827  16.701  68.358  1.00  0.00    -0.226 A  
HETATM    8  C   UNL     1      -9.836  16.542  67.395  1.00  0.00    -0.253 A  
HETATM    9 CL   UNL     1      -6.817  18.042  69.554  1.00  0.00    -0.115 Cl 
HETATM   10  C   UNL     1      -9.989  17.511  66.381  1.00  0.00    -0.325 A  
HETATM   11  N   UNL     1     -10.903  17.421  65.318  1.00  0.00    -0.132 N  
HETATM   12  C   UNL     1      -9.187  18.660  66.402  1.00  0.00    -0.295 A  
HETATM   13  O   UNL     1     -12.160  16.356  63.788  1.00  0.00    -0.927 OA 
HETATM   14  C   UNL     1      -8.201  18.820  67.377  1.00  0.00    -0.278 A  
HETATM   15  C   UNL     1     -11.356  16.267  64.718  1.00  0.00    -0.210 C  
HETATM   16  C   UNL     1      -8.021  17.837  68.345  1.00  0.00    -0.293 A  
HETATM   17  H   UNL     1     -11.270  18.301  64.954  1.00  0.00     0.000 HD 
ENDROOT
BRANCH   6  18
HETATM   18  C   UNL     1     -11.292  15.005  68.913  1.00  0.00    -0.312 A  
HETATM   19  C   UNL     1     -12.203  14.386  71.511  1.00  0.00    -0.406 A  
HETATM   20  C   UNL     1     -11.683  15.646  71.238  1.00  0.00    -0.478 A  
HETATM   21  C   UNL     1     -11.828  13.734  69.200  1.00  0.00    -0.354 A  
HETATM   22  C   UNL     1     -11.252  15.962  69.945  1.00  0.00    -0.348 A  
HETATM   23  C   UNL     1     -12.288  13.439  70.492  1.00  0.00    -0.401 A  
HETATM   24 CL   UNL     1     -11.910  12.428  68.066  1.00  0.00    -0.408 Cl 
ENDBRANCH   6  18
TORSDOF 1
ENDMDL
MODEL       40
REMARK 921   NORMALIZED FREE ENERGY PREDICTED BY IDOCK:   -5.82 KCAL/MOL
REMARK 922        TOTAL FREE ENERGY PREDICTED BY IDOCK:   -6.78 KCAL/MOL
REMARK 923 INTER-LIGAND FREE ENERGY PREDICTED BY IDOCK:   -6.96 KCAL/MOL
REMARK 924 INTRA-LIGAND FREE ENERGY PREDICTED BY IDOCK:    0.18 KCAL/MOL
REMARK 927      BINDING AFFINITY PREDICTED BY RF-SCORE:    0.00 PKD
ROOT
HETATM    1  O   UNL     1     -13.032  15.102  69.806  1.00  0.00    -0.587 OA 
HETATM    2  H   UNL     1     -12.966  15.898  69.292  1.00  0.00     0.000 HD 
HETATM    3  C   UNL     1     -12.033  14.183  69.430  1.00  0.00    -0.337 C  
HETATM    4  N   UNL     1     -12.134  12.969  70.215  1.00  0.00    -0.421 NA 
HETATM    5  H   UNL     1     -12.659  12.974  71.090  1.00  0.00     0.000 HD 
HETATM    6  C   UNL     1     -11.568  11.886  69.818  1.00  0.00    -0.286 C  
HETATM    7  C   UNL     1     -10.798  10.662  67.785  1.00  0.00    -0.338 A  
HETATM    8  C   UNL     1     -10.695  11.802  68.598  1.00  0.00    -0.252 A  
HETATM    9 CL   UNL     1     -10.020   9.055  65.764  1.00  0.00    -0.216 Cl 
HETATM   10  C   UNL     1      -9.728  12.785  68.298  1.00  0.00    -0.216 A  
HETATM   11  N   UNL     1      -9.583  14.002  68.984  1.00  0.00    -0.408 N  
HETATM   12  C   UNL     1      -8.828  12.565  67.246  1.00  0.00    -0.195 A  
HETATM   13  O   UNL     1     -10.295  15.784  70.156  1.00  0.00    -0.297 OA 
HETATM   14  C   UNL     1      -8.924  11.417  66.457  1.00  0.00    -0.192 A  
HETATM   15  C   UNL     1     -10.584  14.725  69.596  1.00  0.00    -0.148 C  
HETATM   16  C   UNL     1      -9.912  10.476  66.726  1.00  0.00    -0.204 A  
HETATM   17  H   UNL     1      -8.642  14.390  69.034  1.00  0.00     0.000 HD 
ENDROOT
BRANCH   6  18
HETATM   18  C   UNL     1     -11.785  10.650  70.663  1.00  0.00    -0.454 A  
HETATM   19  C   UNL     1     -12.275   8.384  72.274  1.00  0.00    -0.449 A  
HETATM   20  C   UNL     1     -13.286   9.313  72.053  1.00  0.00    -0.518 A  
HETATM   21  C   UNL     1     -10.771   9.697  70.889  1.00  0.00    -0.332 A  
HETATM   22  C   UNL     1     -13.052  10.424  71.236  1.00  0.00    -0.494 A  
HETATM   23  C   UNL     1     -11.027   8.570  71.683  1.00  0.00    -0.362 A  
HETATM   24 CL   UNL     1      -9.148   9.840  70.302  1.00  0.00    -0.260 Cl 
ENDBRANCH   6  18
TORSDOF 1
ENDMDL
MODEL       41
REMARK 921   NORMALIZED FREE ENERGY PREDICTED BY IDOCK:   -5.81 KCAL/MOL
REMARK 922        TOTAL FREE ENERGY PREDICTED BY IDOCK:   -6.77 KCAL/MOL
REMARK 923 INTER-LIGAND FREE ENERGY PREDICTED BY IDOCK:   -6.86 KCAL/MOL
REMARK 924 INTRA-LIGAND FREE ENERGY PREDICTED BY IDOCK:    0.09 KCAL/MOL
REMARK 927      BINDING AFFINITY PREDICTED BY RF-SCORE:    0.00 PKD
ROOT
HETATM    1  O   UNL     1     -10.881  18.378  69.056  1.00  0.00    -0.138 OA 
HETATM    2  H   UNL     1     -10.604  19.106  68.512  1.00  0.00     0.000 HD 
HETATM    3  C   UNL     1     -10.735  17.158  68.366  1.00  0.00    -0.347 C  
HETATM    4  N   UNL     1     -11.158  16.048  69.196  1.00  0.00    -0.294 NA 
HETATM    5  H   UNL     1     -11.233  16.171  70.206  1.00  0.00     0.000 HD 
HETATM    6  C   UNL     1     -11.437  14.909  68.670  1.00  0.00    -0.306 C  
HETATM    7  C   UNL     1     -12.242  13.818  66.576  1.00  0.00    -0.475 A  
HETATM    8  C   UNL     1     -11.264  14.602  67.209  1.00  0.00    -0.344 A  
HETATM    9 CL   UNL     1     -13.236  12.395  64.511  1.00  0.00    -0.055 Cl 
HETATM   10  C   UNL     1     -10.119  15.002  66.489  1.00  0.00    -0.276 A  
HETATM   11  N   UNL     1      -9.117  15.851  66.986  1.00  0.00    -0.207 N  
HETATM   12  C   UNL     1      -9.934  14.538  65.179  1.00  0.00    -0.268 A  
HETATM   13  O   UNL     1      -8.296  17.529  68.237  1.00  0.00    -0.247 OA 
HETATM   14  C   UNL     1     -10.902  13.740  64.565  1.00  0.00    -0.399 A  
HETATM   15  C   UNL     1      -9.279  16.866  67.904  1.00  0.00    -0.234 C  
HETATM   16  C   UNL     1     -12.052  13.391  65.263  1.00  0.00    -0.413 A  
HETATM   17  H   UNL     1      -8.173  15.702  66.630  1.00  0.00     0.000 HD 
ENDROOT
BRANCH   6  18
HETATM   18  C   UNL     1     -11.938  13.828  69.603  1.00  0.00    -0.399 A  
HETATM   19  C   UNL     1     -12.843  11.744  71.277  1.00  0.00    -0.409 A  
HETATM   20  C   UNL     1     -12.013  11.459  70.199  1.00  0.00    -0.460 A  
HETATM   21  C   UNL     1     -12.775  14.104  70.704  1.00  0.00    -0.321 A  
HETATM   22  C   UNL     1     -11.545  12.494  69.382  1.00  0.00    -0.368 A  
HETATM   23  C   UNL     1     -13.211  13.063  71.536  1.00  0.00    -0.360 A  
HETATM   24 CL   UNL     1     -13.390  15.675  71.094  1.00  0.00    -0.542 Cl 
ENDBRANCH   6  18
TORSDOF 1
ENDMDL
MODEL       42
REMARK 921   NORMALIZED FREE ENERGY PREDICTED BY IDOCK:   -5.78 KCAL/MOL
REMARK 922        TOTAL FREE ENERGY PREDICTED BY IDOCK:   -6.74 KCAL/MOL
REMARK 923 INTER-LIGAND FREE ENERGY PREDICTED BY IDOCK:   -6.12 KCAL/MOL
REMARK 924 INTRA-LIGAND FREE ENERGY PREDICTED BY IDOCK:   -0.62 KCAL/MOL
REMARK 927      BINDING AFFINITY PREDICTED BY RF-SCORE:    0.00 PKD
ROOT
HETATM    1  O   UNL     1     -12.952  11.126  71.258  1.00  0.00    -0.391 OA 
HETATM    2  H   UNL     1     -13.219  11.562  72.058  1.00  0.00     0.000 HD 
HETATM    3  C   UNL     1     -12.262   9.932  71.549  1.00  0.00    -0.416 C  
HETATM    4  N   UNL     1     -11.855   9.267  70.328  1.00  0.00    -0.469 NA 
HETATM    5  H   UNL     1     -12.303   9.512  69.444  1.00  0.00     0.000 HD 
HETATM    6  C   UNL     1     -10.934   8.371  70.348  1.00  0.00    -0.239 C  
HETATM    7  C   UNL     1      -8.904   7.619  71.587  1.00  0.00    -0.135 A  
HETATM    8  C   UNL     1     -10.285   7.873  71.608  1.00  0.00    -0.239 A  
HETATM    9 CL   UNL     1      -6.603   6.677  72.632  1.00  0.00    -0.062 Cl 
HETATM   10  C   UNL     1     -11.029   7.579  72.770  1.00  0.00    -0.359 A  
HETATM   11  N   UNL     1     -12.393   7.864  72.941  1.00  0.00    -0.550 N  
HETATM   12  C   UNL     1     -10.394   6.956  73.853  1.00  0.00    -0.398 A  
HETATM   13  O   UNL     1     -14.291   9.030  72.633  1.00  0.00    -0.603 OA 
HETATM   14  C   UNL     1      -9.025   6.686  73.814  1.00  0.00    -0.160 A  
HETATM   15  C   UNL     1     -13.091   8.912  72.380  1.00  0.00    -0.418 C  
HETATM   16  C   UNL     1      -8.286   7.025  72.686  1.00  0.00    -0.108 A  
HETATM   17  H   UNL     1     -12.921   7.232  73.542  1.00  0.00     0.000 HD 
ENDROOT
BRANCH   6  18
HETATM   18  C   UNL     1     -10.524   7.779  69.016  1.00  0.00    -0.215 A  
HETATM   19  C   UNL     1      -9.795   6.589  66.563  1.00  0.00    -0.169 A  
HETATM   20  C   UNL     1     -10.664   5.930  67.425  1.00  0.00    -0.370 A  
HETATM   21  C   UNL     1      -9.649   8.441  68.130  1.00  0.00    -0.143 A  
HETATM   22  C   UNL     1     -11.044   6.529  68.631  1.00  0.00    -0.348 A  
HETATM   23  C   UNL     1      -9.301   7.846  66.909  1.00  0.00    -0.209 A  
HETATM   24 CL   UNL     1      -8.883   9.958  68.464  1.00  0.00    -0.120 Cl 
ENDBRANCH   6  18
TORSDOF 1
ENDMDL
MODEL       43
REMARK 921   NORMALIZED FREE ENERGY PREDICTED BY IDOCK:   -5.77 KCAL/MOL
REMARK 922        TOTAL FREE ENERGY PREDICTED BY IDOCK:   -6.73 KCAL/MOL
REMARK 923 INTER-LIGAND FREE ENERGY PREDICTED BY IDOCK:   -6.14 KCAL/MOL
REMARK 924 INTRA-LIGAND FREE ENERGY PREDICTED BY IDOCK:   -0.59 KCAL/MOL
REMARK 927      BINDING AFFINITY PREDICTED BY RF-SCORE:    0.00 PKD
ROOT
HETATM    1  O   UNL     1     -14.401   7.429  70.864  1.00  0.00    -0.584 OA 
HETATM    2  H   UNL     1     -15.325   7.581  71.022  1.00  0.00     0.000 HD 
HETATM    3  C   UNL     1     -13.674   8.631  70.977  1.00  0.00     0.107 C  
HETATM    4  N   UNL     1     -12.264   8.400  70.735  1.00  0.00    -0.496 NA 
HETATM    5  H   UNL     1     -11.889   7.453  70.796  1.00  0.00     0.000 HD 
HETATM    6  C   UNL     1     -11.482   9.378  70.446  1.00  0.00    -0.223 C  
HETATM    7  C   UNL     1     -11.419  11.648  69.414  1.00  0.00    -0.372 A  
HETATM    8  C   UNL     1     -11.919  10.815  70.428  1.00  0.00    -0.448 A  
HETATM    9 CL   UNL     1     -11.030  14.034  68.218  1.00  0.00    -0.261 Cl 
HETATM   10  C   UNL     1     -12.738  11.363  71.438  1.00  0.00    -0.384 A  
HETATM   11  N   UNL     1     -13.363  10.620  72.452  1.00  0.00    -0.524 N  
HETATM   12  C   UNL     1     -12.969  12.745  71.461  1.00  0.00    -0.388 A  
HETATM   13  O   UNL     1     -14.338   8.804  73.351  1.00  0.00    -0.108 OA 
HETATM   14  C   UNL     1     -12.448  13.569  70.461  1.00  0.00    -0.373 A  
HETATM   15  C   UNL     1     -13.801   9.317  72.367  1.00  0.00    -0.416 C  
HETATM   16  C   UNL     1     -11.683  13.016  69.440  1.00  0.00    -0.326 A  
HETATM   17  H   UNL     1     -13.507  11.094  73.344  1.00  0.00     0.000 HD 
ENDROOT
BRANCH   6  18
HETATM   18  C   UNL     1     -10.040   9.034  70.140  1.00  0.00    -0.220 A  
HETATM   19  C   UNL     1      -7.325   8.434  69.657  1.00  0.00    -0.072 A  
HETATM   20  C   UNL     1      -7.742   8.795  70.933  1.00  0.00    -0.121 A  
HETATM   21  C   UNL     1      -9.606   8.661  68.852  1.00  0.00    -0.159 A  
HETATM   22  C   UNL     1      -9.091   9.070  71.180  1.00  0.00    -0.316 A  
HETATM   23  C   UNL     1      -8.257   8.354  68.624  1.00  0.00    -0.123 A  
HETATM   24 CL   UNL     1     -10.626   8.611  67.453  1.00  0.00    -0.338 Cl 
ENDBRANCH   6  18
TORSDOF 1
ENDMDL
MODEL       44
REMARK 921   NORMALIZED FREE ENERGY PREDICTED BY IDOCK:   -5.76 KCAL/MOL
REMARK 922        TOTAL FREE ENERGY PREDICTED BY IDOCK:   -6.72 KCAL/MOL
REMARK 923 INTER-LIGAND FREE ENERGY PREDICTED BY IDOCK:   -6.11 KCAL/MOL
REMARK 924 INTRA-LIGAND FREE ENERGY PREDICTED BY IDOCK:   -0.61 KCAL/MOL
REMARK 927      BINDING AFFINITY PREDICTED BY RF-SCORE:    0.00 PKD
ROOT
HETATM    1  O   UNL     1     -11.314  11.836  64.088  1.00  0.00    -0.351 OA 
HETATM    2  H   UNL     1     -11.133  12.276  63.266  1.00  0.00     0.000 HD 
HETATM    3  C   UNL     1     -11.041  12.688  65.177  1.00  0.00    -0.294 C  
HETATM    4  N   UNL     1     -11.317  12.018  66.431  1.00  0.00    -0.341 NA 
HETATM    5  H   UNL     1     -11.909  11.186  66.441  1.00  0.00     0.000 HD 
HETATM    6  C   UNL     1     -10.823  12.462  67.531  1.00  0.00    -0.236 C  
HETATM    7  C   UNL     1      -8.911  13.745  68.490  1.00  0.00    -0.116 A  
HETATM    8  C   UNL     1     -10.023  13.729  67.633  1.00  0.00    -0.238 A  
HETATM    9 CL   UNL     1      -6.891  14.952  69.808  1.00  0.00    -0.176 Cl 
HETATM   10  C   UNL     1     -10.403  14.912  66.965  1.00  0.00    -0.264 A  
HETATM   11  N   UNL     1     -11.441  15.002  66.023  1.00  0.00    -0.279 N  
HETATM   12  C   UNL     1      -9.718  16.104  67.235  1.00  0.00    -0.233 A  
HETATM   13  O   UNL     1     -12.789  14.247  64.389  1.00  0.00    -0.619 OA 
HETATM   14  C   UNL     1      -8.627  16.115  68.106  1.00  0.00    -0.177 A  
HETATM   15  C   UNL     1     -11.861  14.009  65.165  1.00  0.00    -0.365 C  
HETATM   16  C   UNL     1      -8.225  14.935  68.723  1.00  0.00    -0.161 A  
HETATM   17  H   UNL     1     -11.935  15.892  65.970  1.00  0.00     0.000 HD 
ENDROOT
BRANCH   6  18
HETATM   18  C   UNL     1     -11.106  11.658  68.783  1.00  0.00    -0.283 A  
HETATM   19  C   UNL     1     -11.676  10.241  71.156  1.00  0.00    -0.430 A  
HETATM   20  C   UNL     1     -12.291  11.464  70.911  1.00  0.00    -0.483 A  
HETATM   21  C   UNL     1     -10.495  10.414  69.040  1.00  0.00    -0.219 A  
HETATM   22  C   UNL     1     -12.027  12.157  69.725  1.00  0.00    -0.372 A  
HETATM   23  C   UNL     1     -10.793   9.713  70.217  1.00  0.00    -0.339 A  
HETATM   24 CL   UNL     1      -9.308   9.678  68.015  1.00  0.00    -0.139 Cl 
ENDBRANCH   6  18
TORSDOF 1
ENDMDL
MODEL       45
REMARK 921   NORMALIZED FREE ENERGY PREDICTED BY IDOCK:   -5.76 KCAL/MOL
REMARK 922        TOTAL FREE ENERGY PREDICTED BY IDOCK:   -6.72 KCAL/MOL
REMARK 923 INTER-LIGAND FREE ENERGY PREDICTED BY IDOCK:   -6.09 KCAL/MOL
REMARK 924 INTRA-LIGAND FREE ENERGY PREDICTED BY IDOCK:   -0.63 KCAL/MOL
REMARK 927      BINDING AFFINITY PREDICTED BY RF-SCORE:    0.00 PKD
ROOT
HETATM    1  O   UNL     1     -12.960  11.499  71.662  1.00  0.00    -0.437 OA 
HETATM    2  H   UNL     1     -13.759  11.957  71.893  1.00  0.00     0.000 HD 
HETATM    3  C   UNL     1     -12.421  12.013  70.465  1.00  0.00    -0.207 C  
HETATM    4  N   UNL     1     -11.202  11.314  70.113  1.00  0.00    -0.490 NA 
HETATM    5  H   UNL     1     -10.705  10.773  70.822  1.00  0.00     0.000 HD 
HETATM    6  C   UNL     1     -10.740  11.371  68.915  1.00  0.00    -0.210 C  
HETATM    7  C   UNL     1     -11.401  11.686  66.531  1.00  0.00    -0.331 A  
HETATM    8  C   UNL     1     -11.343  12.216  67.830  1.00  0.00    -0.371 A  
HETATM    9 CL   UNL     1     -11.846  11.839  63.875  1.00  0.00    -0.476 Cl 
HETATM   10  C   UNL     1     -11.768  13.542  68.060  1.00  0.00    -0.359 A  
HETATM   11  N   UNL     1     -11.835  14.153  69.322  1.00  0.00    -0.317 N  
HETATM   12  C   UNL     1     -12.159  14.336  66.974  1.00  0.00    -0.424 A  
HETATM   13  O   UNL     1     -12.118  14.211  71.552  1.00  0.00    -0.314 OA 
HETATM   14  C   UNL     1     -12.192  13.807  65.682  1.00  0.00    -0.484 A  
HETATM   15  C   UNL     1     -12.086  13.531  70.526  1.00  0.00    -0.335 C  
HETATM   16  C   UNL     1     -11.820  12.485  65.469  1.00  0.00    -0.439 A  
HETATM   17  H   UNL     1     -11.681  15.161  69.352  1.00  0.00     0.000 HD 
ENDROOT
BRANCH   6  18
HETATM   18  C   UNL     1      -9.501  10.553  68.620  1.00  0.00    -0.172 A  
HETATM   19  C   UNL     1      -7.240   8.946  68.097  1.00  0.00    -0.079 A  
HETATM   20  C   UNL     1      -8.482   8.355  68.299  1.00  0.00    -0.135 A  
HETATM   21  C   UNL     1      -8.237  11.140  68.407  1.00  0.00    -0.144 A  
HETATM   22  C   UNL     1      -9.608   9.151  68.535  1.00  0.00    -0.156 A  
HETATM   23  C   UNL     1      -7.122  10.334  68.137  1.00  0.00    -0.082 A  
HETATM   24 CL   UNL     1      -7.917  12.838  68.520  1.00  0.00    -0.129 Cl 
ENDBRANCH   6  18
TORSDOF 1
ENDMDL
MODEL       46
REMARK 921   NORMALIZED FREE ENERGY PREDICTED BY IDOCK:   -5.76 KCAL/MOL
REMARK 922        TOTAL FREE ENERGY PREDICTED BY IDOCK:   -6.72 KCAL/MOL
REMARK 923 INTER-LIGAND FREE ENERGY PREDICTED BY IDOCK:   -6.15 KCAL/MOL
REMARK 924 INTRA-LIGAND FREE ENERGY PREDICTED BY IDOCK:   -0.57 KCAL/MOL
REMARK 927      BINDING AFFINITY PREDICTED BY RF-SCORE:    0.00 PKD
ROOT
HETATM    1  O   UNL     1      -5.256  14.650  67.466  1.00  0.00    -0.335 OA 
HETATM    2  H   UNL     1      -4.859  13.787  67.446  1.00  0.00     0.000 HD 
HETATM    3  C   UNL     1      -6.661  14.551  67.457  1.00  0.00    -0.116 C  
HETATM    4  N   UNL     1      -7.266  15.867  67.489  1.00  0.00    -0.158 NA 
HETATM    5  H   UNL     1      -6.714  16.671  67.789  1.00  0.00     0.000 HD 
HETATM    6  C   UNL     1      -8.493  16.030  67.142  1.00  0.00    -0.196 C  
HETATM    7  C   UNL     1     -10.309  15.088  65.715  1.00  0.00    -0.354 A  
HETATM    8  C   UNL     1      -9.413  14.899  66.779  1.00  0.00    -0.269 A  
HETATM    9 CL   UNL     1     -12.394  14.384  64.157  1.00  0.00    -0.444 Cl 
HETATM   10  C   UNL     1      -9.459  13.701  67.523  1.00  0.00    -0.222 A  
HETATM   11  N   UNL     1      -8.565  13.363  68.552  1.00  0.00    -0.316 N  
HETATM   12  C   UNL     1     -10.455  12.756  67.243  1.00  0.00    -0.238 A  
HETATM   13  O   UNL     1      -6.586  13.356  69.620  1.00  0.00    -0.094 OA 
HETATM   14  C   UNL     1     -11.356  12.963  66.197  1.00  0.00    -0.356 A  
HETATM   15  C   UNL     1      -7.244  13.742  68.652  1.00  0.00    -0.109 C  
HETATM   16  C   UNL     1     -11.274  14.123  65.435  1.00  0.00    -0.325 A  
HETATM   17  H   UNL     1      -8.930  12.776  69.301  1.00  0.00     0.000 HD 
ENDROOT
BRANCH   6  18
HETATM   18  C   UNL     1      -9.020  17.449  67.138  1.00  0.00    -0.248 A  
HETATM   19  C   UNL     1      -9.923  20.122  67.079  1.00  0.00    -0.596 A  
HETATM   20  C   UNL     1      -8.878  19.722  66.254  1.00  0.00    -0.417 A  
HETATM   21  C   UNL     1     -10.084  17.865  67.964  1.00  0.00    -0.358 A  
HETATM   22  C   UNL     1      -8.444  18.392  66.265  1.00  0.00    -0.218 A  
HETATM   23  C   UNL     1     -10.532  19.193  67.920  1.00  0.00    -0.492 A  
HETATM   24 CL   UNL     1     -10.873  16.852  69.126  1.00  0.00    -0.289 Cl 
ENDBRANCH   6  18
TORSDOF 1
ENDMDL
MODEL       47
REMARK 921   NORMALIZED FREE ENERGY PREDICTED BY IDOCK:   -5.76 KCAL/MOL
REMARK 922        TOTAL FREE ENERGY PREDICTED BY IDOCK:   -6.71 KCAL/MOL
REMARK 923 INTER-LIGAND FREE ENERGY PREDICTED BY IDOCK:   -6.14 KCAL/MOL
REMARK 924 INTRA-LIGAND FREE ENERGY PREDICTED BY IDOCK:   -0.58 KCAL/MOL
REMARK 927      BINDING AFFINITY PREDICTED BY RF-SCORE:    0.00 PKD
ROOT
HETATM    1  O   UNL     1      -8.193  10.752  68.924  1.00  0.00    -0.135 OA 
HETATM    2  H   UNL     1      -7.739  10.125  68.374  1.00  0.00     0.000 HD 
HETATM    3  C   UNL     1      -9.242  11.368  68.213  1.00  0.00    -0.183 C  
HETATM    4  N   UNL     1      -9.934  12.325  69.052  1.00  0.00    -0.417 NA 
HETATM    5  H   UNL     1      -9.832  12.276  70.067  1.00  0.00     0.000 HD 
HETATM    6  C   UNL     1     -10.677  13.234  68.530  1.00  0.00    -0.262 C  
HETATM    7  C   UNL     1     -11.013  14.602  66.471  1.00  0.00    -0.318 A  
HETATM    8  C   UNL     1     -10.968  13.328  67.059  1.00  0.00    -0.291 A  
HETATM    9 CL   UNL     1     -11.510  16.316  64.449  1.00  0.00    -0.323 Cl 
HETATM   10  C   UNL     1     -11.276  12.192  66.281  1.00  0.00    -0.334 A  
HETATM   11  N   UNL     1     -11.187  10.865  66.731  1.00  0.00    -0.137 N  
HETATM   12  C   UNL     1     -11.707  12.361  64.958  1.00  0.00    -0.420 A  
HETATM   13  O   UNL     1     -10.349   9.174  67.954  1.00  0.00    -0.207 OA 
HETATM   14  C   UNL     1     -11.771  13.635  64.389  1.00  0.00    -0.444 A  
HETATM   15  C   UNL     1     -10.305  10.372  67.668  1.00  0.00    -0.219 C  
HETATM   16  C   UNL     1     -11.417  14.747  65.145  1.00  0.00    -0.371 A  
HETATM   17  H   UNL     1     -11.841  10.198  66.323  1.00  0.00     0.000 HD 
ENDROOT
BRANCH   6  18
HETATM   18  C   UNL     1     -11.305  14.234  69.477  1.00  0.00    -0.315 A  
HETATM   19  C   UNL     1     -12.564  16.053  71.230  1.00  0.00    -0.239 A  
HETATM   20  C   UNL     1     -13.221  14.891  70.843  1.00  0.00    -0.420 A  
HETATM   21  C   UNL     1     -10.646  15.412  69.882  1.00  0.00    -0.303 A  
HETATM   22  C   UNL     1     -12.590  13.977  69.993  1.00  0.00    -0.250 A  
HETATM   23  C   UNL     1     -11.275  16.305  70.762  1.00  0.00    -0.293 A  
HETATM   24 CL   UNL     1      -9.087  15.906  69.311  1.00  0.00    -0.253 Cl 
ENDBRANCH   6  18
TORSDOF 1
ENDMDL
MODEL       48
REMARK 921   NORMALIZED FREE ENERGY PREDICTED BY IDOCK:   -5.73 KCAL/MOL
REMARK 922        TOTAL FREE ENERGY PREDICTED BY IDOCK:   -6.69 KCAL/MOL
REMARK 923 INTER-LIGAND FREE ENERGY PREDICTED BY IDOCK:   -6.19 KCAL/MOL
REMARK 924 INTRA-LIGAND FREE ENERGY PREDICTED BY IDOCK:   -0.50 KCAL/MOL
REMARK 927      BINDING AFFINITY PREDICTED BY RF-SCORE:    0.00 PKD
ROOT
HETATM    1  O   UNL     1      -8.635  15.897  68.553  1.00  0.00    -0.174 OA 
HETATM    2  H   UNL     1      -8.560  16.369  69.375  1.00  0.00     0.000 HD 
HETATM    3  C   UNL     1      -9.564  14.844  68.668  1.00  0.00    -0.222 C  
HETATM    4  N   UNL     1      -9.679  14.126  67.415  1.00  0.00    -0.228 NA 
HETATM    5  H   UNL     1      -9.354  14.560  66.551  1.00  0.00     0.000 HD 
HETATM    6  C   UNL     1     -10.187  12.946  67.384  1.00  0.00    -0.230 C  
HETATM    7  C   UNL     1     -10.547  10.887  68.746  1.00  0.00    -0.231 A  
HETATM    8  C   UNL     1     -10.780  12.262  68.583  1.00  0.00    -0.261 A  
HETATM    9 CL   UNL     1     -10.932   8.493  69.926  1.00  0.00    -0.210 Cl 
HETATM   10  C   UNL     1     -11.623  12.937  69.491  1.00  0.00    -0.282 A  
HETATM   11  N   UNL     1     -11.866  14.320  69.481  1.00  0.00    -0.308 N  
HETATM   12  C   UNL     1     -12.283  12.207  70.489  1.00  0.00    -0.392 A  
HETATM   13  O   UNL     1     -11.356  16.482  69.130  1.00  0.00    -0.268 OA 
HETATM   14  C   UNL     1     -12.062  10.836  70.629  1.00  0.00    -0.467 A  
HETATM   15  C   UNL     1     -10.994  15.306  69.072  1.00  0.00    -0.254 C  
HETATM   16  C   UNL     1     -11.191  10.185  69.762  1.00  0.00    -0.272 A  
HETATM   17  H   UNL     1     -12.781  14.627  69.811  1.00  0.00     0.000 HD 
ENDROOT
BRANCH   6  18
HETATM   18  C   UNL     1     -10.202  12.242  66.043  1.00  0.00    -0.267 A  
HETATM   19  C   UNL     1     -10.132  10.915  63.554  1.00  0.00    -0.406 A  
HETATM   20  C   UNL     1      -9.053  10.817  64.425  1.00  0.00    -0.217 A  
HETATM   21  C   UNL     1     -11.293  12.328  65.154  1.00  0.00    -0.329 A  
HETATM   22  C   UNL     1      -9.096  11.455  65.669  1.00  0.00    -0.173 A  
HETATM   23  C   UNL     1     -11.253  11.656  63.924  1.00  0.00    -0.479 A  
HETATM   24 CL   UNL     1     -12.709  13.285  65.434  1.00  0.00    -0.521 Cl 
ENDBRANCH   6  18
TORSDOF 1
ENDMDL
MODEL       49
REMARK 921   NORMALIZED FREE ENERGY PREDICTED BY IDOCK:   -5.71 KCAL/MOL
REMARK 922        TOTAL FREE ENERGY PREDICTED BY IDOCK:   -6.66 KCAL/MOL
REMARK 923 INTER-LIGAND FREE ENERGY PREDICTED BY IDOCK:   -6.18 KCAL/MOL
REMARK 924 INTRA-LIGAND FREE ENERGY PREDICTED BY IDOCK:   -0.48 KCAL/MOL
REMARK 927      BINDING AFFINITY PREDICTED BY RF-SCORE:    0.00 PKD
ROOT
HETATM    1  O   UNL     1     -13.724  13.777  71.778  1.00  0.00    -0.370 OA 
HETATM    2  H   UNL     1     -14.216  14.490  72.166  1.00  0.00     0.000 HD 
HETATM    3  C   UNL     1     -12.749  14.271  70.889  1.00  0.00    -0.357 C  
HETATM    4  N   UNL     1     -11.998  13.182  70.298  1.00  0.00    -0.482 NA 
HETATM    5  H   UNL     1     -12.012  12.260  70.737  1.00  0.00     0.000 HD 
HETATM    6  C   UNL     1     -11.316  13.366  69.225  1.00  0.00    -0.257 C  
HETATM    7  C   UNL     1     -11.179  14.755  67.157  1.00  0.00    -0.346 A  
HETATM    8  C   UNL     1     -11.156  14.704  68.560  1.00  0.00    -0.273 A  
HETATM    9 CL   UNL     1     -10.882  15.989  64.777  1.00  0.00    -0.417 Cl 
HETATM   10  C   UNL     1     -10.902  15.882  69.294  1.00  0.00    -0.276 A  
HETATM   11  N   UNL     1     -10.935  15.974  70.695  1.00  0.00    -0.304 N  
HETATM   12  C   UNL     1     -10.590  17.064  68.610  1.00  0.00    -0.362 A  
HETATM   13  O   UNL     1     -11.641  15.440  72.762  1.00  0.00    -0.460 OA 
HETATM   14  C   UNL     1     -10.593  17.100  67.215  1.00  0.00    -0.270 A  
HETATM   15  C   UNL     1     -11.725  15.237  71.550  1.00  0.00    -0.391 C  
HETATM   16  C   UNL     1     -10.894  15.948  66.496  1.00  0.00    -0.198 A  
HETATM   17  H   UNL     1     -10.310  16.657  71.124  1.00  0.00     0.000 HD 
ENDROOT
BRANCH   6  18
HETATM   18  C   UNL     1     -10.621  12.156  68.638  1.00  0.00    -0.248 A  
HETATM   19  C   UNL     1      -9.406   9.846  67.563  1.00  0.00    -0.159 A  
HETATM   20  C   UNL     1     -10.776   9.866  67.800  1.00  0.00    -0.332 A  
HETATM   21  C   UNL     1      -9.234  12.126  68.387  1.00  0.00    -0.154 A  
HETATM   22  C   UNL     1     -11.384  11.018  68.311  1.00  0.00    -0.366 A  
HETATM   23  C   UNL     1      -8.641  10.977  67.843  1.00  0.00    -0.133 A  
HETATM   24 CL   UNL     1      -8.143  13.415  68.770  1.00  0.00    -0.027 Cl 
ENDBRANCH   6  18
TORSDOF 1
ENDMDL
MODEL       50
REMARK 921   NORMALIZED FREE ENERGY PREDICTED BY IDOCK:   -5.68 KCAL/MOL
REMARK 922        TOTAL FREE ENERGY PREDICTED BY IDOCK:   -6.64 KCAL/MOL
REMARK 923 INTER-LIGAND FREE ENERGY PREDICTED BY IDOCK:   -6.04 KCAL/MOL
REMARK 924 INTRA-LIGAND FREE ENERGY PREDICTED BY IDOCK:   -0.60 KCAL/MOL
REMARK 927      BINDING AFFINITY PREDICTED BY RF-SCORE:    0.00 PKD
ROOT
HETATM    1  O   UNL     1     -10.908  18.504  65.384  1.00  0.00    -0.570 OA 
HETATM    2  H   UNL     1     -10.529  19.340  65.141  1.00  0.00     0.000 HD 
HETATM    3  C   UNL     1     -10.104  17.855  66.343  1.00  0.00    -0.369 C  
HETATM    4  N   UNL     1     -10.682  16.580  66.715  1.00  0.00    -0.219 NA 
HETATM    5  H   UNL     1     -11.665  16.392  66.516  1.00  0.00     0.000 HD 
HETATM    6  C   UNL     1      -9.966  15.682  67.292  1.00  0.00    -0.236 C  
HETATM    7  C   UNL     1      -7.629  14.844  67.541  1.00  0.00    -0.218 A  
HETATM    8  C   UNL     1      -8.539  15.899  67.713  1.00  0.00    -0.164 A  
HETATM    9 CL   UNL     1      -5.241  13.634  67.866  1.00  0.00    -0.104 Cl 
HETATM   10  C   UNL     1      -8.116  17.087  68.345  1.00  0.00    -0.245 A  
HETATM   11  N   UNL     1      -8.906  18.238  68.500  1.00  0.00    -0.310 N  
HETATM   12  C   UNL     1      -6.818  17.162  68.869  1.00  0.00    -0.221 A  
HETATM   13  O   UNL     1     -10.504  19.711  67.925  1.00  0.00    -0.426 OA 
HETATM   14  C   UNL     1      -5.927  16.098  68.713  1.00  0.00    -0.110 A  
HETATM   15  C   UNL     1      -9.901  18.673  67.651  1.00  0.00    -0.320 C  
HETATM   16  C   UNL     1      -6.334  14.949  68.044  1.00  0.00    -0.152 A  
HETATM   17  H   UNL     1      -8.726  18.810  69.324  1.00  0.00     0.000 HD 
ENDROOT
BRANCH   6  18
HETATM   18  C   UNL     1     -10.632  14.354  67.580  1.00  0.00    -0.265 A  
HETATM   19  C   UNL     1     -11.853  11.889  68.213  1.00  0.00    -0.343 A  
HETATM   20  C   UNL     1     -11.539  12.790  69.224  1.00  0.00    -0.372 A  
HETATM   21  C   UNL     1     -10.963  13.436  66.563  1.00  0.00    -0.290 A  
HETATM   22  C   UNL     1     -10.954  14.022  68.910  1.00  0.00    -0.283 A  
HETATM   23  C   UNL     1     -11.579  12.218  66.886  1.00  0.00    -0.427 A  
HETATM   24 CL   UNL     1     -10.598  13.662  64.885  1.00  0.00    -0.394 Cl 
ENDBRANCH   6  18
TORSDOF 1
ENDMDL
MODEL       51
REMARK 921   NORMALIZED FREE ENERGY PREDICTED BY IDOCK:   -5.66 KCAL/MOL
REMARK 922        TOTAL FREE ENERGY PREDICTED BY IDOCK:   -6.62 KCAL/MOL
REMARK 923 INTER-LIGAND FREE ENERGY PREDICTED BY IDOCK:   -6.00 KCAL/MOL
REMARK 924 INTRA-LIGAND FREE ENERGY PREDICTED BY IDOCK:   -0.62 KCAL/MOL
REMARK 927      BINDING AFFINITY PREDICTED BY RF-SCORE:    0.00 PKD
ROOT
HETATM    1  O   UNL     1     -12.688  14.165  70.989  1.00  0.00    -0.324 OA 
HETATM    2  H   UNL     1     -12.530  14.029  71.916  1.00  0.00     0.000 HD 
HETATM    3  C   UNL     1     -11.908  13.281  70.217  1.00  0.00    -0.234 C  
HETATM    4  N   UNL     1     -12.149  13.488  68.804  1.00  0.00    -0.326 NA 
HETATM    5  H   UNL     1     -12.988  13.983  68.500  1.00  0.00     0.000 HD 
HETATM    6  C   UNL     1     -11.315  13.053  67.929  1.00  0.00    -0.288 C  
HETATM    7  C   UNL     1      -8.914  12.480  67.567  1.00  0.00    -0.185 A  
HETATM    8  C   UNL     1     -10.104  12.231  68.269  1.00  0.00    -0.218 A  
HETATM    9 CL   UNL     1      -6.371  11.938  66.852  1.00  0.00    -0.141 Cl 
HETATM   10  C   UNL     1     -10.153  11.173  69.202  1.00  0.00    -0.112 A  
HETATM   11  N   UNL     1     -11.255  10.879  70.022  1.00  0.00    -0.390 N  
HETATM   12  C   UNL     1      -9.041  10.334  69.349  1.00  0.00    -0.203 A  
HETATM   13  O   UNL     1     -13.087  11.361  71.233  1.00  0.00    -0.342 OA 
HETATM   14  C   UNL     1      -7.869  10.576  68.630  1.00  0.00    -0.116 A  
HETATM   15  C   UNL     1     -12.174  11.778  70.519  1.00  0.00    -0.347 C  
HETATM   16  C   UNL     1      -7.809  11.650  67.749  1.00  0.00    -0.129 A  
HETATM   17  H   UNL     1     -11.390   9.901  70.274  1.00  0.00     0.000 HD 
ENDROOT
BRANCH   6  18
HETATM   18  C   UNL     1     -11.610  13.376  66.480  1.00  0.00    -0.394 A  
HETATM   19  C   UNL     1     -12.169  13.881  63.760  1.00  0.00    -0.310 A  
HETATM   20  C   UNL     1     -12.392  12.617  64.293  1.00  0.00    -0.517 A  
HETATM   21  C   UNL     1     -11.396  14.656  65.929  1.00  0.00    -0.338 A  
HETATM   22  C   UNL     1     -12.137  12.371  65.646  1.00  0.00    -0.396 A  
HETATM   23  C   UNL     1     -11.686  14.900  64.579  1.00  0.00    -0.388 A  
HETATM   24 CL   UNL     1     -10.713  15.991  66.796  1.00  0.00    -0.298 Cl 
ENDBRANCH   6  18
TORSDOF 1
ENDMDL
MODEL       52
REMARK 921   NORMALIZED FREE ENERGY PREDICTED BY IDOCK:   -5.63 KCAL/MOL
REMARK 922        TOTAL FREE ENERGY PREDICTED BY IDOCK:   -6.58 KCAL/MOL
REMARK 923 INTER-LIGAND FREE ENERGY PREDICTED BY IDOCK:   -6.03 KCAL/MOL
REMARK 924 INTRA-LIGAND FREE ENERGY PREDICTED BY IDOCK:   -0.55 KCAL/MOL
REMARK 927      BINDING AFFINITY PREDICTED BY RF-SCORE:    0.00 PKD
ROOT
HETATM    1  O   UNL     1     -12.426  13.530  69.309  1.00  0.00    -0.189 OA 
HETATM    2  H   UNL     1     -12.586  14.131  68.590  1.00  0.00     0.000 HD 
HETATM    3  C   UNL     1     -11.590  12.474  68.897  1.00  0.00    -0.318 C  
HETATM    4  N   UNL     1     -11.345  11.559  69.993  1.00  0.00    -0.492 NA 
HETATM    5  H   UNL     1     -11.518  11.860  70.952  1.00  0.00     0.000 HD 
HETATM    6  C   UNL     1     -10.913  10.370  69.766  1.00  0.00    -0.293 C  
HETATM    7  C   UNL     1     -10.876   8.546  68.064  1.00  0.00    -0.022 A  
HETATM    8  C   UNL     1     -10.537   9.867  68.401  1.00  0.00    -0.258 A  
HETATM    9 CL   UNL     1     -10.809   6.361  66.485  1.00  0.00    -0.222 Cl 
HETATM   10  C   UNL     1      -9.789  10.646  67.494  1.00  0.00    -0.168 A  
HETATM   11  N   UNL     1      -9.462  11.999  67.681  1.00  0.00    -0.180 N  
HETATM   12  C   UNL     1      -9.322  10.062  66.309  1.00  0.00    -0.213 A  
HETATM   13  O   UNL     1      -9.782  14.094  68.433  1.00  0.00    -0.217 OA 
HETATM   14  C   UNL     1      -9.645   8.741  65.992  1.00  0.00    -0.297 A  
HETATM   15  C   UNL     1     -10.205  12.939  68.361  1.00  0.00    -0.237 C  
HETATM   16  C   UNL     1     -10.425   7.993  66.868  1.00  0.00    -0.317 A  
HETATM   17  H   UNL     1      -8.585  12.319  67.271  1.00  0.00     0.000 HD 
ENDROOT
BRANCH   6  18
HETATM   18  C   UNL     1     -10.754   9.459  70.965  1.00  0.00    -0.407 A  
HETATM   19  C   UNL     1     -10.363   7.742  73.171  1.00  0.00    -0.403 A  
HETATM   20  C   UNL     1      -9.271   8.195  72.439  1.00  0.00    -0.292 A  
HETATM   21  C   UNL     1     -11.852   8.999  71.718  1.00  0.00    -0.372 A  
HETATM   22  C   UNL     1      -9.461   9.064  71.359  1.00  0.00    -0.334 A  
HETATM   23  C   UNL     1     -11.647   8.154  72.820  1.00  0.00    -0.371 A  
HETATM   24 CL   UNL     1     -13.507   9.347  71.347  1.00  0.00    -0.424 Cl 
ENDBRANCH   6  18
TORSDOF 1
ENDMDL
MODEL       53
REMARK 921   NORMALIZED FREE ENERGY PREDICTED BY IDOCK:   -5.61 KCAL/MOL
REMARK 922        TOTAL FREE ENERGY PREDICTED BY IDOCK:   -6.56 KCAL/MOL
REMARK 923 INTER-LIGAND FREE ENERGY PREDICTED BY IDOCK:   -5.94 KCAL/MOL
REMARK 924 INTRA-LIGAND FREE ENERGY PREDICTED BY IDOCK:   -0.62 KCAL/MOL
REMARK 927      BINDING AFFINITY PREDICTED BY RF-SCORE:    0.00 PKD
ROOT
HETATM    1  O   UNL     1      -7.375  14.413  70.199  1.00  0.00    -0.389 OA 
HETATM    2  H   UNL     1      -6.712  14.789  70.767  1.00  0.00     0.000 HD 
HETATM    3  C   UNL     1      -7.551  15.207  69.049  1.00  0.00    -0.162 C  
HETATM    4  N   UNL     1      -8.561  14.634  68.183  1.00  0.00    -0.159 NA 
HETATM    5  H   UNL     1      -8.828  13.655  68.294  1.00  0.00     0.000 HD 
HETATM    6  C   UNL     1      -9.125  15.348  67.275  1.00  0.00    -0.206 C  
HETATM    7  C   UNL     1      -9.751  17.686  66.674  1.00  0.00    -0.304 A  
HETATM    8  C   UNL     1      -8.733  16.766  66.969  1.00  0.00    -0.226 A  
HETATM    9 CL   UNL     1     -10.682  20.078  65.846  1.00  0.00    -0.475 Cl 
HETATM   10  C   UNL     1      -7.384  17.171  66.889  1.00  0.00    -0.207 A  
HETATM   11  N   UNL     1      -6.285  16.370  67.238  1.00  0.00    -0.168 N  
HETATM   12  C   UNL     1      -7.080  18.460  66.431  1.00  0.00    -0.272 A  
HETATM   13  O   UNL     1      -5.208  14.769  68.394  1.00  0.00    -0.097 OA 
HETATM   14  C   UNL     1      -8.099  19.362  66.118  1.00  0.00    -0.323 A  
HETATM   15  C   UNL     1      -6.259  15.384  68.201  1.00  0.00    -0.127 C  
HETATM   16  C   UNL     1      -9.428  18.973  66.247  1.00  0.00    -0.314 A  
HETATM   17  H   UNL     1      -5.418  16.533  66.727  1.00  0.00     0.000 HD 
ENDROOT
BRANCH   6  18
HETATM   18  C   UNL     1     -10.219  14.687  66.464  1.00  0.00    -0.282 A  
HETATM   19  C   UNL     1     -12.205  13.470  64.870  1.00  0.00    -0.447 A  
HETATM   20  C   UNL     1     -10.936  13.695  64.349  1.00  0.00    -0.379 A  
HETATM   21  C   UNL     1     -11.507  14.446  66.983  1.00  0.00    -0.361 A  
HETATM   22  C   UNL     1      -9.943  14.278  65.145  1.00  0.00    -0.266 A  
HETATM   23  C   UNL     1     -12.484  13.831  66.187  1.00  0.00    -0.466 A  
HETATM   24 CL   UNL     1     -12.029  14.925  68.564  1.00  0.00    -0.314 Cl 
ENDBRANCH   6  18
TORSDOF 1
ENDMDL
MODEL       54
REMARK 921   NORMALIZED FREE ENERGY PREDICTED BY IDOCK:   -5.60 KCAL/MOL
REMARK 922        TOTAL FREE ENERGY PREDICTED BY IDOCK:   -6.55 KCAL/MOL
REMARK 923 INTER-LIGAND FREE ENERGY PREDICTED BY IDOCK:   -6.00 KCAL/MOL
REMARK 924 INTRA-LIGAND FREE ENERGY PREDICTED BY IDOCK:   -0.55 KCAL/MOL
REMARK 927      BINDING AFFINITY PREDICTED BY RF-SCORE:    0.00 PKD
ROOT
HETATM    1  O   UNL     1     -10.776  16.548  64.835  1.00  0.00    -0.702 OA 
HETATM    2  H   UNL     1     -10.305  16.729  64.031  1.00  0.00     0.000 HD 
HETATM    3  C   UNL     1      -9.888  16.140  65.850  1.00  0.00    -0.353 C  
HETATM    4  N   UNL     1     -10.606  15.864  67.077  1.00  0.00    -0.308 NA 
HETATM    5  H   UNL     1     -11.550  16.231  67.205  1.00  0.00     0.000 HD 
HETATM    6  C   UNL     1     -10.065  15.160  68.007  1.00  0.00    -0.222 C  
HETATM    7  C   UNL     1      -8.385  13.367  68.435  1.00  0.00    -0.137 A  
HETATM    8  C   UNL     1      -8.650  14.659  67.954  1.00  0.00    -0.165 A  
HETATM    9 CL   UNL     1      -6.756  11.346  69.168  1.00  0.00    -0.096 Cl 
HETATM   10  C   UNL     1      -7.582  15.472  67.519  1.00  0.00    -0.175 A  
HETATM   11  N   UNL     1      -7.727  16.744  66.943  1.00  0.00    -0.194 N  
HETATM   12  C   UNL     1      -6.266  15.008  67.656  1.00  0.00    -0.134 A  
HETATM   13  O   UNL     1      -8.762  18.337  65.741  1.00  0.00    -0.453 OA 
HETATM   14  C   UNL     1      -6.012  13.730  68.157  1.00  0.00    -0.123 A  
HETATM   15  C   UNL     1      -8.786  17.187  66.181  1.00  0.00    -0.185 C  
HETATM   16  C   UNL     1      -7.072  12.914  68.536  1.00  0.00    -0.102 A  
HETATM   17  H   UNL     1      -6.971  17.409  67.106  1.00  0.00     0.000 HD 
ENDROOT
BRANCH   6  18
HETATM   18  C   UNL     1     -10.915  14.862  69.224  1.00  0.00    -0.279 A  
HETATM   19  C   UNL     1     -12.447  14.375  71.543  1.00  0.00    -0.430 A  
HETATM   20  C   UNL     1     -11.633  15.500  71.470  1.00  0.00    -0.487 A  
HETATM   21  C   UNL     1     -11.750  13.729  69.307  1.00  0.00    -0.327 A  
HETATM   22  C   UNL     1     -10.891  15.755  70.313  1.00  0.00    -0.363 A  
HETATM   23  C   UNL     1     -12.515  13.501  70.460  1.00  0.00    -0.373 A  
HETATM   24 CL   UNL     1     -11.865  12.509  68.084  1.00  0.00    -0.391 Cl 
ENDBRANCH   6  18
TORSDOF 1
ENDMDL
MODEL       55
REMARK 921   NORMALIZED FREE ENERGY PREDICTED BY IDOCK:   -5.57 KCAL/MOL
REMARK 922        TOTAL FREE ENERGY PREDICTED BY IDOCK:   -6.51 KCAL/MOL
REMARK 923 INTER-LIGAND FREE ENERGY PREDICTED BY IDOCK:   -5.93 KCAL/MOL
REMARK 924 INTRA-LIGAND FREE ENERGY PREDICTED BY IDOCK:   -0.58 KCAL/MOL
REMARK 927      BINDING AFFINITY PREDICTED BY RF-SCORE:    0.00 PKD
ROOT
HETATM    1  O   UNL     1     -11.277   5.628  66.800  1.00  0.00    -0.501 OA 
HETATM    2  H   UNL     1     -10.765   5.061  66.235  1.00  0.00     0.000 HD 
HETATM    3  C   UNL     1     -10.675   5.738  68.069  1.00  0.00    -0.209 C  
HETATM    4  N   UNL     1     -11.456   6.602  68.931  1.00  0.00    -0.602 NA 
HETATM    5  H   UNL     1     -12.139   7.241  68.522  1.00  0.00     0.000 HD 
HETATM    6  C   UNL     1     -11.296   6.571  70.205  1.00  0.00    -0.395 C  
HETATM    7  C   UNL     1     -10.596   5.102  72.096  1.00  0.00    -0.273 A  
HETATM    8  C   UNL     1     -10.251   5.737  70.892  1.00  0.00    -0.275 A  
HETATM    9 CL   UNL     1     -10.045   3.699  74.333  1.00  0.00    -0.191 Cl 
HETATM   10  C   UNL     1      -8.928   5.647  70.412  1.00  0.00    -0.140 A  
HETATM   11  N   UNL     1      -8.484   6.168  69.185  1.00  0.00    -0.118 N  
HETATM   12  C   UNL     1      -7.958   4.998  71.188  1.00  0.00    -0.101 A  
HETATM   13  O   UNL     1      -8.688   6.777  67.031  1.00  0.00    -0.112 OA 
HETATM   14  C   UNL     1      -8.305   4.388  72.395  1.00  0.00    -0.109 A  
HETATM   15  C   UNL     1      -9.227   6.304  68.033  1.00  0.00    -0.116 C  
HETATM   16  C   UNL     1      -9.622   4.437  72.839  1.00  0.00    -0.132 A  
HETATM   17  H   UNL     1      -7.513   6.477  69.143  1.00  0.00     0.000 HD 
ENDROOT
BRANCH   6  18
HETATM   18  C   UNL     1     -12.204   7.456  71.032  1.00  0.00    -0.315 A  
HETATM   19  C   UNL     1     -13.974   9.048  72.547  1.00  0.00    -0.472 A  
HETATM   20  C   UNL     1     -14.386   7.808  72.074  1.00  0.00    -0.472 A  
HETATM   21  C   UNL     1     -11.796   8.712  71.524  1.00  0.00    -0.306 A  
HETATM   22  C   UNL     1     -13.502   7.007  71.343  1.00  0.00    -0.323 A  
HETATM   23  C   UNL     1     -12.680   9.492  72.285  1.00  0.00    -0.388 A  
HETATM   24 CL   UNL     1     -10.257   9.436  71.199  1.00  0.00    -0.379 Cl 
ENDBRANCH   6  18
TORSDOF 1
ENDMDL
MODEL       56
REMARK 921   NORMALIZED FREE ENERGY PREDICTED BY IDOCK:   -5.52 KCAL/MOL
REMARK 922        TOTAL FREE ENERGY PREDICTED BY IDOCK:   -6.47 KCAL/MOL
REMARK 923 INTER-LIGAND FREE ENERGY PREDICTED BY IDOCK:   -5.85 KCAL/MOL
REMARK 924 INTRA-LIGAND FREE ENERGY PREDICTED BY IDOCK:   -0.62 KCAL/MOL
REMARK 927      BINDING AFFINITY PREDICTED BY RF-SCORE:    0.00 PKD
ROOT
HETATM    1  O   UNL     1     -14.397   8.252  72.656  1.00  0.00    -0.731 OA 
HETATM    2  H   UNL     1     -15.027   8.799  72.201  1.00  0.00     0.000 HD 
HETATM    3  C   UNL     1     -13.254   8.044  71.860  1.00  0.00    -0.301 C  
HETATM    4  N   UNL     1     -12.293   7.210  72.554  1.00  0.00    -0.492 NA 
HETATM    5  H   UNL     1     -12.361   7.095  73.566  1.00  0.00     0.000 HD 
HETATM    6  C   UNL     1     -11.357   6.614  71.906  1.00  0.00    -0.279 C  
HETATM    7  C   UNL     1     -10.756   5.673  69.676  1.00  0.00    -0.398 A  
HETATM    8  C   UNL     1     -11.116   6.798  70.434  1.00  0.00    -0.357 A  
HETATM    9 CL   UNL     1      -9.905   4.441  67.432  1.00  0.00    -0.215 Cl 
HETATM   10  C   UNL     1     -11.159   8.067  69.820  1.00  0.00    -0.064 A  
HETATM   11  N   UNL     1     -11.582   9.248  70.450  1.00  0.00    -0.415 N  
HETATM   12  C   UNL     1     -10.756   8.197  68.484  1.00  0.00    -0.061 A  
HETATM   13  O   UNL     1     -12.790  10.471  71.901  1.00  0.00    -0.444 OA 
HETATM   14  C   UNL     1     -10.378   7.076  67.743  1.00  0.00    -0.255 A  
HETATM   15  C   UNL     1     -12.522   9.355  71.452  1.00  0.00    -0.352 C  
HETATM   16  C   UNL     1     -10.387   5.820  68.340  1.00  0.00    -0.213 A  
HETATM   17  H   UNL     1     -11.150  10.116  70.134  1.00  0.00     0.000 HD 
ENDROOT
BRANCH   6  18
HETATM   18  C   UNL     1     -10.442   5.708  72.702  1.00  0.00    -0.249 A  
HETATM   19  C   UNL     1      -8.818   3.968  74.219  1.00  0.00    -0.095 A  
HETATM   20  C   UNL     1     -10.154   3.655  73.995  1.00  0.00    -0.198 A  
HETATM   21  C   UNL     1      -9.085   6.011  72.930  1.00  0.00    -0.131 A  
HETATM   22  C   UNL     1     -10.955   4.504  73.224  1.00  0.00    -0.369 A  
HETATM   23  C   UNL     1      -8.283   5.134  73.676  1.00  0.00    -0.109 A  
HETATM   24 CL   UNL     1      -8.306   7.465  72.402  1.00  0.00    -0.117 Cl 
ENDBRANCH   6  18
TORSDOF 1
ENDMDL
MODEL       57
REMARK 921   NORMALIZED FREE ENERGY PREDICTED BY IDOCK:   -5.51 KCAL/MOL
REMARK 922        TOTAL FREE ENERGY PREDICTED BY IDOCK:   -6.45 KCAL/MOL
REMARK 923 INTER-LIGAND FREE ENERGY PREDICTED BY IDOCK:   -5.84 KCAL/MOL
REMARK 924 INTRA-LIGAND FREE ENERGY PREDICTED BY IDOCK:   -0.61 KCAL/MOL
REMARK 927      BINDING AFFINITY PREDICTED BY RF-SCORE:    0.00 PKD
ROOT
HETATM    1  O   UNL     1     -13.793   9.173  70.934  1.00  0.00    -0.590 OA 
HETATM    2  H   UNL     1     -14.646   9.546  71.126  1.00  0.00     0.000 HD 
HETATM    3  C   UNL     1     -12.998  10.091  70.220  1.00  0.00     0.117 C  
HETATM    4  N   UNL     1     -11.698   9.522  69.929  1.00  0.00    -0.448 NA 
HETATM    5  H   UNL     1     -11.369   8.714  70.458  1.00  0.00     0.000 HD 
HETATM    6  C   UNL     1     -10.955  10.027  69.010  1.00  0.00    -0.212 C  
HETATM    7  C   UNL     1     -11.016  11.312  66.872  1.00  0.00    -0.348 A  
HETATM    8  C   UNL     1     -11.308  11.272  68.245  1.00  0.00    -0.359 A  
HETATM    9 CL   UNL     1     -10.792  12.543  64.483  1.00  0.00    -0.337 Cl 
HETATM   10  C   UNL     1     -11.839  12.416  68.877  1.00  0.00    -0.301 A  
HETATM   11  N   UNL     1     -12.247  12.472  70.219  1.00  0.00    -0.310 N  
HETATM   12  C   UNL     1     -11.984  13.601  68.143  1.00  0.00    -0.390 A  
HETATM   13  O   UNL     1     -13.079  11.647  72.139  1.00  0.00    -0.457 OA 
HETATM   14  C   UNL     1     -11.670  13.638  66.783  1.00  0.00    -0.426 A  
HETATM   15  C   UNL     1     -12.761  11.435  70.967  1.00  0.00    -0.349 C  
HETATM   16  C   UNL     1     -11.194  12.492  66.154  1.00  0.00    -0.321 A  
HETATM   17  H   UNL     1     -12.154  13.372  70.689  1.00  0.00     0.000 HD 
ENDROOT
BRANCH   6  18
HETATM   18  C   UNL     1      -9.645   9.325  68.725  1.00  0.00    -0.157 A  
HETATM   19  C   UNL     1      -7.153   8.096  68.231  1.00  0.00    -0.081 A  
HETATM   20  C   UNL     1      -7.226   9.215  69.053  1.00  0.00    -0.072 A  
HETATM   21  C   UNL     1      -9.558   8.187  67.899  1.00  0.00    -0.155 A  
HETATM   22  C   UNL     1      -8.463   9.812  69.318  1.00  0.00    -0.152 A  
HETATM   23  C   UNL     1      -8.316   7.576  67.668  1.00  0.00    -0.118 A  
HETATM   24 CL   UNL     1     -10.899   7.487  67.055  1.00  0.00    -0.378 Cl 
ENDBRANCH   6  18
TORSDOF 1
ENDMDL
MODEL       58
REMARK 921   NORMALIZED FREE ENERGY PREDICTED BY IDOCK:   -5.48 KCAL/MOL
REMARK 922        TOTAL FREE ENERGY PREDICTED BY IDOCK:   -6.42 KCAL/MOL
REMARK 923 INTER-LIGAND FREE ENERGY PREDICTED BY IDOCK:   -6.10 KCAL/MOL
REMARK 924 INTRA-LIGAND FREE ENERGY PREDICTED BY IDOCK:   -0.32 KCAL/MOL
REMARK 927      BINDING AFFINITY PREDICTED BY RF-SCORE:    0.00 PKD
ROOT
HETATM    1  O   UNL     1      -8.565  10.422  65.991  1.00  0.00    -0.141 OA 
HETATM    2  H   UNL     1      -8.190  10.854  65.233  1.00  0.00     0.000 HD 
HETATM    3  C   UNL     1      -9.564  11.225  66.576  1.00  0.00    -0.191 C  
HETATM    4  N   UNL     1     -10.136  10.566  67.733  1.00  0.00    -0.170 NA 
HETATM    5  H   UNL     1     -10.014   9.560  67.854  1.00  0.00     0.000 HD 
HETATM    6  C   UNL     1     -10.797  11.237  68.607  1.00  0.00    -0.204 C  
HETATM    7  C   UNL     1     -11.045  13.505  69.615  1.00  0.00    -0.043 A  
HETATM    8  C   UNL     1     -11.113  12.700  68.467  1.00  0.00    -0.300 A  
HETATM    9 CL   UNL     1     -11.418  15.798  70.985  1.00  0.00    -0.409 Cl 
HETATM   10  C   UNL     1     -11.553  13.259  67.249  1.00  0.00    -0.359 A  
HETATM   11  N   UNL     1     -11.586  12.579  66.021  1.00  0.00    -0.384 N  
HETATM   12  C   UNL     1     -11.998  14.588  67.225  1.00  0.00    -0.375 A  
HETATM   13  O   UNL     1     -10.892  11.079  64.497  1.00  0.00    -0.313 OA 
HETATM   14  C   UNL     1     -11.947  15.376  68.377  1.00  0.00    -0.156 A  
HETATM   15  C   UNL     1     -10.735  11.575  65.614  1.00  0.00    -0.267 C  
HETATM   16  C   UNL     1     -11.465  14.833  69.563  1.00  0.00    -0.298 A  
HETATM   17  H   UNL     1     -12.314  12.857  65.363  1.00  0.00     0.000 HD 
ENDROOT
BRANCH   6  18
HETATM   18  C   UNL     1     -11.298  10.480  69.818  1.00  0.00    -0.367 A  
HETATM   19  C   UNL     1     -12.316   9.120  72.072  1.00  0.00    -0.448 A  
HETATM   20  C   UNL     1     -13.165   9.879  71.274  1.00  0.00    -0.465 A  
HETATM   21  C   UNL     1     -10.448   9.702  70.630  1.00  0.00    -0.312 A  
HETATM   22  C   UNL     1     -12.667  10.535  70.144  1.00  0.00    -0.191 A  
HETATM   23  C   UNL     1     -10.966   9.021  71.742  1.00  0.00    -0.443 A  
HETATM   24 CL   UNL     1      -8.737   9.561  70.402  1.00  0.00    -0.266 Cl 
ENDBRANCH   6  18
TORSDOF 1
ENDMDL
MODEL       59
REMARK 921   NORMALIZED FREE ENERGY PREDICTED BY IDOCK:   -5.46 KCAL/MOL
REMARK 922        TOTAL FREE ENERGY PREDICTED BY IDOCK:   -6.40 KCAL/MOL
REMARK 923 INTER-LIGAND FREE ENERGY PREDICTED BY IDOCK:   -5.99 KCAL/MOL
REMARK 924 INTRA-LIGAND FREE ENERGY PREDICTED BY IDOCK:   -0.42 KCAL/MOL
REMARK 927      BINDING AFFINITY PREDICTED BY RF-SCORE:    0.00 PKD
ROOT
HETATM    1  O   UNL     1     -13.077  14.456  69.623  1.00  0.00    -0.332 OA 
HETATM    2  H   UNL     1     -13.200  13.605  70.026  1.00  0.00     0.000 HD 
HETATM    3  C   UNL     1     -11.744  14.615  69.196  1.00  0.00    -0.309 C  
HETATM    4  N   UNL     1     -11.557  15.914  68.580  1.00  0.00    -0.376 NA 
HETATM    5  H   UNL     1     -12.368  16.442  68.256  1.00  0.00     0.000 HD 
HETATM    6  C   UNL     1     -10.378  16.405  68.438  1.00  0.00    -0.282 C  
HETATM    7  C   UNL     1      -8.075  16.383  69.395  1.00  0.00    -0.003 A  
HETATM    8  C   UNL     1      -9.120  15.665  68.792  1.00  0.00    -0.208 A  
HETATM    9 CL   UNL     1      -5.555  16.675  70.310  1.00  0.00    -0.208 Cl 
HETATM   10  C   UNL     1      -8.930  14.306  68.463  1.00  0.00    -0.185 A  
HETATM   11  N   UNL     1      -9.923  13.464  67.935  1.00  0.00    -0.229 N  
HETATM   12  C   UNL     1      -7.673  13.719  68.663  1.00  0.00    -0.120 A  
HETATM   13  O   UNL     1     -12.024  12.721  67.633  1.00  0.00    -0.354 OA 
HETATM   14  C   UNL     1      -6.633  14.449  69.242  1.00  0.00    -0.122 A  
HETATM   15  C   UNL     1     -11.278  13.543  68.170  1.00  0.00    -0.272 C  
HETATM   16  C   UNL     1      -6.841  15.773  69.611  1.00  0.00    -0.169 A  
HETATM   17  H   UNL     1      -9.608  12.718  67.315  1.00  0.00     0.000 HD 
ENDROOT
BRANCH   6  18
HETATM   18  C   UNL     1     -10.283  17.797  67.849  1.00  0.00    -0.362 A  
HETATM   19  C   UNL     1     -10.125  20.429  66.843  1.00  0.00    -0.503 A  
HETATM   20  C   UNL     1     -10.136  20.208  68.216  1.00  0.00    -0.471 A  
HETATM   21  C   UNL     1     -10.263  18.033  66.460  1.00  0.00    -0.382 A  
HETATM   22  C   UNL     1     -10.191  18.903  68.716  1.00  0.00    -0.325 A  
HETATM   23  C   UNL     1     -10.174  19.344  65.969  1.00  0.00    -0.540 A  
HETATM   24 CL   UNL     1     -10.413  16.797  65.256  1.00  0.00    -0.234 Cl 
ENDBRANCH   6  18
TORSDOF 1
ENDMDL
MODEL       60
REMARK 921   NORMALIZED FREE ENERGY PREDICTED BY IDOCK:   -5.46 KCAL/MOL
REMARK 922        TOTAL FREE ENERGY PREDICTED BY IDOCK:   -6.40 KCAL/MOL
REMARK 923 INTER-LIGAND FREE ENERGY PREDICTED BY IDOCK:   -5.82 KCAL/MOL
REMARK 924 INTRA-LIGAND FREE ENERGY PREDICTED BY IDOCK:   -0.58 KCAL/MOL
REMARK 927      BINDING AFFINITY PREDICTED BY RF-SCORE:    0.00 PKD
ROOT
HETATM    1  O   UNL     1      -9.502   8.301  65.355  1.00  0.00    -0.402 OA 
HETATM    2  H   UNL     1      -9.342   7.365  65.393  1.00  0.00     0.000 HD 
HETATM    3  C   UNL     1      -9.585   8.842  66.653  1.00  0.00    -0.219 C  
HETATM    4  N   UNL     1      -9.829  10.269  66.596  1.00  0.00    -0.196 NA 
HETATM    5  H   UNL     1      -9.642  10.781  65.733  1.00  0.00     0.000 HD 
HETATM    6  C   UNL     1     -10.279  10.896  67.624  1.00  0.00    -0.183 C  
HETATM    7  C   UNL     1     -11.632  10.617  69.702  1.00  0.00    -0.368 A  
HETATM    8  C   UNL     1     -10.494  10.252  68.964  1.00  0.00    -0.238 A  
HETATM    9 CL   UNL     1     -13.173  10.643  71.915  1.00  0.00    -0.567 Cl 
HETATM   10  C   UNL     1      -9.553   9.366  69.530  1.00  0.00    -0.180 A  
HETATM   11  N   UNL     1      -8.424   8.864  68.863  1.00  0.00    -0.129 N  
HETATM   12  C   UNL     1      -9.725   8.934  70.852  1.00  0.00    -0.300 A  
HETATM   13  O   UNL     1      -7.244   8.174  67.077  1.00  0.00    -0.080 OA 
HETATM   14  C   UNL     1     -10.848   9.321  71.586  1.00  0.00    -0.418 A  
HETATM   15  C   UNL     1      -8.306   8.623  67.511  1.00  0.00    -0.120 C  
HETATM   16  C   UNL     1     -11.798  10.154  71.005  1.00  0.00    -0.383 A  
HETATM   17  H   UNL     1      -7.607   8.657  69.437  1.00  0.00     0.000 HD 
ENDROOT
BRANCH   6  18
HETATM   18  C   UNL     1     -10.572  12.372  67.453  1.00  0.00    -0.237 A  
HETATM   19  C   UNL     1     -11.192  15.099  67.072  1.00  0.00    -0.308 A  
HETATM   20  C   UNL     1     -12.090  14.117  66.667  1.00  0.00    -0.480 A  
HETATM   21  C   UNL     1      -9.673  13.376  67.865  1.00  0.00    -0.226 A  
HETATM   22  C   UNL     1     -11.795  12.766  66.876  1.00  0.00    -0.440 A  
HETATM   23  C   UNL     1      -9.994  14.729  67.681  1.00  0.00    -0.226 A  
HETATM   24 CL   UNL     1      -8.110  13.069  68.547  1.00  0.00    -0.122 Cl 
ENDBRANCH   6  18
TORSDOF 1
ENDMDL
MODEL       61
REMARK 921   NORMALIZED FREE ENERGY PREDICTED BY IDOCK:   -5.42 KCAL/MOL
REMARK 922        TOTAL FREE ENERGY PREDICTED BY IDOCK:   -6.36 KCAL/MOL
REMARK 923 INTER-LIGAND FREE ENERGY PREDICTED BY IDOCK:   -5.79 KCAL/MOL
REMARK 924 INTRA-LIGAND FREE ENERGY PREDICTED BY IDOCK:   -0.57 KCAL/MOL
REMARK 927      BINDING AFFINITY PREDICTED BY RF-SCORE:    0.00 PKD
ROOT
HETATM    1  O   UNL     1     -11.170   5.998  67.140  1.00  0.00    -0.538 OA 
HETATM    2  H   UNL     1     -11.770   5.265  67.208  1.00  0.00     0.000 HD 
HETATM    3  C   UNL     1     -11.153   6.739  68.339  1.00  0.00    -0.136 C  
HETATM    4  N   UNL     1     -10.238   7.858  68.235  1.00  0.00    -0.199 NA 
HETATM    5  H   UNL     1      -9.523   7.861  67.507  1.00  0.00     0.000 HD 
HETATM    6  C   UNL     1     -10.319   8.845  69.053  1.00  0.00    -0.212 C  
HETATM    7  C   UNL     1     -11.899  10.107  70.514  1.00  0.00    -0.408 A  
HETATM    8  C   UNL     1     -11.270   8.887  70.216  1.00  0.00    -0.219 A  
HETATM    9 CL   UNL     1     -13.407  11.738  72.043  1.00  0.00    -0.543 Cl 
HETATM   10  C   UNL     1     -11.480   7.773  71.055  1.00  0.00    -0.281 A  
HETATM   11  N   UNL     1     -10.975   6.484  70.816  1.00  0.00    -0.259 N  
HETATM   12  C   UNL     1     -12.243   7.924  72.220  1.00  0.00    -0.333 A  
HETATM   13  O   UNL     1     -10.292   4.761  69.543  1.00  0.00    -0.196 OA 
HETATM   14  C   UNL     1     -12.846   9.147  72.521  1.00  0.00    -0.387 A  
HETATM   15  C   UNL     1     -10.735   5.910  69.586  1.00  0.00    -0.345 C  
HETATM   16  C   UNL     1     -12.677  10.229  71.664  1.00  0.00    -0.456 A  
HETATM   17  H   UNL     1     -10.764   5.916  71.635  1.00  0.00     0.000 HD 
ENDROOT
BRANCH   6  18
HETATM   18  C   UNL     1      -9.369  10.002  68.827  1.00  0.00    -0.162 A  
HETATM   19  C   UNL     1      -7.545  12.129  68.484  1.00  0.00    -0.124 A  
HETATM   20  C   UNL     1      -7.228  11.069  69.326  1.00  0.00    -0.124 A  
HETATM   21  C   UNL     1      -9.676  11.079  67.971  1.00  0.00    -0.172 A  
HETATM   22  C   UNL     1      -8.121  10.002  69.479  1.00  0.00    -0.166 A  
HETATM   23  C   UNL     1      -8.759  12.126  67.799  1.00  0.00    -0.171 A  
HETATM   24 CL   UNL     1     -11.179  11.261  67.130  1.00  0.00    -0.362 Cl 
ENDBRANCH   6  18
TORSDOF 1
ENDMDL
MODEL       62
REMARK 921   NORMALIZED FREE ENERGY PREDICTED BY IDOCK:   -5.41 KCAL/MOL
REMARK 922        TOTAL FREE ENERGY PREDICTED BY IDOCK:   -6.35 KCAL/MOL
REMARK 923 INTER-LIGAND FREE ENERGY PREDICTED BY IDOCK:   -5.72 KCAL/MOL
REMARK 924 INTRA-LIGAND FREE ENERGY PREDICTED BY IDOCK:   -0.63 KCAL/MOL
REMARK 927      BINDING AFFINITY PREDICTED BY RF-SCORE:    0.00 PKD
ROOT
HETATM    1  O   UNL     1      -6.108  12.950  68.350  1.00  0.00    -0.065 OA 
HETATM    2  H   UNL     1      -5.429  12.628  67.768  1.00  0.00     0.000 HD 
HETATM    3  C   UNL     1      -7.380  12.785  67.768  1.00  0.00    -0.130 C  
HETATM    4  N   UNL     1      -8.415  13.277  68.654  1.00  0.00    -0.349 NA 
HETATM    5  H   UNL     1      -8.211  13.411  69.646  1.00  0.00     0.000 HD 
HETATM    6  C   UNL     1      -9.588  13.545  68.203  1.00  0.00    -0.215 C  
HETATM    7  C   UNL     1     -10.831  14.242  66.156  1.00  0.00    -0.310 A  
HETATM    8  C   UNL     1     -10.013  13.290  66.785  1.00  0.00    -0.263 A  
HETATM    9 CL   UNL     1     -12.400  15.135  64.152  1.00  0.00    -0.322 Cl 
HETATM   10  C   UNL     1      -9.687  12.097  66.107  1.00  0.00    -0.240 A  
HETATM   11  N   UNL     1      -8.814  11.111  66.596  1.00  0.00    -0.161 N  
HETATM   12  C   UNL     1     -10.255  11.842  64.852  1.00  0.00    -0.315 A  
HETATM   13  O   UNL     1      -7.053  10.336  67.760  1.00  0.00    -0.083 OA 
HETATM   14  C   UNL     1     -11.086  12.785  64.244  1.00  0.00    -0.410 A  
HETATM   15  C   UNL     1      -7.728  11.309  67.420  1.00  0.00    -0.128 C  
HETATM   16  C   UNL     1     -11.364  13.982  64.895  1.00  0.00    -0.354 A  
HETATM   17  H   UNL     1      -9.004  10.150  66.313  1.00  0.00     0.000 HD 
ENDROOT
BRANCH   6  18
HETATM   18  C   UNL     1     -10.585  14.121  69.186  1.00  0.00    -0.176 A  
HETATM   19  C   UNL     1     -12.380  15.269  71.037  1.00  0.00    -0.426 A  
HETATM   20  C   UNL     1     -11.301  16.008  70.564  1.00  0.00    -0.420 A  
HETATM   21  C   UNL     1     -11.687  13.385  69.668  1.00  0.00    -0.310 A  
HETATM   22  C   UNL     1     -10.423  15.448  69.629  1.00  0.00    -0.286 A  
HETATM   23  C   UNL     1     -12.580  13.968  70.579  1.00  0.00    -0.399 A  
HETATM   24 CL   UNL     1     -12.010  11.732  69.265  1.00  0.00    -0.363 Cl 
ENDBRANCH   6  18
TORSDOF 1
ENDMDL
MODEL       63
REMARK 921   NORMALIZED FREE ENERGY PREDICTED BY IDOCK:   -5.41 KCAL/MOL
REMARK 922        TOTAL FREE ENERGY PREDICTED BY IDOCK:   -6.35 KCAL/MOL
REMARK 923 INTER-LIGAND FREE ENERGY PREDICTED BY IDOCK:   -5.76 KCAL/MOL
REMARK 924 INTRA-LIGAND FREE ENERGY PREDICTED BY IDOCK:   -0.59 KCAL/MOL
REMARK 927      BINDING AFFINITY PREDICTED BY RF-SCORE:    0.00 PKD
ROOT
HETATM    1  O   UNL     1     -11.089  12.040  65.075  1.00  0.00    -0.303 OA 
HETATM    2  H   UNL     1     -11.724  11.372  64.845  1.00  0.00     0.000 HD 
HETATM    3  C   UNL     1     -11.087  12.265  66.466  1.00  0.00    -0.299 C  
HETATM    4  N   UNL     1     -10.118  13.284  66.817  1.00  0.00    -0.253 NA 
HETATM    5  H   UNL     1      -9.375  13.524  66.160  1.00  0.00     0.000 HD 
HETATM    6  C   UNL     1     -10.187  13.888  67.949  1.00  0.00    -0.241 C  
HETATM    7  C   UNL     1     -11.767  14.587  69.749  1.00  0.00    -0.356 A  
HETATM    8  C   UNL     1     -11.183  13.539  69.020  1.00  0.00    -0.314 A  
HETATM    9 CL   UNL     1     -13.261  15.597  71.755  1.00  0.00    -0.548 Cl 
HETATM   10  C   UNL     1     -11.477  12.203  69.363  1.00  0.00    -0.290 A  
HETATM   11  N   UNL     1     -11.022  11.076  68.660  1.00  0.00    -0.204 N  
HETATM   12  C   UNL     1     -12.279  11.942  70.482  1.00  0.00    -0.426 A  
HETATM   13  O   UNL     1     -10.367   9.931  66.839  1.00  0.00    -0.230 OA 
HETATM   14  C   UNL     1     -12.838  12.991  71.216  1.00  0.00    -0.370 A  
HETATM   15  C   UNL     1     -10.758  11.000  67.309  1.00  0.00    -0.265 C  
HETATM   16  C   UNL     1     -12.585  14.306  70.841  1.00  0.00    -0.356 A  
HETATM   17  H   UNL     1     -10.870  10.227  69.204  1.00  0.00     0.000 HD 
ENDROOT
BRANCH   6  18
HETATM   18  C   UNL     1      -9.178  14.987  68.202  1.00  0.00    -0.183 A  
HETATM   19  C   UNL     1      -7.249  16.976  68.739  1.00  0.00    -0.226 A  
HETATM   20  C   UNL     1      -7.035  15.668  69.158  1.00  0.00    -0.166 A  
HETATM   21  C   UNL     1      -9.380  16.315  67.777  1.00  0.00    -0.216 A  
HETATM   22  C   UNL     1      -7.979  14.676  68.873  1.00  0.00    -0.149 A  
HETATM   23  C   UNL     1      -8.411  17.295  68.039  1.00  0.00    -0.228 A  
HETATM   24 CL   UNL     1     -10.812  16.880  66.983  1.00  0.00    -0.137 Cl 
ENDBRANCH   6  18
TORSDOF 1
ENDMDL
MODEL       64
REMARK 921   NORMALIZED FREE ENERGY PREDICTED BY IDOCK:   -5.38 KCAL/MOL
REMARK 922        TOTAL FREE ENERGY PREDICTED BY IDOCK:   -6.32 KCAL/MOL
REMARK 923 INTER-LIGAND FREE ENERGY PREDICTED BY IDOCK:   -5.72 KCAL/MOL
REMARK 924 INTRA-LIGAND FREE ENERGY PREDICTED BY IDOCK:   -0.60 KCAL/MOL
REMARK 927      BINDING AFFINITY PREDICTED BY RF-SCORE:    0.00 PKD
ROOT
HETATM    1  O   UNL     1     -10.290  10.043  64.494  1.00  0.00    -0.349 OA 
HETATM    2  H   UNL     1     -10.428   9.124  64.296  1.00  0.00     0.000 HD 
HETATM    3  C   UNL     1     -10.215  10.245  65.887  1.00  0.00    -0.223 C  
HETATM    4  N   UNL     1     -10.006  11.646  66.189  1.00  0.00    -0.214 NA 
HETATM    5  H   UNL     1      -9.661  12.275  65.462  1.00  0.00     0.000 HD 
HETATM    6  C   UNL     1     -10.250  12.104  67.364  1.00  0.00    -0.198 C  
HETATM    7  C   UNL     1     -11.642  11.740  69.402  1.00  0.00    -0.386 A  
HETATM    8  C   UNL     1     -10.666  11.243  68.523  1.00  0.00    -0.235 A  
HETATM    9 CL   UNL     1     -13.122  11.679  71.656  1.00  0.00    -0.527 Cl 
HETATM   10  C   UNL     1     -10.050  10.004  68.796  1.00  0.00    -0.185 A  
HETATM   11  N   UNL     1      -9.125   9.367  67.953  1.00  0.00    -0.130 N  
HETATM   12  C   UNL     1     -10.360   9.330  69.985  1.00  0.00    -0.245 A  
HETATM   13  O   UNL     1      -8.199   8.819  65.979  1.00  0.00    -0.110 OA 
HETATM   14  C   UNL     1     -11.315   9.843  70.865  1.00  0.00    -0.446 A  
HETATM   15  C   UNL     1      -9.075   9.445  66.579  1.00  0.00    -0.153 C  
HETATM   16  C   UNL     1     -11.956  11.040  70.565  1.00  0.00    -0.379 A  
HETATM   17  H   UNL     1      -8.418   8.787  68.405  1.00  0.00     0.000 HD 
ENDROOT
BRANCH   6  18
HETATM   18  C   UNL     1     -10.071  13.594  67.570  1.00  0.00    -0.237 A  
HETATM   19  C   UNL     1      -9.673  16.350  68.028  1.00  0.00    -0.235 A  
HETATM   20  C   UNL     1      -8.803  15.419  68.585  1.00  0.00    -0.186 A  
HETATM   21  C   UNL     1     -10.942  14.547  67.006  1.00  0.00    -0.312 A  
HETATM   22  C   UNL     1      -8.985  14.054  68.340  1.00  0.00    -0.189 A  
HETATM   23  C   UNL     1     -10.729  15.916  67.230  1.00  0.00    -0.306 A  
HETATM   24 CL   UNL     1     -12.349  14.156  66.074  1.00  0.00    -0.476 Cl 
ENDBRANCH   6  18
TORSDOF 1
ENDMDL
MODEL       65
REMARK 921   NORMALIZED FREE ENERGY PREDICTED BY IDOCK:   -5.38 KCAL/MOL
REMARK 922        TOTAL FREE ENERGY PREDICTED BY IDOCK:   -6.31 KCAL/MOL
REMARK 923 INTER-LIGAND FREE ENERGY PREDICTED BY IDOCK:   -5.69 KCAL/MOL
REMARK 924 INTRA-LIGAND FREE ENERGY PREDICTED BY IDOCK:   -0.63 KCAL/MOL
REMARK 927      BINDING AFFINITY PREDICTED BY RF-SCORE:    0.00 PKD
ROOT
HETATM    1  O   UNL     1     -12.268  12.177  70.535  1.00  0.00    -0.356 OA 
HETATM    2  H   UNL     1     -13.213  12.235  70.609  1.00  0.00     0.000 HD 
HETATM    3  C   UNL     1     -11.841  12.619  69.267  1.00  0.00    -0.302 C  
HETATM    4  N   UNL     1     -10.399  12.530  69.154  1.00  0.00    -0.422 NA 
HETATM    5  H   UNL     1      -9.829  12.456  69.997  1.00  0.00     0.000 HD 
HETATM    6  C   UNL     1      -9.833  12.545  68.000  1.00  0.00    -0.214 C  
HETATM    7  C   UNL     1     -10.185  11.993  65.593  1.00  0.00    -0.284 A  
HETATM    8  C   UNL     1     -10.576  12.748  66.710  1.00  0.00    -0.266 A  
HETATM    9 CL   UNL     1     -10.232  11.347  62.975  1.00  0.00    -0.337 Cl 
HETATM   10  C   UNL     1     -11.586  13.724  66.572  1.00  0.00    -0.365 A  
HETATM   11  N   UNL     1     -12.118  14.481  67.628  1.00  0.00    -0.588 N  
HETATM   12  C   UNL     1     -12.120  13.985  65.303  1.00  0.00    -0.415 A  
HETATM   13  O   UNL     1     -12.740  14.869  69.754  1.00  0.00    -0.174 OA 
HETATM   14  C   UNL     1     -11.708  13.244  64.193  1.00  0.00    -0.470 A  
HETATM   15  C   UNL     1     -12.244  14.085  68.942  1.00  0.00    -0.226 C  
HETATM   16  C   UNL     1     -10.750  12.248  64.345  1.00  0.00    -0.331 A  
HETATM   17  H   UNL     1     -12.444  15.420  67.399  1.00  0.00     0.000 HD 
ENDROOT
BRANCH   6  18
HETATM   18  C   UNL     1      -8.329  12.376  67.973  1.00  0.00    -0.170 A  
HETATM   19  C   UNL     1      -5.535  11.977  67.974  1.00  0.00    -0.052 A  
HETATM   20  C   UNL     1      -6.387  10.934  68.319  1.00  0.00    -0.056 A  
HETATM   21  C   UNL     1      -7.455  13.424  67.618  1.00  0.00    -0.178 A  
HETATM   22  C   UNL     1      -7.773  11.123  68.297  1.00  0.00    -0.116 A  
HETATM   23  C   UNL     1      -6.068  13.212  67.611  1.00  0.00    -0.149 A  
HETATM   24 CL   UNL     1      -7.963  15.035  67.238  1.00  0.00    -0.218 Cl 
ENDBRANCH   6  18
TORSDOF 1
ENDMDL
MODEL       66
REMARK 921   NORMALIZED FREE ENERGY PREDICTED BY IDOCK:   -5.34 KCAL/MOL
REMARK 922        TOTAL FREE ENERGY PREDICTED BY IDOCK:   -6.27 KCAL/MOL
REMARK 923 INTER-LIGAND FREE ENERGY PREDICTED BY IDOCK:   -5.64 KCAL/MOL
REMARK 924 INTRA-LIGAND FREE ENERGY PREDICTED BY IDOCK:   -0.63 KCAL/MOL
REMARK 927      BINDING AFFINITY PREDICTED BY RF-SCORE:    0.00 PKD
ROOT
HETATM    1  O   UNL     1     -12.007  13.538  69.057  1.00  0.00    -0.327 OA 
HETATM    2  H   UNL     1     -12.107  14.129  68.320  1.00  0.00     0.000 HD 
HETATM    3  C   UNL     1     -11.227  12.421  68.695  1.00  0.00    -0.271 C  
HETATM    4  N   UNL     1     -11.074  11.520  69.819  1.00  0.00    -0.467 NA 
HETATM    5  H   UNL     1     -11.255  11.855  70.766  1.00  0.00     0.000 HD 
HETATM    6  C   UNL     1     -10.711  10.301  69.634  1.00  0.00    -0.264 C  
HETATM    7  C   UNL     1     -10.741   8.436  67.977  1.00  0.00    -0.118 A  
HETATM    8  C   UNL     1     -10.329   9.741  68.293  1.00  0.00    -0.231 A  
HETATM    9 CL   UNL     1     -10.768   6.212  66.452  1.00  0.00    -0.174 Cl 
HETATM   10  C   UNL     1      -9.507  10.449  67.391  1.00  0.00    -0.149 A  
HETATM   11  N   UNL     1      -9.100  11.783  67.556  1.00  0.00    -0.171 N  
HETATM   12  C   UNL     1      -9.044   9.807  66.235  1.00  0.00    -0.192 A  
HETATM   13  O   UNL     1      -9.307  13.911  68.250  1.00  0.00    -0.201 OA 
HETATM   14  C   UNL     1      -9.440   8.501  65.940  1.00  0.00    -0.207 A  
HETATM   15  C   UNL     1      -9.801  12.784  68.192  1.00  0.00    -0.226 C  
HETATM   16  C   UNL     1     -10.292   7.826  66.808  1.00  0.00    -0.277 A  
HETATM   17  H   UNL     1      -8.192  12.036  67.166  1.00  0.00     0.000 HD 
ENDROOT
BRANCH   6  18
HETATM   18  C   UNL     1     -10.646   9.412  70.857  1.00  0.00    -0.390 A  
HETATM   19  C   UNL     1     -10.620   7.774  73.155  1.00  0.00    -0.415 A  
HETATM   20  C   UNL     1     -11.829   8.186  72.608  1.00  0.00    -0.389 A  
HETATM   21  C   UNL     1      -9.426   8.982  71.417  1.00  0.00    -0.264 A  
HETATM   22  C   UNL     1     -11.845   8.979  71.456  1.00  0.00    -0.415 A  
HETATM   23  C   UNL     1      -9.423   8.159  72.553  1.00  0.00    -0.339 A  
HETATM   24 CL   UNL     1      -7.864   9.455  70.839  1.00  0.00    -0.153 Cl 
ENDBRANCH   6  18
TORSDOF 1
ENDMDL
MODEL       67
REMARK 921   NORMALIZED FREE ENERGY PREDICTED BY IDOCK:   -5.33 KCAL/MOL
REMARK 922        TOTAL FREE ENERGY PREDICTED BY IDOCK:   -6.27 KCAL/MOL
REMARK 923 INTER-LIGAND FREE ENERGY PREDICTED BY IDOCK:   -5.66 KCAL/MOL
REMARK 924 INTRA-LIGAND FREE ENERGY PREDICTED BY IDOCK:   -0.61 KCAL/MOL
REMARK 927      BINDING AFFINITY PREDICTED BY RF-SCORE:    0.00 PKD
ROOT
HETATM    1  O   UNL     1      -9.264  12.126  65.751  1.00  0.00    -0.407 OA 
HETATM    2  H   UNL     1      -9.354  13.061  65.888  1.00  0.00     0.000 HD 
HETATM    3  C   UNL     1      -9.945  11.409  66.755  1.00  0.00    -0.208 C  
HETATM    4  N   UNL     1      -9.808   9.982  66.546  1.00  0.00    -0.198 NA 
HETATM    5  H   UNL     1      -9.524   9.629  65.631  1.00  0.00     0.000 HD 
HETATM    6  C   UNL     1     -10.041   9.157  67.503  1.00  0.00    -0.228 C  
HETATM    7  C   UNL     1     -10.038   8.925  69.987  1.00  0.00    -0.207 A  
HETATM    8  C   UNL     1     -10.555   9.571  68.853  1.00  0.00    -0.239 A  
HETATM    9 CL   UNL     1      -9.974   8.345  72.620  1.00  0.00    -0.354 Cl 
HETATM   10  C   UNL     1     -11.589  10.519  69.003  1.00  0.00    -0.207 A  
HETATM   11  N   UNL     1     -12.128  11.288  67.959  1.00  0.00    -0.080 N  
HETATM   12  C   UNL     1     -12.144  10.735  70.272  1.00  0.00    -0.433 A  
HETATM   13  O   UNL     1     -12.081  12.399  66.005  1.00  0.00    -0.600 OA 
HETATM   14  C   UNL     1     -11.639  10.071  71.391  1.00  0.00    -0.383 A  
HETATM   15  C   UNL     1     -11.466  11.724  66.832  1.00  0.00    -0.293 C  
HETATM   16  C   UNL     1     -10.585   9.175  71.244  1.00  0.00    -0.329 A  
HETATM   17  H   UNL     1     -13.110  11.551  68.044  1.00  0.00     0.000 HD 
ENDROOT
BRANCH   6  18
HETATM   18  C   UNL     1      -9.803   7.690  67.216  1.00  0.00    -0.245 A  
HETATM   19  C   UNL     1      -9.457   4.936  66.703  1.00  0.00    -0.153 A  
HETATM   20  C   UNL     1     -10.737   5.467  66.816  1.00  0.00    -0.329 A  
HETATM   21  C   UNL     1      -8.511   7.140  67.093  1.00  0.00    -0.121 A  
HETATM   22  C   UNL     1     -10.911   6.836  67.047  1.00  0.00    -0.453 A  
HETATM   23  C   UNL     1      -8.349   5.773  66.827  1.00  0.00    -0.109 A  
HETATM   24 CL   UNL     1      -7.044   8.033  67.316  1.00  0.00    -0.081 Cl 
ENDBRANCH   6  18
TORSDOF 1
ENDMDL
MODEL       68
REMARK 921   NORMALIZED FREE ENERGY PREDICTED BY IDOCK:   -5.33 KCAL/MOL
REMARK 922        TOTAL FREE ENERGY PREDICTED BY IDOCK:   -6.26 KCAL/MOL
REMARK 923 INTER-LIGAND FREE ENERGY PREDICTED BY IDOCK:   -5.65 KCAL/MOL
REMARK 924 INTRA-LIGAND FREE ENERGY PREDICTED BY IDOCK:   -0.61 KCAL/MOL
REMARK 927      BINDING AFFINITY PREDICTED BY RF-SCORE:    0.00 PKD
ROOT
HETATM    1  O   UNL     1     -11.380   7.342  69.111  1.00  0.00    -0.454 OA 
HETATM    2  H   UNL     1     -11.054   6.488  69.371  1.00  0.00     0.000 HD 
HETATM    3  C   UNL     1     -10.507   7.946  68.185  1.00  0.00    -0.173 C  
HETATM    4  N   UNL     1     -11.004   9.248  67.789  1.00  0.00    -0.493 NA 
HETATM    5  H   UNL     1     -11.984   9.486  67.947  1.00  0.00     0.000 HD 
HETATM    6  C   UNL     1     -10.221  10.106  67.239  1.00  0.00    -0.222 C  
HETATM    7  C   UNL     1      -7.837  10.825  67.084  1.00  0.00    -0.124 A  
HETATM    8  C   UNL     1      -8.791   9.816  66.877  1.00  0.00    -0.150 A  
HETATM    9 CL   UNL     1      -5.380  11.912  66.854  1.00  0.00    -0.114 Cl 
HETATM   10  C   UNL     1      -8.403   8.606  66.264  1.00  0.00    -0.122 A  
HETATM   11  N   UNL     1      -9.244   7.497  66.079  1.00  0.00    -0.359 N  
HETATM   12  C   UNL     1      -7.091   8.465  65.793  1.00  0.00    -0.071 A  
HETATM   13  O   UNL     1     -10.936   6.107  66.590  1.00  0.00    -0.301 OA 
HETATM   14  C   UNL     1      -6.154   9.483  65.983  1.00  0.00    -0.063 A  
HETATM   15  C   UNL     1     -10.293   7.115  66.887  1.00  0.00    -0.279 C  
HETATM   16  C   UNL     1      -6.530  10.653  66.634  1.00  0.00    -0.100 A  
HETATM   17  H   UNL     1      -9.060   6.914  65.262  1.00  0.00     0.000 HD 
ENDROOT
BRANCH   6  18
HETATM   18  C   UNL     1     -10.807  11.465  66.924  1.00  0.00    -0.335 A  
HETATM   19  C   UNL     1     -11.931  14.007  66.430  1.00  0.00    -0.462 A  
HETATM   20  C   UNL     1     -11.751  13.567  67.737  1.00  0.00    -0.394 A  
HETATM   21  C   UNL     1     -10.988  11.925  65.604  1.00  0.00    -0.304 A  
HETATM   22  C   UNL     1     -11.173  12.317  67.984  1.00  0.00    -0.321 A  
HETATM   23  C   UNL     1     -11.538  13.194  65.369  1.00  0.00    -0.362 A  
HETATM   24 CL   UNL     1     -10.638  10.993  64.187  1.00  0.00    -0.447 Cl 
ENDBRANCH   6  18
TORSDOF 1
ENDMDL
MODEL       69
REMARK 921   NORMALIZED FREE ENERGY PREDICTED BY IDOCK:   -5.29 KCAL/MOL
REMARK 922        TOTAL FREE ENERGY PREDICTED BY IDOCK:   -6.22 KCAL/MOL
REMARK 923 INTER-LIGAND FREE ENERGY PREDICTED BY IDOCK:   -5.66 KCAL/MOL
REMARK 924 INTRA-LIGAND FREE ENERGY PREDICTED BY IDOCK:   -0.57 KCAL/MOL
REMARK 927      BINDING AFFINITY PREDICTED BY RF-SCORE:    0.00 PKD
ROOT
HETATM    1  O   UNL     1      -8.815   8.775  63.775  1.00  0.00    -0.430 OA 
HETATM    2  H   UNL     1      -8.538   7.871  63.874  1.00  0.00     0.000 HD 
HETATM    3  C   UNL     1      -8.988   9.382  65.034  1.00  0.00    -0.211 C  
HETATM    4  N   UNL     1      -9.410  10.760  64.883  1.00  0.00    -0.210 NA 
HETATM    5  H   UNL     1      -9.275  11.236  63.990  1.00  0.00     0.000 HD 
HETATM    6  C   UNL     1      -9.953  11.388  65.864  1.00  0.00    -0.234 C  
HETATM    7  C   UNL     1     -11.292  11.070  67.945  1.00  0.00    -0.381 A  
HETATM    8  C   UNL     1     -10.105  10.807  67.241  1.00  0.00    -0.233 A  
HETATM    9 CL   UNL     1     -12.859  11.037  70.139  1.00  0.00    -0.194 Cl 
HETATM   10  C   UNL     1      -9.069  10.087  67.871  1.00  0.00    -0.131 A  
HETATM   11  N   UNL     1      -7.874   9.692  67.247  1.00  0.00    -0.095 N  
HETATM   12  C   UNL     1      -9.205   9.721  69.217  1.00  0.00    -0.197 A  
HETATM   13  O   UNL     1      -6.588   9.047  65.519  1.00  0.00    -0.067 OA 
HETATM   14  C   UNL     1     -10.380  10.006  69.915  1.00  0.00    -0.315 A  
HETATM   15  C   UNL     1      -7.705   9.383  65.914  1.00  0.00    -0.099 C  
HETATM   16  C   UNL     1     -11.419  10.672  69.274  1.00  0.00    -0.281 A  
HETATM   17  H   UNL     1      -7.047   9.628  67.840  1.00  0.00     0.000 HD 
ENDROOT
BRANCH   6  18
HETATM   18  C   UNL     1     -10.428  12.800  65.595  1.00  0.00    -0.297 A  
HETATM   19  C   UNL     1     -11.259  15.463  65.172  1.00  0.00    -0.354 A  
HETATM   20  C   UNL     1     -10.188  15.194  66.016  1.00  0.00    -0.325 A  
HETATM   21  C   UNL     1     -11.508  13.086  64.736  1.00  0.00    -0.327 A  
HETATM   22  C   UNL     1      -9.760  13.877  66.209  1.00  0.00    -0.304 A  
HETATM   23  C   UNL     1     -11.907  14.413  64.524  1.00  0.00    -0.463 A  
HETATM   24 CL   UNL     1     -12.467  11.884  63.938  1.00  0.00    -0.507 Cl 
ENDBRANCH   6  18
TORSDOF 1
ENDMDL
MODEL       70
REMARK 921   NORMALIZED FREE ENERGY PREDICTED BY IDOCK:   -5.26 KCAL/MOL
REMARK 922        TOTAL FREE ENERGY PREDICTED BY IDOCK:   -6.19 KCAL/MOL
REMARK 923 INTER-LIGAND FREE ENERGY PREDICTED BY IDOCK:   -6.06 KCAL/MOL
REMARK 924 INTRA-LIGAND FREE ENERGY PREDICTED BY IDOCK:   -0.13 KCAL/MOL
REMARK 927      BINDING AFFINITY PREDICTED BY RF-SCORE:    0.00 PKD
ROOT
HETATM    1  O   UNL     1      -7.037  13.064  69.019  1.00  0.00    -0.173 OA 
HETATM    2  H   UNL     1      -6.288  13.027  68.437  1.00  0.00     0.000 HD 
HETATM    3  C   UNL     1      -8.083  13.807  68.437  1.00  0.00    -0.148 C  
HETATM    4  N   UNL     1      -9.226  13.863  69.325  1.00  0.00    -0.218 NA 
HETATM    5  H   UNL     1      -9.309  13.189  70.087  1.00  0.00     0.000 HD 
HETATM    6  C   UNL     1     -10.138  14.754  69.161  1.00  0.00    -0.197 C  
HETATM    7  C   UNL     1     -10.554  17.046  68.271  1.00  0.00    -0.372 A  
HETATM    8  C   UNL     1     -10.156  15.725  68.015  1.00  0.00    -0.228 A  
HETATM    9 CL   UNL     1     -11.252  19.546  67.538  1.00  0.00    -0.249 Cl 
HETATM   10  C   UNL     1      -9.868  15.329  66.691  1.00  0.00    -0.250 A  
HETATM   11  N   UNL     1      -9.383  14.064  66.321  1.00  0.00    -0.470 N  
HETATM   12  C   UNL     1     -10.070  16.237  65.643  1.00  0.00    -0.340 A  
HETATM   13  O   UNL     1      -8.231  12.154  66.606  1.00  0.00    -0.129 OA 
HETATM   14  C   UNL     1     -10.489  17.543  65.906  1.00  0.00    -0.251 A  
HETATM   15  C   UNL     1      -8.578  13.239  67.076  1.00  0.00    -0.161 C  
HETATM   16  C   UNL     1     -10.722  17.943  67.217  1.00  0.00    -0.267 A  
HETATM   17  H   UNL     1      -9.654  13.721  65.400  1.00  0.00     0.000 HD 
ENDROOT
BRANCH   6  18
HETATM   18  C   UNL     1     -11.259  14.783  70.178  1.00  0.00    -0.256 A  
HETATM   19  C   UNL     1     -13.300  14.908  72.122  1.00  0.00    -0.473 A  
HETATM   20  C   UNL     1     -12.350  15.920  72.044  1.00  0.00    -0.550 A  
HETATM   21  C   UNL     1     -12.232  13.766  70.263  1.00  0.00    -0.359 A  
HETATM   22  C   UNL     1     -11.351  15.871  71.066  1.00  0.00    -0.434 A  
HETATM   23  C   UNL     1     -13.249  13.843  71.226  1.00  0.00    -0.352 A  
HETATM   24 CL   UNL     1     -12.242  12.338  69.283  1.00  0.00    -0.184 Cl 
ENDBRANCH   6  18
TORSDOF 1
ENDMDL
MODEL       71
REMARK 921   NORMALIZED FREE ENERGY PREDICTED BY IDOCK:   -5.23 KCAL/MOL
REMARK 922        TOTAL FREE ENERGY PREDICTED BY IDOCK:   -6.16 KCAL/MOL
REMARK 923 INTER-LIGAND FREE ENERGY PREDICTED BY IDOCK:   -5.61 KCAL/MOL
REMARK 924 INTRA-LIGAND FREE ENERGY PREDICTED BY IDOCK:   -0.55 KCAL/MOL
REMARK 927      BINDING AFFINITY PREDICTED BY RF-SCORE:    0.00 PKD
ROOT
HETATM    1  O   UNL     1     -14.342  14.706  70.959  1.00  0.00    -0.512 OA 
HETATM    2  H   UNL     1     -14.762  15.354  71.513  1.00  0.00     0.000 HD 
HETATM    3  C   UNL     1     -13.178  15.237  70.369  1.00  0.00    -0.131 C  
HETATM    4  N   UNL     1     -12.538  14.249  69.524  1.00  0.00    -0.501 NA 
HETATM    5  H   UNL     1     -12.769  13.261  69.636  1.00  0.00     0.000 HD 
HETATM    6  C   UNL     1     -11.683  14.606  68.634  1.00  0.00    -0.329 C  
HETATM    7  C   UNL     1     -11.012  16.497  67.151  1.00  0.00    -0.049 A  
HETATM    8  C   UNL     1     -11.207  16.020  68.458  1.00  0.00    -0.374 A  
HETATM    9 CL   UNL     1     -10.166  18.306  65.339  1.00  0.00     0.308 Cl 
HETATM   10  C   UNL     1     -10.873  16.842  69.555  1.00  0.00    -0.225 A  
HETATM   11  N   UNL     1     -11.098  16.511  70.901  1.00  0.00    -0.267 N  
HETATM   12  C   UNL     1     -10.272  18.087  69.324  1.00  0.00    -0.043 A  
HETATM   13  O   UNL     1     -12.182  15.532  72.611  1.00  0.00    -0.347 OA 
HETATM   14  C   UNL     1     -10.062  18.543  68.021  1.00  0.00    -0.403 A  
HETATM   15  C   UNL     1     -12.118  15.727  71.396  1.00  0.00    -0.438 C  
HETATM   16  C   UNL     1     -10.439  17.750  66.943  1.00  0.00    -0.307 A  
HETATM   17  H   UNL     1     -10.440  16.889  71.582  1.00  0.00     0.000 HD 
ENDROOT
BRANCH   6  18
HETATM   18  C   UNL     1     -11.118  13.515  67.749  1.00  0.00    -0.291 A  
HETATM   19  C   UNL     1      -9.980  11.486  66.151  1.00  0.00    -0.257 A  
HETATM   20  C   UNL     1      -9.373  11.853  67.347  1.00  0.00    -0.176 A  
HETATM   21  C   UNL     1     -11.728  13.129  66.538  1.00  0.00    -0.382 A  
HETATM   22  C   UNL     1      -9.948  12.843  68.152  1.00  0.00    -0.234 A  
HETATM   23  C   UNL     1     -11.161  12.113  65.756  1.00  0.00    -0.362 A  
HETATM   24 CL   UNL     1     -13.140  13.880  65.872  1.00  0.00    -0.288 Cl 
ENDBRANCH   6  18
TORSDOF 1
ENDMDL
MODEL       72
REMARK 921   NORMALIZED FREE ENERGY PREDICTED BY IDOCK:   -5.23 KCAL/MOL
REMARK 922        TOTAL FREE ENERGY PREDICTED BY IDOCK:   -6.16 KCAL/MOL
REMARK 923 INTER-LIGAND FREE ENERGY PREDICTED BY IDOCK:   -5.77 KCAL/MOL
REMARK 924 INTRA-LIGAND FREE ENERGY PREDICTED BY IDOCK:   -0.39 KCAL/MOL
REMARK 927      BINDING AFFINITY PREDICTED BY RF-SCORE:    0.00 PKD
ROOT
HETATM    1  O   UNL     1      -6.814   9.202  71.725  1.00  0.00    -0.273 OA 
HETATM    2  H   UNL     1      -5.925   9.326  71.415  1.00  0.00     0.000 HD 
HETATM    3  C   UNL     1      -7.713   9.137  70.642  1.00  0.00    -0.138 C  
HETATM    4  N   UNL     1      -9.070   8.949  71.115  1.00  0.00    -0.229 NA 
HETATM    5  H   UNL     1      -9.233   8.609  72.064  1.00  0.00     0.000 HD 
HETATM    6  C   UNL     1     -10.070   9.206  70.350  1.00  0.00    -0.218 C  
HETATM    7  C   UNL     1     -10.800  10.604  68.418  1.00  0.00    -0.282 A  
HETATM    8  C   UNL     1      -9.933   9.616  68.911  1.00  0.00    -0.186 A  
HETATM    9 CL   UNL     1     -11.902  12.094  66.458  1.00  0.00    -0.391 Cl 
HETATM   10  C   UNL     1      -9.026   8.985  68.034  1.00  0.00    -0.132 A  
HETATM   11  N   UNL     1      -8.056   8.046  68.423  1.00  0.00    -0.120 N  
HETATM   12  C   UNL     1      -9.066   9.291  66.667  1.00  0.00    -0.177 A  
HETATM   13  O   UNL     1      -6.573   7.103  69.825  1.00  0.00    -0.042 OA 
HETATM   14  C   UNL     1      -9.948  10.259  66.182  1.00  0.00    -0.300 A  
HETATM   15  C   UNL     1      -7.407   7.990  69.638  1.00  0.00    -0.085 C  
HETATM   16  C   UNL     1     -10.805  10.914  67.059  1.00  0.00    -0.266 A  
HETATM   17  H   UNL     1      -7.807   7.334  67.738  1.00  0.00     0.000 HD 
ENDROOT
BRANCH   6  18
HETATM   18  C   UNL     1     -11.450   9.048  70.951  1.00  0.00    -0.347 A  
HETATM   19  C   UNL     1     -14.016   8.845  72.109  1.00  0.00    -0.520 A  
HETATM   20  C   UNL     1     -13.378  10.078  72.043  1.00  0.00    -0.513 A  
HETATM   21  C   UNL     1     -12.110   7.804  71.018  1.00  0.00    -0.244 A  
HETATM   22  C   UNL     1     -12.116  10.185  71.448  1.00  0.00    -0.475 A  
HETATM   23  C   UNL     1     -13.389   7.715  71.586  1.00  0.00    -0.400 A  
HETATM   24 CL   UNL     1     -11.422   6.303  70.498  1.00  0.00    -0.430 Cl 
ENDBRANCH   6  18
TORSDOF 1
ENDMDL
MODEL       73
REMARK 921   NORMALIZED FREE ENERGY PREDICTED BY IDOCK:   -5.23 KCAL/MOL
REMARK 922        TOTAL FREE ENERGY PREDICTED BY IDOCK:   -6.15 KCAL/MOL
REMARK 923 INTER-LIGAND FREE ENERGY PREDICTED BY IDOCK:   -5.58 KCAL/MOL
REMARK 924 INTRA-LIGAND FREE ENERGY PREDICTED BY IDOCK:   -0.58 KCAL/MOL
REMARK 927      BINDING AFFINITY PREDICTED BY RF-SCORE:    0.00 PKD
ROOT
HETATM    1  O   UNL     1     -13.552   9.919  72.101  1.00  0.00    -0.463 OA 
HETATM    2  H   UNL     1     -13.679   9.561  72.972  1.00  0.00     0.000 HD 
HETATM    3  C   UNL     1     -12.379   9.401  71.517  1.00  0.00    -0.370 C  
HETATM    4  N   UNL     1     -12.186   9.945  70.189  1.00  0.00    -0.485 NA 
HETATM    5  H   UNL     1     -12.971  10.376  69.699  1.00  0.00     0.000 HD 
HETATM    6  C   UNL     1     -11.034   9.890  69.621  1.00  0.00    -0.252 C  
HETATM    7  C   UNL     1      -8.584   9.793  70.078  1.00  0.00    -0.229 A  
HETATM    8  C   UNL     1      -9.845   9.192  70.218  1.00  0.00    -0.245 A  
HETATM    9 CL   UNL     1      -5.895   9.843  70.273  1.00  0.00    -0.052 Cl 
HETATM   10  C   UNL     1      -9.948   7.926  70.833  1.00  0.00    -0.182 A  
HETATM   11  N   UNL     1     -11.157   7.264  71.104  1.00  0.00    -0.248 N  
HETATM   12  C   UNL     1      -8.781   7.251  71.214  1.00  0.00    -0.127 A  
HETATM   13  O   UNL     1     -13.343   7.127  71.611  1.00  0.00    -0.376 OA 
HETATM   14  C   UNL     1      -7.529   7.847  71.050  1.00  0.00    -0.073 A  
HETATM   15  C   UNL     1     -12.370   7.850  71.390  1.00  0.00    -0.312 C  
HETATM   16  C   UNL     1      -7.438   9.116  70.490  1.00  0.00    -0.116 A  
HETATM   17  H   UNL     1     -11.134   6.244  71.086  1.00  0.00     0.000 HD 
ENDROOT
BRANCH   6  18
HETATM   18  C   UNL     1     -10.907  10.547  68.263  1.00  0.00    -0.293 A  
HETATM   19  C   UNL     1     -10.715  11.853  65.769  1.00  0.00    -0.327 A  
HETATM   20  C   UNL     1     -11.026  12.579  66.912  1.00  0.00    -0.296 A  
HETATM   21  C   UNL     1     -10.585   9.822  67.098  1.00  0.00    -0.229 A  
HETATM   22  C   UNL     1     -11.099  11.938  68.154  1.00  0.00    -0.294 A  
HETATM   23  C   UNL     1     -10.481  10.482  65.864  1.00  0.00    -0.224 A  
HETATM   24 CL   UNL     1     -10.363   8.106  67.044  1.00  0.00    -0.384 Cl 
ENDBRANCH   6  18
TORSDOF 1
ENDMDL
MODEL       74
REMARK 921   NORMALIZED FREE ENERGY PREDICTED BY IDOCK:   -5.21 KCAL/MOL
REMARK 922        TOTAL FREE ENERGY PREDICTED BY IDOCK:   -6.14 KCAL/MOL
REMARK 923 INTER-LIGAND FREE ENERGY PREDICTED BY IDOCK:   -5.52 KCAL/MOL
REMARK 924 INTRA-LIGAND FREE ENERGY PREDICTED BY IDOCK:   -0.62 KCAL/MOL
REMARK 927      BINDING AFFINITY PREDICTED BY RF-SCORE:    0.00 PKD
ROOT
HETATM    1  O   UNL     1     -11.179   5.663  66.413  1.00  0.00    -0.725 OA 
HETATM    2  H   UNL     1     -11.908   5.294  66.898  1.00  0.00     0.000 HD 
HETATM    3  C   UNL     1     -10.887   6.964  66.867  1.00  0.00    -0.310 C  
HETATM    4  N   UNL     1      -9.775   7.526  66.128  1.00  0.00    -0.435 NA 
HETATM    5  H   UNL     1      -9.153   6.910  65.603  1.00  0.00     0.000 HD 
HETATM    6  C   UNL     1      -9.566   8.794  66.127  1.00  0.00    -0.253 C  
HETATM    7  C   UNL     1     -10.693  11.006  66.366  1.00  0.00    -0.286 A  
HETATM    8  C   UNL     1     -10.365   9.770  66.944  1.00  0.00    -0.301 A  
HETATM    9 CL   UNL     1     -11.667  13.520  66.425  1.00  0.00    -0.379 Cl 
HETATM   10  C   UNL     1     -10.715   9.515  68.287  1.00  0.00    -0.194 A  
HETATM   11  N   UNL     1     -10.515   8.292  68.948  1.00  0.00    -0.287 N  
HETATM   12  C   UNL     1     -11.307  10.532  69.047  1.00  0.00    -0.319 A  
HETATM   13  O   UNL     1     -10.338   6.056  69.099  1.00  0.00    -0.186 OA 
HETATM   14  C   UNL     1     -11.610  11.766  68.469  1.00  0.00    -0.380 A  
HETATM   15  C   UNL     1     -10.526   7.037  68.378  1.00  0.00    -0.201 C  
HETATM   16  C   UNL     1     -11.308  11.994  67.131  1.00  0.00    -0.333 A  
HETATM   17  H   UNL     1     -10.345   8.337  69.952  1.00  0.00     0.000 HD 
ENDROOT
BRANCH   6  18
HETATM   18  C   UNL     1      -8.425   9.299  65.271  1.00  0.00    -0.167 A  
HETATM   19  C   UNL     1      -6.337  10.195  63.595  1.00  0.00    -0.133 A  
HETATM   20  C   UNL     1      -7.490   9.650  63.041  1.00  0.00    -0.112 A  
HETATM   21  C   UNL     1      -7.254   9.859  65.821  1.00  0.00    -0.110 A  
HETATM   22  C   UNL     1      -8.536   9.227  63.869  1.00  0.00    -0.198 A  
HETATM   23  C   UNL     1      -6.226  10.311  64.979  1.00  0.00    -0.125 A  
HETATM   24 CL   UNL     1      -6.933   9.981  67.518  1.00  0.00    -0.085 Cl 
ENDBRANCH   6  18
TORSDOF 1
ENDMDL
MODEL       75
REMARK 921   NORMALIZED FREE ENERGY PREDICTED BY IDOCK:   -5.17 KCAL/MOL
REMARK 922        TOTAL FREE ENERGY PREDICTED BY IDOCK:   -6.09 KCAL/MOL
REMARK 923 INTER-LIGAND FREE ENERGY PREDICTED BY IDOCK:   -5.68 KCAL/MOL
REMARK 924 INTRA-LIGAND FREE ENERGY PREDICTED BY IDOCK:   -0.41 KCAL/MOL
REMARK 927      BINDING AFFINITY PREDICTED BY RF-SCORE:    0.00 PKD
ROOT
HETATM    1  O   UNL     1     -10.639  19.529  68.748  1.00  0.00    -0.470 OA 
HETATM    2  H   UNL     1     -11.470  19.940  68.542  1.00  0.00     0.000 HD 
HETATM    3  C   UNL     1     -10.405  18.428  67.901  1.00  0.00    -0.401 C  
HETATM    4  N   UNL     1      -9.137  17.802  68.214  1.00  0.00    -0.274 NA 
HETATM    5  H   UNL     1      -8.438  18.316  68.752  1.00  0.00     0.000 HD 
HETATM    6  C   UNL     1      -8.884  16.605  67.820  1.00  0.00    -0.206 C  
HETATM    7  C   UNL     1      -9.952  14.435  67.209  1.00  0.00    -0.247 A  
HETATM    8  C   UNL     1      -9.806  15.806  66.943  1.00  0.00    -0.243 A  
HETATM    9 CL   UNL     1     -10.818  11.943  66.652  1.00  0.00    -0.298 Cl 
HETATM   10  C   UNL     1     -10.454  16.370  65.824  1.00  0.00    -0.354 A  
HETATM   11  N   UNL     1     -10.452  17.737  65.502  1.00  0.00    -0.165 N  
HETATM   12  C   UNL     1     -11.161  15.536  64.947  1.00  0.00    -0.396 A  
HETATM   13  O   UNL     1     -10.397  19.940  65.946  1.00  0.00    -0.495 OA 
HETATM   14  C   UNL     1     -11.282  14.170  65.208  1.00  0.00    -0.326 A  
HETATM   15  C   UNL     1     -10.384  18.790  66.388  1.00  0.00    -0.439 C  
HETATM   16  C   UNL     1     -10.683  13.628  66.340  1.00  0.00    -0.281 A  
HETATM   17  H   UNL     1     -10.506  17.974  64.512  1.00  0.00     0.000 HD 
ENDROOT
BRANCH   6  18
HETATM   18  C   UNL     1      -7.564  16.005  68.253  1.00  0.00    -0.137 A  
HETATM   19  C   UNL     1      -5.143  14.865  69.149  1.00  0.00    -0.090 A  
HETATM   20  C   UNL     1      -6.321  14.639  69.853  1.00  0.00    -0.158 A  
HETATM   21  C   UNL     1      -6.364  16.221  67.545  1.00  0.00    -0.160 A  
HETATM   22  C   UNL     1      -7.526  15.185  69.397  1.00  0.00    -0.204 A  
HETATM   23  C   UNL     1      -5.168  15.641  67.992  1.00  0.00    -0.132 A  
HETATM   24 CL   UNL     1      -6.222  17.236  66.149  1.00  0.00    -0.206 Cl 
ENDBRANCH   6  18
TORSDOF 1
ENDMDL
MODEL       76
REMARK 921   NORMALIZED FREE ENERGY PREDICTED BY IDOCK:   -5.14 KCAL/MOL
REMARK 922        TOTAL FREE ENERGY PREDICTED BY IDOCK:   -6.07 KCAL/MOL
REMARK 923 INTER-LIGAND FREE ENERGY PREDICTED BY IDOCK:   -5.61 KCAL/MOL
REMARK 924 INTRA-LIGAND FREE ENERGY PREDICTED BY IDOCK:   -0.45 KCAL/MOL
REMARK 927      BINDING AFFINITY PREDICTED BY RF-SCORE:    0.00 PKD
ROOT
HETATM    1  O   UNL     1      -7.776  11.451  69.403  1.00  0.00    -0.348 OA 
HETATM    2  H   UNL     1      -7.142  11.599  70.095  1.00  0.00     0.000 HD 
HETATM    3  C   UNL     1      -7.845  12.567  68.545  1.00  0.00    -0.108 C  
HETATM    4  N   UNL     1      -8.812  12.341  67.490  1.00  0.00    -0.173 NA 
HETATM    5  H   UNL     1      -9.119  11.390  67.280  1.00  0.00     0.000 HD 
HETATM    6  C   UNL     1      -9.286  13.327  66.817  1.00  0.00    -0.252 C  
HETATM    7  C   UNL     1      -9.789  15.768  66.931  1.00  0.00    -0.243 A  
HETATM    8  C   UNL     1      -8.826  14.748  66.985  1.00  0.00    -0.258 A  
HETATM    9 CL   UNL     1     -10.578  18.345  66.831  1.00  0.00    -0.404 Cl 
HETATM   10  C   UNL     1      -7.462  15.085  67.108  1.00  0.00    -0.110 A  
HETATM   11  N   UNL     1      -6.418  14.157  67.254  1.00  0.00    -0.028 N  
HETATM   12  C   UNL     1      -7.083  16.434  67.087  1.00  0.00    -0.235 A  
HETATM   13  O   UNL     1      -5.479  12.224  67.918  1.00  0.00    -0.058 OA 
HETATM   14  C   UNL     1      -8.046  17.441  67.011  1.00  0.00    -0.240 A  
HETATM   15  C   UNL     1      -6.492  12.925  67.867  1.00  0.00    -0.127 C  
HETATM   16  C   UNL     1      -9.393  17.104  66.941  1.00  0.00    -0.249 A  
HETATM   17  H   UNL     1      -5.512  14.422  66.868  1.00  0.00     0.000 HD 
ENDROOT
BRANCH   6  18
HETATM   18  C   UNL     1     -10.344  13.005  65.782  1.00  0.00    -0.296 A  
HETATM   19  C   UNL     1     -12.245  12.410  63.784  1.00  0.00    -0.626 A  
HETATM   20  C   UNL     1     -10.887  12.331  63.498  1.00  0.00    -0.508 A  
HETATM   21  C   UNL     1     -11.724  13.075  66.062  1.00  0.00    -0.393 A  
HETATM   22  C   UNL     1      -9.943  12.603  64.494  1.00  0.00    -0.186 A  
HETATM   23  C   UNL     1     -12.661  12.767  65.065  1.00  0.00    -0.538 A  
HETATM   24 CL   UNL     1     -12.390  13.594  67.574  1.00  0.00    -0.232 Cl 
ENDBRANCH   6  18
TORSDOF 1
ENDMDL
MODEL       77
REMARK 921   NORMALIZED FREE ENERGY PREDICTED BY IDOCK:   -5.14 KCAL/MOL
REMARK 922        TOTAL FREE ENERGY PREDICTED BY IDOCK:   -6.06 KCAL/MOL
REMARK 923 INTER-LIGAND FREE ENERGY PREDICTED BY IDOCK:   -5.72 KCAL/MOL
REMARK 924 INTRA-LIGAND FREE ENERGY PREDICTED BY IDOCK:   -0.35 KCAL/MOL
REMARK 927      BINDING AFFINITY PREDICTED BY RF-SCORE:    0.00 PKD
ROOT
HETATM    1  O   UNL     1     -12.809  12.254  64.950  1.00  0.00    -0.628 OA 
HETATM    2  H   UNL     1     -12.700  12.808  64.186  1.00  0.00     0.000 HD 
HETATM    3  C   UNL     1     -11.780  12.488  65.884  1.00  0.00    -0.426 C  
HETATM    4  N   UNL     1     -11.947  11.644  67.050  1.00  0.00    -0.539 NA 
HETATM    5  H   UNL     1     -12.852  11.211  67.236  1.00  0.00     0.000 HD 
HETATM    6  C   UNL     1     -10.964  11.436  67.851  1.00  0.00    -0.240 C  
HETATM    7  C   UNL     1      -8.474  11.343  67.979  1.00  0.00    -0.145 A  
HETATM    8  C   UNL     1      -9.624  12.104  67.716  1.00  0.00    -0.195 A  
HETATM    9 CL   UNL     1      -5.825  11.021  68.370  1.00  0.00    -0.043 Cl 
HETATM   10  C   UNL     1      -9.497  13.477  67.421  1.00  0.00    -0.225 A  
HETATM   11  N   UNL     1     -10.561  14.321  67.062  1.00  0.00    -0.278 N  
HETATM   12  C   UNL     1      -8.233  14.079  67.479  1.00  0.00    -0.195 A  
HETATM   13  O   UNL     1     -12.548  14.823  66.137  1.00  0.00    -0.045 OA 
HETATM   14  C   UNL     1      -7.097  13.318  67.763  1.00  0.00    -0.149 A  
HETATM   15  C   UNL     1     -11.705  13.960  66.383  1.00  0.00    -0.383 C  
HETATM   16  C   UNL     1      -7.223  11.954  68.004  1.00  0.00    -0.090 A  
HETATM   17  H   UNL     1     -10.479  15.301  67.331  1.00  0.00     0.000 HD 
ENDROOT
BRANCH   6  18
HETATM   18  C   UNL     1     -11.208  10.484  69.002  1.00  0.00    -0.316 A  
HETATM   19  C   UNL     1     -11.641   8.633  71.089  1.00  0.00    -0.330 A  
HETATM   20  C   UNL     1     -10.990   8.233  69.927  1.00  0.00    -0.166 A  
HETATM   21  C   UNL     1     -11.860  10.879  70.188  1.00  0.00    -0.353 A  
HETATM   22  C   UNL     1     -10.754   9.155  68.901  1.00  0.00    -0.167 A  
HETATM   23  C   UNL     1     -12.061   9.955  71.223  1.00  0.00    -0.485 A  
HETATM   24 CL   UNL     1     -12.521  12.457  70.460  1.00  0.00    -0.320 Cl 
ENDBRANCH   6  18
TORSDOF 1
ENDMDL
MODEL       78
REMARK 921   NORMALIZED FREE ENERGY PREDICTED BY IDOCK:   -5.12 KCAL/MOL
REMARK 922        TOTAL FREE ENERGY PREDICTED BY IDOCK:   -6.04 KCAL/MOL
REMARK 923 INTER-LIGAND FREE ENERGY PREDICTED BY IDOCK:   -5.44 KCAL/MOL
REMARK 924 INTRA-LIGAND FREE ENERGY PREDICTED BY IDOCK:   -0.60 KCAL/MOL
REMARK 927      BINDING AFFINITY PREDICTED BY RF-SCORE:    0.00 PKD
ROOT
HETATM    1  O   UNL     1      -6.616   8.863  73.023  1.00  0.00    -0.303 OA 
HETATM    2  H   UNL     1      -5.799   8.385  73.105  1.00  0.00     0.000 HD 
HETATM    3  C   UNL     1      -7.611   8.053  72.442  1.00  0.00    -0.112 C  
HETATM    4  N   UNL     1      -8.856   8.783  72.318  1.00  0.00    -0.395 NA 
HETATM    5  H   UNL     1      -9.004   9.629  72.870  1.00  0.00     0.000 HD 
HETATM    6  C   UNL     1      -9.776   8.375  71.519  1.00  0.00    -0.210 C  
HETATM    7  C   UNL     1     -10.172   7.086  69.420  1.00  0.00    -0.197 A  
HETATM    8  C   UNL     1      -9.692   7.093  70.739  1.00  0.00    -0.171 A  
HETATM    9 CL   UNL     1     -10.876   5.886  67.110  1.00  0.00    -0.386 Cl 
HETATM   10  C   UNL     1      -9.229   5.892  71.318  1.00  0.00    -0.143 A  
HETATM   11  N   UNL     1      -8.651   5.788  72.593  1.00  0.00    -0.120 N  
HETATM   12  C   UNL     1      -9.337   4.696  70.596  1.00  0.00    -0.220 A  
HETATM   13  O   UNL     1      -7.466   6.506  74.365  1.00  0.00    -0.098 OA 
HETATM   14  C   UNL     1      -9.837   4.695  69.292  1.00  0.00    -0.260 A  
HETATM   15  C   UNL     1      -7.912   6.753  73.243  1.00  0.00    -0.102 C  
HETATM   16  C   UNL     1     -10.245   5.890  68.709  1.00  0.00    -0.189 A  
HETATM   17  H   UNL     1      -8.793   4.909  73.090  1.00  0.00     0.000 HD 
ENDROOT
BRANCH   6  18
HETATM   18  C   UNL     1     -11.014   9.238  71.400  1.00  0.00    -0.429 A  
HETATM   19  C   UNL     1     -13.372  10.778  71.227  1.00  0.00    -0.182 A  
HETATM   20  C   UNL     1     -13.310   9.696  72.098  1.00  0.00    -0.545 A  
HETATM   21  C   UNL     1     -11.087  10.342  70.526  1.00  0.00    -0.306 A  
HETATM   22  C   UNL     1     -12.134   8.945  72.202  1.00  0.00    -0.430 A  
HETATM   23  C   UNL     1     -12.260  11.107  70.455  1.00  0.00    -0.475 A  
HETATM   24 CL   UNL     1      -9.824  10.814  69.439  1.00  0.00    -0.168 Cl 
ENDBRANCH   6  18
TORSDOF 1
ENDMDL
MODEL       79
REMARK 921   NORMALIZED FREE ENERGY PREDICTED BY IDOCK:   -5.11 KCAL/MOL
REMARK 922        TOTAL FREE ENERGY PREDICTED BY IDOCK:   -6.04 KCAL/MOL
REMARK 923 INTER-LIGAND FREE ENERGY PREDICTED BY IDOCK:   -5.48 KCAL/MOL
REMARK 924 INTRA-LIGAND FREE ENERGY PREDICTED BY IDOCK:   -0.55 KCAL/MOL
REMARK 927      BINDING AFFINITY PREDICTED BY RF-SCORE:    0.00 PKD
ROOT
HETATM    1  O   UNL     1      -6.292   9.816  64.094  1.00  0.00    -0.104 OA 
HETATM    2  H   UNL     1      -6.005  10.161  63.257  1.00  0.00     0.000 HD 
HETATM    3  C   UNL     1      -7.647  10.130  64.322  1.00  0.00    -0.124 C  
HETATM    4  N   UNL     1      -8.085   9.604  65.599  1.00  0.00    -0.114 NA 
HETATM    5  H   UNL     1      -7.545   8.869  66.056  1.00  0.00     0.000 HD 
HETATM    6  C   UNL     1      -9.149  10.056  66.161  1.00  0.00    -0.156 C  
HETATM    7  C   UNL     1     -10.616  12.066  66.339  1.00  0.00    -0.278 A  
HETATM    8  C   UNL     1     -10.062  11.066  65.524  1.00  0.00    -0.316 A  
HETATM    9 CL   UNL     1     -12.279  14.128  66.842  1.00  0.00    -0.457 Cl 
HETATM   10  C   UNL     1     -10.439  10.986  64.167  1.00  0.00    -0.366 A  
HETATM   11  N   UNL     1      -9.894  10.086  63.236  1.00  0.00    -0.508 N  
HETATM   12  C   UNL     1     -11.426  11.851  63.676  1.00  0.00    -0.551 A  
HETATM   13  O   UNL     1      -8.284   8.797  62.341  1.00  0.00    -0.155 OA 
HETATM   14  C   UNL     1     -11.988  12.828  64.500  1.00  0.00    -0.454 A  
HETATM   15  C   UNL     1      -8.613   9.578  63.235  1.00  0.00    -0.214 C  
HETATM   16  C   UNL     1     -11.575  12.935  65.824  1.00  0.00    -0.368 A  
HETATM   17  H   UNL     1     -10.510   9.776  62.484  1.00  0.00     0.000 HD 
ENDROOT
BRANCH   6  18
HETATM   18  C   UNL     1      -9.492   9.499  67.526  1.00  0.00    -0.155 A  
HETATM   19  C   UNL     1     -10.204   8.406  70.029  1.00  0.00    -0.202 A  
HETATM   20  C   UNL     1     -10.677   7.827  68.857  1.00  0.00    -0.108 A  
HETATM   21  C   UNL     1      -9.013  10.073  68.721  1.00  0.00    -0.145 A  
HETATM   22  C   UNL     1     -10.306   8.353  67.614  1.00  0.00    -0.317 A  
HETATM   23  C   UNL     1      -9.364   9.516  69.960  1.00  0.00    -0.265 A  
HETATM   24 CL   UNL     1      -8.043  11.506  68.798  1.00  0.00    -0.128 Cl 
ENDBRANCH   6  18
TORSDOF 1
ENDMDL
MODEL       80
REMARK 921   NORMALIZED FREE ENERGY PREDICTED BY IDOCK:   -5.11 KCAL/MOL
REMARK 922        TOTAL FREE ENERGY PREDICTED BY IDOCK:   -6.03 KCAL/MOL
REMARK 923 INTER-LIGAND FREE ENERGY PREDICTED BY IDOCK:   -5.41 KCAL/MOL
REMARK 924 INTRA-LIGAND FREE ENERGY PREDICTED BY IDOCK:   -0.62 KCAL/MOL
REMARK 927      BINDING AFFINITY PREDICTED BY RF-SCORE:    0.00 PKD
ROOT
HETATM    1  O   UNL     1     -11.070   8.625  69.173  1.00  0.00    -0.433 OA 
HETATM    2  H   UNL     1     -10.802   7.869  69.681  1.00  0.00     0.000 HD 
HETATM    3  C   UNL     1     -10.365   8.681  67.955  1.00  0.00    -0.229 C  
HETATM    4  N   UNL     1     -10.774   9.834  67.179  1.00  0.00    -0.237 NA 
HETATM    5  H   UNL     1     -11.655  10.303  67.395  1.00  0.00     0.000 HD 
HETATM    6  C   UNL     1     -10.038  10.272  66.222  1.00  0.00    -0.236 C  
HETATM    7  C   UNL     1      -7.683  10.402  65.410  1.00  0.00    -0.136 A  
HETATM    8  C   UNL     1      -8.776   9.596  65.766  1.00  0.00    -0.168 A  
HETATM    9 CL   UNL     1      -5.228  10.827  64.376  1.00  0.00    -0.141 Cl 
HETATM   10  C   UNL     1      -8.690   8.197  65.607  1.00  0.00    -0.145 A  
HETATM   11  N   UNL     1      -9.681   7.284  66.002  1.00  0.00    -0.410 N  
HETATM   12  C   UNL     1      -7.548   7.641  65.015  1.00  0.00    -0.097 A  
HETATM   13  O   UNL     1     -11.370   6.527  67.280  1.00  0.00    -0.316 OA 
HETATM   14  C   UNL     1      -6.474   8.453  64.643  1.00  0.00    -0.065 A  
HETATM   15  C   UNL     1     -10.556   7.425  67.057  1.00  0.00    -0.344 C  
HETATM   16  C   UNL     1      -6.544   9.826  64.849  1.00  0.00    -0.108 A  
HETATM   17  H   UNL     1      -9.761   6.428  65.453  1.00  0.00     0.000 HD 
ENDROOT
BRANCH   6  18
HETATM   18  C   UNL     1     -10.509  11.524  65.512  1.00  0.00    -0.327 A  
HETATM   19  C   UNL     1     -11.399  13.804  64.106  1.00  0.00    -0.277 A  
HETATM   20  C   UNL     1     -11.575  12.537  63.561  1.00  0.00    -0.584 A  
HETATM   21  C   UNL     1     -10.342  12.813  66.057  1.00  0.00    -0.276 A  
HETATM   22  C   UNL     1     -11.156  11.404  64.267  1.00  0.00    -0.356 A  
HETATM   23  C   UNL     1     -10.797  13.939  65.356  1.00  0.00    -0.321 A  
HETATM   24 CL   UNL     1      -9.531  13.145  67.551  1.00  0.00    -0.205 Cl 
ENDBRANCH   6  18
TORSDOF 1
ENDMDL
MODEL       81
REMARK 921   NORMALIZED FREE ENERGY PREDICTED BY IDOCK:   -5.11 KCAL/MOL
REMARK 922        TOTAL FREE ENERGY PREDICTED BY IDOCK:   -6.03 KCAL/MOL
REMARK 923 INTER-LIGAND FREE ENERGY PREDICTED BY IDOCK:   -5.61 KCAL/MOL
REMARK 924 INTRA-LIGAND FREE ENERGY PREDICTED BY IDOCK:   -0.43 KCAL/MOL
REMARK 927      BINDING AFFINITY PREDICTED BY RF-SCORE:    0.00 PKD
ROOT
HETATM    1  O   UNL     1     -11.330   6.619  67.258  1.00  0.00    -0.716 OA 
HETATM    2  H   UNL     1     -10.886   5.880  66.861  1.00  0.00     0.000 HD 
HETATM    3  C   UNL     1     -10.455   7.329  68.104  1.00  0.00    -0.198 C  
HETATM    4  N   UNL     1     -11.133   8.457  68.710  1.00  0.00    -0.379 NA 
HETATM    5  H   UNL     1     -12.001   8.805  68.301  1.00  0.00     0.000 HD 
HETATM    6  C   UNL     1     -10.650   9.023  69.757  1.00  0.00    -0.228 C  
HETATM    7  C   UNL     1      -9.238   8.623  71.775  1.00  0.00    -0.338 A  
HETATM    8  C   UNL     1      -9.333   8.648  70.374  1.00  0.00    -0.191 A  
HETATM    9 CL   UNL     1      -7.893   8.435  74.105  1.00  0.00    -0.267 Cl 
HETATM   10  C   UNL     1      -8.181   8.405  69.595  1.00  0.00    -0.117 A  
HETATM   11  N   UNL     1      -8.166   8.321  68.194  1.00  0.00    -0.127 N  
HETATM   12  C   UNL     1      -6.945   8.230  70.232  1.00  0.00    -0.036 A  
HETATM   13  O   UNL     1      -9.019   7.860  66.165  1.00  0.00    -0.168 OA 
HETATM   14  C   UNL     1      -6.858   8.230  71.625  1.00  0.00    -0.069 A  
HETATM   15  C   UNL     1      -9.190   7.878  67.385  1.00  0.00    -0.140 C  
HETATM   16  C   UNL     1      -8.004   8.420  72.389  1.00  0.00    -0.105 A  
HETATM   17  H   UNL     1      -7.310   8.619  67.726  1.00  0.00     0.000 HD 
ENDROOT
BRANCH   6  18
HETATM   18  C   UNL     1     -11.461  10.149  70.364  1.00  0.00    -0.400 A  
HETATM   19  C   UNL     1     -13.032  12.178  71.538  1.00  0.00    -0.398 A  
HETATM   20  C   UNL     1     -13.143  10.866  71.985  1.00  0.00    -0.462 A  
HETATM   21  C   UNL     1     -11.353  11.483  69.925  1.00  0.00    -0.186 A  
HETATM   22  C   UNL     1     -12.348   9.863  71.420  1.00  0.00    -0.498 A  
HETATM   23  C   UNL     1     -12.130  12.487  70.522  1.00  0.00    -0.361 A  
HETATM   24 CL   UNL     1     -10.350  12.002  68.611  1.00  0.00    -0.223 Cl 
ENDBRANCH   6  18
TORSDOF 1
ENDMDL
MODEL       82
REMARK 921   NORMALIZED FREE ENERGY PREDICTED BY IDOCK:   -5.08 KCAL/MOL
REMARK 922        TOTAL FREE ENERGY PREDICTED BY IDOCK:   -6.00 KCAL/MOL
REMARK 923 INTER-LIGAND FREE ENERGY PREDICTED BY IDOCK:   -5.41 KCAL/MOL
REMARK 924 INTRA-LIGAND FREE ENERGY PREDICTED BY IDOCK:   -0.59 KCAL/MOL
REMARK 927      BINDING AFFINITY PREDICTED BY RF-SCORE:    0.00 PKD
ROOT
HETATM    1  O   UNL     1     -11.235   6.295  67.072  1.00  0.00    -0.578 OA 
HETATM    2  H   UNL     1     -10.742   5.622  66.619  1.00  0.00     0.000 HD 
HETATM    3  C   UNL     1     -10.391   7.048  67.913  1.00  0.00    -0.199 C  
HETATM    4  N   UNL     1     -11.143   8.075  68.605  1.00  0.00    -0.359 NA 
HETATM    5  H   UNL     1     -12.060   8.354  68.253  1.00  0.00     0.000 HD 
HETATM    6  C   UNL     1     -10.665   8.637  69.657  1.00  0.00    -0.200 C  
HETATM    7  C   UNL     1      -9.123   8.286  71.586  1.00  0.00    -0.242 A  
HETATM    8  C   UNL     1      -9.289   8.365  70.194  1.00  0.00    -0.164 A  
HETATM    9 CL   UNL     1      -7.652   8.124  73.840  1.00  0.00    -0.216 Cl 
HETATM   10  C   UNL     1      -8.160   8.273  69.352  1.00  0.00    -0.115 A  
HETATM   11  N   UNL     1      -8.206   8.255  67.949  1.00  0.00    -0.127 N  
HETATM   12  C   UNL     1      -6.882   8.191  69.923  1.00  0.00    -0.044 A  
HETATM   13  O   UNL     1      -9.111   7.806  65.940  1.00  0.00    -0.156 OA 
HETATM   14  C   UNL     1      -6.726   8.136  71.309  1.00  0.00    -0.046 A  
HETATM   15  C   UNL     1      -9.222   7.751  67.166  1.00  0.00    -0.146 C  
HETATM   16  C   UNL     1      -7.846   8.176  72.132  1.00  0.00    -0.125 A  
HETATM   17  H   UNL     1      -7.407   8.657  67.459  1.00  0.00     0.000 HD 
ENDROOT
BRANCH   6  18
HETATM   18  C   UNL     1     -11.550   9.648  70.355  1.00  0.00    -0.299 A  
HETATM   19  C   UNL     1     -13.138  11.605  71.624  1.00  0.00    -0.456 A  
HETATM   20  C   UNL     1     -12.192  11.983  70.679  1.00  0.00    -0.409 A  
HETATM   21  C   UNL     1     -12.518   9.277  71.310  1.00  0.00    -0.316 A  
HETATM   22  C   UNL     1     -11.419  11.013  70.032  1.00  0.00    -0.398 A  
HETATM   23  C   UNL     1     -13.310  10.256  71.927  1.00  0.00    -0.487 A  
HETATM   24 CL   UNL     1     -12.779   7.655  71.858  1.00  0.00    -0.331 Cl 
ENDBRANCH   6  18
TORSDOF 1
ENDMDL
MODEL       83
REMARK 921   NORMALIZED FREE ENERGY PREDICTED BY IDOCK:   -5.05 KCAL/MOL
REMARK 922        TOTAL FREE ENERGY PREDICTED BY IDOCK:   -5.97 KCAL/MOL
REMARK 923 INTER-LIGAND FREE ENERGY PREDICTED BY IDOCK:   -5.35 KCAL/MOL
REMARK 924 INTRA-LIGAND FREE ENERGY PREDICTED BY IDOCK:   -0.62 KCAL/MOL
REMARK 927      BINDING AFFINITY PREDICTED BY RF-SCORE:    0.00 PKD
ROOT
HETATM    1  O   UNL     1     -11.273   7.744  68.800  1.00  0.00    -0.397 OA 
HETATM    2  H   UNL     1     -10.883   7.101  69.380  1.00  0.00     0.000 HD 
HETATM    3  C   UNL     1     -10.277   8.452  68.099  1.00  0.00    -0.208 C  
HETATM    4  N   UNL     1     -10.873   9.432  67.214  1.00  0.00    -0.346 NA 
HETATM    5  H   UNL     1     -11.858   9.349  66.957  1.00  0.00     0.000 HD 
HETATM    6  C   UNL     1     -10.173  10.405  66.751  1.00  0.00    -0.226 C  
HETATM    7  C   UNL     1      -8.194  11.847  67.227  1.00  0.00    -0.170 A  
HETATM    8  C   UNL     1      -8.698  10.558  66.993  1.00  0.00    -0.132 A  
HETATM    9 CL   UNL     1      -6.211  13.645  67.559  1.00  0.00    -0.123 Cl 
HETATM   10  C   UNL     1      -7.807   9.468  66.908  1.00  0.00    -0.101 A  
HETATM   11  N   UNL     1      -8.195   8.126  66.761  1.00  0.00    -0.106 N  
HETATM   12  C   UNL     1      -6.427   9.702  66.972  1.00  0.00    -0.066 A  
HETATM   13  O   UNL     1      -9.546   6.349  67.026  1.00  0.00    -0.132 OA 
HETATM   14  C   UNL     1      -5.934  10.991  67.182  1.00  0.00    -0.072 A  
HETATM   15  C   UNL     1      -9.352   7.547  67.235  1.00  0.00    -0.140 C  
HETATM   16  C   UNL     1      -6.819  12.055  67.316  1.00  0.00    -0.150 A  
HETATM   17  H   UNL     1      -7.554   7.517  66.252  1.00  0.00     0.000 HD 
ENDROOT
BRANCH   6  18
HETATM   18  C   UNL     1     -10.895  11.421  65.892  1.00  0.00    -0.292 A  
HETATM   19  C   UNL     1     -12.186  13.286  64.213  1.00  0.00    -0.454 A  
HETATM   20  C   UNL     1     -11.407  12.276  63.661  1.00  0.00    -0.547 A  
HETATM   21  C   UNL     1     -11.693  12.446  66.439  1.00  0.00    -0.391 A  
HETATM   22  C   UNL     1     -10.786  11.336  64.491  1.00  0.00    -0.390 A  
HETATM   23  C   UNL     1     -12.339  13.362  65.596  1.00  0.00    -0.521 A  
HETATM   24 CL   UNL     1     -11.900  12.724  68.136  1.00  0.00    -0.385 Cl 
ENDBRANCH   6  18
TORSDOF 1
ENDMDL
MODEL       84
REMARK 921   NORMALIZED FREE ENERGY PREDICTED BY IDOCK:   -5.05 KCAL/MOL
REMARK 922        TOTAL FREE ENERGY PREDICTED BY IDOCK:   -5.97 KCAL/MOL
REMARK 923 INTER-LIGAND FREE ENERGY PREDICTED BY IDOCK:   -5.35 KCAL/MOL
REMARK 924 INTRA-LIGAND FREE ENERGY PREDICTED BY IDOCK:   -0.62 KCAL/MOL
REMARK 927      BINDING AFFINITY PREDICTED BY RF-SCORE:    0.00 PKD
ROOT
HETATM    1  O   UNL     1      -9.452  15.136  65.625  1.00  0.00    -0.397 OA 
HETATM    2  H   UNL     1      -9.886  15.898  65.989  1.00  0.00     0.000 HD 
HETATM    3  C   UNL     1      -9.910  13.957  66.247  1.00  0.00    -0.306 C  
HETATM    4  N   UNL     1      -9.248  12.795  65.690  1.00  0.00    -0.419 NA 
HETATM    5  H   UNL     1      -8.778  12.864  64.787  1.00  0.00     0.000 HD 
HETATM    6  C   UNL     1      -9.247  11.678  66.325  1.00  0.00    -0.217 C  
HETATM    7  C   UNL     1      -9.373  10.675  68.605  1.00  0.00    -0.177 A  
HETATM    8  C   UNL     1      -9.990  11.451  67.611  1.00  0.00    -0.196 A  
HETATM    9 CL   UNL     1      -9.329   9.333  70.945  1.00  0.00    -0.324 Cl 
HETATM   10  C   UNL     1     -11.306  11.918  67.810  1.00  0.00    -0.292 A  
HETATM   11  N   UNL     1     -11.996  12.767  66.929  1.00  0.00    -0.366 N  
HETATM   12  C   UNL     1     -12.008  11.527  68.958  1.00  0.00    -0.377 A  
HETATM   13  O   UNL     1     -12.188  14.400  65.395  1.00  0.00    -0.387 OA 
HETATM   14  C   UNL     1     -11.394  10.736  69.931  1.00  0.00    -0.385 A  
HETATM   15  C   UNL     1     -11.443  13.729  66.111  1.00  0.00    -0.338 C  
HETATM   16  C   UNL     1     -10.079  10.320  69.753  1.00  0.00    -0.203 A  
HETATM   17  H   UNL     1     -13.009  12.662  66.891  1.00  0.00     0.000 HD 
ENDROOT
BRANCH   6  18
HETATM   18  C   UNL     1      -8.470  10.537  65.703  1.00  0.00    -0.179 A  
HETATM   19  C   UNL     1      -7.109   8.361  64.531  1.00  0.00    -0.077 A  
HETATM   20  C   UNL     1      -8.492   8.454  64.427  1.00  0.00    -0.056 A  
HETATM   21  C   UNL     1      -7.068  10.435  65.796  1.00  0.00    -0.139 A  
HETATM   22  C   UNL     1      -9.166   9.544  64.987  1.00  0.00    -0.297 A  
HETATM   23  C   UNL     1      -6.399   9.355  65.201  1.00  0.00    -0.071 A  
HETATM   24 CL   UNL     1      -6.063  11.539  66.674  1.00  0.00    -0.146 Cl 
ENDBRANCH   6  18
TORSDOF 1
ENDMDL
MODEL       85
REMARK 921   NORMALIZED FREE ENERGY PREDICTED BY IDOCK:   -5.05 KCAL/MOL
REMARK 922        TOTAL FREE ENERGY PREDICTED BY IDOCK:   -5.97 KCAL/MOL
REMARK 923 INTER-LIGAND FREE ENERGY PREDICTED BY IDOCK:   -6.29 KCAL/MOL
REMARK 924 INTRA-LIGAND FREE ENERGY PREDICTED BY IDOCK:    0.33 KCAL/MOL
REMARK 927      BINDING AFFINITY PREDICTED BY RF-SCORE:    0.00 PKD
ROOT
HETATM    1  O   UNL     1     -12.156  11.747  65.830  1.00  0.00    -0.381 OA 
HETATM    2  H   UNL     1     -11.822  11.280  65.073  1.00  0.00     0.000 HD 
HETATM    3  C   UNL     1     -11.351  11.501  66.960  1.00  0.00    -0.269 C  
HETATM    4  N   UNL     1     -11.861  12.213  68.115  1.00  0.00    -0.436 NA 
HETATM    5  H   UNL     1     -12.508  12.992  67.984  1.00  0.00     0.000 HD 
HETATM    6  C   UNL     1     -11.506  11.871  69.301  1.00  0.00    -0.306 C  
HETATM    7  C   UNL     1     -10.720   9.943  70.675  1.00  0.00    -0.372 A  
HETATM    8  C   UNL     1     -10.488  10.805  69.591  1.00  0.00    -0.183 A  
HETATM    9 CL   UNL     1     -10.016   8.014  72.423  1.00  0.00    -0.288 Cl 
HETATM   10  C   UNL     1      -9.282  10.702  68.866  1.00  0.00    -0.183 A  
HETATM   11  N   UNL     1      -8.973  11.447  67.717  1.00  0.00    -0.143 N  
HETATM   12  C   UNL     1      -8.298   9.800  69.293  1.00  0.00    -0.142 A  
HETATM   13  O   UNL     1      -9.432  12.557  65.816  1.00  0.00    -0.183 OA 
HETATM   14  C   UNL     1      -8.528   8.963  70.387  1.00  0.00    -0.181 A  
HETATM   15  C   UNL     1      -9.864  11.918  66.777  1.00  0.00    -0.197 C  
HETATM   16  C   UNL     1      -9.739   9.034  71.067  1.00  0.00    -0.278 A  
HETATM   17  H   UNL     1      -7.988  11.663  67.562  1.00  0.00     0.000 HD 
ENDROOT
BRANCH   6  18
HETATM   18  C   UNL     1     -12.143  12.623  70.451  1.00  0.00    -0.381 A  
HETATM   19  C   UNL     1     -13.264  14.098  72.579  1.00  0.00    -0.596 A  
HETATM   20  C   UNL     1     -12.382  14.711  71.697  1.00  0.00    -0.416 A  
HETATM   21  C   UNL     1     -13.044  12.015  71.348  1.00  0.00    -0.197 A  
HETATM   22  C   UNL     1     -11.843  13.988  70.627  1.00  0.00    -0.310 A  
HETATM   23  C   UNL     1     -13.604  12.759  72.396  1.00  0.00    -0.507 A  
HETATM   24 CL   UNL     1     -13.487  10.341  71.305  1.00  0.00    -0.342 Cl 
ENDBRANCH   6  18
TORSDOF 1
ENDMDL
MODEL       86
REMARK 921   NORMALIZED FREE ENERGY PREDICTED BY IDOCK:   -5.04 KCAL/MOL
REMARK 922        TOTAL FREE ENERGY PREDICTED BY IDOCK:   -5.96 KCAL/MOL
REMARK 923 INTER-LIGAND FREE ENERGY PREDICTED BY IDOCK:   -5.34 KCAL/MOL
REMARK 924 INTRA-LIGAND FREE ENERGY PREDICTED BY IDOCK:   -0.62 KCAL/MOL
REMARK 927      BINDING AFFINITY PREDICTED BY RF-SCORE:    0.00 PKD
ROOT
HETATM    1  O   UNL     1     -11.160  14.202  64.272  1.00  0.00    -0.582 OA 
HETATM    2  H   UNL     1     -11.888  13.892  63.747  1.00  0.00     0.000 HD 
HETATM    3  C   UNL     1     -10.639  13.160  65.064  1.00  0.00    -0.332 C  
HETATM    4  N   UNL     1      -9.528  13.633  65.865  1.00  0.00    -0.505 NA 
HETATM    5  H   UNL     1      -9.054  14.501  65.611  1.00  0.00     0.000 HD 
HETATM    6  C   UNL     1      -9.134  12.968  66.892  1.00  0.00    -0.227 C  
HETATM    7  C   UNL     1      -9.896  11.376  68.655  1.00  0.00    -0.199 A  
HETATM    8  C   UNL     1      -9.702  11.635  67.289  1.00  0.00    -0.192 A  
HETATM    9 CL   UNL     1     -10.477   9.789  70.756  1.00  0.00    -0.372 Cl 
HETATM   10  C   UNL     1      -9.962  10.619  66.344  1.00  0.00    -0.222 A  
HETATM   11  N   UNL     1      -9.885  10.782  64.952  1.00  0.00    -0.266 N  
HETATM   12  C   UNL     1     -10.325   9.342  66.792  1.00  0.00    -0.303 A  
HETATM   13  O   UNL     1     -10.028  11.918  63.016  1.00  0.00    -0.387 OA 
HETATM   14  C   UNL     1     -10.494   9.088  68.154  1.00  0.00    -0.257 A  
HETATM   15  C   UNL     1     -10.133  11.938  64.244  1.00  0.00    -0.295 C  
HETATM   16  C   UNL     1     -10.285  10.107  69.077  1.00  0.00    -0.206 A  
HETATM   17  H   UNL     1      -9.619   9.961  64.409  1.00  0.00     0.000 HD 
ENDROOT
BRANCH   6  18
HETATM   18  C   UNL     1      -8.014  13.573  67.711  1.00  0.00    -0.168 A  
HETATM   19  C   UNL     1      -5.980  14.785  69.247  1.00  0.00    -0.103 A  
HETATM   20  C   UNL     1      -7.250  15.348  69.207  1.00  0.00    -0.186 A  
HETATM   21  C   UNL     1      -6.724  13.008  67.765  1.00  0.00    -0.143 A  
HETATM   22  C   UNL     1      -8.266  14.736  68.465  1.00  0.00    -0.153 A  
HETATM   23  C   UNL     1      -5.722  13.612  68.540  1.00  0.00    -0.090 A  
HETATM   24 CL   UNL     1      -6.229  11.612  66.868  1.00  0.00    -0.149 Cl 
ENDBRANCH   6  18
TORSDOF 1
ENDMDL
MODEL       87
REMARK 921   NORMALIZED FREE ENERGY PREDICTED BY IDOCK:   -5.04 KCAL/MOL
REMARK 922        TOTAL FREE ENERGY PREDICTED BY IDOCK:   -5.96 KCAL/MOL
REMARK 923 INTER-LIGAND FREE ENERGY PREDICTED BY IDOCK:   -5.36 KCAL/MOL
REMARK 924 INTRA-LIGAND FREE ENERGY PREDICTED BY IDOCK:   -0.59 KCAL/MOL
REMARK 927      BINDING AFFINITY PREDICTED BY RF-SCORE:    0.00 PKD
ROOT
HETATM    1  O   UNL     1     -11.368   4.941  65.406  1.00  0.00    -0.881 OA 
HETATM    2  H   UNL     1     -11.678   4.044  65.438  1.00  0.00     0.000 HD 
HETATM    3  C   UNL     1     -10.906   5.353  66.671  1.00  0.00    -0.141 C  
HETATM    4  N   UNL     1     -10.433   6.722  66.622  1.00  0.00    -0.471 NA 
HETATM    5  H   UNL     1     -10.206   7.147  65.722  1.00  0.00     0.000 HD 
HETATM    6  C   UNL     1     -10.298   7.405  67.701  1.00  0.00    -0.231 C  
HETATM    7  C   UNL     1     -11.149   7.648  70.034  1.00  0.00    -0.201 A  
HETATM    8  C   UNL     1     -10.514   6.840  69.077  1.00  0.00    -0.229 A  
HETATM    9 CL   UNL     1     -11.985   8.236  72.530  1.00  0.00    -0.451 Cl 
HETATM   10  C   UNL     1     -10.025   5.571  69.452  1.00  0.00    -0.208 A  
HETATM   11  N   UNL     1      -9.449   4.642  68.569  1.00  0.00    -0.138 N  
HETATM   12  C   UNL     1     -10.105   5.172  70.793  1.00  0.00    -0.303 A  
HETATM   13  O   UNL     1      -9.153   3.613  66.592  1.00  0.00    -0.139 OA 
HETATM   14  C   UNL     1     -10.719   5.992  71.742  1.00  0.00    -0.294 A  
HETATM   15  C   UNL     1      -9.747   4.481  67.234  1.00  0.00    -0.186 C  
HETATM   16  C   UNL     1     -11.243   7.221  71.357  1.00  0.00    -0.248 A  
HETATM   17  H   UNL     1      -8.736   4.025  68.957  1.00  0.00     0.000 HD 
ENDROOT
BRANCH   6  18
HETATM   18  C   UNL     1      -9.867   8.849  67.549  1.00  0.00    -0.237 A  
HETATM   19  C   UNL     1      -9.150  11.558  67.220  1.00  0.00    -0.164 A  
HETATM   20  C   UNL     1     -10.467  11.158  67.026  1.00  0.00    -0.277 A  
HETATM   21  C   UNL     1      -8.536   9.268  67.751  1.00  0.00    -0.116 A  
HETATM   22  C   UNL     1     -10.829   9.820  67.211  1.00  0.00    -0.247 A  
HETATM   23  C   UNL     1      -8.191  10.618  67.595  1.00  0.00    -0.107 A  
HETATM   24 CL   UNL     1      -7.222   8.203  68.124  1.00  0.00    -0.092 Cl 
ENDBRANCH   6  18
TORSDOF 1
ENDMDL
MODEL       88
REMARK 921   NORMALIZED FREE ENERGY PREDICTED BY IDOCK:   -5.04 KCAL/MOL
REMARK 922        TOTAL FREE ENERGY PREDICTED BY IDOCK:   -5.96 KCAL/MOL
REMARK 923 INTER-LIGAND FREE ENERGY PREDICTED BY IDOCK:   -5.37 KCAL/MOL
REMARK 924 INTRA-LIGAND FREE ENERGY PREDICTED BY IDOCK:   -0.59 KCAL/MOL
REMARK 927      BINDING AFFINITY PREDICTED BY RF-SCORE:    0.00 PKD
ROOT
HETATM    1  O   UNL     1     -10.243   8.212  72.593  1.00  0.00    -0.283 OA 
HETATM    2  H   UNL     1     -10.181   7.386  73.058  1.00  0.00     0.000 HD 
HETATM    3  C   UNL     1     -10.422   7.993  71.212  1.00  0.00    -0.200 C  
HETATM    4  N   UNL     1     -10.517   9.253  70.503  1.00  0.00    -0.233 NA 
HETATM    5  H   UNL     1     -10.730  10.108  71.018  1.00  0.00     0.000 HD 
HETATM    6  C   UNL     1     -10.334   9.302  69.232  1.00  0.00    -0.215 C  
HETATM    7  C   UNL     1      -9.173   8.173  67.335  1.00  0.00    -0.159 A  
HETATM    8  C   UNL     1     -10.111   8.088  68.376  1.00  0.00    -0.221 A  
HETATM    9 CL   UNL     1      -7.916   7.255  65.133  1.00  0.00    -0.123 Cl 
HETATM   10  C   UNL     1     -10.870   6.909  68.534  1.00  0.00    -0.180 A  
HETATM   11  N   UNL     1     -11.775   6.673  69.582  1.00  0.00    -0.657 N  
HETATM   12  C   UNL     1     -10.738   5.876  67.596  1.00  0.00    -0.352 A  
HETATM   13  O   UNL     1     -12.571   6.863  71.676  1.00  0.00    -0.357 OA 
HETATM   14  C   UNL     1      -9.818   5.979  66.551  1.00  0.00    -0.186 A  
HETATM   15  C   UNL     1     -11.694   7.167  70.865  1.00  0.00    -0.328 C  
HETATM   16  C   UNL     1      -9.037   7.122  66.430  1.00  0.00    -0.157 A  
HETATM   17  H   UNL     1     -12.574   6.076  69.371  1.00  0.00     0.000 HD 
ENDROOT
BRANCH   6  18
HETATM   18  C   UNL     1     -10.381  10.670  68.586  1.00  0.00    -0.202 A  
HETATM   19  C   UNL     1     -10.557  13.196  67.340  1.00  0.00    -0.247 A  
HETATM   20  C   UNL     1     -11.679  12.379  67.419  1.00  0.00    -0.417 A  
HETATM   21  C   UNL     1      -9.252  11.510  68.506  1.00  0.00    -0.167 A  
HETATM   22  C   UNL     1     -11.600  11.136  68.056  1.00  0.00    -0.337 A  
HETATM   23  C   UNL     1      -9.352  12.769  67.895  1.00  0.00    -0.208 A  
HETATM   24 CL   UNL     1      -7.670  11.078  69.063  1.00  0.00    -0.138 Cl 
ENDBRANCH   6  18
TORSDOF 1
ENDMDL
MODEL       89
REMARK 921   NORMALIZED FREE ENERGY PREDICTED BY IDOCK:   -4.97 KCAL/MOL
REMARK 922        TOTAL FREE ENERGY PREDICTED BY IDOCK:   -5.88 KCAL/MOL
REMARK 923 INTER-LIGAND FREE ENERGY PREDICTED BY IDOCK:   -5.27 KCAL/MOL
REMARK 924 INTRA-LIGAND FREE ENERGY PREDICTED BY IDOCK:   -0.62 KCAL/MOL
REMARK 927      BINDING AFFINITY PREDICTED BY RF-SCORE:    0.00 PKD
ROOT
HETATM    1  O   UNL     1      -5.443  16.280  66.710  1.00  0.00    -0.339 OA 
HETATM    2  H   UNL     1      -4.992  17.032  67.075  1.00  0.00     0.000 HD 
HETATM    3  C   UNL     1      -6.806  16.296  67.070  1.00  0.00    -0.200 C  
HETATM    4  N   UNL     1      -7.494  15.149  66.514  1.00  0.00    -0.129 NA 
HETATM    5  H   UNL     1      -7.074  14.632  65.741  1.00  0.00     0.000 HD 
HETATM    6  C   UNL     1      -8.630  14.777  66.987  1.00  0.00    -0.234 C  
HETATM    7  C   UNL     1     -10.038  14.788  69.046  1.00  0.00    -0.232 A  
HETATM    8  C   UNL     1      -9.373  15.528  68.056  1.00  0.00    -0.193 A  
HETATM    9 CL   UNL     1     -11.698  14.514  71.154  1.00  0.00    -0.338 Cl 
HETATM   10  C   UNL     1      -9.489  16.934  68.043  1.00  0.00    -0.243 A  
HETATM   11  N   UNL     1      -8.807  17.785  67.157  1.00  0.00    -0.241 N  
HETATM   12  C   UNL     1     -10.336  17.562  68.965  1.00  0.00    -0.303 A  
HETATM   13  O   UNL     1      -7.099  18.419  65.839  1.00  0.00    -0.296 OA 
HETATM   14  C   UNL     1     -11.012  16.816  69.932  1.00  0.00    -0.063 A  
HETATM   15  C   UNL     1      -7.566  17.569  66.599  1.00  0.00    -0.251 C  
HETATM   16  C   UNL     1     -10.854  15.435  69.972  1.00  0.00    -0.305 A  
HETATM   17  H   UNL     1      -9.279  18.652  66.902  1.00  0.00     0.000 HD 
ENDROOT
BRANCH   6  18
HETATM   18  C   UNL     1      -9.243  13.527  66.394  1.00  0.00    -0.136 A  
HETATM   19  C   UNL     1     -10.308  11.144  65.321  1.00  0.00    -0.336 A  
HETATM   20  C   UNL     1      -9.259  11.089  66.231  1.00  0.00    -0.200 A  
HETATM   21  C   UNL     1     -10.311  13.569  65.475  1.00  0.00    -0.300 A  
HETATM   22  C   UNL     1      -8.745  12.268  66.782  1.00  0.00    -0.175 A  
HETATM   23  C   UNL     1     -10.840  12.378  64.955  1.00  0.00    -0.331 A  
HETATM   24 CL   UNL     1     -11.012  15.027  64.856  1.00  0.00    -0.419 Cl 
ENDBRANCH   6  18
TORSDOF 1
ENDMDL
MODEL       90
REMARK 921   NORMALIZED FREE ENERGY PREDICTED BY IDOCK:   -4.96 KCAL/MOL
REMARK 922        TOTAL FREE ENERGY PREDICTED BY IDOCK:   -5.87 KCAL/MOL
REMARK 923 INTER-LIGAND FREE ENERGY PREDICTED BY IDOCK:   -5.29 KCAL/MOL
REMARK 924 INTRA-LIGAND FREE ENERGY PREDICTED BY IDOCK:   -0.59 KCAL/MOL
REMARK 927      BINDING AFFINITY PREDICTED BY RF-SCORE:    0.00 PKD
ROOT
HETATM    1  O   UNL     1     -12.179  12.148  63.614  1.00  0.00    -0.496 OA 
HETATM    2  H   UNL     1     -12.586  11.456  63.106  1.00  0.00     0.000 HD 
HETATM    3  C   UNL     1     -11.361  11.607  64.625  1.00  0.00    -0.215 C  
HETATM    4  N   UNL     1     -10.740  12.663  65.400  1.00  0.00    -0.274 NA 
HETATM    5  H   UNL     1     -10.695  13.610  65.020  1.00  0.00     0.000 HD 
HETATM    6  C   UNL     1     -10.246  12.418  66.560  1.00  0.00    -0.227 C  
HETATM    7  C   UNL     1     -10.437  10.906  68.535  1.00  0.00    -0.209 A  
HETATM    8  C   UNL     1     -10.177  11.043  67.162  1.00  0.00    -0.243 A  
HETATM    9 CL   UNL     1     -10.526   9.530  70.853  1.00  0.00    -0.377 Cl 
HETATM   10  C   UNL     1      -9.781   9.915  66.412  1.00  0.00    -0.212 A  
HETATM   11  N   UNL     1      -9.575   9.909  65.023  1.00  0.00    -0.290 N  
HETATM   12  C   UNL     1      -9.569   8.695  67.068  1.00  0.00    -0.240 A  
HETATM   13  O   UNL     1      -9.930  10.564  62.902  1.00  0.00    -0.272 OA 
HETATM   14  C   UNL     1      -9.808   8.573  68.438  1.00  0.00    -0.189 A  
HETATM   15  C   UNL     1     -10.222  10.692  64.092  1.00  0.00    -0.295 C  
HETATM   16  C   UNL     1     -10.247   9.676  69.162  1.00  0.00    -0.202 A  
HETATM   17  H   UNL     1      -8.875   9.259  64.667  1.00  0.00     0.000 HD 
ENDROOT
BRANCH   6  18
HETATM   18  C   UNL     1      -9.682  13.595  67.328  1.00  0.00    -0.243 A  
HETATM   19  C   UNL     1      -8.539  15.753  68.741  1.00  0.00    -0.203 A  
HETATM   20  C   UNL     1      -7.741  14.947  67.937  1.00  0.00    -0.151 A  
HETATM   21  C   UNL     1     -10.482  14.424  68.140  1.00  0.00    -0.237 A  
HETATM   22  C   UNL     1      -8.310  13.891  67.218  1.00  0.00    -0.199 A  
HETATM   23  C   UNL     1      -9.906  15.500  68.830  1.00  0.00    -0.219 A  
HETATM   24 CL   UNL     1     -12.172  14.177  68.424  1.00  0.00    -0.295 Cl 
ENDBRANCH   6  18
TORSDOF 1
ENDMDL
MODEL       91
REMARK 921   NORMALIZED FREE ENERGY PREDICTED BY IDOCK:   -4.96 KCAL/MOL
REMARK 922        TOTAL FREE ENERGY PREDICTED BY IDOCK:   -5.87 KCAL/MOL
REMARK 923 INTER-LIGAND FREE ENERGY PREDICTED BY IDOCK:   -5.54 KCAL/MOL
REMARK 924 INTRA-LIGAND FREE ENERGY PREDICTED BY IDOCK:   -0.34 KCAL/MOL
REMARK 927      BINDING AFFINITY PREDICTED BY RF-SCORE:    0.00 PKD
ROOT
HETATM    1  O   UNL     1      -6.489  10.748  67.573  1.00  0.00    -0.056 OA 
HETATM    2  H   UNL     1      -5.863  10.460  66.918  1.00  0.00     0.000 HD 
HETATM    3  C   UNL     1      -7.771  10.890  67.007  1.00  0.00    -0.129 C  
HETATM    4  N   UNL     1      -8.725  11.329  68.006  1.00  0.00    -0.139 NA 
HETATM    5  H   UNL     1      -8.504  11.224  68.997  1.00  0.00     0.000 HD 
HETATM    6  C   UNL     1      -9.845  11.849  67.654  1.00  0.00    -0.187 C  
HETATM    7  C   UNL     1     -10.972  13.127  65.831  1.00  0.00    -0.288 A  
HETATM    8  C   UNL     1     -10.301  11.958  66.226  1.00  0.00    -0.259 A  
HETATM    9 CL   UNL     1     -12.392  14.631  64.101  1.00  0.00    -0.434 Cl 
HETATM   10  C   UNL     1     -10.151  10.898  65.308  1.00  0.00    -0.280 A  
HETATM   11  N   UNL     1      -9.431   9.718  65.558  1.00  0.00    -0.242 N  
HETATM   12  C   UNL     1     -10.749  10.993  64.044  1.00  0.00    -0.331 A  
HETATM   13  O   UNL     1      -7.803   8.475  66.486  1.00  0.00    -0.093 OA 
HETATM   14  C   UNL     1     -11.434  12.150  63.668  1.00  0.00    -0.566 A  
HETATM   15  C   UNL     1      -8.329   9.584  66.373  1.00  0.00    -0.119 C  
HETATM   16  C   UNL     1     -11.535  13.213  64.559  1.00  0.00    -0.353 A  
HETATM   17  H   UNL     1      -9.758   8.874  65.088  1.00  0.00     0.000 HD 
ENDROOT
BRANCH   6  18
HETATM   18  C   UNL     1     -10.749  12.344  68.763  1.00  0.00    -0.242 A  
HETATM   19  C   UNL     1     -12.483  13.179  70.827  1.00  0.00    -0.389 A  
HETATM   20  C   UNL     1     -12.433  11.839  70.460  1.00  0.00    -0.317 A  
HETATM   21  C   UNL     1     -10.804  13.699  69.149  1.00  0.00    -0.152 A  
HETATM   22  C   UNL     1     -11.557  11.420  69.453  1.00  0.00    -0.391 A  
HETATM   23  C   UNL     1     -11.661  14.102  70.183  1.00  0.00    -0.350 A  
HETATM   24 CL   UNL     1      -9.916  14.971  68.380  1.00  0.00    -0.220 Cl 
ENDBRANCH   6  18
TORSDOF 1
ENDMDL
MODEL       92
REMARK 921   NORMALIZED FREE ENERGY PREDICTED BY IDOCK:   -4.96 KCAL/MOL
REMARK 922        TOTAL FREE ENERGY PREDICTED BY IDOCK:   -5.87 KCAL/MOL
REMARK 923 INTER-LIGAND FREE ENERGY PREDICTED BY IDOCK:   -5.66 KCAL/MOL
REMARK 924 INTRA-LIGAND FREE ENERGY PREDICTED BY IDOCK:   -0.21 KCAL/MOL
REMARK 927      BINDING AFFINITY PREDICTED BY RF-SCORE:    0.00 PKD
ROOT
HETATM    1  O   UNL     1      -7.035  10.399  64.662  1.00  0.00    -0.268 OA 
HETATM    2  H   UNL     1      -6.860  10.930  63.894  1.00  0.00     0.000 HD 
HETATM    3  C   UNL     1      -8.295  10.713  65.208  1.00  0.00    -0.127 C  
HETATM    4  N   UNL     1      -8.561   9.902  66.378  1.00  0.00    -0.127 NA 
HETATM    5  H   UNL     1      -8.025   9.048  66.535  1.00  0.00     0.000 HD 
HETATM    6  C   UNL     1      -9.467  10.250  67.221  1.00  0.00    -0.150 C  
HETATM    7  C   UNL     1     -10.681  12.221  68.151  1.00  0.00    -0.241 A  
HETATM    8  C   UNL     1     -10.371  11.434  67.030  1.00  0.00    -0.258 A  
HETATM    9 CL   UNL     1     -12.029  14.170  69.439  1.00  0.00    -0.362 Cl 
HETATM   10  C   UNL     1     -10.977  11.723  65.789  1.00  0.00    -0.301 A  
HETATM   11  N   UNL     1     -10.686  11.064  64.583  1.00  0.00    -0.297 N  
HETATM   12  C   UNL     1     -11.944  12.735  65.715  1.00  0.00    -0.502 A  
HETATM   13  O   UNL     1      -9.382   9.965  63.118  1.00  0.00    -0.275 OA 
HETATM   14  C   UNL     1     -12.262  13.497  66.841  1.00  0.00    -0.377 A  
HETATM   15  C   UNL     1      -9.479  10.508  64.220  1.00  0.00    -0.285 C  
HETATM   16  C   UNL     1     -11.625  13.241  68.050  1.00  0.00    -0.336 A  
HETATM   17  H   UNL     1     -11.446  10.988  63.908  1.00  0.00     0.000 HD 
ENDROOT
BRANCH   6  18
HETATM   18  C   UNL     1      -9.628   9.382  68.451  1.00  0.00    -0.157 A  
HETATM   19  C   UNL     1      -9.865   7.823  70.792  1.00  0.00    -0.183 A  
HETATM   20  C   UNL     1      -9.287   9.086  70.852  1.00  0.00    -0.326 A  
HETATM   21  C   UNL     1     -10.218   8.103  68.404  1.00  0.00    -0.209 A  
HETATM   22  C   UNL     1      -9.190   9.870  69.697  1.00  0.00    -0.246 A  
HETATM   23  C   UNL     1     -10.341   7.340  69.575  1.00  0.00    -0.230 A  
HETATM   24 CL   UNL     1     -10.767   7.332  66.954  1.00  0.00    -0.405 Cl 
ENDBRANCH   6  18
TORSDOF 1
ENDMDL
MODEL       93
REMARK 921   NORMALIZED FREE ENERGY PREDICTED BY IDOCK:   -4.90 KCAL/MOL
REMARK 922        TOTAL FREE ENERGY PREDICTED BY IDOCK:   -5.81 KCAL/MOL
REMARK 923 INTER-LIGAND FREE ENERGY PREDICTED BY IDOCK:   -5.26 KCAL/MOL
REMARK 924 INTRA-LIGAND FREE ENERGY PREDICTED BY IDOCK:   -0.55 KCAL/MOL
REMARK 927      BINDING AFFINITY PREDICTED BY RF-SCORE:    0.00 PKD
ROOT
HETATM    1  O   UNL     1     -12.594   8.207  71.563  1.00  0.00    -0.300 OA 
HETATM    2  H   UNL     1     -12.425   7.524  72.200  1.00  0.00     0.000 HD 
HETATM    3  C   UNL     1     -11.464   8.418  70.748  1.00  0.00    -0.255 C  
HETATM    4  N   UNL     1     -11.722   9.461  69.776  1.00  0.00    -0.428 NA 
HETATM    5  H   UNL     1     -12.683   9.730  69.565  1.00  0.00     0.000 HD 
HETATM    6  C   UNL     1     -10.749  10.050  69.177  1.00  0.00    -0.220 C  
HETATM    7  C   UNL     1      -8.347  10.681  69.410  1.00  0.00    -0.073 A  
HETATM    8  C   UNL     1      -9.308   9.660  69.347  1.00  0.00    -0.201 A  
HETATM    9 CL   UNL     1      -5.821  11.624  69.457  1.00  0.00    -0.071 Cl 
HETATM   10  C   UNL     1      -8.892   8.311  69.360  1.00  0.00    -0.146 A  
HETATM   11  N   UNL     1      -9.759   7.207  69.385  1.00  0.00    -0.160 N  
HETATM   12  C   UNL     1      -7.523   8.015  69.347  1.00  0.00    -0.096 A  
HETATM   13  O   UNL     1     -11.647   6.102  69.905  1.00  0.00    -0.404 OA 
HETATM   14  C   UNL     1      -6.574   9.038  69.386  1.00  0.00    -0.044 A  
HETATM   15  C   UNL     1     -11.008   7.154  69.964  1.00  0.00    -0.262 C  
HETATM   16  C   UNL     1      -6.990  10.364  69.425  1.00  0.00    -0.091 A  
HETATM   17  H   UNL     1      -9.430   6.356  68.928  1.00  0.00     0.000 HD 
ENDROOT
BRANCH   6  18
HETATM   18  C   UNL     1     -11.108  11.176  68.231  1.00  0.00    -0.310 A  
HETATM   19  C   UNL     1     -11.724  13.229  66.396  1.00  0.00    -0.418 A  
HETATM   20  C   UNL     1     -11.164  12.039  65.946  1.00  0.00    -0.385 A  
HETATM   21  C   UNL     1     -11.682  12.384  68.674  1.00  0.00    -0.326 A  
HETATM   22  C   UNL     1     -10.880  11.011  66.851  1.00  0.00    -0.324 A  
HETATM   23  C   UNL     1     -11.994  13.395  67.753  1.00  0.00    -0.363 A  
HETATM   24 CL   UNL     1     -11.987  12.771  70.334  1.00  0.00    -0.385 Cl 
ENDBRANCH   6  18
TORSDOF 1
ENDMDL
MODEL       94
REMARK 921   NORMALIZED FREE ENERGY PREDICTED BY IDOCK:   -4.89 KCAL/MOL
REMARK 922        TOTAL FREE ENERGY PREDICTED BY IDOCK:   -5.79 KCAL/MOL
REMARK 923 INTER-LIGAND FREE ENERGY PREDICTED BY IDOCK:   -5.41 KCAL/MOL
REMARK 924 INTRA-LIGAND FREE ENERGY PREDICTED BY IDOCK:   -0.38 KCAL/MOL
REMARK 927      BINDING AFFINITY PREDICTED BY RF-SCORE:    0.00 PKD
ROOT
HETATM    1  O   UNL     1      -8.069   8.581  73.715  1.00  0.00    -0.378 OA 
HETATM    2  H   UNL     1      -7.681   7.868  74.209  1.00  0.00     0.000 HD 
HETATM    3  C   UNL     1      -8.829   8.083  72.639  1.00  0.00    -0.203 C  
HETATM    4  N   UNL     1      -9.422   9.170  71.886  1.00  0.00    -0.305 NA 
HETATM    5  H   UNL     1      -9.497  10.096  72.308  1.00  0.00     0.000 HD 
HETATM    6  C   UNL     1      -9.854   8.977  70.691  1.00  0.00    -0.230 C  
HETATM    7  C   UNL     1      -9.547   7.565  68.658  1.00  0.00    -0.151 A  
HETATM    8  C   UNL     1      -9.877   7.632  70.021  1.00  0.00    -0.180 A  
HETATM    9 CL   UNL     1      -9.326   6.305  66.284  1.00  0.00    -0.174 Cl 
HETATM   10  C   UNL     1     -10.297   6.466  70.694  1.00  0.00    -0.198 A  
HETATM   11  N   UNL     1     -10.573   6.390  72.069  1.00  0.00    -0.208 N  
HETATM   12  C   UNL     1     -10.462   5.277  69.970  1.00  0.00    -0.351 A  
HETATM   13  O   UNL     1     -10.333   6.943  74.235  1.00  0.00    -0.346 OA 
HETATM   14  C   UNL     1     -10.153   5.225  68.610  1.00  0.00    -0.238 A  
HETATM   15  C   UNL     1      -9.983   7.132  73.069  1.00  0.00    -0.208 C  
HETATM   16  C   UNL     1      -9.691   6.366  67.963  1.00  0.00    -0.122 A  
HETATM   17  H   UNL     1     -11.283   5.717  72.357  1.00  0.00     0.000 HD 
ENDROOT
BRANCH   6  18
HETATM   18  C   UNL     1     -10.392  10.185  69.954  1.00  0.00    -0.308 A  
HETATM   19  C   UNL     1     -11.302  12.460  68.554  1.00  0.00    -0.336 A  
HETATM   20  C   UNL     1     -10.002  12.003  68.369  1.00  0.00    -0.209 A  
HETATM   21  C   UNL     1     -11.710  10.654  70.127  1.00  0.00    -0.332 A  
HETATM   22  C   UNL     1      -9.556  10.862  69.045  1.00  0.00    -0.170 A  
HETATM   23  C   UNL     1     -12.156  11.780  69.419  1.00  0.00    -0.301 A  
HETATM   24 CL   UNL     1     -12.852   9.972  71.236  1.00  0.00    -0.467 Cl 
ENDBRANCH   6  18
TORSDOF 1
ENDMDL
MODEL       95
REMARK 921   NORMALIZED FREE ENERGY PREDICTED BY IDOCK:   -4.87 KCAL/MOL
REMARK 922        TOTAL FREE ENERGY PREDICTED BY IDOCK:   -5.77 KCAL/MOL
REMARK 923 INTER-LIGAND FREE ENERGY PREDICTED BY IDOCK:   -5.16 KCAL/MOL
REMARK 924 INTRA-LIGAND FREE ENERGY PREDICTED BY IDOCK:   -0.62 KCAL/MOL
REMARK 927      BINDING AFFINITY PREDICTED BY RF-SCORE:    0.00 PKD
ROOT
HETATM    1  O   UNL     1      -7.724  12.488  67.677  1.00  0.00    -0.128 OA 
HETATM    2  H   UNL     1      -7.712  13.396  67.956  1.00  0.00     0.000 HD 
HETATM    3  C   UNL     1      -8.848  11.822  68.204  1.00  0.00    -0.169 C  
HETATM    4  N   UNL     1      -8.868  10.437  67.778  1.00  0.00    -0.128 NA 
HETATM    5  H   UNL     1      -8.308  10.146  66.976  1.00  0.00     0.000 HD 
HETATM    6  C   UNL     1      -9.585   9.573  68.403  1.00  0.00    -0.142 C  
HETATM    7  C   UNL     1     -10.593   9.039  70.621  1.00  0.00    -0.290 A  
HETATM    8  C   UNL     1     -10.514   9.920  69.531  1.00  0.00    -0.261 A  
HETATM    9 CL   UNL     1     -11.658   8.138  72.929  1.00  0.00    -0.372 Cl 
HETATM   10  C   UNL     1     -11.361  11.048  69.485  1.00  0.00    -0.287 A  
HETATM   11  N   UNL     1     -11.318  12.041  68.493  1.00  0.00    -0.247 N  
HETATM   12  C   UNL     1     -12.326  11.223  70.485  1.00  0.00    -0.446 A  
HETATM   13  O   UNL     1     -10.334  13.348  66.950  1.00  0.00    -0.253 OA 
HETATM   14  C   UNL     1     -12.412  10.329  71.554  1.00  0.00    -0.524 A  
HETATM   15  C   UNL     1     -10.208  12.455  67.790  1.00  0.00    -0.211 C  
HETATM   16  C   UNL     1     -11.541   9.247  71.620  1.00  0.00    -0.393 A  
HETATM   17  H   UNL     1     -12.200  12.503  68.270  1.00  0.00     0.000 HD 
ENDROOT
BRANCH   6  18
HETATM   18  C   UNL     1      -9.489   8.136  67.933  1.00  0.00    -0.162 A  
HETATM   19  C   UNL     1      -9.409   5.461  67.038  1.00  0.00    -0.121 A  
HETATM   20  C   UNL     1     -10.515   6.256  66.759  1.00  0.00    -0.311 A  
HETATM   21  C   UNL     1      -8.370   7.323  68.204  1.00  0.00    -0.124 A  
HETATM   22  C   UNL     1     -10.547   7.589  67.182  1.00  0.00    -0.415 A  
HETATM   23  C   UNL     1      -8.335   5.998  67.745  1.00  0.00    -0.112 A  
HETATM   24 CL   UNL     1      -7.007   7.819  69.149  1.00  0.00    -0.063 Cl 
ENDBRANCH   6  18
TORSDOF 1
ENDMDL
MODEL       96
REMARK 921   NORMALIZED FREE ENERGY PREDICTED BY IDOCK:   -4.86 KCAL/MOL
REMARK 922        TOTAL FREE ENERGY PREDICTED BY IDOCK:   -5.76 KCAL/MOL
REMARK 923 INTER-LIGAND FREE ENERGY PREDICTED BY IDOCK:   -5.22 KCAL/MOL
REMARK 924 INTRA-LIGAND FREE ENERGY PREDICTED BY IDOCK:   -0.55 KCAL/MOL
REMARK 927      BINDING AFFINITY PREDICTED BY RF-SCORE:    0.00 PKD
ROOT
HETATM    1  O   UNL     1     -11.984  11.479  66.994  1.00  0.00    -0.556 OA 
HETATM    2  H   UNL     1     -11.749  12.091  66.308  1.00  0.00     0.000 HD 
HETATM    3  C   UNL     1     -10.844  11.099  67.732  1.00  0.00    -0.239 C  
HETATM    4  N   UNL     1     -11.202  10.165  68.779  1.00  0.00    -0.412 NA 
HETATM    5  H   UNL     1     -12.175  10.087  69.078  1.00  0.00     0.000 HD 
HETATM    6  C   UNL     1     -10.305   9.433  69.336  1.00  0.00    -0.212 C  
HETATM    7  C   UNL     1      -8.084   8.360  68.959  1.00  0.00    -0.116 A  
HETATM    8  C   UNL     1      -8.837   9.543  69.035  1.00  0.00    -0.143 A  
HETATM    9 CL   UNL     1      -5.783   6.966  68.775  1.00  0.00    -0.017 Cl 
HETATM   10  C   UNL     1      -8.187  10.789  68.912  1.00  0.00    -0.149 A  
HETATM   11  N   UNL     1      -8.839  12.033  68.889  1.00  0.00    -0.375 N  
HETATM   12  C   UNL     1      -6.791  10.829  68.805  1.00  0.00    -0.067 A  
HETATM   13  O   UNL     1     -10.535  13.443  68.450  1.00  0.00    -0.239 OA 
HETATM   14  C   UNL     1      -6.048   9.647  68.753  1.00  0.00    -0.042 A  
HETATM   15  C   UNL     1     -10.103  12.290  68.404  1.00  0.00    -0.215 C  
HETATM   16  C   UNL     1      -6.699   8.420  68.823  1.00  0.00    -0.058 A  
HETATM   17  H   UNL     1      -8.325  12.827  69.269  1.00  0.00     0.000 HD 
ENDROOT
BRANCH   6  18
HETATM   18  C   UNL     1     -10.779   8.435  70.371  1.00  0.00    -0.244 A  
HETATM   19  C   UNL     1     -11.628   6.634  72.371  1.00  0.00    -0.281 A  
HETATM   20  C   UNL     1     -11.253   7.928  72.713  1.00  0.00    -0.466 A  
HETATM   21  C   UNL     1     -11.168   7.122  70.035  1.00  0.00    -0.238 A  
HETATM   22  C   UNL     1     -10.854   8.829  71.721  1.00  0.00    -0.416 A  
HETATM   23  C   UNL     1     -11.598   6.238  71.035  1.00  0.00    -0.337 A  
HETATM   24 CL   UNL     1     -11.094   6.458  68.438  1.00  0.00    -0.392 Cl 
ENDBRANCH   6  18
TORSDOF 1
ENDMDL
MODEL       97
REMARK 921   NORMALIZED FREE ENERGY PREDICTED BY IDOCK:   -4.86 KCAL/MOL
REMARK 922        TOTAL FREE ENERGY PREDICTED BY IDOCK:   -5.76 KCAL/MOL
REMARK 923 INTER-LIGAND FREE ENERGY PREDICTED BY IDOCK:   -5.23 KCAL/MOL
REMARK 924 INTRA-LIGAND FREE ENERGY PREDICTED BY IDOCK:   -0.53 KCAL/MOL
REMARK 927      BINDING AFFINITY PREDICTED BY RF-SCORE:    0.00 PKD
ROOT
HETATM    1  O   UNL     1      -9.725  19.192  65.465  1.00  0.00    -0.241 OA 
HETATM    2  H   UNL     1      -9.194  19.959  65.283  1.00  0.00     0.000 HD 
HETATM    3  C   UNL     1      -9.157  18.430  66.504  1.00  0.00    -0.290 C  
HETATM    4  N   UNL     1      -9.967  17.261  66.781  1.00  0.00    -0.288 NA 
HETATM    5  H   UNL     1     -10.935  17.228  66.460  1.00  0.00     0.000 HD 
HETATM    6  C   UNL     1      -9.476  16.265  67.428  1.00  0.00    -0.227 C  
HETATM    7  C   UNL     1      -7.347  15.073  67.948  1.00  0.00    -0.156 A  
HETATM    8  C   UNL     1      -8.096  16.257  68.024  1.00  0.00    -0.150 A  
HETATM    9 CL   UNL     1      -5.234  13.506  68.545  1.00  0.00    -0.078 Cl 
HETATM   10  C   UNL     1      -7.575  17.367  68.722  1.00  0.00    -0.252 A  
HETATM   11  N   UNL     1      -8.190  18.627  68.798  1.00  0.00    -0.303 N  
HETATM   12  C   UNL     1      -6.356  17.240  69.403  1.00  0.00    -0.244 A  
HETATM   13  O   UNL     1      -9.457  20.330  68.055  1.00  0.00    -0.305 OA 
HETATM   14  C   UNL     1      -5.629  16.050  69.340  1.00  0.00    -0.121 A  
HETATM   15  C   UNL     1      -8.993  19.209  67.840  1.00  0.00    -0.303 C  
HETATM   16  C   UNL     1      -6.124  14.976  68.608  1.00  0.00    -0.087 A  
HETATM   17  H   UNL     1      -8.027  19.166  69.647  1.00  0.00     0.000 HD 
ENDROOT
BRANCH   6  18
HETATM   18  C   UNL     1     -10.371  15.057  67.610  1.00  0.00    -0.243 A  
HETATM   19  C   UNL     1     -12.028  12.786  67.852  1.00  0.00    -0.320 A  
HETATM   20  C   UNL     1     -11.242  12.956  66.718  1.00  0.00    -0.337 A  
HETATM   21  C   UNL     1     -11.167  14.870  68.758  1.00  0.00    -0.275 A  
HETATM   22  C   UNL     1     -10.402  14.070  66.606  1.00  0.00    -0.278 A  
HETATM   23  C   UNL     1     -11.979  13.732  68.873  1.00  0.00    -0.394 A  
HETATM   24 CL   UNL     1     -11.284  16.003  70.062  1.00  0.00    -0.340 Cl 
ENDBRANCH   6  18
TORSDOF 1
ENDMDL
MODEL       98
REMARK 921   NORMALIZED FREE ENERGY PREDICTED BY IDOCK:   -4.85 KCAL/MOL
REMARK 922        TOTAL FREE ENERGY PREDICTED BY IDOCK:   -5.76 KCAL/MOL
REMARK 923 INTER-LIGAND FREE ENERGY PREDICTED BY IDOCK:   -5.49 KCAL/MOL
REMARK 924 INTRA-LIGAND FREE ENERGY PREDICTED BY IDOCK:   -0.27 KCAL/MOL
REMARK 927      BINDING AFFINITY PREDICTED BY RF-SCORE:    0.00 PKD
ROOT
HETATM    1  O   UNL     1     -10.922  16.052  70.460  1.00  0.00    -0.335 OA 
HETATM    2  H   UNL     1     -11.562  16.745  70.570  1.00  0.00     0.000 HD 
HETATM    3  C   UNL     1     -10.755  15.742  69.096  1.00  0.00    -0.246 C  
HETATM    4  N   UNL     1      -9.778  14.684  68.929  1.00  0.00    -0.263 NA 
HETATM    5  H   UNL     1      -9.129  14.470  69.686  1.00  0.00     0.000 HD 
HETATM    6  C   UNL     1      -9.723  14.014  67.834  1.00  0.00    -0.229 C  
HETATM    7  C   UNL     1     -11.086  13.239  65.894  1.00  0.00    -0.301 A  
HETATM    8  C   UNL     1     -10.568  14.317  66.629  1.00  0.00    -0.278 A  
HETATM    9 CL   UNL     1     -12.348  12.138  63.779  1.00  0.00    -0.617 Cl 
HETATM   10  C   UNL     1     -10.781  15.635  66.174  1.00  0.00    -0.303 A  
HETATM   11  N   UNL     1     -10.385  16.794  66.863  1.00  0.00    -0.299 N  
HETATM   12  C   UNL     1     -11.431  15.843  64.950  1.00  0.00    -0.162 A  
HETATM   13  O   UNL     1      -9.930  18.034  68.682  1.00  0.00    -0.357 OA 
HETATM   14  C   UNL     1     -11.923  14.763  64.215  1.00  0.00    -0.387 A  
HETATM   15  C   UNL     1     -10.289  16.946  68.229  1.00  0.00    -0.335 C  
HETATM   16  C   UNL     1     -11.755  13.469  64.693  1.00  0.00    -0.381 A  
HETATM   17  H   UNL     1     -10.145  17.605  66.294  1.00  0.00     0.000 HD 
ENDROOT
BRANCH   6  18
HETATM   18  C   UNL     1      -8.720  12.881  67.773  1.00  0.00    -0.188 A  
HETATM   19  C   UNL     1      -6.921  10.709  67.696  1.00  0.00    -0.079 A  
HETATM   20  C   UNL     1      -8.281  10.480  67.867  1.00  0.00    -0.107 A  
HETATM   21  C   UNL     1      -7.340  13.100  67.593  1.00  0.00    -0.154 A  
HETATM   22  C   UNL     1      -9.178  11.554  67.883  1.00  0.00    -0.168 A  
HETATM   23  C   UNL     1      -6.454  12.013  67.546  1.00  0.00    -0.124 A  
HETATM   24 CL   UNL     1      -6.603  14.664  67.488  1.00  0.00    -0.172 Cl 
ENDBRANCH   6  18
TORSDOF 1
ENDMDL
MODEL       99
REMARK 921   NORMALIZED FREE ENERGY PREDICTED BY IDOCK:   -4.82 KCAL/MOL
REMARK 922        TOTAL FREE ENERGY PREDICTED BY IDOCK:   -5.73 KCAL/MOL
REMARK 923 INTER-LIGAND FREE ENERGY PREDICTED BY IDOCK:   -5.11 KCAL/MOL
REMARK 924 INTRA-LIGAND FREE ENERGY PREDICTED BY IDOCK:   -0.62 KCAL/MOL
REMARK 927      BINDING AFFINITY PREDICTED BY RF-SCORE:    0.00 PKD
ROOT
HETATM    1  O   UNL     1     -12.266  11.948  68.039  1.00  0.00    -0.491 OA 
HETATM    2  H   UNL     1     -12.506  12.292  67.187  1.00  0.00     0.000 HD 
HETATM    3  C   UNL     1     -11.324  10.908  67.906  1.00  0.00    -0.308 C  
HETATM    4  N   UNL     1     -10.957  10.383  69.206  1.00  0.00    -0.227 NA 
HETATM    5  H   UNL     1     -11.144  10.932  70.045  1.00  0.00     0.000 HD 
HETATM    6  C   UNL     1     -10.397   9.231  69.310  1.00  0.00    -0.215 C  
HETATM    7  C   UNL     1     -10.188   7.003  68.206  1.00  0.00    -0.206 A  
HETATM    8  C   UNL     1      -9.994   8.392  68.130  1.00  0.00    -0.224 A  
HETATM    9 CL   UNL     1      -9.905   4.471  67.322  1.00  0.00    -0.224 Cl 
HETATM   10  C   UNL     1      -9.356   8.944  67.000  1.00  0.00    -0.152 A  
HETATM   11  N   UNL     1      -9.180  10.319  66.772  1.00  0.00    -0.156 N  
HETATM   12  C   UNL     1      -8.848   8.091  66.011  1.00  0.00    -0.196 A  
HETATM   13  O   UNL     1      -9.719  12.498  66.904  1.00  0.00    -0.220 OA 
HETATM   14  C   UNL     1      -9.026   6.709  66.106  1.00  0.00    -0.157 A  
HETATM   15  C   UNL     1     -10.011  11.335  67.190  1.00  0.00    -0.192 C  
HETATM   16  C   UNL     1      -9.700   6.174  67.198  1.00  0.00    -0.135 A  
HETATM   17  H   UNL     1      -8.352  10.593  66.243  1.00  0.00     0.000 HD 
ENDROOT
BRANCH   6  18
HETATM   18  C   UNL     1     -10.114   8.730  70.710  1.00  0.00    -0.261 A  
HETATM   19  C   UNL     1      -9.684   7.799  73.339  1.00  0.00    -0.353 A  
HETATM   20  C   UNL     1     -10.962   7.776  72.793  1.00  0.00    -0.447 A  
HETATM   21  C   UNL     1      -8.822   8.742  71.273  1.00  0.00    -0.226 A  
HETATM   22  C   UNL     1     -11.174   8.216  71.482  1.00  0.00    -0.307 A  
HETATM   23  C   UNL     1      -8.616   8.267  72.576  1.00  0.00    -0.273 A  
HETATM   24 CL   UNL     1      -7.418   9.380  70.484  1.00  0.00    -0.137 Cl 
ENDBRANCH   6  18
TORSDOF 1
ENDMDL
MODEL      100
REMARK 921   NORMALIZED FREE ENERGY PREDICTED BY IDOCK:   -4.81 KCAL/MOL
REMARK 922        TOTAL FREE ENERGY PREDICTED BY IDOCK:   -5.71 KCAL/MOL
REMARK 923 INTER-LIGAND FREE ENERGY PREDICTED BY IDOCK:   -5.24 KCAL/MOL
REMARK 924 INTRA-LIGAND FREE ENERGY PREDICTED BY IDOCK:   -0.48 KCAL/MOL
REMARK 927      BINDING AFFINITY PREDICTED BY RF-SCORE:    0.00 PKD
ROOT
HETATM    1  O   UNL     1     -13.010  10.022  70.203  1.00  0.00    -0.564 OA 
HETATM    2  H   UNL     1     -13.281  10.724  70.782  1.00  0.00     0.000 HD 
HETATM    3  C   UNL     1     -12.034   9.216  70.823  1.00  0.00    -0.191 C  
HETATM    4  N   UNL     1     -11.620   8.144  69.941  1.00  0.00    -0.422 NA 
HETATM    5  H   UNL     1     -12.207   7.887  69.146  1.00  0.00     0.000 HD 
HETATM    6  C   UNL     1     -10.520   7.514  70.150  1.00  0.00    -0.222 C  
HETATM    7  C   UNL     1      -8.248   7.739  71.154  1.00  0.00    -0.099 A  
HETATM    8  C   UNL     1      -9.639   7.752  71.344  1.00  0.00    -0.182 A  
HETATM    9 CL   UNL     1      -5.691   7.753  72.012  1.00  0.00    -0.036 Cl 
HETATM   10  C   UNL     1     -10.162   7.902  72.645  1.00  0.00    -0.296 A  
HETATM   11  N   UNL     1     -11.529   8.012  72.951  1.00  0.00    -0.502 N  
HETATM   12  C   UNL     1      -9.286   7.947  73.738  1.00  0.00    -0.267 A  
HETATM   13  O   UNL     1     -13.667   8.593  72.570  1.00  0.00    -0.368 OA 
HETATM   14  C   UNL     1      -7.904   7.910  73.541  1.00  0.00    -0.214 A  
HETATM   15  C   UNL     1     -12.508   8.566  72.155  1.00  0.00    -0.379 C  
HETATM   16  C   UNL     1      -7.392   7.814  72.252  1.00  0.00    -0.082 A  
HETATM   17  H   UNL     1     -11.827   7.646  73.854  1.00  0.00     0.000 HD 
ENDROOT
BRANCH   6  18
HETATM   18  C   UNL     1     -10.132   6.458  69.138  1.00  0.00    -0.194 A  
HETATM   19  C   UNL     1      -9.438   4.550  67.177  1.00  0.00    -0.182 A  
HETATM   20  C   UNL     1      -9.696   5.865  66.808  1.00  0.00    -0.177 A  
HETATM   21  C   UNL     1      -9.862   5.123  69.501  1.00  0.00    -0.208 A  
HETATM   22  C   UNL     1     -10.017   6.817  67.781  1.00  0.00    -0.167 A  
HETATM   23  C   UNL     1      -9.507   4.184  68.520  1.00  0.00    -0.216 A  
HETATM   24 CL   UNL     1     -10.000   4.500  71.111  1.00  0.00    -0.267 Cl 
ENDBRANCH   6  18
TORSDOF 1
ENDMDL
MODEL      101
REMARK 921   NORMALIZED FREE ENERGY PREDICTED BY IDOCK:   -4.77 KCAL/MOL
REMARK 922        TOTAL FREE ENERGY PREDICTED BY IDOCK:   -5.67 KCAL/MOL
REMARK 923 INTER-LIGAND FREE ENERGY PREDICTED BY IDOCK:   -5.26 KCAL/MOL
REMARK 924 INTRA-LIGAND FREE ENERGY PREDICTED BY IDOCK:   -0.41 KCAL/MOL
REMARK 927      BINDING AFFINITY PREDICTED BY RF-SCORE:    0.00 PKD
ROOT
HETATM    1  O   UNL     1     -12.542   6.741  70.949  1.00  0.00    -0.412 OA 
HETATM    2  H   UNL     1     -13.263   6.896  71.548  1.00  0.00     0.000 HD 
HETATM    3  C   UNL     1     -12.013   7.961  70.483  1.00  0.00     0.046 C  
HETATM    4  N   UNL     1     -10.914   7.724  69.569  1.00  0.00    -0.425 NA 
HETATM    5  H   UNL     1     -10.450   6.815  69.559  1.00  0.00     0.000 HD 
HETATM    6  C   UNL     1     -10.518   8.650  68.770  1.00  0.00    -0.185 C  
HETATM    7  C   UNL     1     -11.271  10.688  67.543  1.00  0.00    -0.326 A  
HETATM    8  C   UNL     1     -11.071  10.047  68.777  1.00  0.00    -0.219 A  
HETATM    9 CL   UNL     1     -11.846  12.816  65.989  1.00  0.00    -0.472 Cl 
HETATM   10  C   UNL     1     -11.312  10.754  69.974  1.00  0.00    -0.319 A  
HETATM   11  N   UNL     1     -11.228  10.199  71.262  1.00  0.00    -0.223 N  
HETATM   12  C   UNL     1     -11.661  12.109  69.914  1.00  0.00    -0.361 A  
HETATM   13  O   UNL     1     -11.372   8.559  72.793  1.00  0.00    -0.286 OA 
HETATM   14  C   UNL     1     -11.836  12.744  68.683  1.00  0.00    -0.341 A  
HETATM   15  C   UNL     1     -11.486   8.891  71.612  1.00  0.00    -0.339 C  
HETATM   16  C   UNL     1     -11.647  12.029  67.505  1.00  0.00    -0.330 A  
HETATM   17  H   UNL     1     -10.947  10.827  72.014  1.00  0.00     0.000 HD 
ENDROOT
BRANCH   6  18
HETATM   18  C   UNL     1      -9.412   8.293  67.801  1.00  0.00    -0.171 A  
HETATM   19  C   UNL     1      -7.304   7.714  66.015  1.00  0.00    -0.077 A  
HETATM   20  C   UNL     1      -7.177   8.755  66.928  1.00  0.00    -0.079 A  
HETATM   21  C   UNL     1      -9.526   7.235  66.876  1.00  0.00    -0.164 A  
HETATM   22  C   UNL     1      -8.211   9.029  67.829  1.00  0.00    -0.109 A  
HETATM   23  C   UNL     1      -8.469   6.948  66.000  1.00  0.00    -0.140 A  
HETATM   24 CL   UNL     1     -10.944   6.261  66.675  1.00  0.00    -0.323 Cl 
ENDBRANCH   6  18
TORSDOF 1
ENDMDL
MODEL      102
REMARK 921   NORMALIZED FREE ENERGY PREDICTED BY IDOCK:   -4.71 KCAL/MOL
REMARK 922        TOTAL FREE ENERGY PREDICTED BY IDOCK:   -5.60 KCAL/MOL
REMARK 923 INTER-LIGAND FREE ENERGY PREDICTED BY IDOCK:   -5.04 KCAL/MOL
REMARK 924 INTRA-LIGAND FREE ENERGY PREDICTED BY IDOCK:   -0.56 KCAL/MOL
REMARK 927      BINDING AFFINITY PREDICTED BY RF-SCORE:    0.00 PKD
ROOT
HETATM    1  O   UNL     1      -9.100  11.185  69.305  1.00  0.00    -0.391 OA 
HETATM    2  H   UNL     1      -9.203  11.844  69.981  1.00  0.00     0.000 HD 
HETATM    3  C   UNL     1      -9.858  10.037  69.611  1.00  0.00    -0.235 C  
HETATM    4  N   UNL     1      -9.701   9.032  68.579  1.00  0.00    -0.156 NA 
HETATM    5  H   UNL     1      -9.344   9.299  67.661  1.00  0.00     0.000 HD 
HETATM    6  C   UNL     1     -10.008   7.805  68.810  1.00  0.00    -0.176 C  
HETATM    7  C   UNL     1     -10.206   6.102  70.622  1.00  0.00    -0.250 A  
HETATM    8  C   UNL     1     -10.631   7.331  70.093  1.00  0.00    -0.245 A  
HETATM    9 CL   UNL     1     -10.352   4.029  72.342  1.00  0.00    -0.236 Cl 
HETATM   10  C   UNL     1     -11.676   8.036  70.726  1.00  0.00    -0.206 A  
HETATM   11  N   UNL     1     -12.131   9.308  70.341  1.00  0.00    -0.468 N  
HETATM   12  C   UNL     1     -12.332   7.457  71.820  1.00  0.00    -0.365 A  
HETATM   13  O   UNL     1     -11.930  11.379  69.489  1.00  0.00    -0.309 OA 
HETATM   14  C   UNL     1     -11.917   6.223  72.325  1.00  0.00    -0.296 A  
HETATM   15  C   UNL     1     -11.382  10.311  69.765  1.00  0.00    -0.273 C  
HETATM   16  C   UNL     1     -10.853   5.556  71.729  1.00  0.00    -0.211 A  
HETATM   17  H   UNL     1     -13.117   9.510  70.506  1.00  0.00     0.000 HD 
ENDROOT
BRANCH   6  18
HETATM   18  C   UNL     1      -9.745   6.812  67.699  1.00  0.00    -0.146 A  
HETATM   19  C   UNL     1      -9.349   4.930  65.634  1.00  0.00    -0.167 A  
HETATM   20  C   UNL     1     -10.638   5.256  66.040  1.00  0.00    -0.175 A  
HETATM   21  C   UNL     1      -8.443   6.478  67.273  1.00  0.00    -0.112 A  
HETATM   22  C   UNL     1     -10.837   6.206  67.048  1.00  0.00    -0.435 A  
HETATM   23  C   UNL     1      -8.257   5.549  66.239  1.00  0.00    -0.111 A  
HETATM   24 CL   UNL     1      -6.992   7.091  67.992  1.00  0.00    -0.080 Cl 
ENDBRANCH   6  18
TORSDOF 1
ENDMDL
MODEL      103
REMARK 921   NORMALIZED FREE ENERGY PREDICTED BY IDOCK:   -4.70 KCAL/MOL
REMARK 922        TOTAL FREE ENERGY PREDICTED BY IDOCK:   -5.60 KCAL/MOL
REMARK 923 INTER-LIGAND FREE ENERGY PREDICTED BY IDOCK:   -4.99 KCAL/MOL
REMARK 924 INTRA-LIGAND FREE ENERGY PREDICTED BY IDOCK:   -0.61 KCAL/MOL
REMARK 927      BINDING AFFINITY PREDICTED BY RF-SCORE:    0.00 PKD
ROOT
HETATM    1  O   UNL     1      -6.516  11.242  70.759  1.00  0.00    -0.492 OA 
HETATM    2  H   UNL     1      -5.914  10.595  71.107  1.00  0.00     0.000 HD 
HETATM    3  C   UNL     1      -7.345  10.670  69.774  1.00  0.00    -0.108 C  
HETATM    4  N   UNL     1      -8.263  11.657  69.242  1.00  0.00    -0.338 NA 
HETATM    5  H   UNL     1      -8.440  12.516  69.764  1.00  0.00     0.000 HD 
HETATM    6  C   UNL     1      -8.856  11.460  68.120  1.00  0.00    -0.162 C  
HETATM    7  C   UNL     1      -8.648  10.284  65.929  1.00  0.00    -0.160 A  
HETATM    8  C   UNL     1      -8.735  10.189  67.327  1.00  0.00    -0.130 A  
HETATM    9 CL   UNL     1      -8.614   9.263  63.433  1.00  0.00    -0.210 Cl 
HETATM   10  C   UNL     1      -8.793   8.917  67.935  1.00  0.00    -0.133 A  
HETATM   11  N   UNL     1      -8.798   8.692  69.321  1.00  0.00    -0.136 N  
HETATM   12  C   UNL     1      -8.850   7.772  67.129  1.00  0.00    -0.130 A  
HETATM   13  O   UNL     1      -8.287   9.135  71.466  1.00  0.00    -0.336 OA 
HETATM   14  C   UNL     1      -8.785   7.878  65.738  1.00  0.00    -0.163 A  
HETATM   15  C   UNL     1      -8.195   9.472  70.284  1.00  0.00    -0.187 C  
HETATM   16  C   UNL     1      -8.678   9.132  65.147  1.00  0.00    -0.195 A  
HETATM   17  H   UNL     1      -9.300   7.867  69.649  1.00  0.00     0.000 HD 
ENDROOT
BRANCH   6  18
HETATM   18  C   UNL     1      -9.742  12.575  67.607  1.00  0.00    -0.196 A  
HETATM   19  C   UNL     1     -11.314  14.712  66.645  1.00  0.00    -0.358 A  
HETATM   20  C   UNL     1      -9.929  14.761  66.533  1.00  0.00    -0.283 A  
HETATM   21  C   UNL     1     -11.147  12.534  67.708  1.00  0.00    -0.249 A  
HETATM   22  C   UNL     1      -9.149  13.693  66.988  1.00  0.00    -0.254 A  
HETATM   23  C   UNL     1     -11.920  13.596  67.218  1.00  0.00    -0.420 A  
HETATM   24 CL   UNL     1     -12.035  11.262  68.479  1.00  0.00    -0.353 Cl 
ENDBRANCH   6  18
TORSDOF 1
ENDMDL
MODEL      104
REMARK 921   NORMALIZED FREE ENERGY PREDICTED BY IDOCK:   -4.67 KCAL/MOL
REMARK 922        TOTAL FREE ENERGY PREDICTED BY IDOCK:   -5.57 KCAL/MOL
REMARK 923 INTER-LIGAND FREE ENERGY PREDICTED BY IDOCK:   -4.95 KCAL/MOL
REMARK 924 INTRA-LIGAND FREE ENERGY PREDICTED BY IDOCK:   -0.62 KCAL/MOL
REMARK 927      BINDING AFFINITY PREDICTED BY RF-SCORE:    0.00 PKD
ROOT
HETATM    1  O   UNL     1      -9.104   9.742  71.291  1.00  0.00    -0.261 OA 
HETATM    2  H   UNL     1      -8.769   8.927  71.647  1.00  0.00     0.000 HD 
HETATM    3  C   UNL     1      -9.373   9.608  69.914  1.00  0.00    -0.228 C  
HETATM    4  N   UNL     1      -9.884  10.851  69.371  1.00  0.00    -0.428 NA 
HETATM    5  H   UNL     1     -10.259  11.562  70.000  1.00  0.00     0.000 HD 
HETATM    6  C   UNL     1      -9.867  11.065  68.104  1.00  0.00    -0.176 C  
HETATM    7  C   UNL     1      -8.670  10.484  65.994  1.00  0.00    -0.174 A  
HETATM    8  C   UNL     1      -9.425  10.045  67.093  1.00  0.00    -0.184 A  
HETATM    9 CL   UNL     1      -7.471  10.160  63.600  1.00  0.00    -0.144 Cl 
HETATM   10  C   UNL     1      -9.816   8.692  67.173  1.00  0.00    -0.207 A  
HETATM   11  N   UNL     1     -10.499   8.118  68.258  1.00  0.00    -0.318 N  
HETATM   12  C   UNL     1      -9.518   7.827  66.111  1.00  0.00    -0.135 A  
HETATM   13  O   UNL     1     -11.072   7.886  70.420  1.00  0.00    -0.254 OA 
HETATM   14  C   UNL     1      -8.786   8.279  65.011  1.00  0.00    -0.048 A  
HETATM   15  C   UNL     1     -10.408   8.495  69.580  1.00  0.00    -0.218 C  
HETATM   16  C   UNL     1      -8.360   9.601  64.962  1.00  0.00    -0.141 A  
HETATM   17  H   UNL     1     -11.127   7.343  68.045  1.00  0.00     0.000 HD 
ENDROOT
BRANCH   6  18
HETATM   18  C   UNL     1     -10.354  12.419  67.632  1.00  0.00    -0.223 A  
HETATM   19  C   UNL     1     -11.339  14.897  66.708  1.00  0.00    -0.328 A  
HETATM   20  C   UNL     1     -12.152  13.770  66.678  1.00  0.00    -0.471 A  
HETATM   21  C   UNL     1      -9.541  13.570  67.664  1.00  0.00    -0.222 A  
HETATM   22  C   UNL     1     -11.673  12.545  67.157  1.00  0.00    -0.425 A  
HETATM   23  C   UNL     1     -10.043  14.800  67.212  1.00  0.00    -0.236 A  
HETATM   24 CL   UNL     1      -7.886  13.585  68.172  1.00  0.00    -0.132 Cl 
ENDBRANCH   6  18
TORSDOF 1
ENDMDL
MODEL      105
REMARK 921   NORMALIZED FREE ENERGY PREDICTED BY IDOCK:   -4.66 KCAL/MOL
REMARK 922        TOTAL FREE ENERGY PREDICTED BY IDOCK:   -5.56 KCAL/MOL
REMARK 923 INTER-LIGAND FREE ENERGY PREDICTED BY IDOCK:   -5.22 KCAL/MOL
REMARK 924 INTRA-LIGAND FREE ENERGY PREDICTED BY IDOCK:   -0.34 KCAL/MOL
REMARK 927      BINDING AFFINITY PREDICTED BY RF-SCORE:    0.00 PKD
ROOT
HETATM    1  O   UNL     1     -10.394   9.215  65.818  1.00  0.00    -0.266 OA 
HETATM    2  H   UNL     1      -9.780   9.244  65.094  1.00  0.00     0.000 HD 
HETATM    3  C   UNL     1      -9.786   9.675  67.003  1.00  0.00    -0.195 C  
HETATM    4  N   UNL     1     -10.723   9.631  68.107  1.00  0.00    -0.327 NA 
HETATM    5  H   UNL     1     -11.725   9.570  67.920  1.00  0.00     0.000 HD 
HETATM    6  C   UNL     1     -10.304   9.667  69.321  1.00  0.00    -0.209 C  
HETATM    7  C   UNL     1      -8.358   9.115  70.781  1.00  0.00    -0.248 A  
HETATM    8  C   UNL     1      -8.861   9.853  69.698  1.00  0.00    -0.224 A  
HETATM    9 CL   UNL     1      -6.479   8.478  72.609  1.00  0.00    -0.100 Cl 
HETATM   10  C   UNL     1      -8.033  10.798  69.056  1.00  0.00    -0.137 A  
HETATM   11  N   UNL     1      -8.394  11.535  67.916  1.00  0.00    -0.130 N  
HETATM   12  C   UNL     1      -6.752  11.048  69.565  1.00  0.00    -0.126 A  
HETATM   13  O   UNL     1      -9.457  11.894  65.968  1.00  0.00    -0.231 OA 
HETATM   14  C   UNL     1      -6.268  10.324  70.657  1.00  0.00    -0.093 A  
HETATM   15  C   UNL     1      -9.245  11.130  66.910  1.00  0.00    -0.169 C  
HETATM   16  C   UNL     1      -7.070   9.358  71.254  1.00  0.00     0.072 A  
HETATM   17  H   UNL     1      -7.985  12.464  67.823  1.00  0.00     0.000 HD 
ENDROOT
BRANCH   6  18
HETATM   18  C   UNL     1     -11.347   9.545  70.411  1.00  0.00    -0.318 A  
HETATM   19  C   UNL     1     -13.286   9.217  72.436  1.00  0.00    -0.512 A  
HETATM   20  C   UNL     1     -12.505   8.137  72.038  1.00  0.00    -0.375 A  
HETATM   21  C   UNL     1     -12.140  10.633  70.828  1.00  0.00    -0.374 A  
HETATM   22  C   UNL     1     -11.528   8.303  71.051  1.00  0.00    -0.303 A  
HETATM   23  C   UNL     1     -13.094  10.463  71.842  1.00  0.00    -0.563 A  
HETATM   24 CL   UNL     1     -12.082  12.212  70.120  1.00  0.00    -0.394 Cl 
ENDBRANCH   6  18
TORSDOF 1
ENDMDL
MODEL      106
REMARK 921   NORMALIZED FREE ENERGY PREDICTED BY IDOCK:   -4.66 KCAL/MOL
REMARK 922        TOTAL FREE ENERGY PREDICTED BY IDOCK:   -5.56 KCAL/MOL
REMARK 923 INTER-LIGAND FREE ENERGY PREDICTED BY IDOCK:   -5.63 KCAL/MOL
REMARK 924 INTRA-LIGAND FREE ENERGY PREDICTED BY IDOCK:    0.07 KCAL/MOL
REMARK 927      BINDING AFFINITY PREDICTED BY RF-SCORE:    0.00 PKD
ROOT
HETATM    1  O   UNL     1     -11.241   5.840  69.626  1.00  0.00    -0.353 OA 
HETATM    2  H   UNL     1     -10.800   5.061  69.307  1.00  0.00     0.000 HD 
HETATM    3  C   UNL     1     -10.648   7.001  69.091  1.00  0.00    -0.219 C  
HETATM    4  N   UNL     1     -11.321   8.188  69.578  1.00  0.00    -0.420 NA 
HETATM    5  H   UNL     1     -12.255   8.111  69.982  1.00  0.00     0.000 HD 
HETATM    6  C   UNL     1     -10.750   9.337  69.507  1.00  0.00    -0.222 C  
HETATM    7  C   UNL     1      -8.526  10.465  69.447  1.00  0.00    -0.145 A  
HETATM    8  C   UNL     1      -9.421   9.567  68.844  1.00  0.00    -0.155 A  
HETATM    9 CL   UNL     1      -6.275  11.948  69.525  1.00  0.00    -0.105 Cl 
HETATM   10  C   UNL     1      -9.089   8.979  67.606  1.00  0.00    -0.133 A  
HETATM   11  N   UNL     1      -9.861   8.008  66.947  1.00  0.00    -0.224 N  
HETATM   12  C   UNL     1      -7.909   9.366  66.956  1.00  0.00    -0.098 A  
HETATM   13  O   UNL     1     -11.282   6.271  66.817  1.00  0.00    -0.310 OA 
HETATM   14  C   UNL     1      -7.035  10.277  67.553  1.00  0.00    -0.085 A  
HETATM   15  C   UNL     1     -10.668   7.060  67.537  1.00  0.00    -0.281 C  
HETATM   16  C   UNL     1      -7.344  10.815  68.798  1.00  0.00    -0.104 A  
HETATM   17  H   UNL     1      -9.820   8.005  65.928  1.00  0.00     0.000 HD 
ENDROOT
BRANCH   6  18
HETATM   18  C   UNL     1     -11.496  10.511  70.104  1.00  0.00    -0.405 A  
HETATM   19  C   UNL     1     -12.835  12.761  71.159  1.00  0.00    -0.315 A  
HETATM   20  C   UNL     1     -12.087  12.880  69.993  1.00  0.00    -0.357 A  
HETATM   21  C   UNL     1     -12.264  10.402  71.282  1.00  0.00    -0.389 A  
HETATM   22  C   UNL     1     -11.442  11.761  69.456  1.00  0.00    -0.363 A  
HETATM   23  C   UNL     1     -12.934  11.524  71.792  1.00  0.00    -0.500 A  
HETATM   24 CL   UNL     1     -12.402   8.959  72.228  1.00  0.00    -0.444 Cl 
ENDBRANCH   6  18
TORSDOF 1
ENDMDL
MODEL      107
REMARK 921   NORMALIZED FREE ENERGY PREDICTED BY IDOCK:   -4.62 KCAL/MOL
REMARK 922        TOTAL FREE ENERGY PREDICTED BY IDOCK:   -5.51 KCAL/MOL
REMARK 923 INTER-LIGAND FREE ENERGY PREDICTED BY IDOCK:   -4.93 KCAL/MOL
REMARK 924 INTRA-LIGAND FREE ENERGY PREDICTED BY IDOCK:   -0.58 KCAL/MOL
REMARK 927      BINDING AFFINITY PREDICTED BY RF-SCORE:    0.00 PKD
ROOT
HETATM    1  O   UNL     1      -6.287   7.838  71.475  1.00  0.00    -0.038 OA 
HETATM    2  H   UNL     1      -6.025   8.421  72.177  1.00  0.00     0.000 HD 
HETATM    3  C   UNL     1      -7.612   8.103  71.076  1.00  0.00    -0.083 C  
HETATM    4  N   UNL     1      -8.012   7.213  70.005  1.00  0.00    -0.116 NA 
HETATM    5  H   UNL     1      -7.300   6.720  69.464  1.00  0.00     0.000 HD 
HETATM    6  C   UNL     1      -9.255   7.040  69.729  1.00  0.00    -0.147 C  
HETATM    7  C   UNL     1     -11.546   7.094  70.713  1.00  0.00    -0.358 A  
HETATM    8  C   UNL     1     -10.369   7.792  70.401  1.00  0.00    -0.212 A  
HETATM    9 CL   UNL     1     -14.107   6.922  71.543  1.00  0.00    -0.359 Cl 
HETATM   10  C   UNL     1     -10.297   9.180  70.645  1.00  0.00    -0.246 A  
HETATM   11  N   UNL     1      -9.151   9.968  70.453  1.00  0.00    -0.317 N  
HETATM   12  C   UNL     1     -11.432   9.854  71.114  1.00  0.00    -0.459 A  
HETATM   13  O   UNL     1      -6.941  10.378  70.381  1.00  0.00    -0.253 OA 
HETATM   14  C   UNL     1     -12.606   9.155  71.400  1.00  0.00    -0.390 A  
HETATM   15  C   UNL     1      -7.841   9.560  70.579  1.00  0.00    -0.157 C  
HETATM   16  C   UNL     1     -12.655   7.779  71.205  1.00  0.00    -0.264 A  
HETATM   17  H   UNL     1      -9.303  10.942  70.192  1.00  0.00     0.000 HD 
ENDROOT
BRANCH   6  18
HETATM   18  C   UNL     1      -9.582   6.038  68.642  1.00  0.00    -0.141 A  
HETATM   19  C   UNL     1     -10.133   4.105  66.662  1.00  0.00    -0.055 A  
HETATM   20  C   UNL     1      -9.509   3.729  67.846  1.00  0.00    -0.224 A  
HETATM   21  C   UNL     1     -10.221   6.405  67.441  1.00  0.00    -0.178 A  
HETATM   22  C   UNL     1      -9.256   4.682  68.839  1.00  0.00    -0.181 A  
HETATM   23  C   UNL     1     -10.500   5.435  66.467  1.00  0.00    -0.352 A  
HETATM   24 CL   UNL     1     -10.648   8.029  67.017  1.00  0.00    -0.405 Cl 
ENDBRANCH   6  18
TORSDOF 1
ENDMDL
MODEL      108
REMARK 921   NORMALIZED FREE ENERGY PREDICTED BY IDOCK:   -4.59 KCAL/MOL
REMARK 922        TOTAL FREE ENERGY PREDICTED BY IDOCK:   -5.48 KCAL/MOL
REMARK 923 INTER-LIGAND FREE ENERGY PREDICTED BY IDOCK:   -4.93 KCAL/MOL
REMARK 924 INTRA-LIGAND FREE ENERGY PREDICTED BY IDOCK:   -0.54 KCAL/MOL
REMARK 927      BINDING AFFINITY PREDICTED BY RF-SCORE:    0.00 PKD
ROOT
HETATM    1  O   UNL     1     -10.302  18.797  65.427  1.00  0.00    -0.433 OA 
HETATM    2  H   UNL     1     -11.093  18.740  64.904  1.00  0.00     0.000 HD 
HETATM    3  C   UNL     1     -10.253  17.750  66.370  1.00  0.00    -0.365 C  
HETATM    4  N   UNL     1      -9.046  17.837  67.167  1.00  0.00    -0.242 NA 
HETATM    5  H   UNL     1      -8.259  18.395  66.836  1.00  0.00     0.000 HD 
HETATM    6  C   UNL     1      -8.959  17.216  68.289  1.00  0.00    -0.248 C  
HETATM    7  C   UNL     1     -10.307  16.324  70.190  1.00  0.00     0.025 A  
HETATM    8  C   UNL     1     -10.023  16.294  68.815  1.00  0.00    -0.237 A  
HETATM    9 CL   UNL     1     -11.488  15.409  72.435  1.00  0.00    -0.528 Cl 
HETATM   10  C   UNL     1     -10.675  15.353  67.990  1.00  0.00    -0.279 A  
HETATM   11  N   UNL     1     -10.538  15.280  66.594  1.00  0.00    -0.299 N  
HETATM   12  C   UNL     1     -11.529  14.406  68.571  1.00  0.00    -0.326 A  
HETATM   13  O   UNL     1     -10.202  16.102  64.529  1.00  0.00    -0.074 OA 
HETATM   14  C   UNL     1     -11.788  14.429  69.943  1.00  0.00    -0.382 A  
HETATM   15  C   UNL     1     -10.291  16.330  65.736  1.00  0.00    -0.374 C  
HETATM   16  C   UNL     1     -11.181  15.391  70.743  1.00  0.00    -0.346 A  
HETATM   17  H   UNL     1     -10.630  14.357  66.173  1.00  0.00     0.000 HD 
ENDROOT
BRANCH   6  18
HETATM   18  C   UNL     1      -7.690  17.420  69.089  1.00  0.00    -0.055 A  
HETATM   19  C   UNL     1      -5.332  17.900  70.563  1.00  0.00    -0.273 A  
HETATM   20  C   UNL     1      -6.173  18.956  70.232  1.00  0.00    -0.036 A  
HETATM   21  C   UNL     1      -6.833  16.357  69.436  1.00  0.00    -0.217 A  
HETATM   22  C   UNL     1      -7.354  18.718  69.522  1.00  0.00     0.069 A  
HETATM   23  C   UNL     1      -5.669  16.603  70.178  1.00  0.00    -0.203 A  
HETATM   24 CL   UNL     1      -7.070  14.712  68.948  1.00  0.00    -0.109 Cl 
ENDBRANCH   6  18
TORSDOF 1
ENDMDL
MODEL      109
REMARK 921   NORMALIZED FREE ENERGY PREDICTED BY IDOCK:   -4.56 KCAL/MOL
REMARK 922        TOTAL FREE ENERGY PREDICTED BY IDOCK:   -5.45 KCAL/MOL
REMARK 923 INTER-LIGAND FREE ENERGY PREDICTED BY IDOCK:   -5.04 KCAL/MOL
REMARK 924 INTRA-LIGAND FREE ENERGY PREDICTED BY IDOCK:   -0.41 KCAL/MOL
REMARK 927      BINDING AFFINITY PREDICTED BY RF-SCORE:    0.00 PKD
ROOT
HETATM    1  O   UNL     1     -12.406   7.873  71.079  1.00  0.00    -0.441 OA 
HETATM    2  H   UNL     1     -12.761   8.509  71.690  1.00  0.00     0.000 HD 
HETATM    3  C   UNL     1     -11.480   8.482  70.210  1.00  0.00    -0.060 C  
HETATM    4  N   UNL     1     -10.939   7.513  69.279  1.00  0.00    -0.420 NA 
HETATM    5  H   UNL     1     -11.019   6.516  69.483  1.00  0.00     0.000 HD 
HETATM    6  C   UNL     1     -10.359   7.898  68.199  1.00  0.00    -0.200 C  
HETATM    7  C   UNL     1     -10.275   9.745  66.525  1.00  0.00    -0.289 A  
HETATM    8  C   UNL     1     -10.106   9.339  67.858  1.00  0.00    -0.246 A  
HETATM    9 CL   UNL     1     -10.086  11.507  64.492  1.00  0.00    -0.304 Cl 
HETATM   10  C   UNL     1      -9.629  10.263  68.812  1.00  0.00    -0.175 A  
HETATM   11  N   UNL     1      -9.498  10.001  70.185  1.00  0.00    -0.396 N  
HETATM   12  C   UNL     1      -9.248  11.546  68.395  1.00  0.00    -0.190 A  
HETATM   13  O   UNL     1     -10.037   9.030  72.141  1.00  0.00    -0.296 OA 
HETATM   14  C   UNL     1      -9.398  11.933  67.062  1.00  0.00    -0.188 A  
HETATM   15  C   UNL     1     -10.277   9.149  70.938  1.00  0.00    -0.282 C  
HETATM   16  C   UNL     1      -9.917  11.034  66.136  1.00  0.00    -0.231 A  
HETATM   17  H   UNL     1      -8.751  10.491  70.676  1.00  0.00     0.000 HD 
ENDROOT
BRANCH   6  18
HETATM   18  C   UNL     1      -9.888   6.816  67.251  1.00  0.00    -0.187 A  
HETATM   19  C   UNL     1      -9.092   4.746  65.505  1.00  0.00    -0.152 A  
HETATM   20  C   UNL     1     -10.399   4.794  65.977  1.00  0.00    -0.328 A  
HETATM   21  C   UNL     1      -8.568   6.760  66.760  1.00  0.00    -0.119 A  
HETATM   22  C   UNL     1     -10.801   5.832  66.824  1.00  0.00    -0.327 A  
HETATM   23  C   UNL     1      -8.185   5.734  65.884  1.00  0.00    -0.121 A  
HETATM   24 CL   UNL     1      -7.308   7.857  67.216  1.00  0.00    -0.090 Cl 
ENDBRANCH   6  18
TORSDOF 1
ENDMDL
MODEL      110
REMARK 921   NORMALIZED FREE ENERGY PREDICTED BY IDOCK:   -4.51 KCAL/MOL
REMARK 922        TOTAL FREE ENERGY PREDICTED BY IDOCK:   -5.39 KCAL/MOL
REMARK 923 INTER-LIGAND FREE ENERGY PREDICTED BY IDOCK:   -4.82 KCAL/MOL
REMARK 924 INTRA-LIGAND FREE ENERGY PREDICTED BY IDOCK:   -0.57 KCAL/MOL
REMARK 927      BINDING AFFINITY PREDICTED BY RF-SCORE:    0.00 PKD
ROOT
HETATM    1  O   UNL     1      -8.318   8.611  72.846  1.00  0.00    -0.400 OA 
HETATM    2  H   UNL     1      -8.333   7.850  73.415  1.00  0.00     0.000 HD 
HETATM    3  C   UNL     1      -9.010   8.348  71.647  1.00  0.00    -0.199 C  
HETATM    4  N   UNL     1      -8.986   9.509  70.779  1.00  0.00    -0.291 NA 
HETATM    5  H   UNL     1      -8.765  10.426  71.167  1.00  0.00     0.000 HD 
HETATM    6  C   UNL     1      -9.241   9.391  69.525  1.00  0.00    -0.176 C  
HETATM    7  C   UNL     1      -9.159   7.796  67.609  1.00  0.00    -0.138 A  
HETATM    8  C   UNL     1      -9.671   8.104  68.880  1.00  0.00    -0.156 A  
HETATM    9 CL   UNL     1      -9.035   6.343  65.341  1.00  0.00     0.023 Cl 
HETATM   10  C   UNL     1     -10.626   7.251  69.471  1.00  0.00    -0.234 A  
HETATM   11  N   UNL     1     -11.147   7.407  70.766  1.00  0.00    -0.259 N  
HETATM   12  C   UNL     1     -11.114   6.157  68.744  1.00  0.00    -0.398 A  
HETATM   13  O   UNL     1     -11.095   8.015  72.930  1.00  0.00    -0.392 OA 
HETATM   14  C   UNL     1     -10.615   5.871  67.471  1.00  0.00    -0.347 A  
HETATM   15  C   UNL     1     -10.500   7.952  71.853  1.00  0.00    -0.228 C  
HETATM   16  C   UNL     1      -9.637   6.687  66.914  1.00  0.00    -0.157 A  
HETATM   17  H   UNL     1     -12.103   7.085  70.917  1.00  0.00     0.000 HD 
ENDROOT
BRANCH   6  18
HETATM   18  C   UNL     1      -9.124  10.643  68.682  1.00  0.00    -0.170 A  
HETATM   19  C   UNL     1      -8.806  12.975  67.125  1.00  0.00    -0.218 A  
HETATM   20  C   UNL     1      -7.699  12.203  67.456  1.00  0.00    -0.159 A  
HETATM   21  C   UNL     1     -10.240  11.430  68.334  1.00  0.00    -0.198 A  
HETATM   22  C   UNL     1      -7.857  11.034  68.208  1.00  0.00    -0.121 A  
HETATM   23  C   UNL     1     -10.073  12.582  67.551  1.00  0.00    -0.207 A  
HETATM   24 CL   UNL     1     -11.858  11.122  68.869  1.00  0.00    -0.400 Cl 
ENDBRANCH   6  18
TORSDOF 1
ENDMDL
MODEL      111
REMARK 921   NORMALIZED FREE ENERGY PREDICTED BY IDOCK:   -4.51 KCAL/MOL
REMARK 922        TOTAL FREE ENERGY PREDICTED BY IDOCK:   -5.39 KCAL/MOL
REMARK 923 INTER-LIGAND FREE ENERGY PREDICTED BY IDOCK:   -4.79 KCAL/MOL
REMARK 924 INTRA-LIGAND FREE ENERGY PREDICTED BY IDOCK:   -0.60 KCAL/MOL
REMARK 927      BINDING AFFINITY PREDICTED BY RF-SCORE:    0.00 PKD
ROOT
HETATM    1  O   UNL     1     -10.906   9.929  70.725  1.00  0.00    -0.309 OA 
HETATM    2  H   UNL     1     -11.772   9.557  70.838  1.00  0.00     0.000 HD 
HETATM    3  C   UNL     1     -10.855  10.730  69.567  1.00  0.00    -0.242 C  
HETATM    4  N   UNL     1      -9.534  11.298  69.396  1.00  0.00    -0.370 NA 
HETATM    5  H   UNL     1      -8.890  11.329  70.187  1.00  0.00     0.000 HD 
HETATM    6  C   UNL     1      -9.165  11.762  68.256  1.00  0.00    -0.188 C  
HETATM    7  C   UNL     1      -9.534  11.550  65.798  1.00  0.00    -0.255 A  
HETATM    8  C   UNL     1     -10.071  11.848  67.060  1.00  0.00    -0.226 A  
HETATM    9 CL   UNL     1      -9.613  11.426  63.105  1.00  0.00    -0.379 Cl 
HETATM   10  C   UNL     1     -11.405  12.297  67.160  1.00  0.00    -0.335 A  
HETATM   11  N   UNL     1     -12.077  12.547  68.368  1.00  0.00    -0.195 N  
HETATM   12  C   UNL     1     -12.144  12.521  65.991  1.00  0.00    -0.390 A  
HETATM   13  O   UNL     1     -12.549  12.240  70.545  1.00  0.00    -0.206 OA 
HETATM   14  C   UNL     1     -11.594  12.243  64.739  1.00  0.00    -0.393 A  
HETATM   15  C   UNL     1     -11.871  11.908  69.572  1.00  0.00    -0.331 C  
HETATM   16  C   UNL     1     -10.296  11.753  64.649  1.00  0.00    -0.290 A  
HETATM   17  H   UNL     1     -12.791  13.275  68.353  1.00  0.00     0.000 HD 
ENDROOT
BRANCH   6  18
HETATM   18  C   UNL     1      -7.743  12.270  68.150  1.00  0.00    -0.138 A  
HETATM   19  C   UNL     1      -5.128  13.312  67.945  1.00  0.00    -0.098 A  
HETATM   20  C   UNL     1      -6.198  14.162  68.202  1.00  0.00    -0.133 A  
HETATM   21  C   UNL     1      -6.650  11.418  67.897  1.00  0.00    -0.059 A  
HETATM   22  C   UNL     1      -7.492  13.645  68.326  1.00  0.00    -0.124 A  
HETATM   23  C   UNL     1      -5.352  11.943  67.808  1.00  0.00    -0.063 A  
HETATM   24 CL   UNL     1      -6.784   9.715  67.610  1.00  0.00    -0.066 Cl 
ENDBRANCH   6  18
TORSDOF 1
ENDMDL
MODEL      112
REMARK 921   NORMALIZED FREE ENERGY PREDICTED BY IDOCK:   -4.50 KCAL/MOL
REMARK 922        TOTAL FREE ENERGY PREDICTED BY IDOCK:   -5.38 KCAL/MOL
REMARK 923 INTER-LIGAND FREE ENERGY PREDICTED BY IDOCK:   -5.72 KCAL/MOL
REMARK 924 INTRA-LIGAND FREE ENERGY PREDICTED BY IDOCK:    0.34 KCAL/MOL
REMARK 927      BINDING AFFINITY PREDICTED BY RF-SCORE:    0.00 PKD
ROOT
HETATM    1  O   UNL     1     -10.936  11.342  62.811  1.00  0.00    -0.723 OA 
HETATM    2  H   UNL     1     -11.318  11.972  62.212  1.00  0.00     0.000 HD 
HETATM    3  C   UNL     1     -10.830  11.889  64.105  1.00  0.00    -0.356 C  
HETATM    4  N   UNL     1     -10.247  10.927  65.020  1.00  0.00    -0.289 NA 
HETATM    5  H   UNL     1     -10.237   9.936  64.774  1.00  0.00     0.000 HD 
HETATM    6  C   UNL     1      -9.744  11.311  66.138  1.00  0.00    -0.220 C  
HETATM    7  C   UNL     1      -8.669  13.248  67.286  1.00  0.00    -0.214 A  
HETATM    8  C   UNL     1      -9.798  12.729  66.631  1.00  0.00    -0.250 A  
HETATM    9 CL   UNL     1      -7.350  15.112  68.719  1.00  0.00    -0.123 Cl 
HETATM   10  C   UNL     1     -10.966  13.514  66.532  1.00  0.00    -0.291 A  
HETATM   11  N   UNL     1     -12.126  13.140  65.833  1.00  0.00    -0.428 N  
HETATM   12  C   UNL     1     -11.010  14.765  67.164  1.00  0.00    -0.320 A  
HETATM   13  O   UNL     1     -13.289  12.109  64.208  1.00  0.00    -0.761 OA 
HETATM   14  C   UNL     1      -9.889  15.262  67.832  1.00  0.00    -0.216 A  
HETATM   15  C   UNL     1     -12.188  12.343  64.711  1.00  0.00    -0.423 C  
HETATM   16  C   UNL     1      -8.724  14.505  67.883  1.00  0.00    -0.165 A  
HETATM   17  H   UNL     1     -13.012  13.494  66.193  1.00  0.00     0.000 HD 
ENDROOT
BRANCH   6  18
HETATM   18  C   UNL     1      -9.094  10.248  66.998  1.00  0.00    -0.154 A  
HETATM   19  C   UNL     1      -7.973   8.241  68.635  1.00  0.00    -0.122 A  
HETATM   20  C   UNL     1      -9.343   8.260  68.396  1.00  0.00    -0.136 A  
HETATM   21  C   UNL     1      -7.706  10.215  67.242  1.00  0.00    -0.095 A  
HETATM   22  C   UNL     1      -9.897   9.240  67.566  1.00  0.00    -0.224 A  
HETATM   23  C   UNL     1      -7.157   9.207  68.049  1.00  0.00    -0.078 A  
HETATM   24 CL   UNL     1      -6.583  11.398  66.663  1.00  0.00    -0.134 Cl 
ENDBRANCH   6  18
TORSDOF 1
ENDMDL
MODEL      113
REMARK 921   NORMALIZED FREE ENERGY PREDICTED BY IDOCK:   -4.46 KCAL/MOL
REMARK 922        TOTAL FREE ENERGY PREDICTED BY IDOCK:   -5.34 KCAL/MOL
REMARK 923 INTER-LIGAND FREE ENERGY PREDICTED BY IDOCK:   -4.72 KCAL/MOL
REMARK 924 INTRA-LIGAND FREE ENERGY PREDICTED BY IDOCK:   -0.62 KCAL/MOL
REMARK 927      BINDING AFFINITY PREDICTED BY RF-SCORE:    0.00 PKD
ROOT
HETATM    1  O   UNL     1      -7.886  11.631  69.489  1.00  0.00    -0.336 OA 
HETATM    2  H   UNL     1      -8.150  12.271  70.140  1.00  0.00     0.000 HD 
HETATM    3  C   UNL     1      -8.335  12.009  68.209  1.00  0.00    -0.163 C  
HETATM    4  N   UNL     1      -7.931  11.034  67.217  1.00  0.00    -0.121 NA 
HETATM    5  H   UNL     1      -7.179  10.377  67.429  1.00  0.00     0.000 HD 
HETATM    6  C   UNL     1      -8.511  10.989  66.071  1.00  0.00    -0.158 C  
HETATM    7  C   UNL     1     -10.653  11.489  64.894  1.00  0.00    -0.360 A  
HETATM    8  C   UNL     1      -9.558  11.972  65.629  1.00  0.00    -0.205 A  
HETATM    9 CL   UNL     1     -12.886  11.781  63.410  1.00  0.00    -0.539 Cl 
HETATM   10  C   UNL     1      -9.429  13.358  65.856  1.00  0.00    -0.023 A  
HETATM   11  N   UNL     1      -8.428  13.951  66.642  1.00  0.00    -0.428 N  
HETATM   12  C   UNL     1     -10.349  14.239  65.270  1.00  0.00    -0.417 A  
HETATM   13  O   UNL     1      -6.945  14.049  68.330  1.00  0.00    -0.085 OA 
HETATM   14  C   UNL     1     -11.422  13.751  64.522  1.00  0.00    -0.401 A  
HETATM   15  C   UNL     1      -7.807  13.395  67.740  1.00  0.00    -0.158 C  
HETATM   16  C   UNL     1     -11.573  12.380  64.344  1.00  0.00    -0.354 A  
HETATM   17  H   UNL     1      -8.130  14.888  66.373  1.00  0.00     0.000 HD 
ENDROOT
BRANCH   6  18
HETATM   18  C   UNL     1      -8.074   9.892  65.124  1.00  0.00    -0.138 A  
HETATM   19  C   UNL     1      -7.228   7.918  63.293  1.00  0.00    -0.091 A  
HETATM   20  C   UNL     1      -6.838   9.241  63.119  1.00  0.00    -0.090 A  
HETATM   21  C   UNL     1      -8.457   8.546  65.293  1.00  0.00    -0.174 A  
HETATM   22  C   UNL     1      -7.237  10.217  64.038  1.00  0.00    -0.106 A  
HETATM   23  C   UNL     1      -8.023   7.570  64.384  1.00  0.00    -0.117 A  
HETATM   24 CL   UNL     1      -9.516   7.981  66.541  1.00  0.00    -0.260 Cl 
ENDBRANCH   6  18
TORSDOF 1
ENDMDL
MODEL      114
REMARK 921   NORMALIZED FREE ENERGY PREDICTED BY IDOCK:   -4.43 KCAL/MOL
REMARK 922        TOTAL FREE ENERGY PREDICTED BY IDOCK:   -5.31 KCAL/MOL
REMARK 923 INTER-LIGAND FREE ENERGY PREDICTED BY IDOCK:   -4.68 KCAL/MOL
REMARK 924 INTRA-LIGAND FREE ENERGY PREDICTED BY IDOCK:   -0.63 KCAL/MOL
REMARK 927      BINDING AFFINITY PREDICTED BY RF-SCORE:    0.00 PKD
ROOT
HETATM    1  O   UNL     1     -14.402   6.995  71.434  1.00  0.00    -0.330 OA 
HETATM    2  H   UNL     1     -15.136   7.598  71.412  1.00  0.00     0.000 HD 
HETATM    3  C   UNL     1     -13.207   7.654  71.084  1.00  0.00    -0.136 C  
HETATM    4  N   UNL     1     -12.088   6.734  71.118  1.00  0.00    -0.369 NA 
HETATM    5  H   UNL     1     -12.172   5.853  71.627  1.00  0.00     0.000 HD 
HETATM    6  C   UNL     1     -10.990   7.018  70.513  1.00  0.00    -0.265 C  
HETATM    7  C   UNL     1     -10.038   8.310  68.603  1.00  0.00    -0.212 A  
HETATM    8  C   UNL     1     -10.737   8.328  69.821  1.00  0.00    -0.221 A  
HETATM    9 CL   UNL     1      -8.763   9.473  66.530  1.00  0.00    -0.142 Cl 
HETATM   10  C   UNL     1     -11.102   9.563  70.396  1.00  0.00    -0.277 A  
HETATM   11  N   UNL     1     -11.871   9.708  71.562  1.00  0.00    -0.390 N  
HETATM   12  C   UNL     1     -10.685  10.754  69.786  1.00  0.00    -0.241 A  
HETATM   13  O   UNL     1     -13.444   9.122  73.058  1.00  0.00    -0.270 OA 
HETATM   14  C   UNL     1      -9.970  10.727  68.587  1.00  0.00    -0.189 A  
HETATM   15  C   UNL     1     -12.852   8.852  72.011  1.00  0.00    -0.397 C  
HETATM   16  C   UNL     1      -9.657   9.506  67.999  1.00  0.00    -0.137 A  
HETATM   17  H   UNL     1     -11.683  10.530  72.135  1.00  0.00     0.000 HD 
ENDROOT
BRANCH   6  18
HETATM   18  C   UNL     1      -9.900   5.968  70.541  1.00  0.00    -0.222 A  
HETATM   19  C   UNL     1      -7.931   3.947  70.551  1.00  0.00    -0.054 A  
HETATM   20  C   UNL     1      -9.079   3.796  69.782  1.00  0.00    -0.192 A  
HETATM   21  C   UNL     1      -8.729   6.112  71.312  1.00  0.00    -0.132 A  
HETATM   22  C   UNL     1     -10.046   4.807  69.757  1.00  0.00    -0.289 A  
HETATM   23  C   UNL     1      -7.751   5.107  71.302  1.00  0.00    -0.101 A  
HETATM   24 CL   UNL     1      -8.410   7.450  72.365  1.00  0.00    -0.117 Cl 
ENDBRANCH   6  18
TORSDOF 1
ENDMDL
MODEL      115
REMARK 921   NORMALIZED FREE ENERGY PREDICTED BY IDOCK:   -4.42 KCAL/MOL
REMARK 922        TOTAL FREE ENERGY PREDICTED BY IDOCK:   -5.30 KCAL/MOL
REMARK 923 INTER-LIGAND FREE ENERGY PREDICTED BY IDOCK:   -5.09 KCAL/MOL
REMARK 924 INTRA-LIGAND FREE ENERGY PREDICTED BY IDOCK:   -0.21 KCAL/MOL
REMARK 927      BINDING AFFINITY PREDICTED BY RF-SCORE:    0.00 PKD
ROOT
HETATM    1  O   UNL     1      -8.409  11.158  69.478  1.00  0.00    -0.369 OA 
HETATM    2  H   UNL     1      -7.845  11.319  70.224  1.00  0.00     0.000 HD 
HETATM    3  C   UNL     1      -8.365  12.241  68.578  1.00  0.00    -0.084 C  
HETATM    4  N   UNL     1      -9.226  11.995  67.439  1.00  0.00    -0.175 NA 
HETATM    5  H   UNL     1      -9.532  11.043  67.232  1.00  0.00     0.000 HD 
HETATM    6  C   UNL     1      -9.606  12.964  66.687  1.00  0.00    -0.257 C  
HETATM    7  C   UNL     1     -10.061  15.417  66.664  1.00  0.00    -0.273 A  
HETATM    8  C   UNL     1      -9.133  14.381  66.851  1.00  0.00    -0.269 A  
HETATM    9 CL   UNL     1     -10.776  18.003  66.393  1.00  0.00    -0.227 Cl 
HETATM   10  C   UNL     1      -7.780  14.695  67.100  1.00  0.00    -0.088 A  
HETATM   11  N   UNL     1      -6.778  13.753  67.384  1.00  0.00    -0.249 N  
HETATM   12  C   UNL     1      -7.369  16.035  67.070  1.00  0.00    -0.258 A  
HETATM   13  O   UNL     1      -5.957  11.829  68.208  1.00  0.00    -0.049 OA 
HETATM   14  C   UNL     1      -8.297  17.058  66.861  1.00  0.00    -0.247 A  
HETATM   15  C   UNL     1      -6.942  12.547  68.029  1.00  0.00    -0.095 C  
HETATM   16  C   UNL     1      -9.637  16.744  66.666  1.00  0.00    -0.258 A  
HETATM   17  H   UNL     1      -5.832  13.986  67.082  1.00  0.00     0.000 HD 
ENDROOT
BRANCH   6  18
HETATM   18  C   UNL     1     -10.562  12.625  65.562  1.00  0.00    -0.301 A  
HETATM   19  C   UNL     1     -12.419  12.014  63.527  1.00  0.00    -0.654 A  
HETATM   20  C   UNL     1     -12.833  12.696  64.665  1.00  0.00    -0.361 A  
HETATM   21  C   UNL     1     -10.152  11.940  64.400  1.00  0.00    -0.279 A  
HETATM   22  C   UNL     1     -11.909  13.020  65.665  1.00  0.00    -0.445 A  
HETATM   23  C   UNL     1     -11.081  11.650  63.390  1.00  0.00    -0.422 A  
HETATM   24 CL   UNL     1      -8.549  11.342  64.132  1.00  0.00     0.267 Cl 
ENDBRANCH   6  18
TORSDOF 1
ENDMDL
MODEL      116
REMARK 921   NORMALIZED FREE ENERGY PREDICTED BY IDOCK:   -4.42 KCAL/MOL
REMARK 922        TOTAL FREE ENERGY PREDICTED BY IDOCK:   -5.30 KCAL/MOL
REMARK 923 INTER-LIGAND FREE ENERGY PREDICTED BY IDOCK:   -4.67 KCAL/MOL
REMARK 924 INTRA-LIGAND FREE ENERGY PREDICTED BY IDOCK:   -0.63 KCAL/MOL
REMARK 927      BINDING AFFINITY PREDICTED BY RF-SCORE:    0.00 PKD
ROOT
HETATM    1  O   UNL     1      -9.257   9.930  71.184  1.00  0.00    -0.244 OA 
HETATM    2  H   UNL     1      -9.146   9.049  71.520  1.00  0.00     0.000 HD 
HETATM    3  C   UNL     1      -9.385   9.914  69.781  1.00  0.00    -0.221 C  
HETATM    4  N   UNL     1      -9.554  11.258  69.267  1.00  0.00    -0.409 NA 
HETATM    5  H   UNL     1      -9.842  12.008  69.897  1.00  0.00     0.000 HD 
HETATM    6  C   UNL     1      -9.343  11.514  68.026  1.00  0.00    -0.175 C  
HETATM    7  C   UNL     1      -8.056  10.772  66.022  1.00  0.00    -0.158 A  
HETATM    8  C   UNL     1      -9.011  10.464  67.004  1.00  0.00    -0.150 A  
HETATM    9 CL   UNL     1      -6.680  10.291  63.753  1.00  0.00    -0.107 Cl 
HETATM   10  C   UNL     1      -9.685   9.225  66.954  1.00  0.00    -0.190 A  
HETATM   11  N   UNL     1     -10.596   8.770  67.921  1.00  0.00    -0.400 N  
HETATM   12  C   UNL     1      -9.454   8.359  65.877  1.00  0.00    -0.169 A  
HETATM   13  O   UNL     1     -11.455   8.581  69.991  1.00  0.00    -0.098 OA 
HETATM   14  C   UNL     1      -8.518   8.685  64.893  1.00  0.00    -0.180 A  
HETATM   15  C   UNL     1     -10.584   9.066  69.267  1.00  0.00    -0.213 C  
HETATM   16  C   UNL     1      -7.820   9.884  64.974  1.00  0.00    -0.131 A  
HETATM   17  H   UNL     1     -11.344   8.159  67.594  1.00  0.00     0.000 HD 
ENDROOT
BRANCH   6  18
HETATM   18  C   UNL     1      -9.475  12.958  67.592  1.00  0.00    -0.197 A  
HETATM   19  C   UNL     1      -9.649  15.676  66.849  1.00  0.00    -0.244 A  
HETATM   20  C   UNL     1      -8.573  15.229  67.609  1.00  0.00    -0.178 A  
HETATM   21  C   UNL     1     -10.557  13.422  66.816  1.00  0.00    -0.277 A  
HETATM   22  C   UNL     1      -8.473  13.878  67.958  1.00  0.00    -0.173 A  
HETATM   23  C   UNL     1     -10.629  14.772  66.443  1.00  0.00    -0.300 A  
HETATM   24 CL   UNL     1     -11.895  12.441  66.320  1.00  0.00    -0.454 Cl 
ENDBRANCH   6  18
TORSDOF 1
ENDMDL
MODEL      117
REMARK 921   NORMALIZED FREE ENERGY PREDICTED BY IDOCK:   -4.39 KCAL/MOL
REMARK 922        TOTAL FREE ENERGY PREDICTED BY IDOCK:   -5.27 KCAL/MOL
REMARK 923 INTER-LIGAND FREE ENERGY PREDICTED BY IDOCK:   -5.68 KCAL/MOL
REMARK 924 INTRA-LIGAND FREE ENERGY PREDICTED BY IDOCK:    0.41 KCAL/MOL
REMARK 927      BINDING AFFINITY PREDICTED BY RF-SCORE:    0.00 PKD
ROOT
HETATM    1  O   UNL     1     -13.110  11.999  71.791  1.00  0.00    -0.445 OA 
HETATM    2  H   UNL     1     -13.261  11.730  72.689  1.00  0.00     0.000 HD 
HETATM    3  C   UNL     1     -12.316  11.051  71.115  1.00  0.00    -0.359 C  
HETATM    4  N   UNL     1     -12.087  11.461  69.744  1.00  0.00    -0.322 NA 
HETATM    5  H   UNL     1     -12.692  12.165  69.318  1.00  0.00     0.000 HD 
HETATM    6  C   UNL     1     -11.128  10.947  69.061  1.00  0.00    -0.246 C  
HETATM    7  C   UNL     1      -8.879   9.887  69.256  1.00  0.00    -0.178 A  
HETATM    8  C   UNL     1     -10.247   9.839  69.565  1.00  0.00    -0.238 A  
HETATM    9 CL   UNL     1      -6.385   8.864  69.159  1.00  0.00    -0.042 Cl 
HETATM   10  C   UNL     1     -10.766   8.725  70.258  1.00  0.00    -0.227 A  
HETATM   11  N   UNL     1     -12.095   8.601  70.695  1.00  0.00    -0.482 N  
HETATM   12  C   UNL     1      -9.923   7.644  70.550  1.00  0.00    -0.184 A  
HETATM   13  O   UNL     1     -14.079   9.350  71.441  1.00  0.00    -0.230 OA 
HETATM   14  C   UNL     1      -8.567   7.691  70.219  1.00  0.00    -0.143 A  
HETATM   15  C   UNL     1     -12.934   9.624  71.076  1.00  0.00    -0.251 C  
HETATM   16  C   UNL     1      -8.051   8.814  69.581  1.00  0.00    -0.101 A  
HETATM   17  H   UNL     1     -12.478   7.656  70.733  1.00  0.00     0.000 HD 
ENDROOT
BRANCH   6  18
HETATM   18  C   UNL     1     -10.918  11.486  67.662  1.00  0.00    -0.296 A  
HETATM   19  C   UNL     1     -10.462  12.416  65.036  1.00  0.00    -0.324 A  
HETATM   20  C   UNL     1     -10.044  11.143  65.406  1.00  0.00    -0.317 A  
HETATM   21  C   UNL     1     -11.344  12.772  67.273  1.00  0.00    -0.314 A  
HETATM   22  C   UNL     1     -10.290  10.671  66.700  1.00  0.00    -0.297 A  
HETATM   23  C   UNL     1     -11.122  13.221  65.963  1.00  0.00    -0.298 A  
HETATM   24 CL   UNL     1     -12.088  13.919  68.336  1.00  0.00    -0.385 Cl 
ENDBRANCH   6  18
TORSDOF 1
ENDMDL
MODEL      118
REMARK 921   NORMALIZED FREE ENERGY PREDICTED BY IDOCK:   -4.38 KCAL/MOL
REMARK 922        TOTAL FREE ENERGY PREDICTED BY IDOCK:   -5.26 KCAL/MOL
REMARK 923 INTER-LIGAND FREE ENERGY PREDICTED BY IDOCK:   -4.75 KCAL/MOL
REMARK 924 INTRA-LIGAND FREE ENERGY PREDICTED BY IDOCK:   -0.51 KCAL/MOL
REMARK 927      BINDING AFFINITY PREDICTED BY RF-SCORE:    0.00 PKD
ROOT
HETATM    1  O   UNL     1      -5.442  13.022  67.321  1.00  0.00    -0.335 OA 
HETATM    2  H   UNL     1      -4.958  12.238  67.089  1.00  0.00     0.000 HD 
HETATM    3  C   UNL     1      -6.821  12.840  67.092  1.00  0.00     0.023 C  
HETATM    4  N   UNL     1      -7.559  14.036  67.447  1.00  0.00    -0.272 NA 
HETATM    5  H   UNL     1      -7.128  14.736  68.052  1.00  0.00     0.000 HD 
HETATM    6  C   UNL     1      -8.751  14.222  67.005  1.00  0.00    -0.212 C  
HETATM    7  C   UNL     1     -10.296  13.669  65.125  1.00  0.00    -0.381 A  
HETATM    8  C   UNL     1      -9.505  13.209  66.190  1.00  0.00    -0.156 A  
HETATM    9 CL   UNL     1     -12.117  13.367  63.160  1.00  0.00    -0.390 Cl 
HETATM   10  C   UNL     1      -9.506  11.836  66.515  1.00  0.00    -0.214 A  
HETATM   11  N   UNL     1      -8.697  11.245  67.499  1.00  0.00    -0.136 N  
HETATM   12  C   UNL     1     -10.363  10.967  65.825  1.00  0.00    -0.316 A  
HETATM   13  O   UNL     1      -6.855  11.026  68.770  1.00  0.00    -0.062 OA 
HETATM   14  C   UNL     1     -11.163  11.439  64.782  1.00  0.00    -0.197 A  
HETATM   15  C   UNL     1      -7.441  11.657  67.889  1.00  0.00    -0.105 C  
HETATM   16  C   UNL     1     -11.120  12.784  64.434  1.00  0.00    -0.349 A  
HETATM   17  H   UNL     1      -9.078  10.427  67.975  1.00  0.00     0.000 HD 
ENDROOT
BRANCH   6  18
HETATM   18  C   UNL     1      -9.420  15.531  67.367  1.00  0.00    -0.213 A  
HETATM   19  C   UNL     1     -10.746  17.920  68.074  1.00  0.00    -0.307 A  
HETATM   20  C   UNL     1     -11.234  16.696  68.517  1.00  0.00    -0.239 A  
HETATM   21  C   UNL     1      -8.931  16.779  66.930  1.00  0.00    -0.223 A  
HETATM   22  C   UNL     1     -10.565  15.512  68.187  1.00  0.00    -0.266 A  
HETATM   23  C   UNL     1      -9.591  17.961  67.295  1.00  0.00    -0.273 A  
HETATM   24 CL   UNL     1      -7.567  16.981  65.883  1.00  0.00    -0.125 Cl 
ENDBRANCH   6  18
TORSDOF 1
ENDMDL
MODEL      119
REMARK 921   NORMALIZED FREE ENERGY PREDICTED BY IDOCK:   -4.38 KCAL/MOL
REMARK 922        TOTAL FREE ENERGY PREDICTED BY IDOCK:   -5.26 KCAL/MOL
REMARK 923 INTER-LIGAND FREE ENERGY PREDICTED BY IDOCK:   -4.66 KCAL/MOL
REMARK 924 INTRA-LIGAND FREE ENERGY PREDICTED BY IDOCK:   -0.60 KCAL/MOL
REMARK 927      BINDING AFFINITY PREDICTED BY RF-SCORE:    0.00 PKD
ROOT
HETATM    1  O   UNL     1      -9.361   7.395  65.429  1.00  0.00    -0.297 OA 
HETATM    2  H   UNL     1      -8.760   7.223  64.714  1.00  0.00     0.000 HD 
HETATM    3  C   UNL     1      -9.017   8.590  66.091  1.00  0.00    -0.179 C  
HETATM    4  N   UNL     1      -9.934   8.852  67.182  1.00  0.00    -0.204 NA 
HETATM    5  H   UNL     1     -10.838   8.380  67.207  1.00  0.00     0.000 HD 
HETATM    6  C   UNL     1      -9.617   9.674  68.118  1.00  0.00    -0.143 C  
HETATM    7  C   UNL     1      -7.680  10.664  69.337  1.00  0.00    -0.132 A  
HETATM    8  C   UNL     1      -8.354  10.488  68.119  1.00  0.00    -0.119 A  
HETATM    9 CL   UNL     1      -5.795  11.768  70.919  1.00  0.00    -0.024 Cl 
HETATM   10  C   UNL     1      -7.881  11.140  66.961  1.00  0.00    -0.142 A  
HETATM   11  N   UNL     1      -8.419  10.977  65.673  1.00  0.00    -0.309 N  
HETATM   12  C   UNL     1      -6.798  12.023  67.064  1.00  0.00    -0.097 A  
HETATM   13  O   UNL     1      -9.439   9.857  64.012  1.00  0.00    -0.277 OA 
HETATM   14  C   UNL     1      -6.147  12.210  68.285  1.00  0.00    -0.052 A  
HETATM   15  C   UNL     1      -9.019   9.843  65.170  1.00  0.00    -0.198 C  
HETATM   16  C   UNL     1      -6.587  11.525  69.412  1.00  0.00    -0.117 A  
HETATM   17  H   UNL     1      -8.359  11.780  65.047  1.00  0.00     0.000 HD 
ENDROOT
BRANCH   6  18
HETATM   18  C   UNL     1     -10.605   9.832  69.253  1.00  0.00    -0.240 A  
HETATM   19  C   UNL     1     -12.451  10.226  71.352  1.00  0.00    -0.528 A  
HETATM   20  C   UNL     1     -12.242  11.229  70.412  1.00  0.00    -0.453 A  
HETATM   21  C   UNL     1     -10.831   8.821  70.209  1.00  0.00    -0.231 A  
HETATM   22  C   UNL     1     -11.344  11.027  69.358  1.00  0.00    -0.352 A  
HETATM   23  C   UNL     1     -11.758   9.022  71.242  1.00  0.00    -0.382 A  
HETATM   24 CL   UNL     1      -9.979   7.314  70.257  1.00  0.00    -0.187 Cl 
ENDBRANCH   6  18
TORSDOF 1
ENDMDL
MODEL      120
REMARK 921   NORMALIZED FREE ENERGY PREDICTED BY IDOCK:   -4.37 KCAL/MOL
REMARK 922        TOTAL FREE ENERGY PREDICTED BY IDOCK:   -5.24 KCAL/MOL
REMARK 923 INTER-LIGAND FREE ENERGY PREDICTED BY IDOCK:   -5.08 KCAL/MOL
REMARK 924 INTRA-LIGAND FREE ENERGY PREDICTED BY IDOCK:   -0.16 KCAL/MOL
REMARK 927      BINDING AFFINITY PREDICTED BY RF-SCORE:    0.00 PKD
ROOT
HETATM    1  O   UNL     1      -6.773  15.925  67.165  1.00  0.00    -0.190 OA 
HETATM    2  H   UNL     1      -5.945  16.014  67.623  1.00  0.00     0.000 HD 
HETATM    3  C   UNL     1      -7.331  14.651  67.390  1.00  0.00    -0.168 C  
HETATM    4  N   UNL     1      -8.593  14.515  66.691  1.00  0.00    -0.438 NA 
HETATM    5  H   UNL     1      -9.087  15.349  66.372  1.00  0.00     0.000 HD 
HETATM    6  C   UNL     1      -9.095  13.353  66.471  1.00  0.00    -0.113 C  
HETATM    7  C   UNL     1      -8.507  10.951  66.145  1.00  0.00    -0.171 A  
HETATM    8  C   UNL     1      -8.494  12.075  66.985  1.00  0.00    -0.183 A  
HETATM    9 CL   UNL     1      -8.152   8.332  65.604  1.00  0.00    -0.116 Cl 
HETATM   10  C   UNL     1      -8.001  11.954  68.301  1.00  0.00    -0.148 A  
HETATM   11  N   UNL     1      -7.861  13.020  69.205  1.00  0.00    -0.304 N  
HETATM   12  C   UNL     1      -7.614  10.694  68.777  1.00  0.00    -0.109 A  
HETATM   13  O   UNL     1      -7.495  15.157  69.804  1.00  0.00    -0.203 OA 
HETATM   14  C   UNL     1      -7.652   9.577  67.941  1.00  0.00    -0.087 A  
HETATM   15  C   UNL     1      -7.594  14.335  68.891  1.00  0.00    -0.113 C  
HETATM   16  C   UNL     1      -8.091   9.712  66.628  1.00  0.00    -0.119 A  
HETATM   17  H   UNL     1      -7.967  12.799  70.194  1.00  0.00     0.000 HD 
ENDROOT
BRANCH   6  18
HETATM   18  C   UNL     1     -10.379  13.302  65.672  1.00  0.00    -0.292 A  
HETATM   19  C   UNL     1     -12.721  13.192  64.099  1.00  0.00    -0.158 A  
HETATM   20  C   UNL     1     -11.509  12.756  63.575  1.00  0.00    -0.521 A  
HETATM   21  C   UNL     1     -11.615  13.734  66.194  1.00  0.00    -0.352 A  
HETATM   22  C   UNL     1     -10.352  12.788  64.361  1.00  0.00    -0.388 A  
HETATM   23  C   UNL     1     -12.775  13.666  65.409  1.00  0.00    -0.500 A  
HETATM   24 CL   UNL     1     -11.821  14.434  67.765  1.00  0.00    -0.406 Cl 
ENDBRANCH   6  18
TORSDOF 1
ENDMDL
MODEL      121
REMARK 921   NORMALIZED FREE ENERGY PREDICTED BY IDOCK:   -4.35 KCAL/MOL
REMARK 922        TOTAL FREE ENERGY PREDICTED BY IDOCK:   -5.23 KCAL/MOL
REMARK 923 INTER-LIGAND FREE ENERGY PREDICTED BY IDOCK:   -4.62 KCAL/MOL
REMARK 924 INTRA-LIGAND FREE ENERGY PREDICTED BY IDOCK:   -0.61 KCAL/MOL
REMARK 927      BINDING AFFINITY PREDICTED BY RF-SCORE:    0.00 PKD
ROOT
HETATM    1  O   UNL     1     -10.662   7.251  69.490  1.00  0.00    -0.233 OA 
HETATM    2  H   UNL     1     -11.466   7.047  69.954  1.00  0.00     0.000 HD 
HETATM    3  C   UNL     1     -10.642   8.605  69.103  1.00  0.00    -0.178 C  
HETATM    4  N   UNL     1      -9.416   8.916  68.397  1.00  0.00    -0.140 NA 
HETATM    5  H   UNL     1      -8.611   8.295  68.482  1.00  0.00     0.000 HD 
HETATM    6  C   UNL     1      -9.333   9.968  67.663  1.00  0.00    -0.144 C  
HETATM    7  C   UNL     1     -10.679  11.559  66.292  1.00  0.00    -0.321 A  
HETATM    8  C   UNL     1     -10.427  10.992  67.551  1.00  0.00    -0.244 A  
HETATM    9 CL   UNL     1     -11.853  13.326  64.627  1.00  0.00    -0.396 Cl 
HETATM   10  C   UNL     1     -11.140  11.455  68.677  1.00  0.00    -0.236 A  
HETATM   11  N   UNL     1     -11.036  10.913  69.969  1.00  0.00    -0.426 N  
HETATM   12  C   UNL     1     -12.025  12.533  68.535  1.00  0.00    -0.266 A  
HETATM   13  O   UNL     1     -10.707   9.280  71.479  1.00  0.00    -0.334 OA 
HETATM   14  C   UNL     1     -12.252  13.105  67.282  1.00  0.00    -0.234 A  
HETATM   15  C   UNL     1     -10.760   9.602  70.291  1.00  0.00    -0.281 C  
HETATM   16  C   UNL     1     -11.584  12.611  66.167  1.00  0.00    -0.393 A  
HETATM   17  H   UNL     1     -11.181  11.555  70.748  1.00  0.00     0.000 HD 
ENDROOT
BRANCH   6  18
HETATM   18  C   UNL     1      -8.039  10.176  66.906  1.00  0.00    -0.121 A  
HETATM   19  C   UNL     1      -5.616  10.652  65.540  1.00  0.00    -0.135 A  
HETATM   20  C   UNL     1      -5.960  11.431  66.639  1.00  0.00    -0.147 A  
HETATM   21  C   UNL     1      -7.676   9.389  65.795  1.00  0.00    -0.099 A  
HETATM   22  C   UNL     1      -7.150  11.182  67.332  1.00  0.00    -0.102 A  
HETATM   23  C   UNL     1      -6.464   9.626  65.129  1.00  0.00    -0.088 A  
HETATM   24 CL   UNL     1      -8.669   8.145  65.111  1.00  0.00    -0.104 Cl 
ENDBRANCH   6  18
TORSDOF 1
ENDMDL
MODEL      122
REMARK 921   NORMALIZED FREE ENERGY PREDICTED BY IDOCK:   -4.32 KCAL/MOL
REMARK 922        TOTAL FREE ENERGY PREDICTED BY IDOCK:   -5.20 KCAL/MOL
REMARK 923 INTER-LIGAND FREE ENERGY PREDICTED BY IDOCK:   -4.61 KCAL/MOL
REMARK 924 INTRA-LIGAND FREE ENERGY PREDICTED BY IDOCK:   -0.59 KCAL/MOL
REMARK 927      BINDING AFFINITY PREDICTED BY RF-SCORE:    0.00 PKD
ROOT
HETATM    1  O   UNL     1      -6.536  15.167  67.959  1.00  0.00    -0.117 OA 
HETATM    2  H   UNL     1      -6.371  15.776  68.669  1.00  0.00     0.000 HD 
HETATM    3  C   UNL     1      -7.887  14.768  67.950  1.00  0.00    -0.137 C  
HETATM    4  N   UNL     1      -8.138  13.839  66.867  1.00  0.00    -0.389 NA 
HETATM    5  H   UNL     1      -7.479  13.777  66.089  1.00  0.00     0.000 HD 
HETATM    6  C   UNL     1      -9.184  13.092  66.876  1.00  0.00    -0.236 C  
HETATM    7  C   UNL     1     -10.834  11.983  68.383  1.00  0.00    -0.266 A  
HETATM    8  C   UNL     1     -10.258  13.178  67.923  1.00  0.00    -0.233 A  
HETATM    9 CL   UNL     1     -12.652  10.551  69.768  1.00  0.00    -0.168 Cl 
HETATM   10  C   UNL     1     -10.757  14.414  68.387  1.00  0.00    -0.245 A  
HETATM   11  N   UNL     1     -10.212  15.668  68.066  1.00  0.00    -0.225 N  
HETATM   12  C   UNL     1     -11.874  14.430  69.232  1.00  0.00    -0.365 A  
HETATM   13  O   UNL     1      -8.569  17.106  67.533  1.00  0.00    -0.200 OA 
HETATM   14  C   UNL     1     -12.454  13.236  69.666  1.00  0.00    -0.019 A  
HETATM   15  C   UNL     1      -8.890  15.946  67.794  1.00  0.00    -0.175 C  
HETATM   16  C   UNL     1     -11.927  12.020  69.245  1.00  0.00    -0.270 A  
HETATM   17  H   UNL     1     -10.862  16.453  68.031  1.00  0.00     0.000 HD 
ENDROOT
BRANCH   6  18
HETATM   18  C   UNL     1      -9.329  12.102  65.741  1.00  0.00    -0.091 A  
HETATM   19  C   UNL     1      -9.689  10.295  63.603  1.00  0.00    -0.276 A  
HETATM   20  C   UNL     1     -10.515  11.406  63.721  1.00  0.00    -0.456 A  
HETATM   21  C   UNL     1      -8.493  10.975  65.606  1.00  0.00    -0.099 A  
HETATM   22  C   UNL     1     -10.324  12.316  64.767  1.00  0.00    -0.320 A  
HETATM   23  C   UNL     1      -8.673  10.088  64.534  1.00  0.00    -0.214 A  
HETATM   24 CL   UNL     1      -7.254  10.536  66.734  1.00  0.00    -0.108 Cl 
ENDBRANCH   6  18
TORSDOF 1
ENDMDL
MODEL      123
REMARK 921   NORMALIZED FREE ENERGY PREDICTED BY IDOCK:   -4.29 KCAL/MOL
REMARK 922        TOTAL FREE ENERGY PREDICTED BY IDOCK:   -5.17 KCAL/MOL
REMARK 923 INTER-LIGAND FREE ENERGY PREDICTED BY IDOCK:   -4.56 KCAL/MOL
REMARK 924 INTRA-LIGAND FREE ENERGY PREDICTED BY IDOCK:   -0.60 KCAL/MOL
REMARK 927      BINDING AFFINITY PREDICTED BY RF-SCORE:    0.00 PKD
ROOT
HETATM    1  O   UNL     1     -13.203   8.388  70.986  1.00  0.00    -0.512 OA 
HETATM    2  H   UNL     1     -13.415   9.105  71.572  1.00  0.00     0.000 HD 
HETATM    3  C   UNL     1     -11.818   8.346  70.731  1.00  0.00    -0.163 C  
HETATM    4  N   UNL     1     -11.495   7.252  69.838  1.00  0.00    -0.492 NA 
HETATM    5  H   UNL     1     -12.161   6.489  69.711  1.00  0.00     0.000 HD 
HETATM    6  C   UNL     1     -10.377   7.234  69.206  1.00  0.00    -0.205 C  
HETATM    7  C   UNL     1      -8.586   8.696  68.269  1.00  0.00    -0.138 A  
HETATM    8  C   UNL     1      -9.294   8.257  69.399  1.00  0.00    -0.155 A  
HETATM    9 CL   UNL     1      -6.597  10.032  67.031  1.00  0.00    -0.069 Cl 
HETATM   10  C   UNL     1      -8.918   8.719  70.679  1.00  0.00    -0.186 A  
HETATM   11  N   UNL     1      -9.598   8.417  71.870  1.00  0.00    -0.227 N  
HETATM   12  C   UNL     1      -7.789   9.539  70.809  1.00  0.00    -0.093 A  
HETATM   13  O   UNL     1     -11.395   7.929  73.130  1.00  0.00    -0.361 OA 
HETATM   14  C   UNL     1      -7.078   9.952  69.681  1.00  0.00    -0.093 A  
HETATM   15  C   UNL     1     -10.947   8.176  72.009  1.00  0.00    -0.286 C  
HETATM   16  C   UNL     1      -7.484   9.535  68.418  1.00  0.00    -0.077 A  
HETATM   17  H   UNL     1      -9.035   8.373  72.719  1.00  0.00     0.000 HD 
ENDROOT
BRANCH   6  18
HETATM   18  C   UNL     1     -10.154   6.089  68.240  1.00  0.00    -0.194 A  
HETATM   19  C   UNL     1      -9.815   3.989  66.385  1.00  0.00    -0.178 A  
HETATM   20  C   UNL     1     -10.602   5.087  66.057  1.00  0.00    -0.286 A  
HETATM   21  C   UNL     1      -9.353   4.974  68.558  1.00  0.00    -0.127 A  
HETATM   22  C   UNL     1     -10.753   6.140  66.966  1.00  0.00    -0.423 A  
HETATM   23  C   UNL     1      -9.182   3.940  67.626  1.00  0.00    -0.203 A  
HETATM   24 CL   UNL     1      -8.583   4.728  70.090  1.00  0.00    -0.095 Cl 
ENDBRANCH   6  18
TORSDOF 1
ENDMDL
MODEL      124
REMARK 921   NORMALIZED FREE ENERGY PREDICTED BY IDOCK:   -4.28 KCAL/MOL
REMARK 922        TOTAL FREE ENERGY PREDICTED BY IDOCK:   -5.16 KCAL/MOL
REMARK 923 INTER-LIGAND FREE ENERGY PREDICTED BY IDOCK:   -4.71 KCAL/MOL
REMARK 924 INTRA-LIGAND FREE ENERGY PREDICTED BY IDOCK:   -0.44 KCAL/MOL
REMARK 927      BINDING AFFINITY PREDICTED BY RF-SCORE:    0.00 PKD
ROOT
HETATM    1  O   UNL     1     -13.001   7.886  72.485  1.00  0.00    -0.533 OA 
HETATM    2  H   UNL     1     -13.751   8.342  72.123  1.00  0.00     0.000 HD 
HETATM    3  C   UNL     1     -12.062   7.594  71.476  1.00  0.00    -0.310 C  
HETATM    4  N   UNL     1     -10.917   6.899  72.028  1.00  0.00    -0.229 NA 
HETATM    5  H   UNL     1     -10.741   6.931  73.033  1.00  0.00     0.000 HD 
HETATM    6  C   UNL     1     -10.122   6.241  71.263  1.00  0.00    -0.189 C  
HETATM    7  C   UNL     1      -9.997   4.999  69.103  1.00  0.00    -0.267 A  
HETATM    8  C   UNL     1     -10.240   6.213  69.766  1.00  0.00    -0.249 A  
HETATM    9 CL   UNL     1      -9.615   3.476  66.911  1.00  0.00    -0.199 Cl 
HETATM   10  C   UNL     1     -10.502   7.376  69.012  1.00  0.00    -0.210 A  
HETATM   11  N   UNL     1     -10.840   8.625  69.558  1.00  0.00    -0.376 N  
HETATM   12  C   UNL     1     -10.429   7.320  67.614  1.00  0.00    -0.310 A  
HETATM   13  O   UNL     1     -11.751  10.013  71.075  1.00  0.00    -0.334 OA 
HETATM   14  C   UNL     1     -10.164   6.113  66.964  1.00  0.00    -0.253 A  
HETATM   15  C   UNL     1     -11.527   8.851  70.731  1.00  0.00    -0.275 C  
HETATM   16  C   UNL     1      -9.957   4.959  67.711  1.00  0.00    -0.131 A  
HETATM   17  H   UNL     1     -10.547   9.449  69.034  1.00  0.00     0.000 HD 
ENDROOT
BRANCH   6  18
HETATM   18  C   UNL     1      -8.994   5.486  71.934  1.00  0.00    -0.142 A  
HETATM   19  C   UNL     1      -6.828   4.116  73.117  1.00  0.00    -0.057 A  
HETATM   20  C   UNL     1      -6.591   5.114  72.179  1.00  0.00    -0.044 A  
HETATM   21  C   UNL     1      -9.221   4.477  72.892  1.00  0.00    -0.123 A  
HETATM   22  C   UNL     1      -7.663   5.811  71.609  1.00  0.00    -0.101 A  
HETATM   23  C   UNL     1      -8.138   3.809  73.481  1.00  0.00    -0.087 A  
HETATM   24 CL   UNL     1     -10.789   3.921  73.373  1.00  0.00    -0.294 Cl 
ENDBRANCH   6  18
TORSDOF 1
ENDMDL
MODEL      125
REMARK 921   NORMALIZED FREE ENERGY PREDICTED BY IDOCK:   -4.24 KCAL/MOL
REMARK 922        TOTAL FREE ENERGY PREDICTED BY IDOCK:   -5.11 KCAL/MOL
REMARK 923 INTER-LIGAND FREE ENERGY PREDICTED BY IDOCK:   -4.49 KCAL/MOL
REMARK 924 INTRA-LIGAND FREE ENERGY PREDICTED BY IDOCK:   -0.62 KCAL/MOL
REMARK 927      BINDING AFFINITY PREDICTED BY RF-SCORE:    0.00 PKD
ROOT
HETATM    1  O   UNL     1     -10.724   4.934  65.066  1.00  0.00    -0.456 OA 
HETATM    2  H   UNL     1     -11.367   4.236  65.122  1.00  0.00     0.000 HD 
HETATM    3  C   UNL     1     -10.413   5.427  66.348  1.00  0.00    -0.267 C  
HETATM    4  N   UNL     1      -9.433   6.491  66.262  1.00  0.00    -0.314 NA 
HETATM    5  H   UNL     1      -8.871   6.595  65.416  1.00  0.00     0.000 HD 
HETATM    6  C   UNL     1      -9.265   7.305  67.242  1.00  0.00    -0.131 C  
HETATM    7  C   UNL     1     -10.416   8.348  69.194  1.00  0.00    -0.218 A  
HETATM    8  C   UNL     1      -9.972   7.176  68.562  1.00  0.00    -0.163 A  
HETATM    9 CL   UNL     1     -11.450   9.737  71.262  1.00  0.00    -0.449 Cl 
HETATM   10  C   UNL     1     -10.123   5.934  69.214  1.00  0.00    -0.194 A  
HETATM   11  N   UNL     1      -9.795   4.689  68.652  1.00  0.00    -0.148 N  
HETATM   12  C   UNL     1     -10.634   5.900  70.518  1.00  0.00    -0.342 A  
HETATM   13  O   UNL     1      -9.528   3.208  66.981  1.00  0.00    -0.178 OA 
HETATM   14  C   UNL     1     -11.053   7.074  71.147  1.00  0.00    -0.288 A  
HETATM   15  C   UNL     1      -9.846   4.350  67.317  1.00  0.00    -0.162 C  
HETATM   16  C   UNL     1     -10.949   8.290  70.480  1.00  0.00    -0.242 A  
HETATM   17  H   UNL     1      -9.487   3.962  69.297  1.00  0.00     0.000 HD 
ENDROOT
BRANCH   6  18
HETATM   18  C   UNL     1      -8.271   8.428  67.037  1.00  0.00    -0.107 A  
HETATM   19  C   UNL     1      -6.363  10.485  66.730  1.00  0.00    -0.079 A  
HETATM   20  C   UNL     1      -6.057   9.359  67.486  1.00  0.00    -0.053 A  
HETATM   21  C   UNL     1      -8.567   9.571  66.267  1.00  0.00    -0.130 A  
HETATM   22  C   UNL     1      -6.993   8.328  67.621  1.00  0.00    -0.079 A  
HETATM   23  C   UNL     1      -7.608  10.583  66.111  1.00  0.00    -0.135 A  
HETATM   24 CL   UNL     1     -10.099   9.877  65.521  1.00  0.00    -0.354 Cl 
ENDBRANCH   6  18
TORSDOF 1
ENDMDL
MODEL      126
REMARK 921   NORMALIZED FREE ENERGY PREDICTED BY IDOCK:   -4.22 KCAL/MOL
REMARK 922        TOTAL FREE ENERGY PREDICTED BY IDOCK:   -5.09 KCAL/MOL
REMARK 923 INTER-LIGAND FREE ENERGY PREDICTED BY IDOCK:   -4.82 KCAL/MOL
REMARK 924 INTRA-LIGAND FREE ENERGY PREDICTED BY IDOCK:   -0.27 KCAL/MOL
REMARK 927      BINDING AFFINITY PREDICTED BY RF-SCORE:    0.00 PKD
ROOT
HETATM    1  O   UNL     1     -13.165   9.458  72.801  1.00  0.00    -0.542 OA 
HETATM    2  H   UNL     1     -14.075   9.674  72.637  1.00  0.00     0.000 HD 
HETATM    3  C   UNL     1     -12.370   9.770  71.679  1.00  0.00    -0.408 C  
HETATM    4  N   UNL     1     -10.982   9.441  71.930  1.00  0.00    -0.235 NA 
HETATM    5  H   UNL     1     -10.657   9.309  72.889  1.00  0.00     0.000 HD 
HETATM    6  C   UNL     1     -10.155   9.313  70.955  1.00  0.00    -0.302 C  
HETATM    7  C   UNL     1      -9.992   8.725  68.536  1.00  0.00    -0.200 A  
HETATM    8  C   UNL     1     -10.512   9.581  69.520  1.00  0.00    -0.234 A  
HETATM    9 CL   UNL     1      -9.502   7.986  65.989  1.00  0.00    -0.181 Cl 
HETATM   10  C   UNL     1     -11.275  10.703  69.134  1.00  0.00    -0.265 A  
HETATM   11  N   UNL     1     -11.915  11.581  70.024  1.00  0.00    -0.339 N  
HETATM   12  C   UNL     1     -11.429  10.994  67.771  1.00  0.00    -0.339 A  
HETATM   13  O   UNL     1     -12.966  12.155  71.927  1.00  0.00    -0.387 OA 
HETATM   14  C   UNL     1     -10.889  10.149  66.800  1.00  0.00    -0.129 A  
HETATM   15  C   UNL     1     -12.426  11.268  71.264  1.00  0.00    -0.336 C  
HETATM   16  C   UNL     1     -10.180   9.017  67.186  1.00  0.00    -0.265 A  
HETATM   17  H   UNL     1     -12.011  12.550  69.721  1.00  0.00     0.000 HD 
ENDROOT
BRANCH   6  18
HETATM   18  C   UNL     1      -8.741   8.899  71.304  1.00  0.00    -0.279 A  
HETATM   19  C   UNL     1      -6.143   8.071  72.031  1.00  0.00    -0.043 A  
HETATM   20  C   UNL     1      -7.253   7.410  72.544  1.00  0.00    -0.073 A  
HETATM   21  C   UNL     1      -7.608   9.557  70.785  1.00  0.00    -0.071 A  
HETATM   22  C   UNL     1      -8.541   7.804  72.167  1.00  0.00    -0.166 A  
HETATM   23  C   UNL     1      -6.320   9.131  71.144  1.00  0.00    -0.074 A  
HETATM   24 CL   UNL     1      -7.671  10.945  69.752  1.00  0.00     0.043 Cl 
ENDBRANCH   6  18
TORSDOF 1
ENDMDL
MODEL      127
REMARK 921   NORMALIZED FREE ENERGY PREDICTED BY IDOCK:   -4.19 KCAL/MOL
REMARK 922        TOTAL FREE ENERGY PREDICTED BY IDOCK:   -5.06 KCAL/MOL
REMARK 923 INTER-LIGAND FREE ENERGY PREDICTED BY IDOCK:   -5.04 KCAL/MOL
REMARK 924 INTRA-LIGAND FREE ENERGY PREDICTED BY IDOCK:   -0.02 KCAL/MOL
REMARK 927      BINDING AFFINITY PREDICTED BY RF-SCORE:    0.00 PKD
ROOT
HETATM    1  O   UNL     1      -7.294   9.885  70.627  1.00  0.00    -0.278 OA 
HETATM    2  H   UNL     1      -6.902   9.398  71.343  1.00  0.00     0.000 HD 
HETATM    3  C   UNL     1      -8.311   9.129  70.011  1.00  0.00    -0.150 C  
HETATM    4  N   UNL     1      -8.908   9.871  68.919  1.00  0.00    -0.138 NA 
HETATM    5  H   UNL     1      -8.783  10.883  68.867  1.00  0.00     0.000 HD 
HETATM    6  C   UNL     1      -9.593   9.266  68.016  1.00  0.00    -0.142 C  
HETATM    7  C   UNL     1      -9.876   7.077  66.854  1.00  0.00    -0.259 A  
HETATM    8  C   UNL     1      -9.913   7.799  68.058  1.00  0.00    -0.210 A  
HETATM    9 CL   UNL     1     -10.293   4.889  65.333  1.00  0.00    -0.074 Cl 
HETATM   10  C   UNL     1     -10.326   7.154  69.243  1.00  0.00    -0.203 A  
HETATM   11  N   UNL     1     -10.325   7.744  70.517  1.00  0.00    -0.203 N  
HETATM   12  C   UNL     1     -10.776   5.828  69.183  1.00  0.00    -0.370 A  
HETATM   13  O   UNL     1      -9.587   9.129  72.127  1.00  0.00    -0.276 OA 
HETATM   14  C   UNL     1     -10.757   5.126  67.977  1.00  0.00     0.114 A  
HETATM   15  C   UNL     1      -9.460   8.714  70.974  1.00  0.00    -0.207 C  
HETATM   16  C   UNL     1     -10.301   5.751  66.821  1.00  0.00    -0.256 A  
HETATM   17  H   UNL     1     -11.038   7.422  71.171  1.00  0.00     0.000 HD 
ENDROOT
BRANCH   6  18
HETATM   18  C   UNL     1     -10.119  10.110  66.874  1.00  0.00    -0.279 A  
HETATM   19  C   UNL     1     -11.026  11.649  64.690  1.00  0.00    -0.363 A  
HETATM   20  C   UNL     1     -10.089  10.642  64.490  1.00  0.00    -0.421 A  
HETATM   21  C   UNL     1     -11.074  11.130  67.063  1.00  0.00    -0.273 A  
HETATM   22  C   UNL     1      -9.656   9.862  65.568  1.00  0.00    -0.341 A  
HETATM   23  C   UNL     1     -11.526  11.882  65.969  1.00  0.00    -0.344 A  
HETATM   24 CL   UNL     1     -11.714  11.597  68.603  1.00  0.00    -0.364 Cl 
ENDBRANCH   6  18
TORSDOF 1
ENDMDL
MODEL      128
REMARK 921   NORMALIZED FREE ENERGY PREDICTED BY IDOCK:   -4.19 KCAL/MOL
REMARK 922        TOTAL FREE ENERGY PREDICTED BY IDOCK:   -5.06 KCAL/MOL
REMARK 923 INTER-LIGAND FREE ENERGY PREDICTED BY IDOCK:   -4.47 KCAL/MOL
REMARK 924 INTRA-LIGAND FREE ENERGY PREDICTED BY IDOCK:   -0.59 KCAL/MOL
REMARK 927      BINDING AFFINITY PREDICTED BY RF-SCORE:    0.00 PKD
ROOT
HETATM    1  O   UNL     1     -12.255  10.867  68.181  1.00  0.00    -0.781 OA 
HETATM    2  H   UNL     1     -12.500  11.285  67.364  1.00  0.00     0.000 HD 
HETATM    3  C   UNL     1     -11.277   9.878  67.960  1.00  0.00    -0.061 C  
HETATM    4  N   UNL     1     -10.904   9.241  69.206  1.00  0.00    -0.357 NA 
HETATM    5  H   UNL     1     -11.117   9.699  70.093  1.00  0.00     0.000 HD 
HETATM    6  C   UNL     1     -10.306   8.103  69.205  1.00  0.00    -0.220 C  
HETATM    7  C   UNL     1     -10.010   6.002  67.892  1.00  0.00    -0.151 A  
HETATM    8  C   UNL     1      -9.863   7.397  67.954  1.00  0.00    -0.177 A  
HETATM    9 CL   UNL     1      -9.633   3.579  66.770  1.00  0.00    -0.190 Cl 
HETATM   10  C   UNL     1      -9.234   8.078  66.891  1.00  0.00    -0.154 A  
HETATM   11  N   UNL     1      -9.104   9.474  66.800  1.00  0.00    -0.144 N  
HETATM   12  C   UNL     1      -8.689   7.342  65.830  1.00  0.00    -0.161 A  
HETATM   13  O   UNL     1      -9.718  11.610  67.136  1.00  0.00    -0.180 OA 
HETATM   14  C   UNL     1      -8.821   5.953  65.788  1.00  0.00    -0.145 A  
HETATM   15  C   UNL     1      -9.973  10.416  67.304  1.00  0.00    -0.188 C  
HETATM   16  C   UNL     1      -9.486   5.292  66.815  1.00  0.00    -0.140 A  
HETATM   17  H   UNL     1      -8.281   9.825  66.310  1.00  0.00     0.000 HD 
ENDROOT
BRANCH   6  18
HETATM   18  C   UNL     1     -10.018   7.478  70.553  1.00  0.00    -0.184 A  
HETATM   19  C   UNL     1      -9.384   6.309  73.043  1.00  0.00    -0.140 A  
HETATM   20  C   UNL     1      -8.373   6.812  72.232  1.00  0.00    -0.106 A  
HETATM   21  C   UNL     1     -11.035   6.972  71.387  1.00  0.00    -0.240 A  
HETATM   22  C   UNL     1      -8.687   7.413  71.008  1.00  0.00    -0.139 A  
HETATM   23  C   UNL     1     -10.711   6.402  72.627  1.00  0.00    -0.262 A  
HETATM   24 CL   UNL     1     -12.714   6.930  70.965  1.00  0.00    -0.353 Cl 
ENDBRANCH   6  18
TORSDOF 1
ENDMDL
MODEL      129
REMARK 921   NORMALIZED FREE ENERGY PREDICTED BY IDOCK:   -4.18 KCAL/MOL
REMARK 922        TOTAL FREE ENERGY PREDICTED BY IDOCK:   -5.04 KCAL/MOL
REMARK 923 INTER-LIGAND FREE ENERGY PREDICTED BY IDOCK:   -4.47 KCAL/MOL
REMARK 924 INTRA-LIGAND FREE ENERGY PREDICTED BY IDOCK:   -0.58 KCAL/MOL
REMARK 927      BINDING AFFINITY PREDICTED BY RF-SCORE:    0.00 PKD
ROOT
HETATM    1  O   UNL     1     -10.618  10.805  63.772  1.00  0.00    -0.519 OA 
HETATM    2  H   UNL     1     -10.754   9.992  63.301  1.00  0.00     0.000 HD 
HETATM    3  C   UNL     1     -10.020  10.561  65.025  1.00  0.00    -0.322 C  
HETATM    4  N   UNL     1      -9.813  11.802  65.743  1.00  0.00    -0.234 NA 
HETATM    5  H   UNL     1      -9.826  12.688  65.236  1.00  0.00     0.000 HD 
HETATM    6  C   UNL     1      -9.612  11.796  67.012  1.00  0.00    -0.187 C  
HETATM    7  C   UNL     1     -10.068  10.513  69.102  1.00  0.00    -0.240 A  
HETATM    8  C   UNL     1      -9.479  10.542  67.828  1.00  0.00    -0.162 A  
HETATM    9 CL   UNL     1     -10.541   9.422  71.523  1.00  0.00    -0.397 Cl 
HETATM   10  C   UNL     1      -8.716   9.439  67.389  1.00  0.00    -0.125 A  
HETATM   11  N   UNL     1      -8.149   9.315  66.110  1.00  0.00    -0.109 N  
HETATM   12  C   UNL     1      -8.486   8.370  68.266  1.00  0.00    -0.135 A  
HETATM   13  O   UNL     1      -8.029   9.638  63.888  1.00  0.00    -0.127 OA 
HETATM   14  C   UNL     1      -9.058   8.360  69.540  1.00  0.00    -0.153 A  
HETATM   15  C   UNL     1      -8.645   9.839  64.936  1.00  0.00    -0.167 C  
HETATM   16  C   UNL     1      -9.851   9.427  69.948  1.00  0.00    -0.210 A  
HETATM   17  H   UNL     1      -7.281   8.784  66.044  1.00  0.00     0.000 HD 
ENDROOT
BRANCH   6  18
HETATM   18  C   UNL     1      -9.476  13.143  67.690  1.00  0.00    -0.207 A  
HETATM   19  C   UNL     1      -9.320  15.671  68.935  1.00  0.00    -0.223 A  
HETATM   20  C   UNL     1     -10.560  15.116  68.641  1.00  0.00    -0.234 A  
HETATM   21  C   UNL     1      -8.225  13.713  68.001  1.00  0.00    -0.162 A  
HETATM   22  C   UNL     1     -10.640  13.853  68.044  1.00  0.00    -0.252 A  
HETATM   23  C   UNL     1      -8.158  14.965  68.629  1.00  0.00    -0.151 A  
HETATM   24 CL   UNL     1      -6.699  13.001  67.596  1.00  0.00    -0.146 Cl 
ENDBRANCH   6  18
TORSDOF 1
ENDMDL
MODEL      130
REMARK 921   NORMALIZED FREE ENERGY PREDICTED BY IDOCK:   -4.17 KCAL/MOL
REMARK 922        TOTAL FREE ENERGY PREDICTED BY IDOCK:   -5.04 KCAL/MOL
REMARK 923 INTER-LIGAND FREE ENERGY PREDICTED BY IDOCK:   -4.84 KCAL/MOL
REMARK 924 INTRA-LIGAND FREE ENERGY PREDICTED BY IDOCK:   -0.20 KCAL/MOL
REMARK 927      BINDING AFFINITY PREDICTED BY RF-SCORE:    0.00 PKD
ROOT
HETATM    1  O   UNL     1     -10.274  18.470  67.776  1.00  0.00    -0.344 OA 
HETATM    2  H   UNL     1     -11.089  18.852  67.473  1.00  0.00     0.000 HD 
HETATM    3  C   UNL     1     -10.269  17.077  67.561  1.00  0.00    -0.323 C  
HETATM    4  N   UNL     1      -9.026  16.494  68.022  1.00  0.00    -0.201 NA 
HETATM    5  H   UNL     1      -8.211  17.090  68.172  1.00  0.00     0.000 HD 
HETATM    6  C   UNL     1      -8.940  15.231  68.245  1.00  0.00    -0.176 C  
HETATM    7  C   UNL     1     -10.271  13.219  68.880  1.00  0.00    -0.033 A  
HETATM    8  C   UNL     1     -10.051  14.259  67.963  1.00  0.00    -0.227 A  
HETATM    9 CL   UNL     1     -11.423  10.922  69.700  1.00  0.00    -0.338 Cl 
HETATM   10  C   UNL     1     -10.812  14.313  66.777  1.00  0.00    -0.298 A  
HETATM   11  N   UNL     1     -10.742  15.345  65.827  1.00  0.00    -0.335 N  
HETATM   12  C   UNL     1     -11.714  13.279  66.491  1.00  0.00    -0.423 A  
HETATM   13  O   UNL     1     -10.432  17.459  65.125  1.00  0.00    -0.619 OA 
HETATM   14  C   UNL     1     -11.910  12.236  67.399  1.00  0.00    -0.327 A  
HETATM   15  C   UNL     1     -10.449  16.669  66.071  1.00  0.00    -0.298 C  
HETATM   16  C   UNL     1     -11.193  12.215  68.590  1.00  0.00    -0.269 A  
HETATM   17  H   UNL     1     -10.927  15.088  64.857  1.00  0.00     0.000 HD 
ENDROOT
BRANCH   6  18
HETATM   18  C   UNL     1      -7.625  14.719  68.793  1.00  0.00    -0.137 A  
HETATM   19  C   UNL     1      -5.161  13.852  69.862  1.00  0.00    -0.094 A  
HETATM   20  C   UNL     1      -5.785  14.982  70.378  1.00  0.00    -0.143 A  
HETATM   21  C   UNL     1      -6.987  13.571  68.283  1.00  0.00    -0.108 A  
HETATM   22  C   UNL     1      -7.017  15.401  69.865  1.00  0.00    -0.095 A  
HETATM   23  C   UNL     1      -5.768  13.141  68.828  1.00  0.00    -0.073 A  
HETATM   24 CL   UNL     1      -7.569  12.643  66.941  1.00  0.00     0.024 Cl 
ENDBRANCH   6  18
TORSDOF 1
ENDMDL
MODEL      131
REMARK 921   NORMALIZED FREE ENERGY PREDICTED BY IDOCK:   -4.16 KCAL/MOL
REMARK 922        TOTAL FREE ENERGY PREDICTED BY IDOCK:   -5.02 KCAL/MOL
REMARK 923 INTER-LIGAND FREE ENERGY PREDICTED BY IDOCK:   -4.40 KCAL/MOL
REMARK 924 INTRA-LIGAND FREE ENERGY PREDICTED BY IDOCK:   -0.63 KCAL/MOL
REMARK 927      BINDING AFFINITY PREDICTED BY RF-SCORE:    0.00 PKD
ROOT
HETATM    1  O   UNL     1     -11.568   6.540  67.642  1.00  0.00    -0.670 OA 
HETATM    2  H   UNL     1     -11.711   6.104  68.473  1.00  0.00     0.000 HD 
HETATM    3  C   UNL     1     -10.415   7.347  67.696  1.00  0.00    -0.241 C  
HETATM    4  N   UNL     1     -10.196   8.012  66.428  1.00  0.00    -0.483 NA 
HETATM    5  H   UNL     1     -10.654   7.660  65.586  1.00  0.00     0.000 HD 
HETATM    6  C   UNL     1      -9.429   9.041  66.353  1.00  0.00    -0.226 C  
HETATM    7  C   UNL     1      -8.535  10.966  67.663  1.00  0.00    -0.123 A  
HETATM    8  C   UNL     1      -8.637   9.574  67.513  1.00  0.00    -0.126 A  
HETATM    9 CL   UNL     1      -7.546  13.211  68.783  1.00  0.00    -0.080 Cl 
HETATM   10  C   UNL     1      -7.931   8.726  68.393  1.00  0.00    -0.109 A  
HETATM   11  N   UNL     1      -8.018   7.324  68.395  1.00  0.00    -0.122 N  
HETATM   12  C   UNL     1      -7.072   9.288  69.347  1.00  0.00    -0.053 A  
HETATM   13  O   UNL     1      -9.033   5.339  68.104  1.00  0.00    -0.108 OA 
HETATM   14  C   UNL     1      -6.960  10.673  69.474  1.00  0.00    -0.121 A  
HETATM   15  C   UNL     1      -9.114   6.567  68.043  1.00  0.00    -0.114 C  
HETATM   16  C   UNL     1      -7.697  11.505  68.637  1.00  0.00    -0.139 A  
HETATM   17  H   UNL     1      -7.185   6.815  68.688  1.00  0.00     0.000 HD 
ENDROOT
BRANCH   6  18
HETATM   18  C   UNL     1      -9.315   9.714  65.002  1.00  0.00    -0.319 A  
HETATM   19  C   UNL     1      -9.200  10.985  62.485  1.00  0.00    -0.337 A  
HETATM   20  C   UNL     1     -10.332  11.120  63.282  1.00  0.00    -0.368 A  
HETATM   21  C   UNL     1      -8.171   9.590  64.187  1.00  0.00    -0.159 A  
HETATM   22  C   UNL     1     -10.381  10.510  64.540  1.00  0.00    -0.275 A  
HETATM   23  C   UNL     1      -8.119  10.235  62.943  1.00  0.00    -0.156 A  
HETATM   24 CL   UNL     1      -6.793   8.617  64.579  1.00  0.00    -0.069 Cl 
ENDBRANCH   6  18
TORSDOF 1
ENDMDL
MODEL      132
REMARK 921   NORMALIZED FREE ENERGY PREDICTED BY IDOCK:   -4.14 KCAL/MOL
REMARK 922        TOTAL FREE ENERGY PREDICTED BY IDOCK:   -5.00 KCAL/MOL
REMARK 923 INTER-LIGAND FREE ENERGY PREDICTED BY IDOCK:   -4.67 KCAL/MOL
REMARK 924 INTRA-LIGAND FREE ENERGY PREDICTED BY IDOCK:   -0.33 KCAL/MOL
REMARK 927      BINDING AFFINITY PREDICTED BY RF-SCORE:    0.00 PKD
ROOT
HETATM    1  O   UNL     1     -13.883  10.000  72.453  1.00  0.00    -0.544 OA 
HETATM    2  H   UNL     1     -14.408   9.722  73.194  1.00  0.00     0.000 HD 
HETATM    3  C   UNL     1     -12.797   9.124  72.255  1.00  0.00    -0.401 C  
HETATM    4  N   UNL     1     -11.997   9.549  71.125  1.00  0.00    -0.325 NA 
HETATM    5  H   UNL     1     -12.392  10.196  70.440  1.00  0.00     0.000 HD 
HETATM    6  C   UNL     1     -10.795   9.120  70.977  1.00  0.00    -0.291 C  
HETATM    7  C   UNL     1      -8.812   8.262  72.223  1.00  0.00    -0.274 A  
HETATM    8  C   UNL     1     -10.162   8.095  71.875  1.00  0.00    -0.289 A  
HETATM    9 CL   UNL     1      -6.481   7.463  73.319  1.00  0.00    -0.063 Cl 
HETATM   10  C   UNL     1     -10.852   6.941  72.302  1.00  0.00    -0.230 A  
HETATM   11  N   UNL     1     -12.220   6.702  72.088  1.00  0.00    -0.490 N  
HETATM   12  C   UNL     1     -10.157   5.940  72.992  1.00  0.00    -0.197 A  
HETATM   13  O   UNL     1     -14.376   7.276  71.813  1.00  0.00    -0.427 OA 
HETATM   14  C   UNL     1      -8.808   6.105  73.315  1.00  0.00    -0.126 A  
HETATM   15  C   UNL     1     -13.217   7.649  72.000  1.00  0.00    -0.168 C  
HETATM   16  C   UNL     1      -8.145   7.267  72.935  1.00  0.00    -0.106 A  
HETATM   17  H   UNL     1     -12.504   5.727  71.987  1.00  0.00     0.000 HD 
ENDROOT
BRANCH   6  18
HETATM   18  C   UNL     1     -10.009   9.671  69.807  1.00  0.00    -0.252 A  
HETATM   19  C   UNL     1      -8.588  10.788  67.639  1.00  0.00    -0.123 A  
HETATM   20  C   UNL     1      -9.263  11.616  68.529  1.00  0.00    -0.163 A  
HETATM   21  C   UNL     1      -9.316   8.843  68.901  1.00  0.00    -0.140 A  
HETATM   22  C   UNL     1      -9.948  11.066  69.618  1.00  0.00     0.204 A  
HETATM   23  C   UNL     1      -8.604   9.408  67.833  1.00  0.00    -0.120 A  
HETATM   24 CL   UNL     1      -9.323   7.112  68.957  1.00  0.00    -0.141 Cl 
ENDBRANCH   6  18
TORSDOF 1
ENDMDL
MODEL      133
REMARK 921   NORMALIZED FREE ENERGY PREDICTED BY IDOCK:   -4.10 KCAL/MOL
REMARK 922        TOTAL FREE ENERGY PREDICTED BY IDOCK:   -4.96 KCAL/MOL
REMARK 923 INTER-LIGAND FREE ENERGY PREDICTED BY IDOCK:   -5.69 KCAL/MOL
REMARK 924 INTRA-LIGAND FREE ENERGY PREDICTED BY IDOCK:    0.73 KCAL/MOL
REMARK 927      BINDING AFFINITY PREDICTED BY RF-SCORE:    0.00 PKD
ROOT
HETATM    1  O   UNL     1     -10.744  10.845  65.774  1.00  0.00    -0.204 OA 
HETATM    2  H   UNL     1     -10.339  10.293  65.116  1.00  0.00     0.000 HD 
HETATM    3  C   UNL     1     -10.463  10.364  67.068  1.00  0.00    -0.251 C  
HETATM    4  N   UNL     1     -11.081  11.207  68.072  1.00  0.00    -0.252 NA 
HETATM    5  H   UNL     1     -11.384  12.150  67.824  1.00  0.00     0.000 HD 
HETATM    6  C   UNL     1     -11.251  10.777  69.271  1.00  0.00    -0.272 C  
HETATM    7  C   UNL     1     -11.571   8.707  70.625  1.00  0.00    -0.225 A  
HETATM    8  C   UNL     1     -10.753   9.445  69.756  1.00  0.00    -0.250 A  
HETATM    9 CL   UNL     1     -12.088   6.664  72.308  1.00  0.00    -0.274 Cl 
HETATM   10  C   UNL     1      -9.467   8.962  69.433  1.00  0.00    -0.161 A  
HETATM   11  N   UNL     1      -8.592   9.565  68.515  1.00  0.00    -0.119 N  
HETATM   12  C   UNL     1      -8.995   7.798  70.054  1.00  0.00    -0.142 A  
HETATM   13  O   UNL     1      -8.053  10.752  66.683  1.00  0.00    -0.130 OA 
HETATM   14  C   UNL     1      -9.808   7.083  70.935  1.00  0.00    -0.190 A  
HETATM   15  C   UNL     1      -8.944  10.288  67.396  1.00  0.00    -0.135 C  
HETATM   16  C   UNL     1     -11.093   7.537  71.211  1.00  0.00    -0.246 A  
HETATM   17  H   UNL     1      -7.594   9.457  68.695  1.00  0.00     0.000 HD 
ENDROOT
BRANCH   6  18
HETATM   18  C   UNL     1     -11.969  11.698  70.234  1.00  0.00    -0.445 A  
HETATM   19  C   UNL     1     -13.364  13.339  72.058  1.00  0.00    -0.582 A  
HETATM   20  C   UNL     1     -13.481  11.955  72.136  1.00  0.00    -0.300 A  
HETATM   21  C   UNL     1     -11.854  13.102  70.169  1.00  0.00    -0.257 A  
HETATM   22  C   UNL     1     -12.772  11.140  71.247  1.00  0.00    -0.531 A  
HETATM   23  C   UNL     1     -12.543  13.908  71.087  1.00  0.00    -0.446 A  
HETATM   24 CL   UNL     1     -10.949  13.954  68.963  1.00  0.00    -0.279 Cl 
ENDBRANCH   6  18
TORSDOF 1
ENDMDL
MODEL      134
REMARK 921   NORMALIZED FREE ENERGY PREDICTED BY IDOCK:   -4.10 KCAL/MOL
REMARK 922        TOTAL FREE ENERGY PREDICTED BY IDOCK:   -4.96 KCAL/MOL
REMARK 923 INTER-LIGAND FREE ENERGY PREDICTED BY IDOCK:   -4.33 KCAL/MOL
REMARK 924 INTRA-LIGAND FREE ENERGY PREDICTED BY IDOCK:   -0.63 KCAL/MOL
REMARK 927      BINDING AFFINITY PREDICTED BY RF-SCORE:    0.00 PKD
ROOT
HETATM    1  O   UNL     1      -5.331  10.740  67.848  1.00  0.00    -0.040 OA 
HETATM    2  H   UNL     1      -4.747  10.412  68.522  1.00  0.00     0.000 HD 
HETATM    3  C   UNL     1      -6.606  10.152  67.967  1.00  0.00    -0.058 C  
HETATM    4  N   UNL     1      -7.497  10.652  66.939  1.00  0.00    -0.109 NA 
HETATM    5  H   UNL     1      -7.268  11.516  66.447  1.00  0.00     0.000 HD 
HETATM    6  C   UNL     1      -8.572  10.015  66.641  1.00  0.00    -0.125 C  
HETATM    7  C   UNL     1      -9.613   7.748  66.622  1.00  0.00    -0.286 A  
HETATM    8  C   UNL     1      -9.044   8.789  67.372  1.00  0.00    -0.147 A  
HETATM    9 CL   UNL     1     -10.924   5.408  66.341  1.00  0.00    -0.224 Cl 
HETATM   10  C   UNL     1      -9.008   8.695  68.779  1.00  0.00    -0.138 A  
HETATM   11  N   UNL     1      -8.393   9.629  69.629  1.00  0.00    -0.150 N  
HETATM   12  C   UNL     1      -9.619   7.603  69.410  1.00  0.00    -0.159 A  
HETATM   13  O   UNL     1      -6.867  11.178  70.199  1.00  0.00    -0.159 OA 
HETATM   14  C   UNL     1     -10.203   6.583  68.657  1.00  0.00    -0.192 A  
HETATM   15  C   UNL     1      -7.292  10.404  69.340  1.00  0.00    -0.123 C  
HETATM   16  C   UNL     1     -10.191   6.657  67.268  1.00  0.00    -0.198 A  
HETATM   17  H   UNL     1      -8.804   9.745  70.555  1.00  0.00     0.000 HD 
ENDROOT
BRANCH   6  18
HETATM   18  C   UNL     1      -9.406  10.571  65.507  1.00  0.00    -0.245 A  
HETATM   19  C   UNL     1     -10.882  11.600  63.332  1.00  0.00    -0.453 A  
HETATM   20  C   UNL     1      -9.662  10.971  63.110  1.00  0.00    -0.398 A  
HETATM   21  C   UNL     1     -10.648  11.205  65.718  1.00  0.00    -0.227 A  
HETATM   22  C   UNL     1      -8.940  10.440  64.184  1.00  0.00    -0.251 A  
HETATM   23  C   UNL     1     -11.378  11.704  64.630  1.00  0.00    -0.284 A  
HETATM   24 CL   UNL     1     -11.346  11.492  67.277  1.00  0.00    -0.362 Cl 
ENDBRANCH   6  18
TORSDOF 1
ENDMDL
MODEL      135
REMARK 921   NORMALIZED FREE ENERGY PREDICTED BY IDOCK:   -4.09 KCAL/MOL
REMARK 922        TOTAL FREE ENERGY PREDICTED BY IDOCK:   -4.95 KCAL/MOL
REMARK 923 INTER-LIGAND FREE ENERGY PREDICTED BY IDOCK:   -4.33 KCAL/MOL
REMARK 924 INTRA-LIGAND FREE ENERGY PREDICTED BY IDOCK:   -0.62 KCAL/MOL
REMARK 927      BINDING AFFINITY PREDICTED BY RF-SCORE:    0.00 PKD
ROOT
HETATM    1  O   UNL     1      -6.908  14.324  68.027  1.00  0.00    -0.111 OA 
HETATM    2  H   UNL     1      -6.859  14.781  68.858  1.00  0.00     0.000 HD 
HETATM    3  C   UNL     1      -8.025  13.465  67.999  1.00  0.00    -0.148 C  
HETATM    4  N   UNL     1      -8.100  12.767  66.731  1.00  0.00    -0.404 NA 
HETATM    5  H   UNL     1      -7.585  13.123  65.925  1.00  0.00     0.000 HD 
HETATM    6  C   UNL     1      -8.811  11.703  66.613  1.00  0.00    -0.187 C  
HETATM    7  C   UNL     1      -9.733   9.764  67.882  1.00  0.00    -0.168 A  
HETATM    8  C   UNL     1      -9.680  11.156  67.710  1.00  0.00    -0.183 A  
HETATM    9 CL   UNL     1     -10.717   7.497  68.963  1.00  0.00    -0.189 Cl 
HETATM   10  C   UNL     1     -10.497  11.987  68.505  1.00  0.00    -0.229 A  
HETATM   11  N   UNL     1     -10.473  13.391  68.483  1.00  0.00    -0.251 N  
HETATM   12  C   UNL     1     -11.412  11.405  69.392  1.00  0.00    -0.378 A  
HETATM   13  O   UNL     1      -9.524  15.415  68.236  1.00  0.00    -0.196 OA 
HETATM   14  C   UNL     1     -11.474  10.018  69.540  1.00  0.00    -0.176 A  
HETATM   15  C   UNL     1      -9.384  14.191  68.211  1.00  0.00    -0.203 C  
HETATM   16  C   UNL     1     -10.630   9.206  68.791  1.00  0.00    -0.181 A  
HETATM   17  H   UNL     1     -11.351  13.867  68.689  1.00  0.00     0.000 HD 
ENDROOT
BRANCH   6  18
HETATM   18  C   UNL     1      -8.774  11.000  65.272  1.00  0.00    -0.099 A  
HETATM   19  C   UNL     1      -8.804   9.708  62.764  1.00  0.00    -0.251 A  
HETATM   20  C   UNL     1      -9.881  10.497  63.153  1.00  0.00    -0.295 A  
HETATM   21  C   UNL     1      -7.686  10.203  64.863  1.00  0.00    -0.143 A  
HETATM   22  C   UNL     1      -9.858  11.157  64.386  1.00  0.00    -0.334 A  
HETATM   23  C   UNL     1      -7.706   9.573  63.610  1.00  0.00    -0.125 A  
HETATM   24 CL   UNL     1      -6.298   9.867  65.843  1.00  0.00    -0.079 Cl 
ENDBRANCH   6  18
TORSDOF 1
ENDMDL
MODEL      136
REMARK 921   NORMALIZED FREE ENERGY PREDICTED BY IDOCK:   -4.01 KCAL/MOL
REMARK 922        TOTAL FREE ENERGY PREDICTED BY IDOCK:   -4.86 KCAL/MOL
REMARK 923 INTER-LIGAND FREE ENERGY PREDICTED BY IDOCK:   -4.86 KCAL/MOL
REMARK 924 INTRA-LIGAND FREE ENERGY PREDICTED BY IDOCK:   -0.01 KCAL/MOL
REMARK 927      BINDING AFFINITY PREDICTED BY RF-SCORE:    0.00 PKD
ROOT
HETATM    1  O   UNL     1     -14.241   9.627  72.509  1.00  0.00    -0.549 OA 
HETATM    2  H   UNL     1     -14.762   9.296  73.231  1.00  0.00     0.000 HD 
HETATM    3  C   UNL     1     -13.033   8.911  72.399  1.00  0.00    -0.404 C  
HETATM    4  N   UNL     1     -12.238   9.416  71.298  1.00  0.00    -0.327 NA 
HETATM    5  H   UNL     1     -12.681   9.980  70.571  1.00  0.00     0.000 HD 
HETATM    6  C   UNL     1     -10.981   9.160  71.228  1.00  0.00    -0.330 C  
HETATM    7  C   UNL     1      -8.970   8.631  72.606  1.00  0.00    -0.116 A  
HETATM    8  C   UNL     1     -10.260   8.262  72.193  1.00  0.00    -0.355 A  
HETATM    9 CL   UNL     1      -6.615   8.205  73.850  1.00  0.00    -0.129 Cl 
HETATM   10  C   UNL     1     -10.803   7.033  72.623  1.00  0.00    -0.270 A  
HETATM   11  N   UNL     1     -12.108   6.593  72.346  1.00  0.00    -0.511 N  
HETATM   12  C   UNL     1     -10.012   6.161  73.383  1.00  0.00    -0.191 A  
HETATM   13  O   UNL     1     -14.305   6.843  71.939  1.00  0.00    -0.349 OA 
HETATM   14  C   UNL     1      -8.722   6.527  73.770  1.00  0.00    -0.137 A  
HETATM   15  C   UNL     1     -13.223   7.384  72.173  1.00  0.00    -0.009 C  
HETATM   16  C   UNL     1      -8.210   7.761  73.386  1.00  0.00    -0.171 A  
HETATM   17  H   UNL     1     -12.244   5.586  72.265  1.00  0.00     0.000 HD 
ENDROOT
BRANCH   6  18
HETATM   18  C   UNL     1     -10.216   9.788  70.083  1.00  0.00    -0.328 A  
HETATM   19  C   UNL     1      -8.724  10.882  67.952  1.00  0.00    -0.131 A  
HETATM   20  C   UNL     1      -8.487   9.578  68.369  1.00  0.00    -0.119 A  
HETATM   21  C   UNL     1     -10.452  11.107  69.646  1.00  0.00     0.050 A  
HETATM   22  C   UNL     1      -9.241   9.025  69.410  1.00  0.00    -0.150 A  
HETATM   23  C   UNL     1      -9.712  11.639  68.579  1.00  0.00    -0.187 A  
HETATM   24 CL   UNL     1     -11.576  12.196  70.387  1.00  0.00    -0.144 Cl 
ENDBRANCH   6  18
TORSDOF 1
ENDMDL
MODEL      137
REMARK 921   NORMALIZED FREE ENERGY PREDICTED BY IDOCK:   -3.99 KCAL/MOL
REMARK 922        TOTAL FREE ENERGY PREDICTED BY IDOCK:   -4.85 KCAL/MOL
REMARK 923 INTER-LIGAND FREE ENERGY PREDICTED BY IDOCK:   -5.47 KCAL/MOL
REMARK 924 INTRA-LIGAND FREE ENERGY PREDICTED BY IDOCK:    0.62 KCAL/MOL
REMARK 927      BINDING AFFINITY PREDICTED BY RF-SCORE:    0.00 PKD
ROOT
HETATM    1  O   UNL     1      -8.172  18.654  65.829  1.00  0.00    -0.473 OA 
HETATM    2  H   UNL     1      -7.475  19.252  66.068  1.00  0.00     0.000 HD 
HETATM    3  C   UNL     1      -8.150  17.510  66.651  1.00  0.00    -0.255 C  
HETATM    4  N   UNL     1      -9.214  16.598  66.287  1.00  0.00    -0.291 NA 
HETATM    5  H   UNL     1     -10.003  16.934  65.733  1.00  0.00     0.000 HD 
HETATM    6  C   UNL     1      -9.174  15.367  66.655  1.00  0.00    -0.275 C  
HETATM    7  C   UNL     1      -7.620  13.515  67.269  1.00  0.00    -0.074 A  
HETATM    8  C   UNL     1      -8.108  14.801  67.550  1.00  0.00    -0.199 A  
HETATM    9 CL   UNL     1      -6.179  11.302  67.819  1.00  0.00    -0.050 Cl 
HETATM   10  C   UNL     1      -7.653  15.482  68.698  1.00  0.00    -0.141 A  
HETATM   11  N   UNL     1      -8.003  16.798  69.040  1.00  0.00    -0.224 N  
HETATM   12  C   UNL     1      -6.787  14.829  69.586  1.00  0.00    -0.173 A  
HETATM   13  O   UNL     1      -8.589  18.930  68.626  1.00  0.00    -0.342 OA 
HETATM   14  C   UNL     1      -6.324  13.541  69.310  1.00  0.00    -0.109 A  
HETATM   15  C   UNL     1      -8.304  17.822  68.168  1.00  0.00    -0.264 C  
HETATM   16  C   UNL     1      -6.737  12.894  68.150  1.00  0.00    -0.096 A  
HETATM   17  H   UNL     1      -8.038  17.020  70.034  1.00  0.00     0.000 HD 
ENDROOT
BRANCH   6  18
HETATM   18  C   UNL     1     -10.291  14.469  66.168  1.00  0.00    -0.305 A  
HETATM   19  C   UNL     1     -12.334  12.719  65.312  1.00  0.00    -0.546 A  
HETATM   20  C   UNL     1     -11.485  12.345  66.347  1.00  0.00    -0.427 A  
HETATM   21  C   UNL     1     -11.163  14.841  65.125  1.00  0.00    -0.382 A  
HETATM   22  C   UNL     1     -10.487  13.220  66.789  1.00  0.00    -0.270 A  
HETATM   23  C   UNL     1     -12.181  13.968  64.713  1.00  0.00    -0.454 A  
HETATM   24 CL   UNL     1     -11.037  16.314  64.224  1.00  0.00    -0.123 Cl 
ENDBRANCH   6  18
TORSDOF 1
ENDMDL
MODEL      138
REMARK 921   NORMALIZED FREE ENERGY PREDICTED BY IDOCK:   -3.97 KCAL/MOL
REMARK 922        TOTAL FREE ENERGY PREDICTED BY IDOCK:   -4.83 KCAL/MOL
REMARK 923 INTER-LIGAND FREE ENERGY PREDICTED BY IDOCK:   -4.27 KCAL/MOL
REMARK 924 INTRA-LIGAND FREE ENERGY PREDICTED BY IDOCK:   -0.56 KCAL/MOL
REMARK 927      BINDING AFFINITY PREDICTED BY RF-SCORE:    0.00 PKD
ROOT
HETATM    1  O   UNL     1     -11.650   4.488  65.058  1.00  0.00    -1.101 OA 
HETATM    2  H   UNL     1     -11.634   3.656  64.600  1.00  0.00     0.000 HD 
HETATM    3  C   UNL     1     -10.475   4.661  65.815  1.00  0.00    -0.255 C  
HETATM    4  N   UNL     1     -10.499   5.930  66.514  1.00  0.00    -0.409 NA 
HETATM    5  H   UNL     1     -11.142   6.663  66.210  1.00  0.00     0.000 HD 
HETATM    6  C   UNL     1      -9.718   6.141  67.512  1.00  0.00    -0.117 C  
HETATM    7  C   UNL     1      -8.475   5.005  69.353  1.00  0.00    -0.087 A  
HETATM    8  C   UNL     1      -8.672   5.165  67.972  1.00  0.00    -0.102 A  
HETATM    9 CL   UNL     1      -7.165   4.066  71.515  1.00  0.00    -0.045 Cl 
HETATM   10  C   UNL     1      -7.837   4.478  67.066  1.00  0.00    -0.098 A  
HETATM   11  N   UNL     1      -7.988   4.491  65.670  1.00  0.00    -0.094 N  
HETATM   12  C   UNL     1      -6.770   3.715  67.558  1.00  0.00    -0.042 A  
HETATM   13  O   UNL     1      -9.135   4.609  63.739  1.00  0.00    -0.142 OA 
HETATM   14  C   UNL     1      -6.568   3.581  68.933  1.00  0.00    -0.040 A  
HETATM   15  C   UNL     1      -9.169   4.620  64.971  1.00  0.00    -0.152 C  
HETATM   16  C   UNL     1      -7.425   4.220  69.822  1.00  0.00    -0.050 A  
HETATM   17  H   UNL     1      -7.137   4.397  65.116  1.00  0.00     0.000 HD 
ENDROOT
BRANCH   6  18
HETATM   18  C   UNL     1      -9.861   7.469  68.226  1.00  0.00    -0.177 A  
HETATM   19  C   UNL     1     -10.044   9.974  69.513  1.00  0.00    -0.248 A  
HETATM   20  C   UNL     1      -9.163   9.799  68.452  1.00  0.00    -0.130 A  
HETATM   21  C   UNL     1     -10.756   7.660  69.298  1.00  0.00    -0.161 A  
HETATM   22  C   UNL     1      -9.087   8.565  67.798  1.00  0.00    -0.143 A  
HETATM   23  C   UNL     1     -10.848   8.912  69.925  1.00  0.00    -0.219 A  
HETATM   24 CL   UNL     1     -11.746   6.413  69.980  1.00  0.00    -0.456 Cl 
ENDBRANCH   6  18
TORSDOF 1
ENDMDL
MODEL      139
REMARK 921   NORMALIZED FREE ENERGY PREDICTED BY IDOCK:   -3.97 KCAL/MOL
REMARK 922        TOTAL FREE ENERGY PREDICTED BY IDOCK:   -4.83 KCAL/MOL
REMARK 923 INTER-LIGAND FREE ENERGY PREDICTED BY IDOCK:   -4.25 KCAL/MOL
REMARK 924 INTRA-LIGAND FREE ENERGY PREDICTED BY IDOCK:   -0.58 KCAL/MOL
REMARK 927      BINDING AFFINITY PREDICTED BY RF-SCORE:    0.00 PKD
ROOT
HETATM    1  O   UNL     1     -11.118   5.676  66.113  1.00  0.00    -0.743 OA 
HETATM    2  H   UNL     1     -11.666   4.966  65.800  1.00  0.00     0.000 HD 
HETATM    3  C   UNL     1     -10.535   5.343  67.352  1.00  0.00    -0.189 C  
HETATM    4  N   UNL     1      -9.698   6.425  67.829  1.00  0.00    -0.120 NA 
HETATM    5  H   UNL     1      -9.377   7.143  67.178  1.00  0.00     0.000 HD 
HETATM    6  C   UNL     1      -9.356   6.489  69.066  1.00  0.00    -0.128 C  
HETATM    7  C   UNL     1     -10.060   5.846  71.371  1.00  0.00    -0.245 A  
HETATM    8  C   UNL     1      -9.695   5.433  70.080  1.00  0.00    -0.248 A  
HETATM    9 CL   UNL     1     -10.650   5.421  73.968  1.00  0.00    -0.314 Cl 
HETATM   10  C   UNL     1      -9.576   4.056  69.797  1.00  0.00    -0.210 A  
HETATM   11  N   UNL     1      -9.300   3.520  68.528  1.00  0.00    -0.166 N  
HETATM   12  C   UNL     1      -9.740   3.125  70.832  1.00  0.00    -0.170 A  
HETATM   13  O   UNL     1      -9.343   3.462  66.281  1.00  0.00    -0.167 OA 
HETATM   14  C   UNL     1     -10.081   3.546  72.119  1.00  0.00    -0.205 A  
HETATM   15  C   UNL     1      -9.657   4.060  67.312  1.00  0.00    -0.189 C  
HETATM   16  C   UNL     1     -10.246   4.902  72.380  1.00  0.00    -0.199 A  
HETATM   17  H   UNL     1      -8.782   2.642  68.505  1.00  0.00     0.000 HD 
ENDROOT
BRANCH   6  18
HETATM   18  C   UNL     1      -8.540   7.692  69.490  1.00  0.00    -0.132 A  
HETATM   19  C   UNL     1      -6.949   9.872  70.317  1.00  0.00    -0.147 A  
HETATM   20  C   UNL     1      -6.409   8.591  70.281  1.00  0.00    -0.035 A  
HETATM   21  C   UNL     1      -9.073   8.996  69.525  1.00  0.00    -0.151 A  
HETATM   22  C   UNL     1      -7.189   7.513  69.849  1.00  0.00    -0.080 A  
HETATM   23  C   UNL     1      -8.271  10.075  69.928  1.00  0.00    -0.175 A  
HETATM   24 CL   UNL     1     -10.720   9.389  69.163  1.00  0.00    -0.234 Cl 
ENDBRANCH   6  18
TORSDOF 1
ENDMDL
MODEL      140
REMARK 921   NORMALIZED FREE ENERGY PREDICTED BY IDOCK:   -3.92 KCAL/MOL
REMARK 922        TOTAL FREE ENERGY PREDICTED BY IDOCK:   -4.77 KCAL/MOL
REMARK 923 INTER-LIGAND FREE ENERGY PREDICTED BY IDOCK:   -4.15 KCAL/MOL
REMARK 924 INTRA-LIGAND FREE ENERGY PREDICTED BY IDOCK:   -0.62 KCAL/MOL
REMARK 927      BINDING AFFINITY PREDICTED BY RF-SCORE:    0.00 PKD
ROOT
HETATM    1  O   UNL     1     -10.642  11.967  68.980  1.00  0.00    -0.321 OA 
HETATM    2  H   UNL     1     -10.994  12.287  68.158  1.00  0.00     0.000 HD 
HETATM    3  C   UNL     1      -9.935  10.764  68.784  1.00  0.00    -0.193 C  
HETATM    4  N   UNL     1      -9.398  10.276  70.038  1.00  0.00    -0.389 NA 
HETATM    5  H   UNL     1      -9.312  10.911  70.833  1.00  0.00     0.000 HD 
HETATM    6  C   UNL     1      -9.029   9.051  70.158  1.00  0.00    -0.184 C  
HETATM    7  C   UNL     1      -9.427   6.749  69.284  1.00  0.00    -0.142 A  
HETATM    8  C   UNL     1      -9.025   8.068  69.022  1.00  0.00    -0.145 A  
HETATM    9 CL   UNL     1      -9.760   4.150  68.645  1.00  0.00    -0.197 Cl 
HETATM   10  C   UNL     1      -8.554   8.409  67.736  1.00  0.00    -0.130 A  
HETATM   11  N   UNL     1      -8.202   9.707  67.330  1.00  0.00    -0.114 N  
HETATM   12  C   UNL     1      -8.413   7.406  66.768  1.00  0.00    -0.124 A  
HETATM   13  O   UNL     1      -8.332  11.952  67.325  1.00  0.00    -0.154 OA 
HETATM   14  C   UNL     1      -8.794   6.092  67.046  1.00  0.00    -0.113 A  
HETATM   15  C   UNL     1      -8.747  10.887  67.786  1.00  0.00    -0.129 C  
HETATM   16  C   UNL     1      -9.306   5.772  68.299  1.00  0.00    -0.117 A  
HETATM   17  H   UNL     1      -7.469   9.783  66.626  1.00  0.00     0.000 HD 
ENDROOT
BRANCH   6  18
HETATM   18  C   UNL     1      -8.547   8.611  71.524  1.00  0.00    -0.256 A  
HETATM   19  C   UNL     1      -7.558   7.778  74.032  1.00  0.00    -0.187 A  
HETATM   20  C   UNL     1      -6.674   8.111  73.012  1.00  0.00    -0.109 A  
HETATM   21  C   UNL     1      -9.432   8.278  72.569  1.00  0.00    -0.286 A  
HETATM   22  C   UNL     1      -7.163   8.547  71.775  1.00  0.00    -0.112 A  
HETATM   23  C   UNL     1      -8.931   7.875  73.815  1.00  0.00    -0.324 A  
HETATM   24 CL   UNL     1     -11.157   8.257  72.420  1.00  0.00    -0.428 Cl 
ENDBRANCH   6  18
TORSDOF 1
ENDMDL
MODEL      141
REMARK 921   NORMALIZED FREE ENERGY PREDICTED BY IDOCK:   -3.86 KCAL/MOL
REMARK 922        TOTAL FREE ENERGY PREDICTED BY IDOCK:   -4.71 KCAL/MOL
REMARK 923 INTER-LIGAND FREE ENERGY PREDICTED BY IDOCK:   -4.10 KCAL/MOL
REMARK 924 INTRA-LIGAND FREE ENERGY PREDICTED BY IDOCK:   -0.61 KCAL/MOL
REMARK 927      BINDING AFFINITY PREDICTED BY RF-SCORE:    0.00 PKD
ROOT
HETATM    1  O   UNL     1      -6.086   5.790  68.299  1.00  0.00    -0.016 OA 
HETATM    2  H   UNL     1      -5.454   5.790  67.591  1.00  0.00     0.000 HD 
HETATM    3  C   UNL     1      -7.215   6.561  67.958  1.00  0.00    -0.088 C  
HETATM    4  N   UNL     1      -8.179   6.561  69.039  1.00  0.00    -0.115 NA 
HETATM    5  H   UNL     1      -8.127   5.845  69.764  1.00  0.00     0.000 HD 
HETATM    6  C   UNL     1      -9.100   7.456  69.093  1.00  0.00    -0.134 C  
HETATM    7  C   UNL     1      -9.656   9.794  68.423  1.00  0.00    -0.157 A  
HETATM    8  C   UNL     1      -9.318   8.491  68.025  1.00  0.00    -0.147 A  
HETATM    9 CL   UNL     1     -10.460  12.328  67.970  1.00  0.00    -0.217 Cl 
HETATM   10  C   UNL     1      -9.276   8.171  66.651  1.00  0.00    -0.180 A  
HETATM   11  N   UNL     1      -8.873   6.932  66.129  1.00  0.00    -0.151 N  
HETATM   12  C   UNL     1      -9.658   9.137  65.710  1.00  0.00    -0.323 A  
HETATM   13  O   UNL     1      -7.700   5.014  66.093  1.00  0.00    -0.090 OA 
HETATM   14  C   UNL     1     -10.015  10.424  66.117  1.00  0.00    -0.290 A  
HETATM   15  C   UNL     1      -7.950   6.068  66.679  1.00  0.00    -0.102 C  
HETATM   16  C   UNL     1     -10.005  10.747  67.469  1.00  0.00    -0.174 A  
HETATM   17  H   UNL     1      -9.308   6.641  65.254  1.00  0.00     0.000 HD 
ENDROOT
BRANCH   6  18
HETATM   18  C   UNL     1     -10.019   7.422  70.295  1.00  0.00    -0.188 A  
HETATM   19  C   UNL     1     -11.811   7.347  72.474  1.00  0.00    -0.226 A  
HETATM   20  C   UNL     1     -12.231   6.939  71.213  1.00  0.00    -0.427 A  
HETATM   21  C   UNL     1      -9.603   7.827  71.579  1.00  0.00    -0.155 A  
HETATM   22  C   UNL     1     -11.338   6.953  70.137  1.00  0.00    -0.364 A  
HETATM   23  C   UNL     1     -10.498   7.776  72.658  1.00  0.00    -0.363 A  
HETATM   24 CL   UNL     1      -8.037   8.471  71.942  1.00  0.00    -0.190 Cl 
ENDBRANCH   6  18
TORSDOF 1
ENDMDL
MODEL      142
REMARK 921   NORMALIZED FREE ENERGY PREDICTED BY IDOCK:   -3.84 KCAL/MOL
REMARK 922        TOTAL FREE ENERGY PREDICTED BY IDOCK:   -4.69 KCAL/MOL
REMARK 923 INTER-LIGAND FREE ENERGY PREDICTED BY IDOCK:   -4.09 KCAL/MOL
REMARK 924 INTRA-LIGAND FREE ENERGY PREDICTED BY IDOCK:   -0.60 KCAL/MOL
REMARK 927      BINDING AFFINITY PREDICTED BY RF-SCORE:    0.00 PKD
ROOT
HETATM    1  O   UNL     1      -9.695  12.829  63.615  1.00  0.00    -0.655 OA 
HETATM    2  H   UNL     1      -9.755  13.516  62.963  1.00  0.00     0.000 HD 
HETATM    3  C   UNL     1     -10.346  13.214  64.804  1.00  0.00    -0.350 C  
HETATM    4  N   UNL     1     -10.255  12.165  65.799  1.00  0.00    -0.247 NA 
HETATM    5  H   UNL     1     -10.023  11.213  65.512  1.00  0.00     0.000 HD 
HETATM    6  C   UNL     1     -10.463  12.423  67.041  1.00  0.00    -0.220 C  
HETATM    7  C   UNL     1     -10.350  14.234  68.752  1.00  0.00    -0.239 A  
HETATM    8  C   UNL     1     -10.902  13.766  67.549  1.00  0.00    -0.274 A  
HETATM    9 CL   UNL     1     -10.176  15.946  70.829  1.00  0.00     0.392 Cl 
HETATM   10  C   UNL     1     -11.905  14.522  66.904  1.00  0.00    -0.377 A  
HETATM   11  N   UNL     1     -12.473  14.201  65.660  1.00  0.00    -0.472 N  
HETATM   12  C   UNL     1     -12.393  15.682  67.519  1.00  0.00     1.120 A  
HETATM   13  O   UNL     1     -12.490  13.344  63.582  1.00  0.00    -0.711 OA 
HETATM   14  C   UNL     1     -11.853  16.127  68.727  1.00  0.00    -0.130 A  
HETATM   15  C   UNL     1     -11.854  13.548  64.617  1.00  0.00    -0.394 C  
HETATM   16  C   UNL     1     -10.830  15.406  69.333  1.00  0.00    -0.263 A  
HETATM   17  H   UNL     1     -13.442  14.481  65.514  1.00  0.00     0.000 HD 
ENDROOT
BRANCH   6  18
HETATM   18  C   UNL     1     -10.276  11.282  68.018  1.00  0.00    -0.201 A  
HETATM   19  C   UNL     1     -10.027   9.154  69.856  1.00  0.00    -0.213 A  
HETATM   20  C   UNL     1     -11.276   9.493  69.349  1.00  0.00    -0.066 A  
HETATM   21  C   UNL     1      -9.014  10.924  68.534  1.00  0.00    -0.157 A  
HETATM   22  C   UNL     1     -11.399  10.533  68.420  1.00  0.00    -0.328 A  
HETATM   23  C   UNL     1      -8.899   9.858  69.438  1.00  0.00    -0.195 A  
HETATM   24 CL   UNL     1      -7.541  11.764  68.183  1.00  0.00    -0.108 Cl 
ENDBRANCH   6  18
TORSDOF 1
ENDMDL
MODEL      143
REMARK 921   NORMALIZED FREE ENERGY PREDICTED BY IDOCK:   -3.84 KCAL/MOL
REMARK 922        TOTAL FREE ENERGY PREDICTED BY IDOCK:   -4.68 KCAL/MOL
REMARK 923 INTER-LIGAND FREE ENERGY PREDICTED BY IDOCK:   -5.13 KCAL/MOL
REMARK 924 INTRA-LIGAND FREE ENERGY PREDICTED BY IDOCK:    0.45 KCAL/MOL
REMARK 927      BINDING AFFINITY PREDICTED BY RF-SCORE:    0.00 PKD
ROOT
HETATM    1  O   UNL     1     -12.370  12.980  67.048  1.00  0.00    -0.328 OA 
HETATM    2  H   UNL     1     -12.053  13.572  66.376  1.00  0.00     0.000 HD 
HETATM    3  C   UNL     1     -11.292  12.367  67.718  1.00  0.00    -0.299 C  
HETATM    4  N   UNL     1     -11.775  11.465  68.743  1.00  0.00    -0.319 NA 
HETATM    5  H   UNL     1     -12.734  11.549  69.082  1.00  0.00     0.000 HD 
HETATM    6  C   UNL     1     -11.006  10.558  69.230  1.00  0.00    -0.244 C  
HETATM    7  C   UNL     1      -9.033   9.122  68.713  1.00  0.00    -0.136 A  
HETATM    8  C   UNL     1      -9.554  10.416  68.869  1.00  0.00    -0.197 A  
HETATM    9 CL   UNL     1      -7.031   7.347  68.372  1.00  0.00    -0.076 Cl 
HETATM   10  C   UNL     1      -8.694  11.530  68.766  1.00  0.00    -0.044 A  
HETATM   11  N   UNL     1      -9.110  12.870  68.821  1.00  0.00    -0.389 N  
HETATM   12  C   UNL     1      -7.318  11.322  68.598  1.00  0.00    -0.109 A  
HETATM   13  O   UNL     1     -10.535  14.581  68.514  1.00  0.00    -0.236 OA 
HETATM   14  C   UNL     1      -6.806  10.030  68.467  1.00  0.00    -0.054 A  
HETATM   15  C   UNL     1     -10.323  13.373  68.403  1.00  0.00    -0.251 C  
HETATM   16  C   UNL     1      -7.665   8.938  68.518  1.00  0.00    -0.098 A  
HETATM   17  H   UNL     1      -8.446  13.540  69.209  1.00  0.00     0.000 HD 
ENDROOT
BRANCH   6  18
HETATM   18  C   UNL     1     -11.615   9.614  70.245  1.00  0.00    -0.255 A  
HETATM   19  C   UNL     1     -12.729   7.778  72.076  1.00  0.00    -0.285 A  
HETATM   20  C   UNL     1     -11.933   7.323  71.032  1.00  0.00    -0.362 A  
HETATM   21  C   UNL     1     -12.419  10.064  71.312  1.00  0.00    -0.392 A  
HETATM   22  C   UNL     1     -11.361   8.233  70.137  1.00  0.00    -0.060 A  
HETATM   23  C   UNL     1     -12.959   9.145  72.223  1.00  0.00    -0.492 A  
HETATM   24 CL   UNL     1     -12.869  11.717  71.567  1.00  0.00    -0.506 Cl 
ENDBRANCH   6  18
TORSDOF 1
ENDMDL
MODEL      144
REMARK 921   NORMALIZED FREE ENERGY PREDICTED BY IDOCK:   -3.79 KCAL/MOL
REMARK 922        TOTAL FREE ENERGY PREDICTED BY IDOCK:   -4.64 KCAL/MOL
REMARK 923 INTER-LIGAND FREE ENERGY PREDICTED BY IDOCK:   -4.59 KCAL/MOL
REMARK 924 INTRA-LIGAND FREE ENERGY PREDICTED BY IDOCK:   -0.04 KCAL/MOL
REMARK 927      BINDING AFFINITY PREDICTED BY RF-SCORE:    0.00 PKD
ROOT
HETATM    1  O   UNL     1     -10.401   9.114  69.333  1.00  0.00    -0.203 OA 
HETATM    2  H   UNL     1     -10.491   9.211  70.274  1.00  0.00     0.000 HD 
HETATM    3  C   UNL     1      -9.760  10.240  68.778  1.00  0.00    -0.177 C  
HETATM    4  N   UNL     1      -9.622  10.093  67.343  1.00  0.00    -0.152 NA 
HETATM    5  H   UNL     1      -9.707   9.169  66.919  1.00  0.00     0.000 HD 
HETATM    6  C   UNL     1      -9.393  11.117  66.601  1.00  0.00    -0.177 C  
HETATM    7  C   UNL     1      -9.714  13.586  66.448  1.00  0.00    -0.296 A  
HETATM    8  C   UNL     1      -9.156  12.499  67.140  1.00  0.00    -0.205 A  
HETATM    9 CL   UNL     1     -10.058  16.213  65.946  1.00  0.00    -0.355 Cl 
HETATM   10  C   UNL     1      -8.330  12.737  68.259  1.00  0.00    -0.161 A  
HETATM   11  N   UNL     1      -7.785  11.736  69.079  1.00  0.00    -0.329 N  
HETATM   12  C   UNL     1      -8.009  14.056  68.608  1.00  0.00    -0.122 A  
HETATM   13  O   UNL     1      -7.737   9.736  70.105  1.00  0.00    -0.150 OA 
HETATM   14  C   UNL     1      -8.550  15.130  67.899  1.00  0.00    -0.154 A  
HETATM   15  C   UNL     1      -8.341  10.507  69.357  1.00  0.00    -0.106 C  
HETATM   16  C   UNL     1      -9.405  14.890  66.828  1.00  0.00    -0.250 A  
HETATM   17  H   UNL     1      -6.884  11.940  69.512  1.00  0.00     0.000 HD 
ENDROOT
BRANCH   6  18
HETATM   18  C   UNL     1      -9.334  10.881  65.107  1.00  0.00    -0.252 A  
HETATM   19  C   UNL     1      -9.127  10.421  62.330  1.00  0.00    -0.313 A  
HETATM   20  C   UNL     1      -8.097  10.032  63.179  1.00  0.00    -0.156 A  
HETATM   21  C   UNL     1     -10.375  11.264  64.237  1.00  0.00    -0.340 A  
HETATM   22  C   UNL     1      -8.208  10.238  64.558  1.00  0.00    -0.158 A  
HETATM   23  C   UNL     1     -10.267  11.022  62.860  1.00  0.00    -0.133 A  
HETATM   24 CL   UNL     1     -11.806  12.103  64.735  1.00  0.00    -0.404 Cl 
ENDBRANCH   6  18
TORSDOF 1
ENDMDL
MODEL      145
REMARK 921   NORMALIZED FREE ENERGY PREDICTED BY IDOCK:   -3.76 KCAL/MOL
REMARK 922        TOTAL FREE ENERGY PREDICTED BY IDOCK:   -4.60 KCAL/MOL
REMARK 923 INTER-LIGAND FREE ENERGY PREDICTED BY IDOCK:   -4.11 KCAL/MOL
REMARK 924 INTRA-LIGAND FREE ENERGY PREDICTED BY IDOCK:   -0.49 KCAL/MOL
REMARK 927      BINDING AFFINITY PREDICTED BY RF-SCORE:    0.00 PKD
ROOT
HETATM    1  O   UNL     1     -10.424   9.141  72.139  1.00  0.00    -0.265 OA 
HETATM    2  H   UNL     1     -10.072   8.413  72.637  1.00  0.00     0.000 HD 
HETATM    3  C   UNL     1      -9.885   9.159  70.837  1.00  0.00    -0.291 C  
HETATM    4  N   UNL     1     -10.422  10.270  70.077  1.00  0.00    -0.373 NA 
HETATM    5  H   UNL     1     -11.278  10.730  70.388  1.00  0.00     0.000 HD 
HETATM    6  C   UNL     1      -9.828  10.681  69.014  1.00  0.00    -0.205 C  
HETATM    7  C   UNL     1      -7.603  10.821  67.894  1.00  0.00    -0.091 A  
HETATM    8  C   UNL     1      -8.620  10.010  68.423  1.00  0.00    -0.113 A  
HETATM    9 CL   UNL     1      -5.316  11.250  66.530  1.00  0.00    -0.118 Cl 
HETATM   10  C   UNL     1      -8.521   8.608  68.310  1.00  0.00    -0.131 A  
HETATM   11  N   UNL     1      -9.428   7.693  68.869  1.00  0.00    -0.149 N  
HETATM   12  C   UNL     1      -7.452   8.050  67.595  1.00  0.00    -0.097 A  
HETATM   13  O   UNL     1     -10.916   6.959  70.386  1.00  0.00    -0.247 OA 
HETATM   14  C   UNL     1      -6.457   8.866  67.053  1.00  0.00    -0.061 A  
HETATM   15  C   UNL     1     -10.161   7.862  70.023  1.00  0.00    -0.208 C  
HETATM   16  C   UNL     1      -6.534  10.245  67.212  1.00  0.00    -0.067 A  
HETATM   17  H   UNL     1      -9.558   6.814  68.369  1.00  0.00     0.000 HD 
ENDROOT
BRANCH   6  18
HETATM   18  C   UNL     1     -10.419  11.892  68.324  1.00  0.00    -0.221 A  
HETATM   19  C   UNL     1     -11.534  14.191  67.127  1.00  0.00    -0.373 A  
HETATM   20  C   UNL     1     -11.143  14.221  68.460  1.00  0.00    -0.276 A  
HETATM   21  C   UNL     1     -10.812  11.876  66.970  1.00  0.00    -0.259 A  
HETATM   22  C   UNL     1     -10.569  13.090  69.049  1.00  0.00    -0.079 A  
HETATM   23  C   UNL     1     -11.356  13.027  66.381  1.00  0.00    -0.355 A  
HETATM   24 CL   UNL     1     -10.741  10.481  65.948  1.00  0.00    -0.133 Cl 
ENDBRANCH   6  18
TORSDOF 1
ENDMDL
MODEL      146
REMARK 921   NORMALIZED FREE ENERGY PREDICTED BY IDOCK:   -3.73 KCAL/MOL
REMARK 922        TOTAL FREE ENERGY PREDICTED BY IDOCK:   -4.57 KCAL/MOL
REMARK 923 INTER-LIGAND FREE ENERGY PREDICTED BY IDOCK:   -4.11 KCAL/MOL
REMARK 924 INTRA-LIGAND FREE ENERGY PREDICTED BY IDOCK:   -0.45 KCAL/MOL
REMARK 927      BINDING AFFINITY PREDICTED BY RF-SCORE:    0.00 PKD
ROOT
HETATM    1  O   UNL     1      -8.028  10.300  70.687  1.00  0.00    -0.361 OA 
HETATM    2  H   UNL     1      -8.234  10.956  71.342  1.00  0.00     0.000 HD 
HETATM    3  C   UNL     1      -8.880   9.185  70.815  1.00  0.00    -0.239 C  
HETATM    4  N   UNL     1      -8.566   8.184  69.815  1.00  0.00    -0.132 NA 
HETATM    5  H   UNL     1      -8.023   8.445  68.991  1.00  0.00     0.000 HD 
HETATM    6  C   UNL     1      -8.965   6.971  69.958  1.00  0.00    -0.142 C  
HETATM    7  C   UNL     1      -9.591   5.260  71.662  1.00  0.00    -0.197 A  
HETATM    8  C   UNL     1      -9.849   6.513  71.083  1.00  0.00    -0.198 A  
HETATM    9 CL   UNL     1     -10.164   3.179  73.279  1.00  0.00    -0.203 Cl 
HETATM   10  C   UNL     1     -10.968   7.259  71.511  1.00  0.00    -0.233 A  
HETATM   11  N   UNL     1     -11.282   8.554  71.069  1.00  0.00    -0.260 N  
HETATM   12  C   UNL     1     -11.851   6.699  72.443  1.00  0.00    -0.226 A  
HETATM   13  O   UNL     1     -10.827  10.623  70.313  1.00  0.00    -0.248 OA 
HETATM   14  C   UNL     1     -11.598   5.443  72.996  1.00  0.00    -0.268 A  
HETATM   15  C   UNL     1     -10.391   9.527  70.671  1.00  0.00    -0.302 C  
HETATM   16  C   UNL     1     -10.467   4.733  72.609  1.00  0.00    -0.203 A  
HETATM   17  H   UNL     1     -12.272   8.800  71.039  1.00  0.00     0.000 HD 
ENDROOT
BRANCH   6  18
HETATM   18  C   UNL     1      -8.530   5.978  68.902  1.00  0.00    -0.116 A  
HETATM   19  C   UNL     1      -7.630   4.122  66.975  1.00  0.00    -0.077 A  
HETATM   20  C   UNL     1      -6.896   4.330  68.138  1.00  0.00    -0.048 A  
HETATM   21  C   UNL     1      -9.269   5.753  67.722  1.00  0.00    -0.105 A  
HETATM   22  C   UNL     1      -7.353   5.233  69.104  1.00  0.00    -0.062 A  
HETATM   23  C   UNL     1      -8.819   4.821  66.776  1.00  0.00    -0.110 A  
HETATM   24 CL   UNL     1     -10.709   6.613  67.292  1.00  0.00    -0.381 Cl 
ENDBRANCH   6  18
TORSDOF 1
ENDMDL
MODEL      147
REMARK 921   NORMALIZED FREE ENERGY PREDICTED BY IDOCK:   -3.70 KCAL/MOL
REMARK 922        TOTAL FREE ENERGY PREDICTED BY IDOCK:   -4.54 KCAL/MOL
REMARK 923 INTER-LIGAND FREE ENERGY PREDICTED BY IDOCK:   -3.98 KCAL/MOL
REMARK 924 INTRA-LIGAND FREE ENERGY PREDICTED BY IDOCK:   -0.56 KCAL/MOL
REMARK 927      BINDING AFFINITY PREDICTED BY RF-SCORE:    0.00 PKD
ROOT
HETATM    1  O   UNL     1     -10.042   8.211  65.837  1.00  0.00    -0.395 OA 
HETATM    2  H   UNL     1      -9.696   7.991  64.981  1.00  0.00     0.000 HD 
HETATM    3  C   UNL     1      -9.479   7.383  66.828  1.00  0.00    -0.176 C  
HETATM    4  N   UNL     1     -10.007   7.719  68.135  1.00  0.00    -0.171 NA 
HETATM    5  H   UNL     1     -10.462   8.621  68.281  1.00  0.00     0.000 HD 
HETATM    6  C   UNL     1      -9.907   6.891  69.112  1.00  0.00    -0.156 C  
HETATM    7  C   UNL     1      -9.726   4.465  69.666  1.00  0.00    -0.289 A  
HETATM    8  C   UNL     1      -9.171   5.583  69.023  1.00  0.00    -0.143 A  
HETATM    9 CL   UNL     1      -9.681   1.920  70.557  1.00  0.00    -0.122 Cl 
HETATM   10  C   UNL     1      -7.914   5.471  68.393  1.00  0.00    -0.096 A  
HETATM   11  N   UNL     1      -7.297   6.491  67.650  1.00  0.00    -0.093 N  
HETATM   12  C   UNL     1      -7.200   4.270  68.493  1.00  0.00    -0.056 A  
HETATM   13  O   UNL     1      -7.242   8.298  66.313  1.00  0.00    -0.072 OA 
HETATM   14  C   UNL     1      -7.750   3.170  69.154  1.00  0.00    -0.048 A  
HETATM   15  C   UNL     1      -7.928   7.472  66.917  1.00  0.00    -0.115 C  
HETATM   16  C   UNL     1      -9.011   3.271  69.730  1.00  0.00    -0.109 A  
HETATM   17  H   UNL     1      -6.277   6.508  67.655  1.00  0.00     0.000 HD 
ENDROOT
BRANCH   6  18
HETATM   18  C   UNL     1     -10.550   7.295  70.422  1.00  0.00    -0.240 A  
HETATM   19  C   UNL     1     -11.837   8.038  72.821  1.00  0.00    -0.303 A  
HETATM   20  C   UNL     1     -12.565   7.447  71.795  1.00  0.00    -0.367 A  
HETATM   21  C   UNL     1      -9.821   7.888  71.473  1.00  0.00    -0.165 A  
HETATM   22  C   UNL     1     -11.924   7.057  70.614  1.00  0.00    -0.361 A  
HETATM   23  C   UNL     1     -10.468   8.244  72.665  1.00  0.00    -0.373 A  
HETATM   24 CL   UNL     1      -8.139   8.294  71.390  1.00  0.00    -0.130 Cl 
ENDBRANCH   6  18
TORSDOF 1
ENDMDL
MODEL      148
REMARK 921   NORMALIZED FREE ENERGY PREDICTED BY IDOCK:   -3.68 KCAL/MOL
REMARK 922        TOTAL FREE ENERGY PREDICTED BY IDOCK:   -4.52 KCAL/MOL
REMARK 923 INTER-LIGAND FREE ENERGY PREDICTED BY IDOCK:   -5.02 KCAL/MOL
REMARK 924 INTRA-LIGAND FREE ENERGY PREDICTED BY IDOCK:    0.50 KCAL/MOL
REMARK 927      BINDING AFFINITY PREDICTED BY RF-SCORE:    0.00 PKD
ROOT
HETATM    1  O   UNL     1      -7.124   6.610  68.162  1.00  0.00    -0.077 OA 
HETATM    2  H   UNL     1      -6.448   6.401  67.528  1.00  0.00     0.000 HD 
HETATM    3  C   UNL     1      -8.075   7.485  67.603  1.00  0.00    -0.118 C  
HETATM    4  N   UNL     1      -9.107   7.803  68.570  1.00  0.00    -0.133 NA 
HETATM    5  H   UNL     1      -9.234   7.208  69.389  1.00  0.00     0.000 HD 
HETATM    6  C   UNL     1      -9.863   8.829  68.404  1.00  0.00    -0.171 C  
HETATM    7  C   UNL     1      -9.961  11.093  67.362  1.00  0.00    -0.204 A  
HETATM    8  C   UNL     1      -9.819   9.707  67.186  1.00  0.00    -0.238 A  
HETATM    9 CL   UNL     1     -10.285  13.621  66.481  1.00  0.00    -0.278 Cl 
HETATM   10  C   UNL     1      -9.726   9.178  65.881  1.00  0.00    -0.266 A  
HETATM   11  N   UNL     1      -9.500   7.825  65.581  1.00  0.00    -0.369 N  
HETATM   12  C   UNL     1      -9.864  10.034  64.781  1.00  0.00    -0.325 A  
HETATM   13  O   UNL     1      -8.670   5.764  65.932  1.00  0.00    -0.141 OA 
HETATM   14  C   UNL     1     -10.027  11.408  64.966  1.00  0.00    -0.312 A  
HETATM   15  C   UNL     1      -8.782   6.923  66.337  1.00  0.00    -0.142 C  
HETATM   16  C   UNL     1     -10.068  11.931  66.254  1.00  0.00    -0.220 A  
HETATM   17  H   UNL     1      -9.908   7.474  64.715  1.00  0.00     0.000 HD 
ENDROOT
BRANCH   6  18
HETATM   18  C   UNL     1     -10.866   9.125  69.499  1.00  0.00    -0.194 A  
HETATM   19  C   UNL     1     -12.694   9.768  71.551  1.00  0.00    -0.504 A  
HETATM   20  C   UNL     1     -11.935  10.769  70.956  1.00  0.00    -0.409 A  
HETATM   21  C   UNL     1     -11.646   8.119  70.105  1.00  0.00     0.097 A  
HETATM   22  C   UNL     1     -11.045  10.456  69.923  1.00  0.00    -0.367 A  
HETATM   23  C   UNL     1     -12.559   8.450  71.117  1.00  0.00    -0.156 A  
HETATM   24 CL   UNL     1     -11.520   6.431  69.740  1.00  0.00    -0.491 Cl 
ENDBRANCH   6  18
TORSDOF 1
ENDMDL
MODEL      149
REMARK 921   NORMALIZED FREE ENERGY PREDICTED BY IDOCK:   -3.67 KCAL/MOL
REMARK 922        TOTAL FREE ENERGY PREDICTED BY IDOCK:   -4.51 KCAL/MOL
REMARK 923 INTER-LIGAND FREE ENERGY PREDICTED BY IDOCK:   -3.94 KCAL/MOL
REMARK 924 INTRA-LIGAND FREE ENERGY PREDICTED BY IDOCK:   -0.56 KCAL/MOL
REMARK 927      BINDING AFFINITY PREDICTED BY RF-SCORE:    0.00 PKD
ROOT
HETATM    1  O   UNL     1     -10.818   8.871  69.717  1.00  0.00    -0.235 OA 
HETATM    2  H   UNL     1     -10.761   8.807  70.663  1.00  0.00     0.000 HD 
HETATM    3  C   UNL     1      -9.798   9.702  69.213  1.00  0.00    -0.189 C  
HETATM    4  N   UNL     1      -9.885   9.799  67.770  1.00  0.00    -0.155 NA 
HETATM    5  H   UNL     1     -10.420   9.105  67.246  1.00  0.00     0.000 HD 
HETATM    6  C   UNL     1      -9.294  10.753  67.143  1.00  0.00    -0.155 C  
HETATM    7  C   UNL     1      -8.480  13.099  67.382  1.00  0.00    -0.201 A  
HETATM    8  C   UNL     1      -8.407  11.764  67.812  1.00  0.00    -0.146 A  
HETATM    9 CL   UNL     1      -7.650  15.663  67.307  1.00  0.00    -0.225 Cl 
HETATM   10  C   UNL     1      -7.455  11.399  68.787  1.00  0.00    -0.124 A  
HETATM   11  N   UNL     1      -7.341  10.119  69.354  1.00  0.00    -0.092 N  
HETATM   12  C   UNL     1      -6.540  12.355  69.246  1.00  0.00    -0.093 A  
HETATM   13  O   UNL     1      -8.098   8.129  70.077  1.00  0.00    -0.109 OA 
HETATM   14  C   UNL     1      -6.606  13.675  68.796  1.00  0.00    -0.101 A  
HETATM   15  C   UNL     1      -8.361   9.216  69.560  1.00  0.00    -0.126 C  
HETATM   16  C   UNL     1      -7.579  14.041  67.872  1.00  0.00    -0.155 A  
HETATM   17  H   UNL     1      -6.407   9.828  69.644  1.00  0.00     0.000 HD 
ENDROOT
BRANCH   6  18
HETATM   18  C   UNL     1      -9.498  10.818  65.644  1.00  0.00    -0.250 A  
HETATM   19  C   UNL     1      -9.973  10.964  62.866  1.00  0.00    -0.251 A  
HETATM   20  C   UNL     1     -10.891  11.506  63.759  1.00  0.00    -0.486 A  
HETATM   21  C   UNL     1      -8.572  10.278  64.729  1.00  0.00    -0.184 A  
HETATM   22  C   UNL     1     -10.646  11.455  65.135  1.00  0.00    -0.352 A  
HETATM   23  C   UNL     1      -8.812  10.365  63.350  1.00  0.00    -0.218 A  
HETATM   24 CL   UNL     1      -7.136   9.422  65.181  1.00  0.00    -0.097 Cl 
ENDBRANCH   6  18
TORSDOF 1
ENDMDL
MODEL      150
REMARK 921   NORMALIZED FREE ENERGY PREDICTED BY IDOCK:   -3.59 KCAL/MOL
REMARK 922        TOTAL FREE ENERGY PREDICTED BY IDOCK:   -4.43 KCAL/MOL
REMARK 923 INTER-LIGAND FREE ENERGY PREDICTED BY IDOCK:   -4.02 KCAL/MOL
REMARK 924 INTRA-LIGAND FREE ENERGY PREDICTED BY IDOCK:   -0.40 KCAL/MOL
REMARK 927      BINDING AFFINITY PREDICTED BY RF-SCORE:    0.00 PKD
ROOT
HETATM    1  O   UNL     1     -11.139   9.330  67.700  1.00  0.00    -0.485 OA 
HETATM    2  H   UNL     1     -11.231   9.539  66.778  1.00  0.00     0.000 HD 
HETATM    3  C   UNL     1     -10.321   8.195  67.872  1.00  0.00    -0.220 C  
HETATM    4  N   UNL     1     -10.181   7.876  69.278  1.00  0.00    -0.211 NA 
HETATM    5  H   UNL     1     -10.400   8.582  69.982  1.00  0.00     0.000 HD 
HETATM    6  C   UNL     1      -9.782   6.711  69.647  1.00  0.00    -0.154 C  
HETATM    7  C   UNL     1      -9.714   4.313  68.962  1.00  0.00    -0.209 A  
HETATM    8  C   UNL     1      -9.344   5.640  68.688  1.00  0.00    -0.142 A  
HETATM    9 CL   UNL     1      -9.637   1.649  68.553  1.00  0.00    -0.230 Cl 
HETATM   10  C   UNL     1      -8.512   5.916  67.583  1.00  0.00    -0.103 A  
HETATM   11  N   UNL     1      -8.144   7.204  67.161  1.00  0.00    -0.113 N  
HETATM   12  C   UNL     1      -7.997   4.854  66.828  1.00  0.00    -0.103 A  
HETATM   13  O   UNL     1      -8.426   9.414  66.858  1.00  0.00    -0.125 OA 
HETATM   14  C   UNL     1      -8.352   3.536  67.122  1.00  0.00    -0.092 A  
HETATM   15  C   UNL     1      -8.889   8.356  67.286  1.00  0.00    -0.130 C  
HETATM   16  C   UNL     1      -9.213   3.273  68.182  1.00  0.00    -0.191 A  
HETATM   17  H   UNL     1      -7.231   7.296  66.715  1.00  0.00     0.000 HD 
ENDROOT
BRANCH   6  18
HETATM   18  C   UNL     1      -9.733   6.443  71.136  1.00  0.00    -0.191 A  
HETATM   19  C   UNL     1      -9.553   5.899  73.899  1.00  0.00    -0.155 A  
HETATM   20  C   UNL     1      -8.428   5.775  73.090  1.00  0.00    -0.117 A  
HETATM   21  C   UNL     1     -10.864   6.572  71.967  1.00  0.00    -0.234 A  
HETATM   22  C   UNL     1      -8.511   6.067  71.725  1.00  0.00    -0.127 A  
HETATM   23  C   UNL     1     -10.762   6.309  73.341  1.00  0.00    -0.281 A  
HETATM   24 CL   UNL     1     -12.450   6.978  71.404  1.00  0.00    -0.410 Cl 
ENDBRANCH   6  18
TORSDOF 1
ENDMDL
MODEL      151
REMARK 921   NORMALIZED FREE ENERGY PREDICTED BY IDOCK:   -3.59 KCAL/MOL
REMARK 922        TOTAL FREE ENERGY PREDICTED BY IDOCK:   -4.42 KCAL/MOL
REMARK 923 INTER-LIGAND FREE ENERGY PREDICTED BY IDOCK:   -3.80 KCAL/MOL
REMARK 924 INTRA-LIGAND FREE ENERGY PREDICTED BY IDOCK:   -0.62 KCAL/MOL
REMARK 927      BINDING AFFINITY PREDICTED BY RF-SCORE:    0.00 PKD
ROOT
HETATM    1  O   UNL     1     -12.061  11.076  67.929  1.00  0.00    -0.721 OA 
HETATM    2  H   UNL     1     -12.182  11.831  67.365  1.00  0.00     0.000 HD 
HETATM    3  C   UNL     1     -10.707  10.686  67.953  1.00  0.00    -0.248 C  
HETATM    4  N   UNL     1     -10.522   9.535  68.814  1.00  0.00    -0.215 NA 
HETATM    5  H   UNL     1     -11.237   9.299  69.503  1.00  0.00     0.000 HD 
HETATM    6  C   UNL     1      -9.466   8.810  68.717  1.00  0.00    -0.142 C  
HETATM    7  C   UNL     1      -7.687   8.071  67.131  1.00  0.00    -0.101 A  
HETATM    8  C   UNL     1      -8.317   9.131  67.803  1.00  0.00    -0.117 A  
HETATM    9 CL   UNL     1      -5.745   6.991  65.604  1.00  0.00    -0.031 Cl 
HETATM   10  C   UNL     1      -7.807  10.440  67.671  1.00  0.00    -0.105 A  
HETATM   11  N   UNL     1      -8.396  11.588  68.225  1.00  0.00    -0.148 N  
HETATM   12  C   UNL     1      -6.629  10.647  66.941  1.00  0.00    -0.086 A  
HETATM   13  O   UNL     1     -10.100  12.868  68.940  1.00  0.00    -0.098 OA 
HETATM   14  C   UNL     1      -5.997   9.583  66.295  1.00  0.00    -0.059 A  
HETATM   15  C   UNL     1      -9.739  11.798  68.449  1.00  0.00    -0.197 C  
HETATM   16  C   UNL     1      -6.533   8.304  66.387  1.00  0.00    -0.054 A  
HETATM   17  H   UNL     1      -7.764  12.345  68.487  1.00  0.00     0.000 HD 
ENDROOT
BRANCH   6  18
HETATM   18  C   UNL     1      -9.390   7.587  69.606  1.00  0.00    -0.153 A  
HETATM   19  C   UNL     1      -9.171   5.350  71.312  1.00  0.00    -0.173 A  
HETATM   20  C   UNL     1      -8.500   6.528  71.620  1.00  0.00    -0.124 A  
HETATM   21  C   UNL     1     -10.071   6.390  69.309  1.00  0.00    -0.172 A  
HETATM   22  C   UNL     1      -8.626   7.646  70.788  1.00  0.00    -0.134 A  
HETATM   23  C   UNL     1      -9.964   5.286  70.168  1.00  0.00    -0.313 A  
HETATM   24 CL   UNL     1     -11.013   6.130  67.879  1.00  0.00    -0.410 Cl 
ENDBRANCH   6  18
TORSDOF 1
ENDMDL
MODEL      152
REMARK 921   NORMALIZED FREE ENERGY PREDICTED BY IDOCK:   -3.58 KCAL/MOL
REMARK 922        TOTAL FREE ENERGY PREDICTED BY IDOCK:   -4.41 KCAL/MOL
REMARK 923 INTER-LIGAND FREE ENERGY PREDICTED BY IDOCK:   -3.78 KCAL/MOL
REMARK 924 INTRA-LIGAND FREE ENERGY PREDICTED BY IDOCK:   -0.63 KCAL/MOL
REMARK 927      BINDING AFFINITY PREDICTED BY RF-SCORE:    0.00 PKD
ROOT
HETATM    1  O   UNL     1     -10.160   4.073  67.415  1.00  0.00    -0.138 OA 
HETATM    2  H   UNL     1     -10.754   3.348  67.569  1.00  0.00     0.000 HD 
HETATM    3  C   UNL     1     -10.196   4.981  68.491  1.00  0.00    -0.073 C  
HETATM    4  N   UNL     1      -9.290   6.087  68.256  1.00  0.00    -0.116 NA 
HETATM    5  H   UNL     1      -8.549   5.996  67.560  1.00  0.00     0.000 HD 
HETATM    6  C   UNL     1      -9.412   7.183  68.916  1.00  0.00    -0.142 C  
HETATM    7  C   UNL     1     -11.060   8.619  70.119  1.00  0.00    -0.199 A  
HETATM    8  C   UNL     1     -10.406   7.380  70.025  1.00  0.00    -0.224 A  
HETATM    9 CL   UNL     1     -12.641  10.433  71.336  1.00  0.00    -0.502 Cl 
HETATM   10  C   UNL     1     -10.635   6.397  71.012  1.00  0.00    -0.234 A  
HETATM   11  N   UNL     1     -10.107   5.096  70.983  1.00  0.00    -0.215 N  
HETATM   12  C   UNL     1     -11.442   6.705  72.115  1.00  0.00    -0.323 A  
HETATM   13  O   UNL     1      -9.358   3.216  70.003  1.00  0.00    -0.138 OA 
HETATM   14  C   UNL     1     -12.070   7.949  72.211  1.00  0.00    -0.363 A  
HETATM   15  C   UNL     1      -9.815   4.351  69.861  1.00  0.00    -0.220 C  
HETATM   16  C   UNL     1     -11.881   8.896  71.210  1.00  0.00    -0.310 A  
HETATM   17  H   UNL     1      -9.920   4.658  71.884  1.00  0.00     0.000 HD 
ENDROOT
BRANCH   6  18
HETATM   18  C   UNL     1      -8.468   8.310  68.555  1.00  0.00    -0.126 A  
HETATM   19  C   UNL     1      -6.742  10.407  67.789  1.00  0.00    -0.070 A  
HETATM   20  C   UNL     1      -7.791  10.031  66.958  1.00  0.00    -0.102 A  
HETATM   21  C   UNL     1      -7.404   8.705  69.391  1.00  0.00    -0.072 A  
HETATM   22  C   UNL     1      -8.662   9.007  67.347  1.00  0.00    -0.122 A  
HETATM   23  C   UNL     1      -6.558   9.755  69.007  1.00  0.00    -0.049 A  
HETATM   24 CL   UNL     1      -6.994   7.929  70.884  1.00  0.00    -0.048 Cl 
ENDBRANCH   6  18
TORSDOF 1
ENDMDL
MODEL      153
REMARK 921   NORMALIZED FREE ENERGY PREDICTED BY IDOCK:   -3.58 KCAL/MOL
REMARK 922        TOTAL FREE ENERGY PREDICTED BY IDOCK:   -4.41 KCAL/MOL
REMARK 923 INTER-LIGAND FREE ENERGY PREDICTED BY IDOCK:   -3.80 KCAL/MOL
REMARK 924 INTRA-LIGAND FREE ENERGY PREDICTED BY IDOCK:   -0.61 KCAL/MOL
REMARK 927      BINDING AFFINITY PREDICTED BY RF-SCORE:    0.00 PKD
ROOT
HETATM    1  O   UNL     1     -11.279   5.610  66.030  1.00  0.00    -0.737 OA 
HETATM    2  H   UNL     1     -11.755   4.953  65.535  1.00  0.00     0.000 HD 
HETATM    3  C   UNL     1     -10.534   5.010  67.064  1.00  0.00    -0.148 C  
HETATM    4  N   UNL     1      -9.809   6.012  67.819  1.00  0.00    -0.114 NA 
HETATM    5  H   UNL     1      -9.657   6.937  67.416  1.00  0.00     0.000 HD 
HETATM    6  C   UNL     1      -9.355   5.745  68.991  1.00  0.00    -0.123 C  
HETATM    7  C   UNL     1      -9.729   4.315  71.001  1.00  0.00    -0.260 A  
HETATM    8  C   UNL     1      -9.444   4.387  69.628  1.00  0.00    -0.252 A  
HETATM    9 CL   UNL     1      -9.990   3.020  73.352  1.00  0.00    -0.159 Cl 
HETATM   10  C   UNL     1      -9.167   3.203  68.913  1.00  0.00    -0.161 A  
HETATM   11  N   UNL     1      -8.950   3.137  67.527  1.00  0.00    -0.142 N  
HETATM   12  C   UNL     1      -9.096   1.984  69.602  1.00  0.00    -0.167 A  
HETATM   13  O   UNL     1      -9.211   3.770  65.385  1.00  0.00    -0.137 OA 
HETATM   14  C   UNL     1      -9.360   1.926  70.971  1.00  0.00    -0.194 A  
HETATM   15  C   UNL     1      -9.498   3.961  66.568  1.00  0.00    -0.195 C  
HETATM   16  C   UNL     1      -9.681   3.090  71.662  1.00  0.00    -0.158 A  
HETATM   17  H   UNL     1      -8.322   2.405  67.196  1.00  0.00     0.000 HD 
ENDROOT
BRANCH   6  18
HETATM   18  C   UNL     1      -8.673   6.873  69.735  1.00  0.00    -0.141 A  
HETATM   19  C   UNL     1      -7.486   9.025  71.123  1.00  0.00    -0.119 A  
HETATM   20  C   UNL     1      -8.870   8.937  71.027  1.00  0.00    -0.285 A  
HETATM   21  C   UNL     1      -7.271   6.969  69.845  1.00  0.00    -0.079 A  
HETATM   22  C   UNL     1      -9.461   7.859  70.360  1.00  0.00    -0.163 A  
HETATM   23  C   UNL     1      -6.691   8.037  70.546  1.00  0.00    -0.037 A  
HETATM   24 CL   UNL     1      -6.154   5.874  69.102  1.00  0.00    -0.030 Cl 
ENDBRANCH   6  18
TORSDOF 1
ENDMDL
MODEL      154
REMARK 921   NORMALIZED FREE ENERGY PREDICTED BY IDOCK:   -3.58 KCAL/MOL
REMARK 922        TOTAL FREE ENERGY PREDICTED BY IDOCK:   -4.41 KCAL/MOL
REMARK 923 INTER-LIGAND FREE ENERGY PREDICTED BY IDOCK:   -3.84 KCAL/MOL
REMARK 924 INTRA-LIGAND FREE ENERGY PREDICTED BY IDOCK:   -0.57 KCAL/MOL
REMARK 927      BINDING AFFINITY PREDICTED BY RF-SCORE:    0.00 PKD
ROOT
HETATM    1  O   UNL     1     -12.787  12.814  65.167  1.00  0.00    -0.726 OA 
HETATM    2  H   UNL     1     -12.955  13.734  65.003  1.00  0.00     0.000 HD 
HETATM    3  C   UNL     1     -11.672  12.656  66.014  1.00  0.00    -0.417 C  
HETATM    4  N   UNL     1     -11.416  11.252  66.265  1.00  0.00    -0.229 NA 
HETATM    5  H   UNL     1     -12.149  10.564  66.087  1.00  0.00     0.000 HD 
HETATM    6  C   UNL     1     -10.274  10.866  66.709  1.00  0.00    -0.231 C  
HETATM    7  C   UNL     1      -7.850  11.451  66.767  1.00  0.00    -0.157 A  
HETATM    8  C   UNL     1      -9.168  11.808  67.092  1.00  0.00    -0.179 A  
HETATM    9 CL   UNL     1      -5.171  11.752  66.858  1.00  0.00    -0.116 Cl 
HETATM   10  C   UNL     1      -9.408  12.984  67.835  1.00  0.00    -0.212 A  
HETATM   11  N   UNL     1     -10.681  13.487  68.149  1.00  0.00    -0.245 N  
HETATM   12  C   UNL     1      -8.321  13.730  68.310  1.00  0.00    -0.161 A  
HETATM   13  O   UNL     1     -12.872  13.861  67.808  1.00  0.00     0.592 OA 
HETATM   14  C   UNL     1      -7.012  13.355  68.000  1.00  0.00    -0.127 A  
HETATM   15  C   UNL     1     -11.827  13.354  67.396  1.00  0.00    -0.375 C  
HETATM   16  C   UNL     1      -6.784  12.223  67.225  1.00  0.00    -0.143 A  
HETATM   17  H   UNL     1     -10.766  14.004  69.024  1.00  0.00     0.000 HD 
ENDROOT
BRANCH   6  18
HETATM   18  C   UNL     1     -10.071   9.375  66.875  1.00  0.00    -0.314 A  
HETATM   19  C   UNL     1      -9.701   6.607  67.281  1.00  0.00    -0.166 A  
HETATM   20  C   UNL     1     -10.174   7.405  68.317  1.00  0.00    -0.213 A  
HETATM   21  C   UNL     1      -9.599   8.553  65.831  1.00  0.00    -0.094 A  
HETATM   22  C   UNL     1     -10.380   8.773  68.110  1.00  0.00    -0.266 A  
HETATM   23  C   UNL     1      -9.429   7.177  66.039  1.00  0.00     0.031 A  
HETATM   24 CL   UNL     1      -9.129   9.132  64.268  1.00  0.00    -0.093 Cl 
ENDBRANCH   6  18
TORSDOF 1
ENDMDL
MODEL      155
REMARK 921   NORMALIZED FREE ENERGY PREDICTED BY IDOCK:   -3.54 KCAL/MOL
REMARK 922        TOTAL FREE ENERGY PREDICTED BY IDOCK:   -4.37 KCAL/MOL
REMARK 923 INTER-LIGAND FREE ENERGY PREDICTED BY IDOCK:   -3.80 KCAL/MOL
REMARK 924 INTRA-LIGAND FREE ENERGY PREDICTED BY IDOCK:   -0.57 KCAL/MOL
REMARK 927      BINDING AFFINITY PREDICTED BY RF-SCORE:    0.00 PKD
ROOT
HETATM    1  O   UNL     1      -9.205   9.097  64.392  1.00  0.00    -0.436 OA 
HETATM    2  H   UNL     1      -9.793   8.570  63.863  1.00  0.00     0.000 HD 
HETATM    3  C   UNL     1      -9.284   8.720  65.747  1.00  0.00    -0.206 C  
HETATM    4  N   UNL     1      -8.387   9.522  66.554  1.00  0.00    -0.118 NA 
HETATM    5  H   UNL     1      -7.625  10.034  66.107  1.00  0.00     0.000 HD 
HETATM    6  C   UNL     1      -8.543   9.596  67.827  1.00  0.00    -0.125 C  
HETATM    7  C   UNL     1     -10.243   9.437  69.645  1.00  0.00    -0.225 A  
HETATM    8  C   UNL     1      -9.571   8.806  68.587  1.00  0.00    -0.159 A  
HETATM    9 CL   UNL     1     -11.884   9.477  71.785  1.00  0.00    -0.455 Cl 
HETATM   10  C   UNL     1      -9.813   7.441  68.323  1.00  0.00    -0.160 A  
HETATM   11  N   UNL     1      -9.267   6.724  67.246  1.00  0.00    -0.131 N  
HETATM   12  C   UNL     1     -10.656   6.716  69.176  1.00  0.00    -0.280 A  
HETATM   13  O   UNL     1      -8.465   6.463  65.162  1.00  0.00    -0.140 OA 
HETATM   14  C   UNL     1     -11.303   7.347  70.241  1.00  0.00    -0.244 A  
HETATM   15  C   UNL     1      -8.933   7.227  66.008  1.00  0.00    -0.116 C  
HETATM   16  C   UNL     1     -11.099   8.704  70.465  1.00  0.00    -0.242 A  
HETATM   17  H   UNL     1      -9.100   5.729  67.397  1.00  0.00     0.000 HD 
ENDROOT
BRANCH   6  18
HETATM   18  C   UNL     1      -7.604  10.513  68.581  1.00  0.00    -0.099 A  
HETATM   19  C   UNL     1      -5.829  12.148  70.045  1.00  0.00    -0.152 A  
HETATM   20  C   UNL     1      -5.779  10.766  70.186  1.00  0.00    -0.082 A  
HETATM   21  C   UNL     1      -7.640  11.916  68.442  1.00  0.00    -0.120 A  
HETATM   22  C   UNL     1      -6.642   9.953  69.444  1.00  0.00    -0.051 A  
HETATM   23  C   UNL     1      -6.747  12.719  69.166  1.00  0.00    -0.080 A  
HETATM   24 CL   UNL     1      -8.784  12.771  67.463  1.00  0.00    -0.174 Cl 
ENDBRANCH   6  18
TORSDOF 1
ENDMDL
MODEL      156
REMARK 921   NORMALIZED FREE ENERGY PREDICTED BY IDOCK:   -3.53 KCAL/MOL
REMARK 922        TOTAL FREE ENERGY PREDICTED BY IDOCK:   -4.36 KCAL/MOL
REMARK 923 INTER-LIGAND FREE ENERGY PREDICTED BY IDOCK:   -4.42 KCAL/MOL
REMARK 924 INTRA-LIGAND FREE ENERGY PREDICTED BY IDOCK:    0.05 KCAL/MOL
REMARK 927      BINDING AFFINITY PREDICTED BY RF-SCORE:    0.00 PKD
ROOT
HETATM    1  O   UNL     1      -7.678   7.224  73.591  1.00  0.00    -0.101 OA 
HETATM    2  H   UNL     1      -7.012   6.553  73.688  1.00  0.00     0.000 HD 
HETATM    3  C   UNL     1      -8.418   7.021  72.409  1.00  0.00    -0.113 C  
HETATM    4  N   UNL     1      -9.434   8.044  72.261  1.00  0.00    -0.187 NA 
HETATM    5  H   UNL     1      -9.717   8.597  73.071  1.00  0.00     0.000 HD 
HETATM    6  C   UNL     1      -9.980   8.261  71.118  1.00  0.00    -0.185 C  
HETATM    7  C   UNL     1      -9.600   8.100  68.658  1.00  0.00    -0.151 A  
HETATM    8  C   UNL     1      -9.700   7.438  69.892  1.00  0.00    -0.171 A  
HETATM    9 CL   UNL     1      -9.404   8.184  65.970  1.00  0.00    -0.219 Cl 
HETATM   10  C   UNL     1      -9.623   6.030  69.936  1.00  0.00    -0.158 A  
HETATM   11  N   UNL     1      -9.627   5.264  71.113  1.00  0.00    -0.157 N  
HETATM   12  C   UNL     1      -9.534   5.310  68.737  1.00  0.00    -0.171 A  
HETATM   13  O   UNL     1      -9.209   4.849  73.283  1.00  0.00    -0.118 OA 
HETATM   14  C   UNL     1      -9.456   5.975  67.512  1.00  0.00    -0.113 A  
HETATM   15  C   UNL     1      -9.134   5.642  72.343  1.00  0.00    -0.141 C  
HETATM   16  C   UNL     1      -9.483   7.365  67.480  1.00  0.00    -0.138 A  
HETATM   17  H   UNL     1     -10.037   4.332  71.051  1.00  0.00     0.000 HD 
ENDROOT
BRANCH   6  18
HETATM   18  C   UNL     1     -10.979   9.396  71.040  1.00  0.00    -0.409 A  
HETATM   19  C   UNL     1     -12.772  11.567  70.849  1.00  0.00    -0.372 A  
HETATM   20  C   UNL     1     -11.601  11.563  70.099  1.00  0.00    -0.336 A  
HETATM   21  C   UNL     1     -12.172   9.408  71.790  1.00  0.00    -0.390 A  
HETATM   22  C   UNL     1     -10.722  10.477  70.175  1.00  0.00    -0.232 A  
HETATM   23  C   UNL     1     -13.062  10.487  71.680  1.00  0.00    -0.551 A  
HETATM   24 CL   UNL     1     -12.621   8.187  72.933  1.00  0.00    -0.007 Cl 
ENDBRANCH   6  18
TORSDOF 1
ENDMDL
MODEL      157
REMARK 921   NORMALIZED FREE ENERGY PREDICTED BY IDOCK:   -3.44 KCAL/MOL
REMARK 922        TOTAL FREE ENERGY PREDICTED BY IDOCK:   -4.27 KCAL/MOL
REMARK 923 INTER-LIGAND FREE ENERGY PREDICTED BY IDOCK:   -3.67 KCAL/MOL
REMARK 924 INTRA-LIGAND FREE ENERGY PREDICTED BY IDOCK:   -0.60 KCAL/MOL
REMARK 927      BINDING AFFINITY PREDICTED BY RF-SCORE:    0.00 PKD
ROOT
HETATM    1  O   UNL     1      -8.037   7.744  74.529  1.00  0.00    -0.197 OA 
HETATM    2  H   UNL     1      -7.914   7.006  75.115  1.00  0.00     0.000 HD 
HETATM    3  C   UNL     1      -8.616   7.323  73.316  1.00  0.00    -0.136 C  
HETATM    4  N   UNL     1      -8.804   8.449  72.423  1.00  0.00    -0.223 NA 
HETATM    5  H   UNL     1      -8.793   9.399  72.796  1.00  0.00     0.000 HD 
HETATM    6  C   UNL     1      -8.984   8.260  71.164  1.00  0.00    -0.158 C  
HETATM    7  C   UNL     1      -8.503   6.687  69.289  1.00  0.00    -0.124 A  
HETATM    8  C   UNL     1      -9.112   6.902  70.536  1.00  0.00    -0.156 A  
HETATM    9 CL   UNL     1      -7.997   5.256  67.060  1.00  0.00    -0.101 Cl 
HETATM   10  C   UNL     1      -9.889   5.877  71.116  1.00  0.00    -0.181 A  
HETATM   11  N   UNL     1     -10.478   5.942  72.390  1.00  0.00    -0.200 N  
HETATM   12  C   UNL     1     -10.112   4.693  70.399  1.00  0.00    -0.275 A  
HETATM   13  O   UNL     1     -10.631   6.582  74.540  1.00  0.00    -0.154 OA 
HETATM   14  C   UNL     1      -9.519   4.498  69.150  1.00  0.00    -0.233 A  
HETATM   15  C   UNL     1      -9.997   6.628  73.484  1.00  0.00    -0.229 C  
HETATM   16  C   UNL     1      -8.713   5.491  68.605  1.00  0.00    -0.108 A  
HETATM   17  H   UNL     1     -11.350   5.429  72.518  1.00  0.00     0.000 HD 
ENDROOT
BRANCH   6  18
HETATM   18  C   UNL     1      -9.100   9.495  70.296  1.00  0.00    -0.296 A  
HETATM   19  C   UNL     1      -9.413  11.778  68.666  1.00  0.00    -0.107 A  
HETATM   20  C   UNL     1     -10.532  11.122  69.168  1.00  0.00    -0.211 A  
HETATM   21  C   UNL     1      -7.974  10.173  69.787  1.00  0.00    -0.161 A  
HETATM   22  C   UNL     1     -10.378  10.004  69.995  1.00  0.00    -0.323 A  
HETATM   23  C   UNL     1      -8.139  11.313  68.987  1.00  0.00    -0.045 A  
HETATM   24 CL   UNL     1      -6.336   9.660  70.020  1.00  0.00    -0.052 Cl 
ENDBRANCH   6  18
TORSDOF 1
ENDMDL
MODEL      158
REMARK 921   NORMALIZED FREE ENERGY PREDICTED BY IDOCK:   -3.43 KCAL/MOL
REMARK 922        TOTAL FREE ENERGY PREDICTED BY IDOCK:   -4.25 KCAL/MOL
REMARK 923 INTER-LIGAND FREE ENERGY PREDICTED BY IDOCK:   -4.92 KCAL/MOL
REMARK 924 INTRA-LIGAND FREE ENERGY PREDICTED BY IDOCK:    0.67 KCAL/MOL
REMARK 927      BINDING AFFINITY PREDICTED BY RF-SCORE:    0.00 PKD
ROOT
HETATM    1  O   UNL     1     -11.417  16.539  71.359  1.00  0.00    -0.533 OA 
HETATM    2  H   UNL     1     -11.844  15.956  71.975  1.00  0.00     0.000 HD 
HETATM    3  C   UNL     1     -10.914  15.818  70.258  1.00  0.00    -0.357 C  
HETATM    4  N   UNL     1     -10.264  16.709  69.319  1.00  0.00    -0.296 NA 
HETATM    5  H   UNL     1     -10.455  17.711  69.355  1.00  0.00     0.000 HD 
HETATM    6  C   UNL     1      -9.447  16.247  68.440  1.00  0.00    -0.216 C  
HETATM    7  C   UNL     1      -7.857  14.383  67.973  1.00  0.00    -0.141 A  
HETATM    8  C   UNL     1      -9.175  14.782  68.245  1.00  0.00    -0.187 A  
HETATM    9 CL   UNL     1      -5.971  12.587  67.273  1.00  0.00    -0.147 Cl 
HETATM   10  C   UNL     1     -10.208  13.821  68.242  1.00  0.00    -0.245 A  
HETATM   11  N   UNL     1     -11.546  14.083  68.579  1.00  0.00    -0.301 N  
HETATM   12  C   UNL     1      -9.915  12.499  67.883  1.00  0.00    -0.212 A  
HETATM   13  O   UNL     1     -13.213  15.132  69.665  1.00  0.00     0.344 OA 
HETATM   14  C   UNL     1      -8.604  12.115  67.593  1.00  0.00    -0.166 A  
HETATM   15  C   UNL     1     -12.000  15.027  69.474  1.00  0.00    -0.313 C  
HETATM   16  C   UNL     1      -7.582  13.057  67.646  1.00  0.00    -0.160 A  
HETATM   17  H   UNL     1     -12.255  13.516  68.113  1.00  0.00     0.000 HD 
ENDROOT
BRANCH   6  18
HETATM   18  C   UNL     1      -8.759  17.257  67.546  1.00  0.00    -0.212 A  
HETATM   19  C   UNL     1      -7.390  19.097  65.901  1.00  0.00    -0.278 A  
HETATM   20  C   UNL     1      -6.748  17.945  66.343  1.00  0.00    -0.272 A  
HETATM   21  C   UNL     1      -9.402  18.425  67.087  1.00  0.00    -0.271 A  
HETATM   22  C   UNL     1      -7.432  17.021  67.139  1.00  0.00    -0.205 A  
HETATM   23  C   UNL     1      -8.716  19.327  66.261  1.00  0.00    -0.333 A  
HETATM   24 CL   UNL     1     -11.010  18.893  67.526  1.00  0.00    -0.424 Cl 
ENDBRANCH   6  18
TORSDOF 1
ENDMDL
MODEL      159
REMARK 921   NORMALIZED FREE ENERGY PREDICTED BY IDOCK:   -3.43 KCAL/MOL
REMARK 922        TOTAL FREE ENERGY PREDICTED BY IDOCK:   -4.25 KCAL/MOL
REMARK 923 INTER-LIGAND FREE ENERGY PREDICTED BY IDOCK:   -3.64 KCAL/MOL
REMARK 924 INTRA-LIGAND FREE ENERGY PREDICTED BY IDOCK:   -0.61 KCAL/MOL
REMARK 927      BINDING AFFINITY PREDICTED BY RF-SCORE:    0.00 PKD
ROOT
HETATM    1  O   UNL     1      -9.045   8.631  72.977  1.00  0.00    -0.293 OA 
HETATM    2  H   UNL     1      -9.026   8.142  73.791  1.00  0.00     0.000 HD 
HETATM    3  C   UNL     1      -9.274   7.770  71.885  1.00  0.00    -0.141 C  
HETATM    4  N   UNL     1      -9.304   8.516  70.643  1.00  0.00    -0.166 NA 
HETATM    5  H   UNL     1      -9.446   9.527  70.663  1.00  0.00     0.000 HD 
HETATM    6  C   UNL     1      -9.151   7.916  69.518  1.00  0.00    -0.149 C  
HETATM    7  C   UNL     1      -8.117   5.916  68.443  1.00  0.00    -0.109 A  
HETATM    8  C   UNL     1      -9.032   6.424  69.379  1.00  0.00    -0.131 A  
HETATM    9 CL   UNL     1      -6.981   3.941  67.000  1.00  0.00    -0.058 Cl 
HETATM   10  C   UNL     1      -9.863   5.536  70.093  1.00  0.00    -0.198 A  
HETATM   11  N   UNL     1     -10.754   5.915  71.110  1.00  0.00    -0.255 N  
HETATM   12  C   UNL     1      -9.823   4.167  69.794  1.00  0.00    -0.220 A  
HETATM   13  O   UNL     1     -11.480   7.174  72.826  1.00  0.00    -0.266 OA 
HETATM   14  C   UNL     1      -8.927   3.673  68.844  1.00  0.00    -0.182 A  
HETATM   15  C   UNL     1     -10.607   6.973  71.980  1.00  0.00    -0.211 C  
HETATM   16  C   UNL     1      -8.074   4.548  68.180  1.00  0.00    -0.087 A  
HETATM   17  H   UNL     1     -11.596   5.350  71.215  1.00  0.00     0.000 HD 
ENDROOT
BRANCH   6  18
HETATM   18  C   UNL     1      -9.124   8.783  68.277  1.00  0.00    -0.141 A  
HETATM   19  C   UNL     1      -9.161  10.358  65.936  1.00  0.00    -0.192 A  
HETATM   20  C   UNL     1     -10.311   9.693  66.345  1.00  0.00    -0.246 A  
HETATM   21  C   UNL     1      -7.966   9.468  67.856  1.00  0.00    -0.098 A  
HETATM   22  C   UNL     1     -10.301   8.930  67.517  1.00  0.00    -0.328 A  
HETATM   23  C   UNL     1      -7.997  10.257  66.696  1.00  0.00    -0.116 A  
HETATM   24 CL   UNL     1      -6.427   9.362  68.642  1.00  0.00    -0.052 Cl 
ENDBRANCH   6  18
TORSDOF 1
ENDMDL
MODEL      160
REMARK 921   NORMALIZED FREE ENERGY PREDICTED BY IDOCK:   -3.42 KCAL/MOL
REMARK 922        TOTAL FREE ENERGY PREDICTED BY IDOCK:   -4.25 KCAL/MOL
REMARK 923 INTER-LIGAND FREE ENERGY PREDICTED BY IDOCK:   -3.62 KCAL/MOL
REMARK 924 INTRA-LIGAND FREE ENERGY PREDICTED BY IDOCK:   -0.62 KCAL/MOL
REMARK 927      BINDING AFFINITY PREDICTED BY RF-SCORE:    0.00 PKD
ROOT
HETATM    1  O   UNL     1     -11.752   6.417  66.784  1.00  0.00    -0.586 OA 
HETATM    2  H   UNL     1     -12.282   5.631  66.849  1.00  0.00     0.000 HD 
HETATM    3  C   UNL     1     -10.759   6.431  67.784  1.00  0.00    -0.303 C  
HETATM    4  N   UNL     1      -9.950   7.629  67.683  1.00  0.00    -0.163 NA 
HETATM    5  H   UNL     1      -9.951   8.170  66.817  1.00  0.00     0.000 HD 
HETATM    6  C   UNL     1      -9.232   8.017  68.676  1.00  0.00    -0.143 C  
HETATM    7  C   UNL     1      -9.058   7.952  71.163  1.00  0.00    -0.160 A  
HETATM    8  C   UNL     1      -9.089   7.240  69.954  1.00  0.00    -0.141 A  
HETATM    9 CL   UNL     1      -8.707   8.177  73.828  1.00  0.00    -0.319 Cl 
HETATM   10  C   UNL     1      -8.902   5.841  69.965  1.00  0.00    -0.135 A  
HETATM   11  N   UNL     1      -8.994   5.012  68.835  1.00  0.00    -0.099 N  
HETATM   12  C   UNL     1      -8.602   5.197  71.173  1.00  0.00    -0.128 A  
HETATM   13  O   UNL     1      -9.764   4.386  66.817  1.00  0.00    -0.187 OA 
HETATM   14  C   UNL     1      -8.551   5.917  72.368  1.00  0.00    -0.120 A  
HETATM   15  C   UNL     1      -9.793   5.212  67.730  1.00  0.00    -0.156 C  
HETATM   16  C   UNL     1      -8.786   7.288  72.358  1.00  0.00    -0.123 A  
HETATM   17  H   UNL     1      -8.409   4.177  68.831  1.00  0.00     0.000 HD 
ENDROOT
BRANCH   6  18
HETATM   18  C   UNL     1      -8.475   9.317  68.507  1.00  0.00    -0.123 A  
HETATM   19  C   UNL     1      -6.979  11.690  68.200  1.00  0.00    -0.071 A  
HETATM   20  C   UNL     1      -6.356  10.453  68.072  1.00  0.00    -0.059 A  
HETATM   21  C   UNL     1      -9.096  10.577  68.628  1.00  0.00    -0.158 A  
HETATM   22  C   UNL     1      -7.101   9.276  68.201  1.00  0.00    -0.077 A  
HETATM   23  C   UNL     1      -8.346  11.750  68.463  1.00  0.00    -0.131 A  
HETATM   24 CL   UNL     1     -10.760  10.811  69.044  1.00  0.00    -0.240 Cl 
ENDBRANCH   6  18
TORSDOF 1
ENDMDL
MODEL      161
REMARK 921   NORMALIZED FREE ENERGY PREDICTED BY IDOCK:   -3.41 KCAL/MOL
REMARK 922        TOTAL FREE ENERGY PREDICTED BY IDOCK:   -4.23 KCAL/MOL
REMARK 923 INTER-LIGAND FREE ENERGY PREDICTED BY IDOCK:   -3.61 KCAL/MOL
REMARK 924 INTRA-LIGAND FREE ENERGY PREDICTED BY IDOCK:   -0.62 KCAL/MOL
REMARK 927      BINDING AFFINITY PREDICTED BY RF-SCORE:    0.00 PKD
ROOT
HETATM    1  O   UNL     1     -11.646   4.488  64.965  1.00  0.00    -1.101 OA 
HETATM    2  H   UNL     1     -12.085   3.674  65.181  1.00  0.00     0.000 HD 
HETATM    3  C   UNL     1     -10.420   4.589  65.651  1.00  0.00    -0.229 C  
HETATM    4  N   UNL     1      -9.750   5.830  65.321  1.00  0.00    -0.171 NA 
HETATM    5  H   UNL     1     -10.024   6.346  64.484  1.00  0.00     0.000 HD 
HETATM    6  C   UNL     1      -8.813   6.287  66.073  1.00  0.00    -0.151 C  
HETATM    7  C   UNL     1      -7.958   6.299  68.416  1.00  0.00    -0.105 A  
HETATM    8  C   UNL     1      -8.274   5.554  67.269  1.00  0.00    -0.101 A  
HETATM    9 CL   UNL     1      -6.904   6.616  70.878  1.00  0.00    -0.061 Cl 
HETATM   10  C   UNL     1      -8.001   4.170  67.240  1.00  0.00    -0.096 A  
HETATM   11  N   UNL     1      -8.346   3.307  66.187  1.00  0.00    -0.098 N  
HETATM   12  C   UNL     1      -7.339   3.578  68.324  1.00  0.00    -0.051 A  
HETATM   13  O   UNL     1      -9.598   2.582  64.466  1.00  0.00    -0.145 OA 
HETATM   14  C   UNL     1      -7.008   4.332  69.452  1.00  0.00    -0.046 A  
HETATM   15  C   UNL     1      -9.429   3.429  65.344  1.00  0.00    -0.136 C  
HETATM   16  C   UNL     1      -7.326   5.685  69.495  1.00  0.00    -0.067 A  
HETATM   17  H   UNL     1      -7.731   2.509  66.030  1.00  0.00     0.000 HD 
ENDROOT
BRANCH   6  18
HETATM   18  C   UNL     1      -8.219   7.625  65.690  1.00  0.00    -0.136 A  
HETATM   19  C   UNL     1      -7.022  10.076  64.963  1.00  0.00    -0.135 A  
HETATM   20  C   UNL     1      -6.361   8.878  64.715  1.00  0.00    -0.066 A  
HETATM   21  C   UNL     1      -8.881   8.846  65.931  1.00  0.00    -0.179 A  
HETATM   22  C   UNL     1      -6.963   7.661  65.053  1.00  0.00    -0.058 A  
HETATM   23  C   UNL     1      -8.283  10.058  65.556  1.00  0.00    -0.146 A  
HETATM   24 CL   UNL     1     -10.404   8.988  66.742  1.00  0.00    -0.330 Cl 
ENDBRANCH   6  18
TORSDOF 1
ENDMDL
MODEL      162
REMARK 921   NORMALIZED FREE ENERGY PREDICTED BY IDOCK:   -3.38 KCAL/MOL
REMARK 922        TOTAL FREE ENERGY PREDICTED BY IDOCK:   -4.20 KCAL/MOL
REMARK 923 INTER-LIGAND FREE ENERGY PREDICTED BY IDOCK:   -3.66 KCAL/MOL
REMARK 924 INTRA-LIGAND FREE ENERGY PREDICTED BY IDOCK:   -0.55 KCAL/MOL
REMARK 927      BINDING AFFINITY PREDICTED BY RF-SCORE:    0.00 PKD
ROOT
HETATM    1  O   UNL     1      -5.820   4.603  70.399  1.00  0.00    -0.015 OA 
HETATM    2  H   UNL     1      -5.071   4.303  69.898  1.00  0.00     0.000 HD 
HETATM    3  C   UNL     1      -6.813   5.123  69.546  1.00  0.00    -0.053 C  
HETATM    4  N   UNL     1      -7.956   5.580  70.311  1.00  0.00    -0.099 NA 
HETATM    5  H   UNL     1      -8.086   5.256  71.270  1.00  0.00     0.000 HD 
HETATM    6  C   UNL     1      -8.808   6.389  69.791  1.00  0.00    -0.142 C  
HETATM    7  C   UNL     1      -9.074   8.184  68.079  1.00  0.00    -0.134 A  
HETATM    8  C   UNL     1      -8.758   6.845  68.360  1.00  0.00    -0.124 A  
HETATM    9 CL   UNL     1      -9.607  10.246  66.425  1.00  0.00    -0.221 Cl 
HETATM   10  C   UNL     1      -8.489   5.956  67.299  1.00  0.00    -0.103 A  
HETATM   11  N   UNL     1      -8.082   4.621  67.456  1.00  0.00    -0.100 N  
HETATM   12  C   UNL     1      -8.626   6.402  65.977  1.00  0.00    -0.149 A  
HETATM   13  O   UNL     1      -7.055   2.905  68.484  1.00  0.00    -0.048 OA 
HETATM   14  C   UNL     1      -8.963   7.730  65.707  1.00  0.00    -0.109 A  
HETATM   15  C   UNL     1      -7.336   4.105  68.493  1.00  0.00    -0.056 C  
HETATM   16  C   UNL     1      -9.178   8.615  66.758  1.00  0.00    -0.169 A  
HETATM   17  H   UNL     1      -8.369   3.967  66.728  1.00  0.00     0.000 HD 
ENDROOT
BRANCH   6  18
HETATM   18  C   UNL     1      -9.931   6.870  70.686  1.00  0.00    -0.198 A  
HETATM   19  C   UNL     1     -12.090   7.736  72.284  1.00  0.00    -0.332 A  
HETATM   20  C   UNL     1     -12.323   6.918  71.184  1.00  0.00    -0.419 A  
HETATM   21  C   UNL     1      -9.707   7.693  71.808  1.00  0.00    -0.161 A  
HETATM   22  C   UNL     1     -11.252   6.469  70.404  1.00  0.00    -0.414 A  
HETATM   23  C   UNL     1     -10.786   8.110  72.602  1.00  0.00    -0.421 A  
HETATM   24 CL   UNL     1      -8.159   8.315  72.271  1.00  0.00    -0.189 Cl 
ENDBRANCH   6  18
TORSDOF 1
ENDMDL
MODEL      163
REMARK 921   NORMALIZED FREE ENERGY PREDICTED BY IDOCK:   -3.36 KCAL/MOL
REMARK 922        TOTAL FREE ENERGY PREDICTED BY IDOCK:   -4.17 KCAL/MOL
REMARK 923 INTER-LIGAND FREE ENERGY PREDICTED BY IDOCK:   -3.59 KCAL/MOL
REMARK 924 INTRA-LIGAND FREE ENERGY PREDICTED BY IDOCK:   -0.58 KCAL/MOL
REMARK 927      BINDING AFFINITY PREDICTED BY RF-SCORE:    0.00 PKD
ROOT
HETATM    1  O   UNL     1     -13.091  13.847  70.165  1.00  0.00    -0.200 OA 
HETATM    2  H   UNL     1     -13.177  13.123  70.774  1.00  0.00     0.000 HD 
HETATM    3  C   UNL     1     -11.887  13.747  69.441  1.00  0.00    -0.341 C  
HETATM    4  N   UNL     1     -11.757  14.852  68.511  1.00  0.00    -0.369 NA 
HETATM    5  H   UNL     1     -12.581  15.395  68.252  1.00  0.00     0.000 HD 
HETATM    6  C   UNL     1     -10.612  15.153  68.012  1.00  0.00    -0.258 C  
HETATM    7  C   UNL     1      -8.156  15.053  68.439  1.00  0.00    -0.141 A  
HETATM    8  C   UNL     1      -9.361  14.357  68.257  1.00  0.00    -0.206 A  
HETATM    9 CL   UNL     1      -5.478  15.222  68.706  1.00  0.00    -0.089 Cl 
HETATM   10  C   UNL     1      -9.351  12.946  68.224  1.00  0.00    -0.194 A  
HETATM   11  N   UNL     1     -10.497  12.140  68.131  1.00  0.00    -0.205 N  
HETATM   12  C   UNL     1      -8.128  12.266  68.286  1.00  0.00    -0.166 A  
HETATM   13  O   UNL     1     -12.658  11.613  68.463  1.00  0.00    -0.076 OA 
HETATM   14  C   UNL     1      -6.932  12.969  68.445  1.00  0.00    -0.100 A  
HETATM   15  C   UNL     1     -11.751  12.432  68.622  1.00  0.00    -0.326 C  
HETATM   16  C   UNL     1      -6.953  14.357  68.527  1.00  0.00    -0.100 A  
HETATM   17  H   UNL     1     -10.390  11.246  67.652  1.00  0.00     0.000 HD 
ENDROOT
BRANCH   6  18
HETATM   18  C   UNL     1     -10.557  16.365  67.106  1.00  0.00    -0.276 A  
HETATM   19  C   UNL     1     -10.444  18.563  65.340  1.00  0.00     0.280 A  
HETATM   20  C   UNL     1     -10.639  17.279  64.842  1.00  0.00     0.511 A  
HETATM   21  C   UNL     1     -10.367  17.672  67.599  1.00  0.00    -0.368 A  
HETATM   22  C   UNL     1     -10.718  16.191  65.718  1.00  0.00    -0.289 A  
HETATM   23  C   UNL     1     -10.323  18.759  66.714  1.00  0.00    -0.464 A  
HETATM   24 CL   UNL     1     -10.106  18.059  69.266  1.00  0.00    -0.214 Cl 
ENDBRANCH   6  18
TORSDOF 1
ENDMDL
MODEL      164
REMARK 921   NORMALIZED FREE ENERGY PREDICTED BY IDOCK:   -3.30 KCAL/MOL
REMARK 922        TOTAL FREE ENERGY PREDICTED BY IDOCK:   -4.12 KCAL/MOL
REMARK 923 INTER-LIGAND FREE ENERGY PREDICTED BY IDOCK:   -4.61 KCAL/MOL
REMARK 924 INTRA-LIGAND FREE ENERGY PREDICTED BY IDOCK:    0.49 KCAL/MOL
REMARK 927      BINDING AFFINITY PREDICTED BY RF-SCORE:    0.00 PKD
ROOT
HETATM    1  O   UNL     1      -8.868  14.096  69.544  1.00  0.00    -0.187 OA 
HETATM    2  H   UNL     1      -9.240  14.883  69.924  1.00  0.00     0.000 HD 
HETATM    3  C   UNL     1      -9.188  14.005  68.175  1.00  0.00    -0.196 C  
HETATM    4  N   UNL     1      -8.620  12.804  67.596  1.00  0.00    -0.169 NA 
HETATM    5  H   UNL     1      -7.863  12.319  68.078  1.00  0.00     0.000 HD 
HETATM    6  C   UNL     1      -9.063  12.345  66.480  1.00  0.00    -0.181 C  
HETATM    7  C   UNL     1     -11.080  12.252  65.016  1.00  0.00    -0.359 A  
HETATM    8  C   UNL     1     -10.105  13.039  65.649  1.00  0.00    -0.276 A  
HETATM    9 CL   UNL     1     -13.141  11.856  63.322  1.00  0.00    -0.297 Cl 
HETATM   10  C   UNL     1     -10.079  14.431  65.422  1.00  0.00    -0.359 A  
HETATM   11  N   UNL     1      -9.208  15.330  66.059  1.00  0.00    -0.414 N  
HETATM   12  C   UNL     1     -10.972  14.994  64.501  1.00  0.00    -0.209 A  
HETATM   13  O   UNL     1      -7.936  16.093  67.749  1.00  0.00    -0.138 OA 
HETATM   14  C   UNL     1     -11.925  14.200  63.859  1.00  0.00    -0.278 A  
HETATM   15  C   UNL     1      -8.687  15.211  67.330  1.00  0.00    -0.202 C  
HETATM   16  C   UNL     1     -11.978  12.836  64.125  1.00  0.00    -0.427 A  
HETATM   17  H   UNL     1      -8.933  16.156  65.528  1.00  0.00     0.000 HD 
ENDROOT
BRANCH   6  18
HETATM   18  C   UNL     1      -8.460  11.048  65.986  1.00  0.00    -0.158 A  
HETATM   19  C   UNL     1      -7.427   8.588  65.064  1.00  0.00    -0.089 A  
HETATM   20  C   UNL     1      -8.796   8.828  65.022  1.00  0.00    -0.151 A  
HETATM   21  C   UNL     1      -7.074  10.795  66.018  1.00  0.00    -0.102 A  
HETATM   22  C   UNL     1      -9.308  10.055  65.457  1.00  0.00    -0.271 A  
HETATM   23  C   UNL     1      -6.569   9.573  65.548  1.00  0.00    -0.073 A  
HETATM   24 CL   UNL     1      -5.897  11.881  66.676  1.00  0.00    -0.068 Cl 
ENDBRANCH   6  18
TORSDOF 1
ENDMDL
MODEL      165
REMARK 921   NORMALIZED FREE ENERGY PREDICTED BY IDOCK:   -3.24 KCAL/MOL
REMARK 922        TOTAL FREE ENERGY PREDICTED BY IDOCK:   -4.06 KCAL/MOL
REMARK 923 INTER-LIGAND FREE ENERGY PREDICTED BY IDOCK:   -3.77 KCAL/MOL
REMARK 924 INTRA-LIGAND FREE ENERGY PREDICTED BY IDOCK:   -0.29 KCAL/MOL
REMARK 927      BINDING AFFINITY PREDICTED BY RF-SCORE:    0.00 PKD
ROOT
HETATM    1  O   UNL     1      -9.101   9.515  69.913  1.00  0.00    -0.182 OA 
HETATM    2  H   UNL     1      -9.163   9.731  70.836  1.00  0.00     0.000 HD 
HETATM    3  C   UNL     1      -8.821  10.667  69.151  1.00  0.00    -0.122 C  
HETATM    4  N   UNL     1      -8.725  10.337  67.743  1.00  0.00    -0.122 NA 
HETATM    5  H   UNL     1      -8.579   9.368  67.459  1.00  0.00     0.000 HD 
HETATM    6  C   UNL     1      -8.824  11.256  66.850  1.00  0.00    -0.165 C  
HETATM    7  C   UNL     1      -9.810  13.500  66.390  1.00  0.00    -0.299 A  
HETATM    8  C   UNL     1      -8.942  12.719  67.169  1.00  0.00    -0.214 A  
HETATM    9 CL   UNL     1     -10.881  15.835  65.568  1.00  0.00    -0.353 Cl 
HETATM   10  C   UNL     1      -8.152  13.337  68.162  1.00  0.00    -0.159 A  
HETATM   11  N   UNL     1      -7.312  12.654  69.056  1.00  0.00    -0.292 N  
HETATM   12  C   UNL     1      -8.183  14.731  68.295  1.00  0.00    -0.142 A  
HETATM   13  O   UNL     1      -6.668  10.922  70.337  1.00  0.00    -0.278 OA 
HETATM   14  C   UNL     1      -9.033  15.502  67.500  1.00  0.00    -0.196 A  
HETATM   15  C   UNL     1      -7.498  11.381  69.552  1.00  0.00     0.141 C  
HETATM   16  C   UNL     1      -9.846  14.883  66.557  1.00  0.00    -0.266 A  
HETATM   17  H   UNL     1      -6.479  13.150  69.371  1.00  0.00     0.000 HD 
ENDROOT
BRANCH   6  18
HETATM   18  C   UNL     1      -8.784  10.811  65.403  1.00  0.00    -0.190 A  
HETATM   19  C   UNL     1      -8.809   9.971  62.709  1.00  0.00    -0.242 A  
HETATM   20  C   UNL     1      -9.997  10.321  63.340  1.00  0.00     0.005 A  
HETATM   21  C   UNL     1      -7.585  10.460  64.750  1.00  0.00    -0.058 A  
HETATM   22  C   UNL     1      -9.984  10.760  64.668  1.00  0.00    -0.386 A  
HETATM   23  C   UNL     1      -7.606  10.054  63.408  1.00  0.00    -0.142 A  
HETATM   24 CL   UNL     1      -6.031  10.422  65.514  1.00  0.00    -0.111 Cl 
ENDBRANCH   6  18
TORSDOF 1
ENDMDL
MODEL      166
REMARK 921   NORMALIZED FREE ENERGY PREDICTED BY IDOCK:   -3.22 KCAL/MOL
REMARK 922        TOTAL FREE ENERGY PREDICTED BY IDOCK:   -4.04 KCAL/MOL
REMARK 923 INTER-LIGAND FREE ENERGY PREDICTED BY IDOCK:   -3.44 KCAL/MOL
REMARK 924 INTRA-LIGAND FREE ENERGY PREDICTED BY IDOCK:   -0.59 KCAL/MOL
REMARK 927      BINDING AFFINITY PREDICTED BY RF-SCORE:    0.00 PKD
ROOT
HETATM    1  O   UNL     1      -9.229  20.093  65.242  1.00  0.00    -0.269 OA 
HETATM    2  H   UNL     1      -8.627  20.546  64.663  1.00  0.00     0.000 HD 
HETATM    3  C   UNL     1      -8.530  19.223  66.102  1.00  0.00    -0.269 C  
HETATM    4  N   UNL     1      -9.448  18.533  66.986  1.00  0.00    -0.281 NA 
HETATM    5  H   UNL     1     -10.391  18.901  67.124  1.00  0.00     0.000 HD 
HETATM    6  C   UNL     1      -9.086  17.463  67.598  1.00  0.00    -0.234 C  
HETATM    7  C   UNL     1      -7.546  15.506  67.458  1.00  0.00    -0.201 A  
HETATM    8  C   UNL     1      -7.694  16.900  67.535  1.00  0.00    -0.187 A  
HETATM    9 CL   UNL     1      -6.111  13.222  67.489  1.00  0.00    -0.140 Cl 
HETATM   10  C   UNL     1      -6.549  17.717  67.637  1.00  0.00    -0.174 A  
HETATM   11  N   UNL     1      -6.565  19.121  67.637  1.00  0.00    -0.205 N  
HETATM   12  C   UNL     1      -5.286  17.119  67.747  1.00  0.00    -0.125 A  
HETATM   13  O   UNL     1      -7.347  21.156  67.088  1.00  0.00    -0.400 OA 
HETATM   14  C   UNL     1      -5.150  15.731  67.692  1.00  0.00    -0.097 A  
HETATM   15  C   UNL     1      -7.472  19.934  66.994  1.00  0.00    -0.249 C  
HETATM   16  C   UNL     1      -6.278  14.932  67.541  1.00  0.00    -0.008 A  
HETATM   17  H   UNL     1      -5.829  19.587  68.168  1.00  0.00     0.000 HD 
ENDROOT
BRANCH   6  18
HETATM   18  C   UNL     1     -10.132  16.770  68.444  1.00  0.00    -0.285 A  
HETATM   19  C   UNL     1     -12.021  15.484  70.101  1.00  0.00    -0.389 A  
HETATM   20  C   UNL     1     -10.937  16.147  70.665  1.00  0.00    -0.229 A  
HETATM   21  C   UNL     1     -11.239  16.100  67.884  1.00  0.00    -0.245 A  
HETATM   22  C   UNL     1     -10.012  16.805  69.847  1.00  0.00     0.345 A  
HETATM   23  C   UNL     1     -12.178  15.473  68.716  1.00  0.00    -0.032 A  
HETATM   24 CL   UNL     1     -11.515  15.920  66.184  1.00  0.00     0.229 Cl 
ENDBRANCH   6  18
TORSDOF 1
ENDMDL
MODEL      167
REMARK 921   NORMALIZED FREE ENERGY PREDICTED BY IDOCK:   -3.20 KCAL/MOL
REMARK 922        TOTAL FREE ENERGY PREDICTED BY IDOCK:   -4.01 KCAL/MOL
REMARK 923 INTER-LIGAND FREE ENERGY PREDICTED BY IDOCK:   -3.40 KCAL/MOL
REMARK 924 INTRA-LIGAND FREE ENERGY PREDICTED BY IDOCK:   -0.61 KCAL/MOL
REMARK 927      BINDING AFFINITY PREDICTED BY RF-SCORE:    0.00 PKD
ROOT
HETATM    1  O   UNL     1      -9.282  10.104  70.694  1.00  0.00    -0.262 OA 
HETATM    2  H   UNL     1      -9.541  10.398  71.559  1.00  0.00     0.000 HD 
HETATM    3  C   UNL     1      -9.468   8.713  70.566  1.00  0.00    -0.178 C  
HETATM    4  N   UNL     1      -9.074   8.265  69.246  1.00  0.00    -0.150 NA 
HETATM    5  H   UNL     1      -8.988   8.941  68.486  1.00  0.00     0.000 HD 
HETATM    6  C   UNL     1      -8.831   7.022  69.024  1.00  0.00    -0.134 C  
HETATM    7  C   UNL     1      -8.072   4.909  70.110  1.00  0.00    -0.073 A  
HETATM    8  C   UNL     1      -9.023   5.941  70.049  1.00  0.00    -0.146 A  
HETATM    9 CL   UNL     1      -7.134   2.535  70.981  1.00  0.00    -0.033 Cl 
HETATM   10  C   UNL     1     -10.160   5.889  70.882  1.00  0.00    -0.197 A  
HETATM   11  N   UNL     1     -11.133   6.898  70.971  1.00  0.00    -0.254 N  
HETATM   12  C   UNL     1     -10.367   4.766  71.694  1.00  0.00    -0.215 A  
HETATM   13  O   UNL     1     -11.897   9.012  70.912  1.00  0.00    -0.282 OA 
HETATM   14  C   UNL     1      -9.427   3.734  71.732  1.00  0.00    -0.214 A  
HETATM   15  C   UNL     1     -10.936   8.250  70.795  1.00  0.00    -0.243 C  
HETATM   16  C   UNL     1      -8.283   3.814  70.946  1.00  0.00    -0.066 A  
HETATM   17  H   UNL     1     -12.084   6.599  71.189  1.00  0.00     0.000 HD 
ENDROOT
BRANCH   6  18
HETATM   18  C   UNL     1      -8.356   6.654  67.634  1.00  0.00    -0.122 A  
HETATM   19  C   UNL     1      -7.389   6.023  65.059  1.00  0.00    -0.073 A  
HETATM   20  C   UNL     1      -6.539   6.588  66.003  1.00  0.00    -0.048 A  
HETATM   21  C   UNL     1      -9.207   6.075  66.671  1.00  0.00    -0.142 A  
HETATM   22  C   UNL     1      -7.010   6.880  67.287  1.00  0.00    -0.078 A  
HETATM   23  C   UNL     1      -8.714   5.755  65.397  1.00  0.00    -0.122 A  
HETATM   24 CL   UNL     1     -10.895   5.772  66.913  1.00  0.00    -0.364 Cl 
ENDBRANCH   6  18
TORSDOF 1
ENDMDL
MODEL      168
REMARK 921   NORMALIZED FREE ENERGY PREDICTED BY IDOCK:   -3.13 KCAL/MOL
REMARK 922        TOTAL FREE ENERGY PREDICTED BY IDOCK:   -3.94 KCAL/MOL
REMARK 923 INTER-LIGAND FREE ENERGY PREDICTED BY IDOCK:   -3.31 KCAL/MOL
REMARK 924 INTRA-LIGAND FREE ENERGY PREDICTED BY IDOCK:   -0.63 KCAL/MOL
REMARK 927      BINDING AFFINITY PREDICTED BY RF-SCORE:    0.00 PKD
ROOT
HETATM    1  O   UNL     1     -11.740   4.548  65.188  1.00  0.00    -1.036 OA 
HETATM    2  H   UNL     1     -12.013   3.654  65.021  1.00  0.00     0.000 HD 
HETATM    3  C   UNL     1     -10.393   4.588  65.601  1.00  0.00    -0.247 C  
HETATM    4  N   UNL     1      -9.977   5.952  65.855  1.00  0.00    -0.387 NA 
HETATM    5  H   UNL     1     -10.520   6.727  65.472  1.00  0.00     0.000 HD 
HETATM    6  C   UNL     1      -8.930   6.195  66.559  1.00  0.00    -0.139 C  
HETATM    7  C   UNL     1      -7.486   5.279  68.375  1.00  0.00    -0.075 A  
HETATM    8  C   UNL     1      -8.013   5.125  67.083  1.00  0.00    -0.100 A  
HETATM    9 CL   UNL     1      -5.853   4.610  70.415  1.00  0.00    -0.016 Cl 
HETATM   10  C   UNL     1      -7.607   4.031  66.291  1.00  0.00    -0.089 A  
HETATM   11  N   UNL     1      -8.123   3.726  65.021  1.00  0.00    -0.093 N  
HETATM   12  C   UNL     1      -6.618   3.163  66.774  1.00  0.00    -0.037 A  
HETATM   13  O   UNL     1      -9.703   3.647  63.423  1.00  0.00    -0.126 OA 
HETATM   14  C   UNL     1      -6.083   3.336  68.052  1.00  0.00    -0.028 A  
HETATM   15  C   UNL     1      -9.399   3.983  64.569  1.00  0.00    -0.160 C  
HETATM   16  C   UNL     1      -6.524   4.388  68.848  1.00  0.00    -0.040 A  
HETATM   17  H   UNL     1      -7.489   3.268  64.367  1.00  0.00     0.000 HD 
ENDROOT
BRANCH   6  18
HETATM   18  C   UNL     1      -8.610   7.649  66.833  1.00  0.00    -0.123 A  
HETATM   19  C   UNL     1      -8.103  10.369  67.388  1.00  0.00    -0.107 A  
HETATM   20  C   UNL     1      -9.159   9.716  68.014  1.00  0.00    -0.128 A  
HETATM   21  C   UNL     1      -7.538   8.320  66.211  1.00  0.00    -0.096 A  
HETATM   22  C   UNL     1      -9.398   8.362  67.758  1.00  0.00    -0.150 A  
HETATM   23  C   UNL     1      -7.288   9.669  66.501  1.00  0.00    -0.090 A  
HETATM   24 CL   UNL     1      -6.501   7.611  65.018  1.00  0.00    -0.038 Cl 
ENDBRANCH   6  18
TORSDOF 1
ENDMDL
MODEL      169
REMARK 921   NORMALIZED FREE ENERGY PREDICTED BY IDOCK:   -3.13 KCAL/MOL
REMARK 922        TOTAL FREE ENERGY PREDICTED BY IDOCK:   -3.93 KCAL/MOL
REMARK 923 INTER-LIGAND FREE ENERGY PREDICTED BY IDOCK:   -3.47 KCAL/MOL
REMARK 924 INTRA-LIGAND FREE ENERGY PREDICTED BY IDOCK:   -0.46 KCAL/MOL
REMARK 927      BINDING AFFINITY PREDICTED BY RF-SCORE:    0.00 PKD
ROOT
HETATM    1  O   UNL     1     -10.252   8.841  65.889  1.00  0.00    -0.384 OA 
HETATM    2  H   UNL     1     -11.000   8.450  65.454  1.00  0.00     0.000 HD 
HETATM    3  C   UNL     1      -9.949   8.149  67.078  1.00  0.00    -0.259 C  
HETATM    4  N   UNL     1      -8.807   8.745  67.740  1.00  0.00    -0.135 NA 
HETATM    5  H   UNL     1      -8.182   9.359  67.217  1.00  0.00     0.000 HD 
HETATM    6  C   UNL     1      -8.575   8.508  68.982  1.00  0.00    -0.130 C  
HETATM    7  C   UNL     1      -9.669   7.896  71.138  1.00  0.00    -0.182 A  
HETATM    8  C   UNL     1      -9.379   7.546  69.810  1.00  0.00    -0.150 A  
HETATM    9 CL   UNL     1     -10.599   7.400  73.621  1.00  0.00    -0.390 Cl 
HETATM   10  C   UNL     1      -9.771   6.282  69.322  1.00  0.00    -0.136 A  
HETATM   11  N   UNL     1      -9.612   5.851  67.994  1.00  0.00    -0.114 N  
HETATM   12  C   UNL     1     -10.366   5.362  70.196  1.00  0.00    -0.361 A  
HETATM   13  O   UNL     1      -9.479   6.109  65.765  1.00  0.00    -0.024 OA 
HETATM   14  C   UNL     1     -10.631   5.711  71.522  1.00  0.00    -0.306 A  
HETATM   15  C   UNL     1      -9.629   6.641  66.866  1.00  0.00    -0.157 C  
HETATM   16  C   UNL     1     -10.287   6.977  71.984  1.00  0.00    -0.198 A  
HETATM   17  H   UNL     1      -9.469   4.852  67.851  1.00  0.00     0.000 HD 
ENDROOT
BRANCH   6  18
HETATM   18  C   UNL     1      -7.401   9.230  69.609  1.00  0.00    -0.068 A  
HETATM   19  C   UNL     1      -5.240  10.657  70.730  1.00  0.00    -0.087 A  
HETATM   20  C   UNL     1      -6.263  11.339  70.081  1.00  0.00    -0.147 A  
HETATM   21  C   UNL     1      -6.362   8.550  70.276  1.00  0.00    -0.035 A  
HETATM   22  C   UNL     1      -7.347  10.635  69.545  1.00  0.00    -0.141 A  
HETATM   23  C   UNL     1      -5.297   9.269  70.838  1.00  0.00    -0.033 A  
HETATM   24 CL   UNL     1      -6.247   6.827  70.407  1.00  0.00    -0.034 Cl 
ENDBRANCH   6  18
TORSDOF 1
ENDMDL
MODEL      170
REMARK 921   NORMALIZED FREE ENERGY PREDICTED BY IDOCK:   -3.02 KCAL/MOL
REMARK 922        TOTAL FREE ENERGY PREDICTED BY IDOCK:   -3.82 KCAL/MOL
REMARK 923 INTER-LIGAND FREE ENERGY PREDICTED BY IDOCK:   -3.25 KCAL/MOL
REMARK 924 INTRA-LIGAND FREE ENERGY PREDICTED BY IDOCK:   -0.57 KCAL/MOL
REMARK 927      BINDING AFFINITY PREDICTED BY RF-SCORE:    0.00 PKD
ROOT
HETATM    1  O   UNL     1     -11.908   6.490  69.533  1.00  0.00    -0.649 OA 
HETATM    2  H   UNL     1     -12.441   7.070  70.064  1.00  0.00     0.000 HD 
HETATM    3  C   UNL     1     -10.871   7.206  68.903  1.00  0.00    -0.129 C  
HETATM    4  N   UNL     1     -10.057   6.321  68.094  1.00  0.00    -0.141 NA 
HETATM    5  H   UNL     1     -10.093   5.314  68.253  1.00  0.00     0.000 HD 
HETATM    6  C   UNL     1      -9.292   6.795  67.177  1.00  0.00    -0.136 C  
HETATM    7  C   UNL     1      -9.006   8.709  65.603  1.00  0.00    -0.231 A  
HETATM    8  C   UNL     1      -9.098   8.265  66.931  1.00  0.00    -0.181 A  
HETATM    9 CL   UNL     1      -8.533  10.561  63.700  1.00  0.00    -0.160 Cl 
HETATM   10  C   UNL     1      -8.922   9.185  67.986  1.00  0.00    -0.128 A  
HETATM   11  N   UNL     1      -9.072   8.879  69.349  1.00  0.00    -0.144 N  
HETATM   12  C   UNL     1      -8.573  10.510  67.692  1.00  0.00    -0.118 A  
HETATM   13  O   UNL     1      -9.937   7.790  71.116  1.00  0.00    -0.176 OA 
HETATM   14  C   UNL     1      -8.462  10.937  66.367  1.00  0.00    -0.163 A  
HETATM   15  C   UNL     1      -9.919   7.937  69.893  1.00  0.00    -0.192 C  
HETATM   16  C   UNL     1      -8.685  10.038  65.331  1.00  0.00    -0.159 A  
HETATM   17  H   UNL     1      -8.494   9.407  70.003  1.00  0.00     0.000 HD 
ENDROOT
BRANCH   6  18
HETATM   18  C   UNL     1      -8.533   5.793  66.333  1.00  0.00    -0.122 A  
HETATM   19  C   UNL     1      -7.204   3.897  64.719  1.00  0.00    -0.067 A  
HETATM   20  C   UNL     1      -8.525   4.237  64.449  1.00  0.00    -0.112 A  
HETATM   21  C   UNL     1      -7.192   5.445  66.592  1.00  0.00    -0.074 A  
HETATM   22  C   UNL     1      -9.178   5.194  65.234  1.00  0.00    -0.094 A  
HETATM   23  C   UNL     1      -6.537   4.510  65.778  1.00  0.00    -0.044 A  
HETATM   24 CL   UNL     1      -6.265   6.049  67.924  1.00  0.00    -0.027 Cl 
ENDBRANCH   6  18
TORSDOF 1
ENDMDL
MODEL      171
REMARK 921   NORMALIZED FREE ENERGY PREDICTED BY IDOCK:   -2.95 KCAL/MOL
REMARK 922        TOTAL FREE ENERGY PREDICTED BY IDOCK:   -3.75 KCAL/MOL
REMARK 923 INTER-LIGAND FREE ENERGY PREDICTED BY IDOCK:   -3.14 KCAL/MOL
REMARK 924 INTRA-LIGAND FREE ENERGY PREDICTED BY IDOCK:   -0.61 KCAL/MOL
REMARK 927      BINDING AFFINITY PREDICTED BY RF-SCORE:    0.00 PKD
ROOT
HETATM    1  O   UNL     1      -7.702   7.940  66.109  1.00  0.00    -0.087 OA 
HETATM    2  H   UNL     1      -8.275   7.803  65.364  1.00  0.00     0.000 HD 
HETATM    3  C   UNL     1      -8.307   7.476  67.293  1.00  0.00    -0.118 C  
HETATM    4  N   UNL     1      -7.433   7.684  68.430  1.00  0.00    -0.102 NA 
HETATM    5  H   UNL     1      -6.437   7.850  68.278  1.00  0.00     0.000 HD 
HETATM    6  C   UNL     1      -7.901   7.663  69.626  1.00  0.00    -0.108 C  
HETATM    7  C   UNL     1      -9.961   8.063  70.974  1.00  0.00    -0.208 A  
HETATM    8  C   UNL     1      -9.329   7.332  69.956  1.00  0.00    -0.154 A  
HETATM    9 CL   UNL     1     -11.981   8.573  72.687  1.00  0.00    -0.401 Cl 
HETATM   10  C   UNL     1     -10.014   6.266  69.337  1.00  0.00    -0.159 A  
HETATM   11  N   UNL     1      -9.521   5.518  68.255  1.00  0.00    -0.111 N  
HETATM   12  C   UNL     1     -11.282   5.898  69.808  1.00  0.00    -0.331 A  
HETATM   13  O   UNL     1      -8.336   5.182  66.374  1.00  0.00    -0.108 OA 
HETATM   14  C   UNL     1     -11.893   6.617  70.837  1.00  0.00    -0.434 A  
HETATM   15  C   UNL     1      -8.677   5.965  67.262  1.00  0.00    -0.108 C  
HETATM   16  C   UNL     1     -11.233   7.699  71.409  1.00  0.00    -0.246 A  
HETATM   17  H   UNL     1      -9.819   4.544  68.199  1.00  0.00     0.000 HD 
ENDROOT
BRANCH   6  18
HETATM   18  C   UNL     1      -6.928   7.961  70.748  1.00  0.00    -0.045 A  
HETATM   19  C   UNL     1      -5.137   8.429  72.878  1.00  0.00    -0.040 A  
HETATM   20  C   UNL     1      -5.628   7.148  72.650  1.00  0.00    -0.038 A  
HETATM   21  C   UNL     1      -6.418   9.254  70.985  1.00  0.00    -0.086 A  
HETATM   22  C   UNL     1      -6.498   6.910  71.580  1.00  0.00    -0.048 A  
HETATM   23  C   UNL     1      -5.520   9.474  72.040  1.00  0.00    -0.054 A  
HETATM   24 CL   UNL     1      -6.875  10.665  70.090  1.00  0.00    -0.158 Cl 
ENDBRANCH   6  18
TORSDOF 1
ENDMDL
MODEL      172
REMARK 921   NORMALIZED FREE ENERGY PREDICTED BY IDOCK:   -2.86 KCAL/MOL
REMARK 922        TOTAL FREE ENERGY PREDICTED BY IDOCK:   -3.65 KCAL/MOL
REMARK 923 INTER-LIGAND FREE ENERGY PREDICTED BY IDOCK:   -3.02 KCAL/MOL
REMARK 924 INTRA-LIGAND FREE ENERGY PREDICTED BY IDOCK:   -0.62 KCAL/MOL
REMARK 927      BINDING AFFINITY PREDICTED BY RF-SCORE:    0.00 PKD
ROOT
HETATM    1  O   UNL     1     -12.033   6.518  69.979  1.00  0.00    -0.591 OA 
HETATM    2  H   UNL     1     -12.695   7.135  70.268  1.00  0.00     0.000 HD 
HETATM    3  C   UNL     1     -10.801   7.170  69.776  1.00  0.00    -0.240 C  
HETATM    4  N   UNL     1      -9.791   6.229  69.336  1.00  0.00    -0.150 NA 
HETATM    5  H   UNL     1      -9.934   5.229  69.479  1.00  0.00     0.000 HD 
HETATM    6  C   UNL     1      -8.716   6.644  68.767  1.00  0.00    -0.128 C  
HETATM    7  C   UNL     1      -7.767   8.501  67.397  1.00  0.00    -0.098 A  
HETATM    8  C   UNL     1      -8.370   8.097  68.599  1.00  0.00    -0.126 A  
HETATM    9 CL   UNL     1      -6.527  10.278  65.792  1.00  0.00    -0.110 Cl 
HETATM   10  C   UNL     1      -8.553   9.036  69.635  1.00  0.00    -0.137 A  
HETATM   11  N   UNL     1      -9.215   8.774  70.846  1.00  0.00    -0.191 N  
HETATM   12  C   UNL     1      -8.053  10.336  69.481  1.00  0.00    -0.170 A  
HETATM   13  O   UNL     1     -10.730   7.772  72.172  1.00  0.00    -0.221 OA 
HETATM   14  C   UNL     1      -7.435  10.723  68.290  1.00  0.00    -0.092 A  
HETATM   15  C   UNL     1     -10.250   7.885  71.043  1.00  0.00    -0.197 C  
HETATM   16  C   UNL     1      -7.302   9.806  67.253  1.00  0.00    -0.087 A  
HETATM   17  H   UNL     1      -8.896   9.294  71.664  1.00  0.00     0.000 HD 
ENDROOT
BRANCH   6  18
HETATM   18  C   UNL     1      -7.749   5.588  68.276  1.00  0.00    -0.085 A  
HETATM   19  C   UNL     1      -5.878   3.654  67.424  1.00  0.00    -0.023 A  
HETATM   20  C   UNL     1      -5.644   4.385  68.583  1.00  0.00    -0.013 A  
HETATM   21  C   UNL     1      -7.978   4.835  67.106  1.00  0.00    -0.102 A  
HETATM   22  C   UNL     1      -6.581   5.328  69.019  1.00  0.00    -0.051 A  
HETATM   23  C   UNL     1      -7.047   3.869  66.696  1.00  0.00    -0.060 A  
HETATM   24 CL   UNL     1      -9.333   5.056  66.051  1.00  0.00    -0.152 Cl 
ENDBRANCH   6  18
TORSDOF 1
ENDMDL
MODEL      173
REMARK 921   NORMALIZED FREE ENERGY PREDICTED BY IDOCK:   -2.83 KCAL/MOL
REMARK 922        TOTAL FREE ENERGY PREDICTED BY IDOCK:   -3.62 KCAL/MOL
REMARK 923 INTER-LIGAND FREE ENERGY PREDICTED BY IDOCK:   -3.17 KCAL/MOL
REMARK 924 INTRA-LIGAND FREE ENERGY PREDICTED BY IDOCK:   -0.46 KCAL/MOL
REMARK 927      BINDING AFFINITY PREDICTED BY RF-SCORE:    0.00 PKD
ROOT
HETATM    1  O   UNL     1      -7.442  15.736  66.538  1.00  0.00    -0.176 OA 
HETATM    2  H   UNL     1      -7.437  16.674  66.385  1.00  0.00     0.000 HD 
HETATM    3  C   UNL     1      -8.671  15.329  67.093  1.00  0.00    -0.211 C  
HETATM    4  N   UNL     1      -8.678  13.899  67.326  1.00  0.00    -0.207 NA 
HETATM    5  H   UNL     1      -7.998  13.305  66.849  1.00  0.00     0.000 HD 
HETATM    6  C   UNL     1      -9.533  13.372  68.127  1.00  0.00    -0.218 C  
HETATM    7  C   UNL     1     -10.944  13.836  70.131  1.00  0.00     0.388 A  
HETATM    8  C   UNL     1     -10.632  14.146  68.798  1.00  0.00    -0.258 A  
HETATM    9 CL   UNL     1     -12.444  14.006  72.366  1.00  0.00    -0.207 Cl 
HETATM   10  C   UNL     1     -11.404  15.105  68.108  1.00  0.00    -0.335 A  
HETATM   11  N   UNL     1     -11.140  15.559  66.806  1.00  0.00    -0.261 N  
HETATM   12  C   UNL     1     -12.524  15.667  68.737  1.00  0.00     0.414 A  
HETATM   13  O   UNL     1      -9.838  16.086  65.050  1.00  0.00    -0.338 OA 
HETATM   14  C   UNL     1     -12.839  15.334  70.055  1.00  0.00    -0.123 A  
HETATM   15  C   UNL     1      -9.904  15.662  66.205  1.00  0.00    -0.295 C  
HETATM   16  C   UNL     1     -12.045  14.427  70.747  1.00  0.00    -0.338 A  
HETATM   17  H   UNL     1     -11.945  15.840  66.247  1.00  0.00     0.000 HD 
ENDROOT
BRANCH   6  18
HETATM   18  C   UNL     1      -9.421  11.881  68.365  1.00  0.00    -0.189 A  
HETATM   19  C   UNL     1      -9.114   9.111  68.810  1.00  0.00    -0.136 A  
HETATM   20  C   UNL     1      -8.040   9.972  69.011  1.00  0.00    -0.118 A  
HETATM   21  C   UNL     1     -10.504  10.999  68.172  1.00  0.00    -0.189 A  
HETATM   22  C   UNL     1      -8.197  11.348  68.813  1.00  0.00    -0.107 A  
HETATM   23  C   UNL     1     -10.344   9.626  68.406  1.00  0.00    -0.233 A  
HETATM   24 CL   UNL     1     -12.061  11.477  67.582  1.00  0.00    -0.029 Cl 
ENDBRANCH   6  18
TORSDOF 1
ENDMDL
MODEL      174
REMARK 921   NORMALIZED FREE ENERGY PREDICTED BY IDOCK:   -2.75 KCAL/MOL
REMARK 922        TOTAL FREE ENERGY PREDICTED BY IDOCK:   -3.54 KCAL/MOL
REMARK 923 INTER-LIGAND FREE ENERGY PREDICTED BY IDOCK:   -3.23 KCAL/MOL
REMARK 924 INTRA-LIGAND FREE ENERGY PREDICTED BY IDOCK:   -0.30 KCAL/MOL
REMARK 927      BINDING AFFINITY PREDICTED BY RF-SCORE:    0.00 PKD
ROOT
HETATM    1  O   UNL     1     -11.087   4.255  64.863  1.00  0.00    -0.701 OA 
HETATM    2  H   UNL     1     -11.632   3.479  64.809  1.00  0.00     0.000 HD 
HETATM    3  C   UNL     1     -10.385   4.286  66.084  1.00  0.00    -0.036 C  
HETATM    4  N   UNL     1      -9.553   5.469  66.165  1.00  0.00    -0.198 NA 
HETATM    5  H   UNL     1      -9.319   5.984  65.315  1.00  0.00     0.000 HD 
HETATM    6  C   UNL     1      -9.107   5.877  67.299  1.00  0.00    -0.111 C  
HETATM    7  C   UNL     1      -9.582   5.884  69.749  1.00  0.00    -0.189 A  
HETATM    8  C   UNL     1      -9.315   5.137  68.590  1.00  0.00    -0.164 A  
HETATM    9 CL   UNL     1      -9.925   6.185  72.407  1.00  0.00    -0.183 Cl 
HETATM   10  C   UNL     1      -9.167   3.737  68.685  1.00  0.00    -0.156 A  
HETATM   11  N   UNL     1      -8.981   2.876  67.591  1.00  0.00    -0.142 N  
HETATM   12  C   UNL     1      -9.202   3.126  69.945  1.00  0.00    -0.222 A  
HETATM   13  O   UNL     1      -9.218   2.199  65.460  1.00  0.00    -0.115 OA 
HETATM   14  C   UNL     1      -9.445   3.881  71.094  1.00  0.00    -0.233 A  
HETATM   15  C   UNL     1      -9.464   3.053  66.313  1.00  0.00     0.004 C  
HETATM   16  C   UNL     1      -9.641   5.253  70.989  1.00  0.00    -0.171 A  
HETATM   17  H   UNL     1      -8.433   2.033  67.760  1.00  0.00     0.000 HD 
ENDROOT
BRANCH   6  18
HETATM   18  C   UNL     1      -8.305   7.161  67.299  1.00  0.00    -0.119 A  
HETATM   19  C   UNL     1      -6.896   9.606  67.309  1.00  0.00    -0.083 A  
HETATM   20  C   UNL     1      -8.225   9.568  67.714  1.00  0.00    -0.114 A  
HETATM   21  C   UNL     1      -6.956   7.212  66.897  1.00  0.00    -0.077 A  
HETATM   22  C   UNL     1      -8.919   8.353  67.732  1.00  0.00    -0.140 A  
HETATM   23  C   UNL     1      -6.260   8.430  66.915  1.00  0.00    -0.055 A  
HETATM   24 CL   UNL     1      -6.063   5.856  66.293  1.00  0.00    -0.028 Cl 
ENDBRANCH   6  18
TORSDOF 1
ENDMDL
MODEL      175
REMARK 921   NORMALIZED FREE ENERGY PREDICTED BY IDOCK:   -2.52 KCAL/MOL
REMARK 922        TOTAL FREE ENERGY PREDICTED BY IDOCK:   -3.29 KCAL/MOL
REMARK 923 INTER-LIGAND FREE ENERGY PREDICTED BY IDOCK:   -2.76 KCAL/MOL
REMARK 924 INTRA-LIGAND FREE ENERGY PREDICTED BY IDOCK:   -0.54 KCAL/MOL
REMARK 927      BINDING AFFINITY PREDICTED BY RF-SCORE:    0.00 PKD
ROOT
HETATM    1  O   UNL     1     -11.050   9.074  67.474  1.00  0.00    -0.458 OA 
HETATM    2  H   UNL     1     -11.439   9.504  66.721  1.00  0.00     0.000 HD 
HETATM    3  C   UNL     1      -9.965   8.267  67.079  1.00  0.00    -0.255 C  
HETATM    4  N   UNL     1      -9.372   7.611  68.228  1.00  0.00    -0.145 NA 
HETATM    5  H   UNL     1      -9.557   7.968  69.166  1.00  0.00     0.000 HD 
HETATM    6  C   UNL     1      -8.616   6.584  68.075  1.00  0.00    -0.118 C  
HETATM    7  C   UNL     1      -8.152   4.650  66.568  1.00  0.00    -0.103 A  
HETATM    8  C   UNL     1      -8.208   6.043  66.733  1.00  0.00    -0.106 A  
HETATM    9 CL   UNL     1      -7.539   2.399  65.216  1.00  0.00    -0.074 Cl 
HETATM   10  C   UNL     1      -7.802   6.886  65.677  1.00  0.00    -0.109 A  
HETATM   11  N   UNL     1      -7.890   8.288  65.692  1.00  0.00    -0.098 N  
HETATM   12  C   UNL     1      -7.269   6.319  64.512  1.00  0.00    -0.064 A  
HETATM   13  O   UNL     1      -8.776  10.274  66.263  1.00  0.00    -0.141 OA 
HETATM   14  C   UNL     1      -7.196   4.932  64.366  1.00  0.00    -0.055 A  
HETATM   15  C   UNL     1      -8.832   9.046  66.353  1.00  0.00    -0.146 C  
HETATM   16  C   UNL     1      -7.644   4.106  65.391  1.00  0.00    -0.085 A  
HETATM   17  H   UNL     1      -7.185   8.796  65.159  1.00  0.00     0.000 HD 
ENDROOT
BRANCH   6  18
HETATM   18  C   UNL     1      -8.098   5.920  69.333  1.00  0.00    -0.109 A  
HETATM   19  C   UNL     1      -7.041   4.689  71.642  1.00  0.00    -0.062 A  
HETATM   20  C   UNL     1      -6.193   5.325  70.742  1.00  0.00    -0.023 A  
HETATM   21  C   UNL     1      -8.948   5.279  70.256  1.00  0.00    -0.126 A  
HETATM   22  C   UNL     1      -6.718   5.956  69.609  1.00  0.00    -0.055 A  
HETATM   23  C   UNL     1      -8.414   4.679  71.406  1.00  0.00    -0.113 A  
HETATM   24 CL   UNL     1     -10.659   5.102  70.052  1.00  0.00    -0.311 Cl 
ENDBRANCH   6  18
TORSDOF 1
ENDMDL
MODEL      176
REMARK 921   NORMALIZED FREE ENERGY PREDICTED BY IDOCK:   -2.44 KCAL/MOL
REMARK 922        TOTAL FREE ENERGY PREDICTED BY IDOCK:   -3.20 KCAL/MOL
REMARK 923 INTER-LIGAND FREE ENERGY PREDICTED BY IDOCK:   -2.58 KCAL/MOL
REMARK 924 INTRA-LIGAND FREE ENERGY PREDICTED BY IDOCK:   -0.62 KCAL/MOL
REMARK 927      BINDING AFFINITY PREDICTED BY RF-SCORE:    0.00 PKD
ROOT
HETATM    1  O   UNL     1      -9.077   8.368  70.475  1.00  0.00    -0.142 OA 
HETATM    2  H   UNL     1      -9.347   8.348  71.386  1.00  0.00     0.000 HD 
HETATM    3  C   UNL     1      -9.063   7.068  69.932  1.00  0.00    -0.141 C  
HETATM    4  N   UNL     1      -8.652   7.099  68.543  1.00  0.00    -0.124 NA 
HETATM    5  H   UNL     1      -8.691   7.976  68.023  1.00  0.00     0.000 HD 
HETATM    6  C   UNL     1      -8.238   6.031  67.961  1.00  0.00    -0.113 C  
HETATM    7  C   UNL     1      -7.144   3.827  68.370  1.00  0.00    -0.051 A  
HETATM    8  C   UNL     1      -8.236   4.676  68.611  1.00  0.00    -0.082 A  
HETATM    9 CL   UNL     1      -5.841   1.469  68.497  1.00  0.00    -0.022 Cl 
HETATM   10  C   UNL     1      -9.325   4.209  69.376  1.00  0.00    -0.168 A  
HETATM   11  N   UNL     1     -10.431   4.988  69.753  1.00  0.00    -0.214 N  
HETATM   12  C   UNL     1      -9.339   2.876  69.810  1.00  0.00    -0.207 A  
HETATM   13  O   UNL     1     -11.497   6.884  70.323  1.00  0.00    -0.311 OA 
HETATM   14  C   UNL     1      -8.258   2.032  69.547  1.00  0.00    -0.065 A  
HETATM   15  C   UNL     1     -10.439   6.344  69.994  1.00  0.00    -0.215 C  
HETATM   16  C   UNL     1      -7.165   2.513  68.835  1.00  0.00    -0.044 A  
HETATM   17  H   UNL     1     -11.320   4.499  69.858  1.00  0.00     0.000 HD 
ENDROOT
BRANCH   6  18
HETATM   18  C   UNL     1      -7.762   6.171  66.531  1.00  0.00    -0.103 A  
HETATM   19  C   UNL     1      -6.811   6.503  63.895  1.00  0.00    -0.045 A  
HETATM   20  C   UNL     1      -6.112   7.057  64.961  1.00  0.00    -0.037 A  
HETATM   21  C   UNL     1      -8.457   5.607  65.441  1.00  0.00    -0.147 A  
HETATM   22  C   UNL     1      -6.570   6.874  66.271  1.00  0.00    -0.052 A  
HETATM   23  C   UNL     1      -7.970   5.769  64.136  1.00  0.00    -0.122 A  
HETATM   24 CL   UNL     1      -9.958   4.754  65.575  1.00  0.00    -0.180 Cl 
ENDBRANCH   6  18
TORSDOF 1
ENDMDL
MODEL      177
REMARK 921   NORMALIZED FREE ENERGY PREDICTED BY IDOCK:   -2.15 KCAL/MOL
REMARK 922        TOTAL FREE ENERGY PREDICTED BY IDOCK:   -2.89 KCAL/MOL
REMARK 923 INTER-LIGAND FREE ENERGY PREDICTED BY IDOCK:   -2.27 KCAL/MOL
REMARK 924 INTRA-LIGAND FREE ENERGY PREDICTED BY IDOCK:   -0.62 KCAL/MOL
REMARK 927      BINDING AFFINITY PREDICTED BY RF-SCORE:    0.00 PKD
ROOT
HETATM    1  O   UNL     1      -9.203   8.175  70.318  1.00  0.00    -0.150 OA 
HETATM    2  H   UNL     1      -8.568   7.716  70.854  1.00  0.00     0.000 HD 
HETATM    3  C   UNL     1      -8.560   8.886  69.285  1.00  0.00    -0.133 C  
HETATM    4  N   UNL     1      -9.529   9.587  68.468  1.00  0.00    -0.141 NA 
HETATM    5  H   UNL     1     -10.511   9.311  68.498  1.00  0.00     0.000 HD 
HETATM    6  C   UNL     1      -9.162  10.554  67.705  1.00  0.00    -0.145 C  
HETATM    7  C   UNL     1      -7.444  12.341  67.430  1.00  0.00    -0.160 A  
HETATM    8  C   UNL     1      -7.730  10.970  67.519  1.00  0.00    -0.114 A  
HETATM    9 CL   UNL     1      -5.825  14.448  66.968  1.00  0.00     0.908 Cl 
HETATM   10  C   UNL     1      -6.692  10.030  67.348  1.00  0.00    -0.073 A  
HETATM   11  N   UNL     1      -6.837   8.641  67.496  1.00  0.00    -0.070 N  
HETATM   12  C   UNL     1      -5.409  10.478  67.006  1.00  0.00    -0.042 A  
HETATM   13  O   UNL     1      -7.716   6.758  68.355  1.00  0.00    -0.102 OA 
HETATM   14  C   UNL     1      -5.139  11.843  66.898  1.00  0.00    -0.073 A  
HETATM   15  C   UNL     1      -7.713   7.990  68.337  1.00  0.00    -0.117 C  
HETATM   16  C   UNL     1      -6.155  12.767  67.117  1.00  0.00     0.111 A  
HETATM   17  H   UNL     1      -6.233   8.054  66.921  1.00  0.00     0.000 HD 
ENDROOT
BRANCH   6  18
HETATM   18  C   UNL     1     -10.252  11.275  66.941  1.00  0.00    -0.254 A  
HETATM   19  C   UNL     1     -12.330  12.638  65.603  1.00  0.00    -0.390 A  
HETATM   20  C   UNL     1     -12.206  12.741  66.984  1.00  0.00    -0.083 A  
HETATM   21  C   UNL     1     -10.384  11.184  65.541  1.00  0.00    -0.268 A  
HETATM   22  C   UNL     1     -11.163  12.086  67.646  1.00  0.00    -0.343 A  
HETATM   23  C   UNL     1     -11.414  11.873  64.883  1.00  0.00    -0.315 A  
HETATM   24 CL   UNL     1      -9.383  10.199  64.527  1.00  0.00    -0.315 Cl 
ENDBRANCH   6  18
TORSDOF 1
ENDMDL
MODEL      178
REMARK 921   NORMALIZED FREE ENERGY PREDICTED BY IDOCK:   -2.08 KCAL/MOL
REMARK 922        TOTAL FREE ENERGY PREDICTED BY IDOCK:   -2.82 KCAL/MOL
REMARK 923 INTER-LIGAND FREE ENERGY PREDICTED BY IDOCK:   -2.28 KCAL/MOL
REMARK 924 INTRA-LIGAND FREE ENERGY PREDICTED BY IDOCK:   -0.54 KCAL/MOL
REMARK 927      BINDING AFFINITY PREDICTED BY RF-SCORE:    0.00 PKD
ROOT
HETATM    1  O   UNL     1     -12.231  12.502  65.261  1.00  0.00    -0.454 OA 
HETATM    2  H   UNL     1     -12.854  13.205  65.124  1.00  0.00     0.000 HD 
HETATM    3  C   UNL     1     -11.300  12.851  66.259  1.00  0.00    -0.323 C  
HETATM    4  N   UNL     1     -10.350  11.777  66.469  1.00  0.00    -0.218 NA 
HETATM    5  H   UNL     1     -10.570  10.835  66.144  1.00  0.00     0.000 HD 
HETATM    6  C   UNL     1      -9.231  12.001  67.060  1.00  0.00    -0.195 C  
HETATM    7  C   UNL     1      -7.531  13.768  67.519  1.00  0.00    -0.182 A  
HETATM    8  C   UNL     1      -8.857  13.328  67.659  1.00  0.00    -0.200 A  
HETATM    9 CL   UNL     1      -5.468  15.428  68.034  1.00  0.00    -0.125 Cl 
HETATM   10  C   UNL     1      -9.768  14.092  68.419  1.00  0.00    -0.223 A  
HETATM   11  N   UNL     1     -11.134  13.799  68.562  1.00  0.00    -0.255 N  
HETATM   12  C   UNL     1      -9.312  15.232  69.094  1.00  0.00    -0.236 A  
HETATM   13  O   UNL     1     -13.131  12.996  67.912  1.00  0.00     1.570 OA 
HETATM   14  C   UNL     1      -7.986  15.650  68.968  1.00  0.00    -0.208 A  
HETATM   15  C   UNL     1     -11.944  13.178  67.636  1.00  0.00    -0.315 C  
HETATM   16  C   UNL     1      -7.105  14.921  68.176  1.00  0.00    -0.119 A  
HETATM   17  H   UNL     1     -11.572  14.075  69.441  1.00  0.00     0.000 HD 
ENDROOT
BRANCH   6  18
HETATM   18  C   UNL     1      -8.270  10.837  67.173  1.00  0.00    -0.123 A  
HETATM   19  C   UNL     1      -6.461   8.674  67.284  1.00  0.00    -0.058 A  
HETATM   20  C   UNL     1      -6.505   9.486  66.157  1.00  0.00    -0.070 A  
HETATM   21  C   UNL     1      -8.211  10.010  68.313  1.00  0.00    -0.106 A  
HETATM   22  C   UNL     1      -7.385  10.573  66.109  1.00  0.00    -0.136 A  
HETATM   23  C   UNL     1      -7.301   8.943  68.363  1.00  0.00    -0.082 A  
HETATM   24 CL   UNL     1      -9.254  10.162  69.686  1.00  0.00    -0.227 Cl 
ENDBRANCH   6  18
TORSDOF 1
ENDMDL
MODEL      179
REMARK 921   NORMALIZED FREE ENERGY PREDICTED BY IDOCK:   -2.05 KCAL/MOL
REMARK 922        TOTAL FREE ENERGY PREDICTED BY IDOCK:   -2.79 KCAL/MOL
REMARK 923 INTER-LIGAND FREE ENERGY PREDICTED BY IDOCK:   -2.21 KCAL/MOL
REMARK 924 INTRA-LIGAND FREE ENERGY PREDICTED BY IDOCK:   -0.59 KCAL/MOL
REMARK 927      BINDING AFFINITY PREDICTED BY RF-SCORE:    0.00 PKD
ROOT
HETATM    1  O   UNL     1      -9.352  11.102  69.209  1.00  0.00    -0.400 OA 
HETATM    2  H   UNL     1      -9.552  12.000  68.969  1.00  0.00     0.000 HD 
HETATM    3  C   UNL     1      -8.496  10.513  68.257  1.00  0.00    -0.123 C  
HETATM    4  N   UNL     1      -8.191   9.144  68.623  1.00  0.00    -0.113 NA 
HETATM    5  H   UNL     1      -8.344   8.831  69.582  1.00  0.00     0.000 HD 
HETATM    6  C   UNL     1      -7.729   8.323  67.750  1.00  0.00    -0.103 C  
HETATM    7  C   UNL     1      -7.689   7.815  65.307  1.00  0.00    -0.102 A  
HETATM    8  C   UNL     1      -7.380   8.714  66.341  1.00  0.00    -0.080 A  
HETATM    9 CL   UNL     1      -7.603   6.943  62.757  1.00  0.00    -0.090 Cl 
HETATM   10  C   UNL     1      -6.684   9.904  66.044  1.00  0.00    -0.094 A  
HETATM   11  N   UNL     1      -6.393  10.915  66.974  1.00  0.00    -0.073 N  
HETATM   12  C   UNL     1      -6.236  10.129  64.736  1.00  0.00    -0.130 A  
HETATM   13  O   UNL     1      -6.753  12.179  68.799  1.00  0.00    -0.076 OA 
HETATM   14  C   UNL     1      -6.528   9.219  63.718  1.00  0.00    -0.091 A  
HETATM   15  C   UNL     1      -7.143  11.259  68.078  1.00  0.00    -0.070 C  
HETATM   16  C   UNL     1      -7.258   8.071  64.007  1.00  0.00    -0.087 A  
HETATM   17  H   UNL     1      -5.539  11.449  66.817  1.00  0.00     0.000 HD 
ENDROOT
BRANCH   6  18
HETATM   18  C   UNL     1      -7.506   6.895  68.202  1.00  0.00    -0.099 A  
HETATM   19  C   UNL     1      -6.996   4.242  69.017  1.00  0.00    -0.050 A  
HETATM   20  C   UNL     1      -5.938   5.097  68.727  1.00  0.00    -0.021 A  
HETATM   21  C   UNL     1      -8.570   6.021  68.506  1.00  0.00    -0.111 A  
HETATM   22  C   UNL     1      -6.189   6.419  68.345  1.00  0.00    -0.036 A  
HETATM   23  C   UNL     1      -8.306   4.707  68.920  1.00  0.00    -0.085 A  
HETATM   24 CL   UNL     1     -10.246   6.426  68.341  1.00  0.00    -0.174 Cl 
ENDBRANCH   6  18
TORSDOF 1
ENDMDL
MODEL      180
REMARK 921   NORMALIZED FREE ENERGY PREDICTED BY IDOCK:   -1.54 KCAL/MOL
REMARK 922        TOTAL FREE ENERGY PREDICTED BY IDOCK:   -2.25 KCAL/MOL
REMARK 923 INTER-LIGAND FREE ENERGY PREDICTED BY IDOCK:   -2.20 KCAL/MOL
REMARK 924 INTRA-LIGAND FREE ENERGY PREDICTED BY IDOCK:   -0.05 KCAL/MOL
REMARK 927      BINDING AFFINITY PREDICTED BY RF-SCORE:    0.00 PKD
ROOT
HETATM    1  O   UNL     1      -7.836  20.025  70.426  1.00  0.00     0.576 OA 
HETATM    2  H   UNL     1      -8.326  19.903  71.230  1.00  0.00     0.000 HD 
HETATM    3  C   UNL     1      -8.466  19.362  69.354  1.00  0.00     0.135 C  
HETATM    4  N   UNL     1      -7.719  19.549  68.127  1.00  0.00    -0.298 NA 
HETATM    5  H   UNL     1      -7.038  20.307  68.060  1.00  0.00     0.000 HD 
HETATM    6  C   UNL     1      -7.906  18.769  67.124  1.00  0.00    -0.237 C  
HETATM    7  C   UNL     1      -8.620  16.465  66.489  1.00  0.00    -0.329 A  
HETATM    8  C   UNL     1      -8.950  17.689  67.092  1.00  0.00    -0.249 A  
HETATM    9 CL   UNL     1      -9.193  14.009  65.532  1.00  0.00     0.323 Cl 
HETATM   10  C   UNL     1     -10.261  17.899  67.568  1.00  0.00    -0.363 A  
HETATM   11  N   UNL     1     -10.688  19.044  68.261  1.00  0.00    -0.351 N  
HETATM   12  C   UNL     1     -11.236  16.915  67.354  1.00  0.00     0.170 A  
HETATM   13  O   UNL     1     -10.449  20.811  69.630  1.00  0.00     0.232 OA 
HETATM   14  C   UNL     1     -10.904  15.710  66.733  1.00  0.00    -0.277 A  
HETATM   15  C   UNL     1      -9.923  19.838  69.088  1.00  0.00    -0.308 C  
HETATM   16  C   UNL     1      -9.598  15.488  66.311  1.00  0.00    -0.309 A  
HETATM   17  H   UNL     1     -11.663  19.317  68.138  1.00  0.00     0.000 HD 
ENDROOT
BRANCH   6  18
HETATM   18  C   UNL     1      -7.031  18.994  65.909  1.00  0.00    -0.299 A  
HETATM   19  C   UNL     1      -5.467  19.478  63.610  1.00  0.00    -0.327 A  
HETATM   20  C   UNL     1      -6.518  20.330  63.928  1.00  0.00    -0.000 A  
HETATM   21  C   UNL     1      -5.958  18.141  65.579  1.00  0.00    -0.201 A  
HETATM   22  C   UNL     1      -7.280  20.105  65.080  1.00  0.00    -0.087 A  
HETATM   23  C   UNL     1      -5.180  18.396  64.440  1.00  0.00    -0.063 A  
HETATM   24 CL   UNL     1      -5.541  16.708  66.458  1.00  0.00     0.063 Cl 
ENDBRANCH   6  18
TORSDOF 1
ENDMDL
MODEL      181
REMARK 921   NORMALIZED FREE ENERGY PREDICTED BY IDOCK:   -1.30 KCAL/MOL
REMARK 922        TOTAL FREE ENERGY PREDICTED BY IDOCK:   -1.99 KCAL/MOL
REMARK 923 INTER-LIGAND FREE ENERGY PREDICTED BY IDOCK:   -2.14 KCAL/MOL
REMARK 924 INTRA-LIGAND FREE ENERGY PREDICTED BY IDOCK:    0.15 KCAL/MOL
REMARK 927      BINDING AFFINITY PREDICTED BY RF-SCORE:    0.00 PKD
ROOT
HETATM    1  O   UNL     1     -10.325  18.854  69.011  1.00  0.00    -0.506 OA 
HETATM    2  H   UNL     1     -10.912  19.590  68.885  1.00  0.00     0.000 HD 
HETATM    3  C   UNL     1     -10.425  17.950  67.935  1.00  0.00    -0.396 C  
HETATM    4  N   UNL     1      -9.530  16.827  68.126  1.00  0.00    -0.229 NA 
HETATM    5  H   UNL     1      -8.757  16.903  68.788  1.00  0.00     0.000 HD 
HETATM    6  C   UNL     1      -9.701  15.736  67.468  1.00  0.00    -0.226 C  
HETATM    7  C   UNL     1     -11.425  14.334  66.336  1.00  0.00    -0.361 A  
HETATM    8  C   UNL     1     -10.746  15.561  66.404  1.00  0.00    -0.303 A  
HETATM    9 CL   UNL     1     -13.092  12.553  65.185  1.00  0.00     0.154 Cl 
HETATM   10  C   UNL     1     -11.000  16.551  65.432  1.00  0.00    -0.131 A  
HETATM   11  N   UNL     1     -10.448  17.843  65.441  1.00  0.00    -0.021 N  
HETATM   12  C   UNL     1     -11.861  16.262  64.364  1.00  0.00     0.180 A  
HETATM   13  O   UNL     1      -9.624  19.706  66.392  1.00  0.00    -0.354 OA 
HETATM   14  C   UNL     1     -12.515  15.030  64.293  1.00  0.00    -0.130 A  
HETATM   15  C   UNL     1     -10.094  18.578  66.551  1.00  0.00    -0.400 C  
HETATM   16  C   UNL     1     -12.299  14.076  65.282  1.00  0.00    -0.465 A  
HETATM   17  H   UNL     1     -10.294  18.281  64.533  1.00  0.00     0.000 HD 
ENDROOT
BRANCH   6  18
HETATM   18  C   UNL     1      -8.761  14.592  67.784  1.00  0.00    -0.174 A  
HETATM   19  C   UNL     1      -7.033  12.417  68.284  1.00  0.00    -0.091 A  
HETATM   20  C   UNL     1      -7.522  12.637  67.001  1.00  0.00     0.030 A  
HETATM   21  C   UNL     1      -8.253  14.363  69.079  1.00  0.00    -0.031 A  
HETATM   22  C   UNL     1      -8.361  13.727  66.747  1.00  0.00     0.086 A  
HETATM   23  C   UNL     1      -7.386  13.286  69.315  1.00  0.00     0.211 A  
HETATM   24 CL   UNL     1      -8.677  15.296  70.474  1.00  0.00     1.017 Cl 
ENDBRANCH   6  18
TORSDOF 1
ENDMDL
MODEL      182
REMARK 921   NORMALIZED FREE ENERGY PREDICTED BY IDOCK:   -0.97 KCAL/MOL
REMARK 922        TOTAL FREE ENERGY PREDICTED BY IDOCK:   -1.65 KCAL/MOL
REMARK 923 INTER-LIGAND FREE ENERGY PREDICTED BY IDOCK:   -1.25 KCAL/MOL
REMARK 924 INTRA-LIGAND FREE ENERGY PREDICTED BY IDOCK:   -0.41 KCAL/MOL
REMARK 927      BINDING AFFINITY PREDICTED BY RF-SCORE:    0.00 PKD
ROOT
HETATM    1  O   UNL     1      -5.932  16.058  69.535  1.00  0.00    -0.135 OA 
HETATM    2  H   UNL     1      -5.225  16.664  69.722  1.00  0.00     0.000 HD 
HETATM    3  C   UNL     1      -6.870  16.645  68.663  1.00  0.00    -0.168 C  
HETATM    4  N   UNL     1      -7.949  15.721  68.377  1.00  0.00    -0.137 NA 
HETATM    5  H   UNL     1      -7.822  14.724  68.554  1.00  0.00     0.000 HD 
HETATM    6  C   UNL     1      -9.065  16.147  67.902  1.00  0.00    -0.192 C  
HETATM    7  C   UNL     1     -10.569  18.135  67.809  1.00  0.00    -0.407 A  
HETATM    8  C   UNL     1      -9.314  17.578  67.517  1.00  0.00    -0.246 A  
HETATM    9 CL   UNL     1     -12.449  20.063  67.672  1.00  0.00     3.101 Cl 
HETATM   10  C   UNL     1      -8.363  18.340  66.805  1.00  0.00    -0.255 A  
HETATM   11  N   UNL     1      -7.050  17.925  66.527  1.00  0.00    -0.214 N  
HETATM   12  C   UNL     1      -8.719  19.607  66.325  1.00  0.00    -0.401 A  
HETATM   13  O   UNL     1      -5.128  16.826  66.919  1.00  0.00    -0.213 OA 
HETATM   14  C   UNL     1      -9.978  20.144  66.600  1.00  0.00    -0.595 A  
HETATM   15  C   UNL     1      -6.269  17.094  67.300  1.00  0.00    -0.161 C  
HETATM   16  C   UNL     1     -10.893  19.408  67.346  1.00  0.00    -0.440 A  
HETATM   17  H   UNL     1      -6.633  18.275  65.665  1.00  0.00     0.000 HD 
ENDROOT
BRANCH   6  18
HETATM   18  C   UNL     1     -10.160  15.121  67.701  1.00  0.00    -0.231 A  
HETATM   19  C   UNL     1     -12.224  13.217  67.423  1.00  0.00    -0.236 A  
HETATM   20  C   UNL     1     -12.148  13.999  68.570  1.00  0.00    -0.329 A  
HETATM   21  C   UNL     1     -10.252  14.328  66.540  1.00  0.00    -0.276 A  
HETATM   22  C   UNL     1     -11.140  14.960  68.700  1.00  0.00    -0.272 A  
HETATM   23  C   UNL     1     -11.288  13.391  66.406  1.00  0.00    -0.338 A  
HETATM   24 CL   UNL     1      -9.110  14.364  65.238  1.00  0.00     0.896 Cl 
ENDBRANCH   6  18
TORSDOF 1
ENDMDL
MODEL      183
REMARK 921   NORMALIZED FREE ENERGY PREDICTED BY IDOCK:    0.79 KCAL/MOL
REMARK 922        TOTAL FREE ENERGY PREDICTED BY IDOCK:    0.22 KCAL/MOL
REMARK 923 INTER-LIGAND FREE ENERGY PREDICTED BY IDOCK:   -0.69 KCAL/MOL
REMARK 924 INTRA-LIGAND FREE ENERGY PREDICTED BY IDOCK:    0.91 KCAL/MOL
REMARK 927      BINDING AFFINITY PREDICTED BY RF-SCORE:    0.00 PKD
ROOT
HETATM    1  O   UNL     1     -10.089  18.929  70.500  1.00  0.00     0.708 OA 
HETATM    2  H   UNL     1     -10.557  18.553  71.236  1.00  0.00     0.000 HD 
HETATM    3  C   UNL     1      -9.725  17.927  69.578  1.00  0.00     0.312 C  
HETATM    4  N   UNL     1      -9.012  18.501  68.455  1.00  0.00    -0.323 NA 
HETATM    5  H   UNL     1      -9.079  19.503  68.271  1.00  0.00     0.000 HD 
HETATM    6  C   UNL     1      -8.296  17.759  67.688  1.00  0.00    -0.228 C  
HETATM    7  C   UNL     1      -6.964  15.651  67.622  1.00  0.00    -0.197 A  
HETATM    8  C   UNL     1      -8.211  16.264  67.818  1.00  0.00    -0.158 A  
HETATM    9 CL   UNL     1      -5.341  13.520  67.309  1.00  0.00     0.247 Cl 
HETATM   10  C   UNL     1      -9.352  15.465  68.044  1.00  0.00    -0.196 A  
HETATM   11  N   UNL     1     -10.633  15.963  68.335  1.00  0.00    -0.255 N  
HETATM   12  C   UNL     1      -9.237  14.070  67.983  1.00  0.00    -0.201 A  
HETATM   13  O   UNL     1     -12.113  17.426  69.186  1.00  0.00     1.802 OA 
HETATM   14  C   UNL     1      -7.996  13.469  67.765  1.00  0.00    -0.168 A  
HETATM   15  C   UNL     1     -10.930  17.129  69.005  1.00  0.00    -0.006 C  
HETATM   16  C   UNL     1      -6.866  14.261  67.593  1.00  0.00    -0.182 A  
HETATM   17  H   UNL     1     -11.424  15.403  68.017  1.00  0.00     0.000 HD 
ENDROOT
BRANCH   6  18
HETATM   18  C   UNL     1      -7.530  18.454  66.583  1.00  0.00    -0.253 A  
HETATM   19  C   UNL     1      -6.029  19.681  64.532  1.00  0.00    -0.311 A  
HETATM   20  C   UNL     1      -5.689  18.409  64.976  1.00  0.00    -0.199 A  
HETATM   21  C   UNL     1      -7.868  19.741  66.119  1.00  0.00    -0.335 A  
HETATM   22  C   UNL     1      -6.446  17.789  65.977  1.00  0.00    -0.294 A  
HETATM   23  C   UNL     1      -7.123  20.339  65.092  1.00  0.00    -0.170 A  
HETATM   24 CL   UNL     1      -9.137  20.716  66.781  1.00  0.00    -0.286 Cl 
ENDBRANCH   6  18
TORSDOF 1
ENDMDL
MODEL      184
REMARK 921   NORMALIZED FREE ENERGY PREDICTED BY IDOCK:    5.72 KCAL/MOL
REMARK 922        TOTAL FREE ENERGY PREDICTED BY IDOCK:    5.44 KCAL/MOL
REMARK 923 INTER-LIGAND FREE ENERGY PREDICTED BY IDOCK:    4.79 KCAL/MOL
REMARK 924 INTRA-LIGAND FREE ENERGY PREDICTED BY IDOCK:    0.65 KCAL/MOL
REMARK 927      BINDING AFFINITY PREDICTED BY RF-SCORE:    0.00 PKD
ROOT
HETATM    1  O   UNL     1     -10.406  19.922  69.680  1.00  0.00    -0.627 OA 
HETATM    2  H   UNL     1     -11.161  19.789  70.240  1.00  0.00     0.000 HD 
HETATM    3  C   UNL     1     -10.390  18.975  68.636  1.00  0.00    -0.203 C  
HETATM    4  N   UNL     1      -9.238  19.178  67.781  1.00  0.00    -0.292 NA 
HETATM    5  H   UNL     1      -8.741  20.069  67.803  1.00  0.00     0.000 HD 
HETATM    6  C   UNL     1      -8.837  18.244  66.994  1.00  0.00    -0.266 C  
HETATM    7  C   UNL     1      -8.788  15.768  66.692  1.00  0.00    -0.324 A  
HETATM    8  C   UNL     1      -9.556  16.936  66.819  1.00  0.00    -0.273 A  
HETATM    9 CL   UNL     1      -8.450  13.140  66.192  1.00  0.00     0.596 Cl 
HETATM   10  C   UNL     1     -10.960  16.863  66.695  1.00  0.00     0.151 A  
HETATM   11  N   UNL     1     -11.838  17.943  66.884  1.00  0.00     2.124 N  
HETATM   12  C   UNL     1     -11.557  15.640  66.361  1.00  0.00     0.305 A  
HETATM   13  O   UNL     1     -12.525  19.885  67.786  1.00  0.00     2.635 OA 
HETATM   14  C   UNL     1     -10.783  14.488  66.215  1.00  0.00    -0.309 A  
HETATM   15  C   UNL     1     -11.654  19.015  67.730  1.00  0.00     1.269 C  
HETATM   16  C   UNL     1      -9.405  14.556  66.388  1.00  0.00    -0.273 A  
HETATM   17  H   UNL     1     -12.699  17.934  66.338  1.00  0.00     0.000 HD 
ENDROOT
BRANCH   6  18
HETATM   18  C   UNL     1      -7.584  18.517  66.190  1.00  0.00    -0.273 A  
HETATM   19  C   UNL     1      -5.210  18.939  64.722  1.00  0.00    -0.227 A  
HETATM   20  C   UNL     1      -5.492  17.681  65.243  1.00  0.00     0.281 A  
HETATM   21  C   UNL     1      -7.290  19.785  65.651  1.00  0.00    -0.275 A  
HETATM   22  C   UNL     1      -6.679  17.464  65.951  1.00  0.00    -0.102 A  
HETATM   23  C   UNL     1      -6.113  19.983  64.914  1.00  0.00    -0.296 A  
HETATM   24 CL   UNL     1      -8.265  21.197  65.886  1.00  0.00     1.167 Cl 
ENDBRANCH   6  18
TORSDOF 1
ENDMDL
MODEL      185
REMARK 921   NORMALIZED FREE ENERGY PREDICTED BY IDOCK:    6.74 KCAL/MOL
REMARK 922        TOTAL FREE ENERGY PREDICTED BY IDOCK:    6.51 KCAL/MOL
REMARK 923 INTER-LIGAND FREE ENERGY PREDICTED BY IDOCK:    6.96 KCAL/MOL
REMARK 924 INTRA-LIGAND FREE ENERGY PREDICTED BY IDOCK:   -0.45 KCAL/MOL
REMARK 927      BINDING AFFINITY PREDICTED BY RF-SCORE:    0.00 PKD
ROOT
HETATM    1  O   UNL     1      -9.620  15.223  65.145  1.00  0.00    -0.267 OA 
HETATM    2  H   UNL     1      -9.991  16.087  65.010  1.00  0.00     0.000 HD 
HETATM    3  C   UNL     1     -10.458  14.444  65.967  1.00  0.00    -0.301 C  
HETATM    4  N   UNL     1      -9.891  13.126  66.172  1.00  0.00    -0.286 NA 
HETATM    5  H   UNL     1      -9.168  12.782  65.540  1.00  0.00     0.000 HD 
HETATM    6  C   UNL     1     -10.292  12.387  67.144  1.00  0.00    -0.219 C  
HETATM    7  C   UNL     1     -11.285  12.458  69.431  1.00  0.00    -0.225 A  
HETATM    8  C   UNL     1     -11.416  12.764  68.067  1.00  0.00    -0.364 A  
HETATM    9 CL   UNL     1     -12.200  12.240  71.959  1.00  0.00     0.682 Cl 
HETATM   10  C   UNL     1     -12.618  13.331  67.594  1.00  0.00     0.648 A  
HETATM   11  N   UNL     1     -12.838  13.755  66.273  1.00  0.00    -0.335 N  
HETATM   12  C   UNL     1     -13.693  13.499  68.477  1.00  0.00     6.971 A  
HETATM   13  O   UNL     1     -12.247  14.586  64.269  1.00  0.00    -0.506 OA 
HETATM   14  C   UNL     1     -13.561  13.171  69.827  1.00  0.00     2.862 A  
HETATM   15  C   UNL     1     -11.893  14.250  65.400  1.00  0.00    -0.363 C  
HETATM   16  C   UNL     1     -12.357  12.659  70.298  1.00  0.00    -0.195 A  
HETATM   17  H   UNL     1     -13.794  13.690  65.924  1.00  0.00     0.000 HD 
ENDROOT
BRANCH   6  18
HETATM   18  C   UNL     1      -9.595  11.056  67.325  1.00  0.00    -0.183 A  
HETATM   19  C   UNL     1      -8.385   8.530  67.673  1.00  0.00    -0.129 A  
HETATM   20  C   UNL     1      -9.751   8.620  67.431  1.00  0.00    -0.227 A  
HETATM   21  C   UNL     1      -8.210  10.951  67.564  1.00  0.00    -0.116 A  
HETATM   22  C   UNL     1     -10.349   9.869  67.235  1.00  0.00    -0.303 A  
HETATM   23  C   UNL     1      -7.616   9.691  67.725  1.00  0.00    -0.087 A  
HETATM   24 CL   UNL     1      -7.145  12.304  67.749  1.00  0.00    -0.102 Cl 
ENDBRANCH   6  18
TORSDOF 1
ENDMDL
MODEL      186
REMARK 921   NORMALIZED FREE ENERGY PREDICTED BY IDOCK:    8.08 KCAL/MOL
REMARK 922        TOTAL FREE ENERGY PREDICTED BY IDOCK:    7.93 KCAL/MOL
REMARK 923 INTER-LIGAND FREE ENERGY PREDICTED BY IDOCK:    7.36 KCAL/MOL
REMARK 924 INTRA-LIGAND FREE ENERGY PREDICTED BY IDOCK:    0.57 KCAL/MOL
REMARK 927      BINDING AFFINITY PREDICTED BY RF-SCORE:    0.00 PKD
ROOT
HETATM    1  O   UNL     1      -9.848  16.460  72.434  1.00  0.00     5.639 OA 
HETATM    2  H   UNL     1     -10.652  16.728  72.863  1.00  0.00     0.000 HD 
HETATM    3  C   UNL     1     -10.118  15.943  71.152  1.00  0.00     1.528 C  
HETATM    4  N   UNL     1      -8.891  15.534  70.498  1.00  0.00     0.672 NA 
HETATM    5  H   UNL     1      -7.995  15.886  70.837  1.00  0.00     0.000 HD 
HETATM    6  C   UNL     1      -8.922  14.733  69.494  1.00  0.00     0.124 C  
HETATM    7  C   UNL     1     -10.247  12.903  68.437  1.00  0.00    -0.238 A  
HETATM    8  C   UNL     1     -10.193  14.240  68.861  1.00  0.00    -0.203 A  
HETATM    9 CL   UNL     1     -11.386  10.813  67.169  1.00  0.00    -0.224 Cl 
HETATM   10  C   UNL     1     -11.286  15.095  68.609  1.00  0.00    -0.310 A  
HETATM   11  N   UNL     1     -11.384  16.423  69.055  1.00  0.00    -0.294 N  
HETATM   12  C   UNL     1     -12.372  14.619  67.862  1.00  0.00     0.080 A  
HETATM   13  O   UNL     1     -11.017  18.139  70.461  1.00  0.00     1.562 OA 
HETATM   14  C   UNL     1     -12.408  13.293  67.425  1.00  0.00    -0.082 A  
HETATM   15  C   UNL     1     -10.837  16.947  70.206  1.00  0.00     0.236 C  
HETATM   16  C   UNL     1     -11.349  12.441  67.721  1.00  0.00    -0.299 A  
HETATM   17  H   UNL     1     -11.913  17.066  68.466  1.00  0.00     0.000 HD 
ENDROOT
BRANCH   6  18
HETATM   18  C   UNL     1      -7.589  14.304  68.918  1.00  0.00    -0.113 A  
HETATM   19  C   UNL     1      -5.132  13.408  67.857  1.00  0.00    -0.091 A  
HETATM   20  C   UNL     1      -6.194  12.521  67.999  1.00  0.00    -0.088 A  
HETATM   21  C   UNL     1      -6.508  15.195  68.762  1.00  0.00    -0.086 A  
HETATM   22  C   UNL     1      -7.419  12.969  68.504  1.00  0.00    -0.123 A  
HETATM   23  C   UNL     1      -5.295  14.743  68.224  1.00  0.00    -0.113 A  
HETATM   24 CL   UNL     1      -6.529  16.853  69.260  1.00  0.00    -0.218 Cl 
ENDBRANCH   6  18
TORSDOF 1
ENDMDL
MODEL      187
REMARK 921   NORMALIZED FREE ENERGY PREDICTED BY IDOCK:   14.86 KCAL/MOL
REMARK 922        TOTAL FREE ENERGY PREDICTED BY IDOCK:   15.11 KCAL/MOL
REMARK 923 INTER-LIGAND FREE ENERGY PREDICTED BY IDOCK:   15.29 KCAL/MOL
REMARK 924 INTRA-LIGAND FREE ENERGY PREDICTED BY IDOCK:   -0.18 KCAL/MOL
REMARK 927      BINDING AFFINITY PREDICTED BY RF-SCORE:    0.00 PKD
ROOT
HETATM    1  O   UNL     1     -13.296  15.593  69.801  1.00  0.00    -0.320 OA 
HETATM    2  H   UNL     1     -13.864  15.958  70.470  1.00  0.00     0.000 HD 
HETATM    3  C   UNL     1     -12.137  16.380  69.651  1.00  0.00     0.480 C  
HETATM    4  N   UNL     1     -11.270  15.824  68.632  1.00  0.00    -0.329 NA 
HETATM    5  H   UNL     1     -11.390  14.853  68.341  1.00  0.00     0.000 HD 
HETATM    6  C   UNL     1     -10.353  16.543  68.092  1.00  0.00    -0.296 C  
HETATM    7  C   UNL     1      -9.726  18.891  67.526  1.00  0.00    -0.360 A  
HETATM    8  C   UNL     1     -10.036  17.948  68.520  1.00  0.00    -0.392 A  
HETATM    9 CL   UNL     1      -8.871  21.297  66.659  1.00  0.00     0.688 Cl 
HETATM   10  C   UNL     1      -9.960  18.320  69.879  1.00  0.00     0.856 A  
HETATM   11  N   UNL     1     -10.324  17.495  70.956  1.00  0.00     1.906 N  
HETATM   12  C   UNL     1      -9.493  19.597  70.217  1.00  0.00     0.962 A  
HETATM   13  O   UNL     1     -11.501  15.879  71.986  1.00  0.00    -0.401 OA 
HETATM   14  C   UNL     1      -9.165  20.520  69.222  1.00  0.00     0.948 A  
HETATM   15  C   UNL     1     -11.296  16.518  70.952  1.00  0.00    -0.041 C  
HETATM   16  C   UNL     1      -9.290  20.165  67.883  1.00  0.00    -0.290 A  
HETATM   17  H   UNL     1      -9.817  17.633  71.830  1.00  0.00     0.000 HD 
ENDROOT
BRANCH   6  18
HETATM   18  C   UNL     1      -9.541  15.902  66.986  1.00  0.00    -0.232 A  
HETATM   19  C   UNL     1      -7.950  14.759  64.955  1.00  0.00     8.716 A  
HETATM   20  C   UNL     1      -7.352  15.457  65.998  1.00  0.00     2.769 A  
HETATM   21  C   UNL     1     -10.136  15.186  65.927  1.00  0.00    -0.325 A  
HETATM   22  C   UNL     1      -8.137  16.004  67.018  1.00  0.00    -0.257 A  
HETATM   23  C   UNL     1      -9.335  14.613  64.928  1.00  0.00     1.327 A  
HETATM   24 CL   UNL     1     -11.844  15.002  65.709  1.00  0.00    -0.119 Cl 
ENDBRANCH   6  18
TORSDOF 1
ENDMDL
MODEL      188
REMARK 921   NORMALIZED FREE ENERGY PREDICTED BY IDOCK:   17.66 KCAL/MOL
REMARK 922        TOTAL FREE ENERGY PREDICTED BY IDOCK:   18.07 KCAL/MOL
REMARK 923 INTER-LIGAND FREE ENERGY PREDICTED BY IDOCK:   14.49 KCAL/MOL
REMARK 924 INTRA-LIGAND FREE ENERGY PREDICTED BY IDOCK:    3.58 KCAL/MOL
REMARK 927      BINDING AFFINITY PREDICTED BY RF-SCORE:    0.00 PKD
ROOT
HETATM    1  O   UNL     1      -7.855  18.214  64.296  1.00  0.00     4.809 OA 
HETATM    2  H   UNL     1      -7.040  18.666  64.112  1.00  0.00     0.000 HD 
HETATM    3  C   UNL     1      -8.005  18.003  65.681  1.00  0.00     0.364 C  
HETATM    4  N   UNL     1      -9.248  17.314  65.961  1.00  0.00    -0.514 NA 
HETATM    5  H   UNL     1      -9.989  17.300  65.259  1.00  0.00     0.000 HD 
HETATM    6  C   UNL     1      -9.426  16.719  67.087  1.00  0.00    -0.232 C  
HETATM    7  C   UNL     1      -8.228  15.595  68.964  1.00  0.00    -0.233 A  
HETATM    8  C   UNL     1      -8.437  16.765  68.217  1.00  0.00    -0.222 A  
HETATM    9 CL   UNL     1      -7.216  14.198  71.037  1.00  0.00     1.428 Cl 
HETATM   10  C   UNL     1      -7.786  17.958  68.597  1.00  0.00    -0.289 A  
HETATM   11  N   UNL     1      -7.849  19.166  67.884  1.00  0.00    -0.277 N  
HETATM   12  C   UNL     1      -7.010  17.976  69.763  1.00  0.00     0.297 A  
HETATM   13  O   UNL     1      -8.032  20.447  66.045  1.00  0.00    -0.161 OA 
HETATM   14  C   UNL     1      -6.826  16.812  70.513  1.00  0.00     1.591 A  
HETATM   15  C   UNL     1      -7.999  19.312  66.522  1.00  0.00    -0.294 C  
HETATM   16  C   UNL     1      -7.430  15.627  70.106  1.00  0.00     0.434 A  
HETATM   17  H   UNL     1      -7.778  20.024  68.431  1.00  0.00     0.000 HD 
ENDROOT
BRANCH   6  18
HETATM   18  C   UNL     1     -10.726  15.965  67.266  1.00  0.00    -0.306 A  
HETATM   19  C   UNL     1     -13.199  14.638  67.566  1.00  0.00     3.323 A  
HETATM   20  C   UNL     1     -13.127  15.821  66.839  1.00  0.00     3.937 A  
HETATM   21  C   UNL     1     -10.810  14.761  67.995  1.00  0.00    -0.260 A  
HETATM   22  C   UNL     1     -11.898  16.468  66.669  1.00  0.00     1.529 A  
HETATM   23  C   UNL     1     -12.041  14.104  68.130  1.00  0.00    -0.297 A  
HETATM   24 CL   UNL     1      -9.481  14.029  68.829  1.00  0.00    -0.134 Cl 
ENDBRANCH   6  18
TORSDOF 1
ENDMDL
MODEL      189
REMARK 921   NORMALIZED FREE ENERGY PREDICTED BY IDOCK:   21.39 KCAL/MOL
REMARK 922        TOTAL FREE ENERGY PREDICTED BY IDOCK:   22.02 KCAL/MOL
REMARK 923 INTER-LIGAND FREE ENERGY PREDICTED BY IDOCK:   21.37 KCAL/MOL
REMARK 924 INTRA-LIGAND FREE ENERGY PREDICTED BY IDOCK:    0.64 KCAL/MOL
REMARK 927      BINDING AFFINITY PREDICTED BY RF-SCORE:    0.00 PKD
ROOT
HETATM    1  O   UNL     1      -7.595  16.526  69.561  1.00  0.00    -0.147 OA 
HETATM    2  H   UNL     1      -8.056  16.106  70.277  1.00  0.00     0.000 HD 
HETATM    3  C   UNL     1      -8.319  17.640  69.090  1.00  0.00     0.098 C  
HETATM    4  N   UNL     1      -7.615  18.282  67.999  1.00  0.00    -0.244 NA 
HETATM    5  H   UNL     1      -6.621  18.098  67.859  1.00  0.00     0.000 HD 
HETATM    6  C   UNL     1      -8.233  19.081  67.204  1.00  0.00    -0.269 C  
HETATM    7  C   UNL     1     -10.473  19.606  66.240  1.00  0.00    -0.621 A  
HETATM    8  C   UNL     1      -9.667  19.490  67.384  1.00  0.00    -0.449 A  
HETATM    9 CL   UNL     1     -12.727  20.295  64.930  1.00  0.00     7.641 Cl 
HETATM   10  C   UNL     1     -10.196  19.838  68.645  1.00  0.00    -0.405 A  
HETATM   11  N   UNL     1      -9.519  19.687  69.866  1.00  0.00     0.320 N  
HETATM   12  C   UNL     1     -11.488  20.375  68.724  1.00  0.00     2.343 A  
HETATM   13  O   UNL     1      -8.080  18.722  71.300  1.00  0.00     4.833 OA 
HETATM   14  C   UNL     1     -12.273  20.508  67.578  1.00  0.00     4.189 A  
HETATM   15  C   UNL     1      -8.583  18.724  70.175  1.00  0.00     1.915 C  
HETATM   16  C   UNL     1     -11.765  20.117  66.344  1.00  0.00     1.965 A  
HETATM   17  H   UNL     1      -9.743  20.358  70.600  1.00  0.00     0.000 HD 
ENDROOT
BRANCH   6  18
HETATM   18  C   UNL     1      -7.436  19.651  66.050  1.00  0.00    -0.320 A  
HETATM   19  C   UNL     1      -6.033  20.763  63.868  1.00  0.00    -0.343 A  
HETATM   20  C   UNL     1      -7.265  21.287  64.243  1.00  0.00     0.758 A  
HETATM   21  C   UNL     1      -6.183  19.134  65.665  1.00  0.00    -0.224 A  
HETATM   22  C   UNL     1      -7.951  20.752  65.338  1.00  0.00     0.763 A  
HETATM   23  C   UNL     1      -5.488  19.700  64.586  1.00  0.00    -0.227 A  
HETATM   24 CL   UNL     1      -5.426  17.759  66.398  1.00  0.00    -0.203 Cl 
ENDBRANCH   6  18
TORSDOF 1
ENDMDL
MODEL      190
REMARK 921   NORMALIZED FREE ENERGY PREDICTED BY IDOCK:   27.07 KCAL/MOL
REMARK 922        TOTAL FREE ENERGY PREDICTED BY IDOCK:   28.03 KCAL/MOL
REMARK 923 INTER-LIGAND FREE ENERGY PREDICTED BY IDOCK:   28.44 KCAL/MOL
REMARK 924 INTRA-LIGAND FREE ENERGY PREDICTED BY IDOCK:   -0.41 KCAL/MOL
REMARK 927      BINDING AFFINITY PREDICTED BY RF-SCORE:    0.00 PKD
ROOT
HETATM    1  O   UNL     1      -8.159  21.196  70.518  1.00  0.00     2.704 OA 
HETATM    2  H   UNL     1      -8.136  21.094  71.462  1.00  0.00     0.000 HD 
HETATM    3  C   UNL     1      -8.602  20.010  69.900  1.00  0.00     1.011 C  
HETATM    4  N   UNL     1      -8.637  20.166  68.460  1.00  0.00     0.002 NA 
HETATM    5  H   UNL     1      -8.635  21.102  68.052  1.00  0.00     0.000 HD 
HETATM    6  C   UNL     1      -8.670  19.136  67.692  1.00  0.00    -0.296 C  
HETATM    7  C   UNL     1      -8.025  16.731  67.545  1.00  0.00    -0.189 A  
HETATM    8  C   UNL     1      -8.773  17.725  68.197  1.00  0.00    -0.266 A  
HETATM    9 CL   UNL     1      -7.308  14.178  67.052  1.00  0.00     0.164 Cl 
HETATM   10  C   UNL     1      -9.653  17.362  69.239  1.00  0.00     0.042 A  
HETATM   11  N   UNL     1     -10.389  18.271  70.017  1.00  0.00     0.299 N  
HETATM   12  C   UNL     1      -9.832  16.007  69.547  1.00  0.00    -0.235 A  
HETATM   13  O   UNL     1     -10.777  20.228  71.053  1.00  0.00     1.858 OA 
HETATM   14  C   UNL     1      -9.100  15.024  68.878  1.00  0.00    -0.202 A  
HETATM   15  C   UNL     1     -10.019  19.555  70.353  1.00  0.00     1.055 C  
HETATM   16  C   UNL     1      -8.197  15.391  67.886  1.00  0.00    -0.144 A  
HETATM   17  H   UNL     1     -11.289  17.946  70.371  1.00  0.00     0.000 HD 
ENDROOT
BRANCH   6  18
HETATM   18  C   UNL     1      -8.633  19.392  66.201  1.00  0.00    -0.297 A  
HETATM   19  C   UNL     1      -8.636  19.801  63.408  1.00  0.00    10.715 A  
HETATM   20  C   UNL     1      -9.679  19.107  64.011  1.00  0.00     9.713 A  
HETATM   21  C   UNL     1      -7.585  20.101  65.579  1.00  0.00    -0.097 A  
HETATM   22  C   UNL     1      -9.691  18.923  65.398  1.00  0.00     1.056 A  
HETATM   23  C   UNL     1      -7.601  20.308  64.192  1.00  0.00     1.805 A  
HETATM   24 CL   UNL     1      -6.189  20.706  66.405  1.00  0.00    -0.254 Cl 
ENDBRANCH   6  18
TORSDOF 1
ENDMDL
MODEL      191
REMARK 921   NORMALIZED FREE ENERGY PREDICTED BY IDOCK:   35.83 KCAL/MOL
REMARK 922        TOTAL FREE ENERGY PREDICTED BY IDOCK:   37.30 KCAL/MOL
REMARK 923 INTER-LIGAND FREE ENERGY PREDICTED BY IDOCK:   37.93 KCAL/MOL
REMARK 924 INTRA-LIGAND FREE ENERGY PREDICTED BY IDOCK:   -0.63 KCAL/MOL
REMARK 927      BINDING AFFINITY PREDICTED BY RF-SCORE:    0.00 PKD
ROOT
HETATM    1  O   UNL     1      -7.951  21.129  70.272  1.00  0.00     2.709 OA 
HETATM    2  H   UNL     1      -7.841  21.417  71.171  1.00  0.00     0.000 HD 
HETATM    3  C   UNL     1      -8.247  19.752  70.224  1.00  0.00     1.256 C  
HETATM    4  N   UNL     1      -8.416  19.313  68.854  1.00  0.00    -0.343 NA 
HETATM    5  H   UNL     1      -8.594  20.001  68.120  1.00  0.00     0.000 HD 
HETATM    6  C   UNL     1      -8.345  18.066  68.554  1.00  0.00    -0.304 C  
HETATM    7  C   UNL     1      -7.341  15.895  69.262  1.00  0.00    -0.221 A  
HETATM    8  C   UNL     1      -8.184  16.973  69.573  1.00  0.00     0.505 A  
HETATM    9 CL   UNL     1      -6.268  13.459  69.700  1.00  0.00    -0.121 Cl 
HETATM   10  C   UNL     1      -8.914  16.960  70.780  1.00  0.00     4.595 A  
HETATM   11  N   UNL     1      -9.722  18.012  71.239  1.00  0.00     4.984 N  
HETATM   12  C   UNL     1      -8.852  15.831  71.608  1.00  0.00     5.786 A  
HETATM   13  O   UNL     1     -10.335  20.162  71.481  1.00  0.00     1.992 OA 
HETATM   14  C   UNL     1      -8.027  14.753  71.279  1.00  0.00     3.171 A  
HETATM   15  C   UNL     1      -9.535  19.357  71.001  1.00  0.00     2.612 C  
HETATM   16  C   UNL     1      -7.271  14.793  70.113  1.00  0.00     0.145 A  
HETATM   17  H   UNL     1     -10.530  17.756  71.806  1.00  0.00     0.000 HD 
ENDROOT
BRANCH   6  18
HETATM   18  C   UNL     1      -8.462  17.705  67.089  1.00  0.00    -0.239 A  
HETATM   19  C   UNL     1      -8.603  17.092  64.337  1.00  0.00     8.042 A  
HETATM   20  C   UNL     1      -7.475  17.719  64.854  1.00  0.00     3.039 A  
HETATM   21  C   UNL     1      -9.598  17.063  66.554  1.00  0.00    -0.278 A  
HETATM   22  C   UNL     1      -7.393  18.003  66.221  1.00  0.00    -0.317 A  
HETATM   23  C   UNL     1      -9.654  16.753  65.188  1.00  0.00     1.137 A  
HETATM   24 CL   UNL     1     -11.016  16.668  67.466  1.00  0.00    -0.214 Cl 
ENDBRANCH   6  18
TORSDOF 1
ENDMDL
