MODEL        1
REMARK 921   NORMALIZED FREE ENERGY PREDICTED BY IDOCK:   -7.91 KCAL/MOL
REMARK 922        TOTAL FREE ENERGY PREDICTED BY IDOCK:   -8.96 KCAL/MOL
REMARK 923 INTER-LIGAND FREE ENERGY PREDICTED BY IDOCK:   -8.84 KCAL/MOL
REMARK 924 INTRA-LIGAND FREE ENERGY PREDICTED BY IDOCK:   -0.12 KCAL/MOL
REMARK 927      BINDING AFFINITY PREDICTED BY RF-SCORE:    0.00 PKD
ROOT
HETATM    1  C   UNL     1      -7.627  10.039  62.609  1.00  0.00    -0.136 C  
HETATM    2  C   UNL     1      -8.876  10.894  62.522  1.00  0.00    -0.315 C  
ENDROOT
BRANCH   2   3
HETATM    3  O   UNL     1      -9.836  10.535  63.529  1.00  0.00    -0.314 OA 
BRANCH   3   4
HETATM    4  C   UNL     1     -10.514  11.566  64.103  1.00  0.00    -0.353 C  
HETATM    5  O   UNL     1     -11.152  12.394  63.462  1.00  0.00    -0.435 OA 
HETATM    6  N   UNL     1     -10.459  11.546  65.485  1.00  0.00    -0.267 N  
HETATM    7  C   UNL     1     -11.216  12.533  66.252  1.00  0.00    -0.315 C  
HETATM    8  C   UNL     1     -12.151  11.843  67.254  1.00  0.00     0.175 C  
HETATM    9  C   UNL     1     -11.347  10.938  68.187  1.00  0.00    -0.383 C  
HETATM   10  C   UNL     1     -11.286  11.045  69.547  1.00  0.00    -0.343 C  
HETATM   11  C   UNL     1     -10.619   9.887  67.341  1.00  0.00    -0.338 C  
HETATM   12  C   UNL     1     -11.979  12.153  70.282  1.00  0.00    -0.389 A  
HETATM   13  C   UNL     1      -9.719  10.558  66.281  1.00  0.00    -0.205 C  
HETATM   14  C   UNL     1     -12.843  11.943  71.381  1.00  0.00    -0.411 A  
HETATM   15  C   UNL     1     -13.429  13.067  72.011  1.00  0.00    -0.584 A  
HETATM   16  C   UNL     1     -13.158  10.606  72.031  1.00  0.00    -0.501 C  
HETATM   17  C   UNL     1     -12.810   9.318  71.285  1.00  0.00    -0.354 C  
HETATM   18  C   UNL     1     -13.169  14.363  71.572  1.00  0.00    -0.346 A  
HETATM   19  C   UNL     1     -12.288  14.575  70.525  1.00  0.00    -0.403 A  
HETATM   20 CL   UNL     1     -13.919  15.699  72.350  1.00  0.00    -0.624 Cl 
HETATM   21  C   UNL     1     -11.323   9.148  71.160  1.00  0.00    -0.392 A  
HETATM   22  C   UNL     1     -10.584   9.991  70.324  1.00  0.00    -0.295 A  
HETATM   23  C   UNL     1     -11.681  13.480  69.909  1.00  0.00    -0.341 A  
HETATM   24  N   UNL     1      -9.237   9.922  70.202  1.00  0.00    -0.200 NA 
HETATM   25  C   UNL     1      -8.608   8.979  70.940  1.00  0.00    -0.215 A  
HETATM   26  C   UNL     1      -9.253   8.103  71.798  1.00  0.00    -0.232 A  
HETATM   27  C   UNL     1     -10.634   8.189  71.908  1.00  0.00    -0.324 A  
ENDBRANCH   3   4
ENDBRANCH   2   3
TORSDOF 2
ENDMDL
MODEL        2
REMARK 921   NORMALIZED FREE ENERGY PREDICTED BY IDOCK:   -7.81 KCAL/MOL
REMARK 922        TOTAL FREE ENERGY PREDICTED BY IDOCK:   -8.84 KCAL/MOL
REMARK 923 INTER-LIGAND FREE ENERGY PREDICTED BY IDOCK:   -8.71 KCAL/MOL
REMARK 924 INTRA-LIGAND FREE ENERGY PREDICTED BY IDOCK:   -0.14 KCAL/MOL
REMARK 927      BINDING AFFINITY PREDICTED BY RF-SCORE:    0.00 PKD
ROOT
HETATM    1  C   UNL     1      -7.254  10.304  63.100  1.00  0.00    -0.112 C  
HETATM    2  C   UNL     1      -8.733  10.279  62.768  1.00  0.00    -0.207 C  
ENDROOT
BRANCH   2   3
HETATM    3  O   UNL     1      -9.533  10.025  63.934  1.00  0.00    -0.276 OA 
BRANCH   3   4
HETATM    4  C   UNL     1     -10.207  11.094  64.441  1.00  0.00    -0.330 C  
HETATM    5  O   UNL     1     -10.770  11.931  63.742  1.00  0.00    -0.336 OA 
HETATM    6  N   UNL     1     -10.242  11.105  65.823  1.00  0.00    -0.249 N  
HETATM    7  C   UNL     1     -11.008  12.138  66.518  1.00  0.00    -0.284 C  
HETATM    8  C   UNL     1     -12.031  11.507  67.472  1.00  0.00     0.006 C  
HETATM    9  C   UNL     1     -11.325  10.595  68.474  1.00  0.00    -0.348 C  
HETATM   10  C   UNL     1     -11.347  10.732  69.833  1.00  0.00    -0.385 C  
HETATM   11  C   UNL     1     -10.585   9.499  67.700  1.00  0.00    -0.329 C  
HETATM   12  C   UNL     1     -12.042  11.882  70.498  1.00  0.00    -0.422 A  
HETATM   13  C   UNL     1      -9.594  10.109  66.687  1.00  0.00    -0.183 C  
HETATM   14  C   UNL     1     -12.982  11.731  71.542  1.00  0.00    -0.446 A  
HETATM   15  C   UNL     1     -13.564  12.891  72.108  1.00  0.00    -0.589 A  
HETATM   16  C   UNL     1     -13.391  10.423  72.198  1.00  0.00    -0.374 C  
HETATM   17  C   UNL     1     -13.046   9.105  71.505  1.00  0.00    -0.409 C  
HETATM   18  C   UNL     1     -13.226  14.166  71.659  1.00  0.00    -0.353 A  
HETATM   19  C   UNL     1     -12.272  14.320  70.667  1.00  0.00    -0.427 A  
HETATM   20 CL   UNL     1     -13.972  15.547  72.358  1.00  0.00    -0.642 Cl 
HETATM   21  C   UNL     1     -11.562   8.877  71.481  1.00  0.00    -0.388 A  
HETATM   22  C   UNL     1     -10.738   9.672  70.676  1.00  0.00    -0.322 A  
HETATM   23  C   UNL     1     -11.669  13.188  70.116  1.00  0.00    -0.250 A  
HETATM   24  N   UNL     1      -9.390   9.550  70.644  1.00  0.00    -0.245 NA 
HETATM   25  C   UNL     1      -8.847   8.602  71.441  1.00  0.00    -0.215 A  
HETATM   26  C   UNL     1      -9.578   7.771  72.274  1.00  0.00    -0.231 A  
HETATM   27  C   UNL     1     -10.959   7.911  72.292  1.00  0.00    -0.359 A  
ENDBRANCH   3   4
ENDBRANCH   2   3
TORSDOF 2
ENDMDL
MODEL        3
REMARK 921   NORMALIZED FREE ENERGY PREDICTED BY IDOCK:   -7.64 KCAL/MOL
REMARK 922        TOTAL FREE ENERGY PREDICTED BY IDOCK:   -8.65 KCAL/MOL
REMARK 923 INTER-LIGAND FREE ENERGY PREDICTED BY IDOCK:   -8.54 KCAL/MOL
REMARK 924 INTRA-LIGAND FREE ENERGY PREDICTED BY IDOCK:   -0.11 KCAL/MOL
REMARK 927      BINDING AFFINITY PREDICTED BY RF-SCORE:    0.00 PKD
ROOT
HETATM    1  C   UNL     1      -6.155  20.183  70.439  1.00  0.00    -0.383 C  
HETATM    2  C   UNL     1      -6.267  19.993  68.939  1.00  0.00    -0.301 C  
ENDROOT
BRANCH   2   3
HETATM    3  O   UNL     1      -7.638  19.965  68.510  1.00  0.00    -0.316 OA 
BRANCH   3   4
HETATM    4  C   UNL     1      -7.894  19.262  67.373  1.00  0.00    -0.255 C  
HETATM    5  O   UNL     1      -7.247  19.392  66.339  1.00  0.00    -0.220 OA 
HETATM    6  N   UNL     1      -8.918  18.344  67.524  1.00  0.00    -0.263 N  
HETATM    7  C   UNL     1      -9.250  17.446  66.420  1.00  0.00    -0.249 C  
HETATM    8  C   UNL     1      -9.187  15.982  66.873  1.00  0.00    -0.244 C  
HETATM    9  C   UNL     1     -10.129  15.754  68.055  1.00  0.00    -0.228 C  
HETATM   10  C   UNL     1     -11.175  14.877  68.086  1.00  0.00    -0.310 C  
HETATM   11  C   UNL     1      -9.704  16.676  69.203  1.00  0.00    -0.226 C  
HETATM   12  C   UNL     1     -11.559  14.065  66.884  1.00  0.00    -0.407 A  
HETATM   13  C   UNL     1      -9.699  18.152  68.754  1.00  0.00    -0.325 C  
HETATM   14  C   UNL     1     -11.739  12.664  66.912  1.00  0.00    -0.453 A  
HETATM   15  C   UNL     1     -12.119  12.003  65.719  1.00  0.00    -0.011 A  
HETATM   16  C   UNL     1     -11.645  11.771  68.137  1.00  0.00    -0.391 C  
HETATM   17  C   UNL     1     -10.985  12.317  69.404  1.00  0.00    -0.092 C  
HETATM   18  C   UNL     1     -12.319  12.704  64.532  1.00  0.00    -0.464 A  
HETATM   19  C   UNL     1     -12.186  14.082  64.512  1.00  0.00    -0.463 A  
HETATM   20 CL   UNL     1     -12.758  11.861  63.100  1.00  0.00    -0.522 Cl 
HETATM   21  C   UNL     1     -11.802  13.423  70.008  1.00  0.00    -0.364 A  
HETATM   22  C   UNL     1     -11.900  14.660  69.364  1.00  0.00    -0.329 A  
HETATM   23  C   UNL     1     -11.838  14.754  65.685  1.00  0.00    -0.212 A  
HETATM   24  N   UNL     1     -12.656  15.682  69.830  1.00  0.00    -0.196 NA 
HETATM   25  C   UNL     1     -13.336  15.460  70.978  1.00  0.00    -0.480 A  
HETATM   26  C   UNL     1     -13.305  14.269  71.684  1.00  0.00    -0.442 A  
HETATM   27  C   UNL     1     -12.523  13.234  71.191  1.00  0.00    -0.397 A  
ENDBRANCH   3   4
ENDBRANCH   2   3
TORSDOF 2
ENDMDL
MODEL        4
REMARK 921   NORMALIZED FREE ENERGY PREDICTED BY IDOCK:   -7.45 KCAL/MOL
REMARK 922        TOTAL FREE ENERGY PREDICTED BY IDOCK:   -8.44 KCAL/MOL
REMARK 923 INTER-LIGAND FREE ENERGY PREDICTED BY IDOCK:   -8.25 KCAL/MOL
REMARK 924 INTRA-LIGAND FREE ENERGY PREDICTED BY IDOCK:   -0.19 KCAL/MOL
REMARK 927      BINDING AFFINITY PREDICTED BY RF-SCORE:    0.00 PKD
ROOT
HETATM    1  C   UNL     1      -6.745  10.039  64.362  1.00  0.00    -0.128 C  
HETATM    2  C   UNL     1      -8.014   9.742  63.586  1.00  0.00    -0.144 C  
ENDROOT
BRANCH   2   3
HETATM    3  O   UNL     1      -9.122   9.482  64.462  1.00  0.00    -0.230 OA 
BRANCH   3   4
HETATM    4  C   UNL     1      -9.838  10.569  64.859  1.00  0.00    -0.315 C  
HETATM    5  O   UNL     1     -10.365  11.352  64.076  1.00  0.00    -0.297 OA 
HETATM    6  N   UNL     1      -9.961  10.663  66.233  1.00  0.00    -0.214 N  
HETATM    7  C   UNL     1     -10.782  11.725  66.813  1.00  0.00    -0.253 C  
HETATM    8  C   UNL     1     -11.856  11.138  67.738  1.00  0.00    -0.098 C  
HETATM    9  C   UNL     1     -11.205  10.300  68.837  1.00  0.00    -0.259 C  
HETATM   10  C   UNL     1     -11.315  10.519  70.180  1.00  0.00    -0.400 C  
HETATM   11  C   UNL     1     -10.405   9.169  68.180  1.00  0.00    -0.263 C  
HETATM   12  C   UNL     1     -12.065  11.697  70.728  1.00  0.00    -0.383 A  
HETATM   13  C   UNL     1      -9.358   9.732  67.196  1.00  0.00    -0.142 C  
HETATM   14  C   UNL     1     -13.067  11.595  71.719  1.00  0.00    -0.487 A  
HETATM   15  C   UNL     1     -13.697  12.778  72.174  1.00  0.00    -0.454 A  
HETATM   16  C   UNL     1     -13.502  10.323  72.427  1.00  0.00    -0.094 C  
HETATM   17  C   UNL     1     -13.098   8.971  71.839  1.00  0.00    -0.459 C  
HETATM   18  C   UNL     1     -13.346  14.028  71.670  1.00  0.00    -0.367 A  
HETATM   19  C   UNL     1     -12.333  14.136  70.732  1.00  0.00    -0.439 A  
HETATM   20 CL   UNL     1     -14.151  15.438  72.234  1.00  0.00    -0.637 Cl 
HETATM   21  C   UNL     1     -11.613   8.764  71.923  1.00  0.00    -0.432 A  
HETATM   22  C   UNL     1     -10.749   9.521  71.125  1.00  0.00    -0.338 A  
HETATM   23  C   UNL     1     -11.683  12.982  70.290  1.00  0.00    -0.192 A  
HETATM   24  N   UNL     1      -9.400   9.418  71.185  1.00  0.00    -0.242 NA 
HETATM   25  C   UNL     1      -8.898   8.529  72.071  1.00  0.00    -0.216 A  
HETATM   26  C   UNL     1      -9.671   7.739  72.906  1.00  0.00    -0.310 A  
HETATM   27  C   UNL     1     -11.052   7.859  72.829  1.00  0.00    -0.462 A  
ENDBRANCH   3   4
ENDBRANCH   2   3
TORSDOF 2
ENDMDL
MODEL        5
REMARK 921   NORMALIZED FREE ENERGY PREDICTED BY IDOCK:   -7.33 KCAL/MOL
REMARK 922        TOTAL FREE ENERGY PREDICTED BY IDOCK:   -8.30 KCAL/MOL
REMARK 923 INTER-LIGAND FREE ENERGY PREDICTED BY IDOCK:   -8.12 KCAL/MOL
REMARK 924 INTRA-LIGAND FREE ENERGY PREDICTED BY IDOCK:   -0.19 KCAL/MOL
REMARK 927      BINDING AFFINITY PREDICTED BY RF-SCORE:    0.00 PKD
ROOT
HETATM    1  C   UNL     1     -10.661   5.401  66.522  1.00  0.00    -0.353 C  
HETATM    2  C   UNL     1      -9.269   5.405  67.124  1.00  0.00    -0.111 C  
ENDROOT
BRANCH   2   3
HETATM    3  O   UNL     1      -8.800   6.741  67.365  1.00  0.00    -0.118 OA 
BRANCH   3   4
HETATM    4  C   UNL     1      -9.185   7.306  68.543  1.00  0.00    -0.138 C  
HETATM    5  O   UNL     1      -8.871   6.857  69.641  1.00  0.00    -0.140 OA 
HETATM    6  N   UNL     1      -9.913   8.469  68.371  1.00  0.00    -0.181 N  
HETATM    7  C   UNL     1     -10.319   9.245  69.541  1.00  0.00    -0.216 C  
HETATM    8  C   UNL     1      -9.828  10.694  69.430  1.00  0.00    -0.164 C  
HETATM    9  C   UNL     1     -10.360  11.334  68.148  1.00  0.00    -0.205 C  
HETATM   10  C   UNL     1     -11.150  12.446  68.078  1.00  0.00    -0.288 C  
HETATM   11  C   UNL     1      -9.860  10.518  66.951  1.00  0.00    -0.235 C  
HETATM   12  C   UNL     1     -11.647  13.138  69.312  1.00  0.00    -0.370 A  
HETATM   13  C   UNL     1     -10.289   9.040  67.071  1.00  0.00    -0.269 C  
HETATM   14  C   UNL     1     -11.510  14.526  69.541  1.00  0.00    -0.330 A  
HETATM   15  C   UNL     1     -12.035  15.074  70.736  1.00  0.00    -0.371 A  
HETATM   16  C   UNL     1     -10.912  15.538  68.579  1.00  0.00    -0.288 C  
HETATM   17  C   UNL     1     -10.080  15.039  67.399  1.00  0.00    -0.228 C  
HETATM   18  C   UNL     1     -12.681  14.277  71.679  1.00  0.00    -0.352 A  
HETATM   19  C   UNL     1     -12.857  12.925  71.437  1.00  0.00    -0.377 A  
HETATM   20 CL   UNL     1     -13.284  14.979  73.127  1.00  0.00    -0.579 Cl 
HETATM   21  C   UNL     1     -10.930  14.287  66.415  1.00  0.00    -0.311 A  
HETATM   22  C   UNL     1     -11.455  13.034  66.749  1.00  0.00    -0.345 A  
HETATM   23  C   UNL     1     -12.369  12.372  70.252  1.00  0.00    -0.264 A  
HETATM   24  N   UNL     1     -12.266  12.326  65.927  1.00  0.00    -0.600 NA 
HETATM   25  C   UNL     1     -12.561  12.887  64.733  1.00  0.00    -0.425 A  
HETATM   26  C   UNL     1     -12.093  14.122  64.316  1.00  0.00    -0.471 A  
HETATM   27  C   UNL     1     -11.262  14.833  65.172  1.00  0.00    -0.384 A  
ENDBRANCH   3   4
ENDBRANCH   2   3
TORSDOF 2
ENDMDL
MODEL        6
REMARK 921   NORMALIZED FREE ENERGY PREDICTED BY IDOCK:   -7.21 KCAL/MOL
REMARK 922        TOTAL FREE ENERGY PREDICTED BY IDOCK:   -8.17 KCAL/MOL
REMARK 923 INTER-LIGAND FREE ENERGY PREDICTED BY IDOCK:   -7.89 KCAL/MOL
REMARK 924 INTRA-LIGAND FREE ENERGY PREDICTED BY IDOCK:   -0.28 KCAL/MOL
REMARK 927      BINDING AFFINITY PREDICTED BY RF-SCORE:    0.00 PKD
ROOT
HETATM    1  C   UNL     1      -6.910   7.743  66.818  1.00  0.00    -0.071 C  
HETATM    2  C   UNL     1      -7.608   6.455  67.209  1.00  0.00    -0.096 C  
ENDROOT
BRANCH   2   3
HETATM    3  O   UNL     1      -9.018   6.654  67.402  1.00  0.00    -0.115 OA 
BRANCH   3   4
HETATM    4  C   UNL     1      -9.383   7.243  68.573  1.00  0.00    -0.141 C  
HETATM    5  O   UNL     1      -9.090   6.792  69.676  1.00  0.00    -0.143 OA 
HETATM    6  N   UNL     1     -10.066   8.431  68.390  1.00  0.00    -0.192 N  
HETATM    7  C   UNL     1     -10.445   9.232  69.553  1.00  0.00    -0.220 C  
HETATM    8  C   UNL     1      -9.898  10.661  69.431  1.00  0.00    -0.164 C  
HETATM    9  C   UNL     1     -10.402  11.310  68.142  1.00  0.00    -0.205 C  
HETATM   10  C   UNL     1     -11.148  12.451  68.061  1.00  0.00    -0.288 C  
HETATM   11  C   UNL     1      -9.931  10.465  66.953  1.00  0.00    -0.254 C  
HETATM   12  C   UNL     1     -11.622  13.171  69.288  1.00  0.00    -0.370 A  
HETATM   13  C   UNL     1     -10.416   9.006  67.085  1.00  0.00    -0.263 C  
HETATM   14  C   UNL     1     -11.432  14.555  69.506  1.00  0.00    -0.330 A  
HETATM   15  C   UNL     1     -11.939  15.132  70.695  1.00  0.00    -0.371 A  
HETATM   16  C   UNL     1     -10.793  15.536  68.537  1.00  0.00    -0.272 C  
HETATM   17  C   UNL     1      -9.978  14.994  67.363  1.00  0.00    -0.226 C  
HETATM   18  C   UNL     1     -12.617  14.369  71.642  1.00  0.00    -0.353 A  
HETATM   19  C   UNL     1     -12.844  13.023  71.411  1.00  0.00    -0.385 A  
HETATM   20 CL   UNL     1     -13.196  15.105  73.083  1.00  0.00    -0.585 Cl 
HETATM   21  C   UNL     1     -10.854  14.268  66.383  1.00  0.00    -0.307 A  
HETATM   22  C   UNL     1     -11.427  13.039  66.726  1.00  0.00    -0.345 A  
HETATM   23  C   UNL     1     -12.375  12.441  70.232  1.00  0.00    -0.264 A  
HETATM   24  N   UNL     1     -12.263  12.355  65.908  1.00  0.00    -0.632 NA 
HETATM   25  C   UNL     1     -12.533  12.918  64.708  1.00  0.00    -0.455 A  
HETATM   26  C   UNL     1     -12.017  14.130  64.283  1.00  0.00    -0.460 A  
HETATM   27  C   UNL     1     -11.162  14.816  65.135  1.00  0.00    -0.384 A  
ENDBRANCH   3   4
ENDBRANCH   2   3
TORSDOF 2
ENDMDL
MODEL        7
REMARK 921   NORMALIZED FREE ENERGY PREDICTED BY IDOCK:   -7.15 KCAL/MOL
REMARK 922        TOTAL FREE ENERGY PREDICTED BY IDOCK:   -8.10 KCAL/MOL
REMARK 923 INTER-LIGAND FREE ENERGY PREDICTED BY IDOCK:   -8.26 KCAL/MOL
REMARK 924 INTRA-LIGAND FREE ENERGY PREDICTED BY IDOCK:    0.16 KCAL/MOL
REMARK 927      BINDING AFFINITY PREDICTED BY RF-SCORE:    0.00 PKD
ROOT
HETATM    1  C   UNL     1     -12.134  16.923  74.520  1.00  0.00    -0.165 C  
HETATM    2  C   UNL     1     -12.520  15.469  74.329  1.00  0.00    -0.643 C  
ENDROOT
BRANCH   2   3
HETATM    3  O   UNL     1     -13.467  15.308  73.261  1.00  0.00    -0.449 OA 
BRANCH   3   4
HETATM    4  C   UNL     1     -13.345  14.172  72.520  1.00  0.00    -0.518 C  
HETATM    5  O   UNL     1     -14.034  13.173  72.699  1.00  0.00    -0.708 OA 
HETATM    6  N   UNL     1     -12.409  14.285  71.509  1.00  0.00    -0.349 N  
HETATM    7  C   UNL     1     -12.229  13.182  70.567  1.00  0.00    -0.328 C  
HETATM    8  C   UNL     1     -12.408  13.667  69.122  1.00  0.00    -0.115 C  
HETATM    9  C   UNL     1     -11.428  14.799  68.819  1.00  0.00    -0.324 C  
HETATM   10  C   UNL     1     -10.472  14.789  67.845  1.00  0.00    -0.246 C  
HETATM   11  C   UNL     1     -11.696  15.950  69.795  1.00  0.00    -0.323 C  
HETATM   12  C   UNL     1     -10.238  13.585  66.982  1.00  0.00    -0.249 A  
HETATM   13  C   UNL     1     -11.582  15.473  71.258  1.00  0.00    -0.404 C  
HETATM   14  C   UNL     1     -10.193  13.629  65.570  1.00  0.00    -0.316 A  
HETATM   15  C   UNL     1      -9.948  12.431  64.859  1.00  0.00    -0.207 A  
HETATM   16  C   UNL     1     -10.305  14.876  64.708  1.00  0.00    -0.233 C  
HETATM   17  C   UNL     1     -10.836  16.165  65.334  1.00  0.00    -0.319 C  
HETATM   18  C   UNL     1      -9.748  11.221  65.520  1.00  0.00    -0.229 A  
HETATM   19  C   UNL     1      -9.747  11.182  66.904  1.00  0.00    -0.216 A  
HETATM   20 CL   UNL     1      -9.475   9.784  64.617  1.00  0.00    -0.336 Cl 
HETATM   21  C   UNL     1      -9.883  16.702  66.363  1.00  0.00    -0.308 A  
HETATM   22  C   UNL     1      -9.700  16.030  67.575  1.00  0.00    -0.228 A  
HETATM   23  C   UNL     1      -9.961  12.359  67.623  1.00  0.00    -0.200 A  
HETATM   24  N   UNL     1      -8.823  16.434  68.524  1.00  0.00    -0.214 NA 
HETATM   25  C   UNL     1      -8.104  17.547  68.253  1.00  0.00    -0.268 A  
HETATM   26  C   UNL     1      -8.212  18.277  67.081  1.00  0.00    -0.239 A  
HETATM   27  C   UNL     1      -9.117  17.847  66.120  1.00  0.00    -0.121 A  
ENDBRANCH   3   4
ENDBRANCH   2   3
TORSDOF 2
ENDMDL
MODEL        8
REMARK 921   NORMALIZED FREE ENERGY PREDICTED BY IDOCK:   -7.11 KCAL/MOL
REMARK 922        TOTAL FREE ENERGY PREDICTED BY IDOCK:   -8.05 KCAL/MOL
REMARK 923 INTER-LIGAND FREE ENERGY PREDICTED BY IDOCK:   -7.96 KCAL/MOL
REMARK 924 INTRA-LIGAND FREE ENERGY PREDICTED BY IDOCK:   -0.10 KCAL/MOL
REMARK 927      BINDING AFFINITY PREDICTED BY RF-SCORE:    0.00 PKD
ROOT
HETATM    1  C   UNL     1      -9.328   4.646  66.947  1.00  0.00    -0.150 C  
HETATM    2  C   UNL     1     -10.250   5.775  67.364  1.00  0.00    -0.200 C  
ENDROOT
BRANCH   2   3
HETATM    3  O   UNL     1      -9.519   6.977  67.652  1.00  0.00    -0.122 OA 
BRANCH   3   4
HETATM    4  C   UNL     1      -9.852   7.616  68.807  1.00  0.00    -0.164 C  
HETATM    5  O   UNL     1      -9.588   7.177  69.922  1.00  0.00    -0.163 OA 
HETATM    6  N   UNL     1     -10.463   8.838  68.592  1.00  0.00    -0.206 N  
HETATM    7  C   UNL     1     -10.796   9.689  69.732  1.00  0.00    -0.250 C  
HETATM    8  C   UNL     1     -10.166  11.079  69.576  1.00  0.00    -0.032 C  
HETATM    9  C   UNL     1     -10.628  11.724  68.270  1.00  0.00    -0.236 C  
HETATM   10  C   UNL     1     -11.305  12.905  68.157  1.00  0.00    -0.327 C  
HETATM   11  C   UNL     1     -10.205  10.823  67.104  1.00  0.00    -0.255 C  
HETATM   12  C   UNL     1     -11.738  13.683  69.364  1.00  0.00    -0.379 A  
HETATM   13  C   UNL     1     -10.776   9.399  67.271  1.00  0.00    -0.188 C  
HETATM   14  C   UNL     1     -11.467  15.058  69.547  1.00  0.00    -0.317 A  
HETATM   15  C   UNL     1     -11.941  15.695  70.719  1.00  0.00    -0.438 A  
HETATM   16  C   UNL     1     -10.770  15.974  68.556  1.00  0.00    -0.287 C  
HETATM   17  C   UNL     1      -9.985  15.356  67.399  1.00  0.00    -0.229 C  
HETATM   18  C   UNL     1     -12.665  14.997  71.683  1.00  0.00    -0.340 A  
HETATM   19  C   UNL     1     -12.971  13.661  71.485  1.00  0.00    -0.443 A  
HETATM   20 CL   UNL     1     -13.203  15.802  73.103  1.00  0.00    -0.645 Cl 
HETATM   21  C   UNL     1     -10.901  14.658  66.435  1.00  0.00    -0.315 A  
HETATM   22  C   UNL     1     -11.546  13.474  66.806  1.00  0.00    -0.363 A  
HETATM   23  C   UNL     1     -12.534  13.023  70.323  1.00  0.00    -0.217 A  
HETATM   24  N   UNL     1     -12.419  12.820  66.003  1.00  0.00    -0.496 NA 
HETATM   25  C   UNL     1     -12.654  13.367  64.789  1.00  0.00    -0.314 A  
HETATM   26  C   UNL     1     -12.066  14.536  64.334  1.00  0.00    -0.492 A  
HETATM   27  C   UNL     1     -11.174  15.191  65.172  1.00  0.00    -0.392 A  
ENDBRANCH   3   4
ENDBRANCH   2   3
TORSDOF 2
ENDMDL
MODEL        9
REMARK 921   NORMALIZED FREE ENERGY PREDICTED BY IDOCK:   -7.10 KCAL/MOL
REMARK 922        TOTAL FREE ENERGY PREDICTED BY IDOCK:   -8.04 KCAL/MOL
REMARK 923 INTER-LIGAND FREE ENERGY PREDICTED BY IDOCK:   -8.31 KCAL/MOL
REMARK 924 INTRA-LIGAND FREE ENERGY PREDICTED BY IDOCK:    0.27 KCAL/MOL
REMARK 927      BINDING AFFINITY PREDICTED BY RF-SCORE:    0.00 PKD
ROOT
HETATM    1  C   UNL     1     -13.319  15.777  73.132  1.00  0.00    -0.685 C  
HETATM    2  C   UNL     1     -12.827  14.345  73.204  1.00  0.00    -0.390 C  
ENDROOT
BRANCH   2   3
HETATM    3  O   UNL     1     -13.679  13.455  72.467  1.00  0.00    -0.613 OA 
BRANCH   3   4
HETATM    4  C   UNL     1     -13.087  12.334  71.971  1.00  0.00    -0.355 C  
HETATM    5  O   UNL     1     -13.242  11.218  72.455  1.00  0.00    -0.243 OA 
HETATM    6  N   UNL     1     -12.343  12.576  70.830  1.00  0.00    -0.341 N  
HETATM    7  C   UNL     1     -11.721  11.458  70.124  1.00  0.00    -0.328 C  
HETATM    8  C   UNL     1     -12.156  11.435  68.653  1.00  0.00    -0.214 C  
HETATM    9  C   UNL     1     -11.805  12.760  67.978  1.00  0.00    -0.386 C  
HETATM   10  C   UNL     1     -10.987  12.914  66.896  1.00  0.00    -0.294 C  
HETATM   11  C   UNL     1     -12.526  13.892  68.720  1.00  0.00     0.173 C  
HETATM   12  C   UNL     1     -10.268  11.751  66.280  1.00  0.00    -0.255 A  
HETATM   13  C   UNL     1     -12.152  13.897  70.217  1.00  0.00    -0.353 C  
HETATM   14  C   UNL     1     -10.303  11.451  64.899  1.00  0.00    -0.347 A  
HETATM   15  C   UNL     1      -9.571  10.336  64.426  1.00  0.00    -0.378 A  
HETATM   16  C   UNL     1     -10.999  12.265  63.822  1.00  0.00    -0.495 C  
HETATM   17  C   UNL     1     -12.031  13.315  64.235  1.00  0.00    -0.477 C  
HETATM   18  C   UNL     1      -8.821   9.540  65.288  1.00  0.00    -0.184 A  
HETATM   19  C   UNL     1      -8.748   9.858  66.634  1.00  0.00    -0.138 A  
HETATM   20 CL   UNL     1      -7.963   8.182  64.677  1.00  0.00    -0.142 Cl 
HETATM   21  C   UNL     1     -11.384  14.450  64.976  1.00  0.00    -0.373 A  
HETATM   22  C   UNL     1     -10.870  14.252  66.262  1.00  0.00    -0.310 A  
HETATM   23  C   UNL     1      -9.443  10.969  67.115  1.00  0.00    -0.181 A  
HETATM   24  N   UNL     1     -10.234  15.219  66.964  1.00  0.00    -0.256 NA 
HETATM   25  C   UNL     1     -10.107  16.424  66.362  1.00  0.00    -0.316 A  
HETATM   26  C   UNL     1     -10.577  16.713  65.092  1.00  0.00    -0.181 A  
HETATM   27  C   UNL     1     -11.228  15.709  64.388  1.00  0.00    -0.249 A  
ENDBRANCH   3   4
ENDBRANCH   2   3
TORSDOF 2
ENDMDL
MODEL       10
REMARK 921   NORMALIZED FREE ENERGY PREDICTED BY IDOCK:   -7.04 KCAL/MOL
REMARK 922        TOTAL FREE ENERGY PREDICTED BY IDOCK:   -7.98 KCAL/MOL
REMARK 923 INTER-LIGAND FREE ENERGY PREDICTED BY IDOCK:   -7.86 KCAL/MOL
REMARK 924 INTRA-LIGAND FREE ENERGY PREDICTED BY IDOCK:   -0.12 KCAL/MOL
REMARK 927      BINDING AFFINITY PREDICTED BY RF-SCORE:    0.00 PKD
ROOT
HETATM    1  C   UNL     1      -6.869   6.593  67.865  1.00  0.00    -0.077 C  
HETATM    2  C   UNL     1      -8.100   5.709  67.908  1.00  0.00    -0.101 C  
ENDROOT
BRANCH   2   3
HETATM    3  O   UNL     1      -9.309   6.482  67.844  1.00  0.00    -0.115 OA 
BRANCH   3   4
HETATM    4  C   UNL     1      -9.676   7.116  68.992  1.00  0.00    -0.150 C  
HETATM    5  O   UNL     1      -9.426   6.681  70.112  1.00  0.00    -0.158 OA 
HETATM    6  N   UNL     1     -10.303   8.327  68.764  1.00  0.00    -0.211 N  
HETATM    7  C   UNL     1     -10.673   9.172  69.897  1.00  0.00    -0.231 C  
HETATM    8  C   UNL     1     -10.064  10.573  69.753  1.00  0.00    -0.126 C  
HETATM    9  C   UNL     1     -10.513  11.209  68.437  1.00  0.00    -0.211 C  
HETATM   10  C   UNL     1     -11.208  12.378  68.311  1.00  0.00    -0.309 C  
HETATM   11  C   UNL     1     -10.052  10.315  67.280  1.00  0.00    -0.249 C  
HETATM   12  C   UNL     1     -11.678  13.149  69.508  1.00  0.00    -0.382 A  
HETATM   13  C   UNL     1     -10.600   8.882  67.437  1.00  0.00    -0.235 C  
HETATM   14  C   UNL     1     -11.434  14.528  69.696  1.00  0.00    -0.332 A  
HETATM   15  C   UNL     1     -11.942  15.157  70.858  1.00  0.00    -0.378 A  
HETATM   16  C   UNL     1     -10.734  15.456  68.719  1.00  0.00    -0.241 C  
HETATM   17  C   UNL     1      -9.916  14.852  67.577  1.00  0.00    -0.219 C  
HETATM   18  C   UNL     1     -12.672  14.447  71.809  1.00  0.00    -0.351 A  
HETATM   19  C   UNL     1     -12.951  13.105  71.606  1.00  0.00    -0.429 A  
HETATM   20 CL   UNL     1     -13.252  15.243  73.217  1.00  0.00    -0.589 Cl 
HETATM   21  C   UNL     1     -10.800  14.137  66.596  1.00  0.00    -0.299 A  
HETATM   22  C   UNL     1     -11.433  12.942  66.955  1.00  0.00    -0.339 A  
HETATM   23  C   UNL     1     -12.481  12.475  70.453  1.00  0.00    -0.215 A  
HETATM   24  N   UNL     1     -12.278  12.273  66.136  1.00  0.00    -0.585 NA 
HETATM   25  C   UNL     1     -12.498  12.816  64.917  1.00  0.00    -0.497 A  
HETATM   26  C   UNL     1     -11.923  13.994  64.473  1.00  0.00    -0.470 A  
HETATM   27  C   UNL     1     -11.058  14.665  65.327  1.00  0.00    -0.363 A  
ENDBRANCH   3   4
ENDBRANCH   2   3
TORSDOF 2
ENDMDL
MODEL       11
REMARK 921   NORMALIZED FREE ENERGY PREDICTED BY IDOCK:   -6.97 KCAL/MOL
REMARK 922        TOTAL FREE ENERGY PREDICTED BY IDOCK:   -7.90 KCAL/MOL
REMARK 923 INTER-LIGAND FREE ENERGY PREDICTED BY IDOCK:   -7.68 KCAL/MOL
REMARK 924 INTRA-LIGAND FREE ENERGY PREDICTED BY IDOCK:   -0.22 KCAL/MOL
REMARK 927      BINDING AFFINITY PREDICTED BY RF-SCORE:    0.00 PKD
ROOT
HETATM    1  C   UNL     1     -12.151  13.217  63.573  1.00  0.00    -0.585 C  
HETATM    2  C   UNL     1     -12.064  14.515  64.351  1.00  0.00    -0.472 C  
ENDROOT
BRANCH   2   3
HETATM    3  O   UNL     1     -10.956  14.512  65.266  1.00  0.00    -0.320 OA 
BRANCH   3   4
HETATM    4  C   UNL     1     -11.241  14.160  66.549  1.00  0.00    -0.330 C  
HETATM    5  O   UNL     1     -11.970  14.819  67.283  1.00  0.00    -0.362 OA 
HETATM    6  N   UNL     1     -10.674  12.953  66.917  1.00  0.00    -0.256 N  
HETATM    7  C   UNL     1     -10.965  12.392  68.235  1.00  0.00    -0.236 C  
HETATM    8  C   UNL     1     -11.529  10.971  68.108  1.00  0.00    -0.374 C  
HETATM    9  C   UNL     1     -10.548  10.080  67.347  1.00  0.00    -0.330 C  
HETATM   10  C   UNL     1      -9.968   8.940  67.826  1.00  0.00    -0.241 C  
HETATM   11  C   UNL     1     -10.321  10.680  65.955  1.00  0.00    -0.290 C  
HETATM   12  C   UNL     1     -10.197   8.468  69.231  1.00  0.00    -0.211 A  
HETATM   13  C   UNL     1      -9.812  12.133  66.056  1.00  0.00    -0.243 C  
HETATM   14  C   UNL     1     -10.603   7.155  69.560  1.00  0.00    -0.247 A  
HETATM   15  C   UNL     1     -10.772   6.817  70.924  1.00  0.00    -0.269 A  
HETATM   16  C   UNL     1     -10.808   6.009  68.584  1.00  0.00    -0.379 C  
HETATM   17  C   UNL     1     -10.922   6.317  67.091  1.00  0.00    -0.453 C  
HETATM   18  C   UNL     1     -10.545   7.745  71.937  1.00  0.00    -0.223 A  
HETATM   19  C   UNL     1     -10.103   9.019  71.620  1.00  0.00    -0.405 A  
HETATM   20 CL   UNL     1     -10.783   7.300  73.579  1.00  0.00    -0.417 Cl 
HETATM   21  C   UNL     1      -9.622   6.833  66.543  1.00  0.00    -0.191 A  
HETATM   22  C   UNL     1      -9.156   8.101  66.907  1.00  0.00    -0.154 A  
HETATM   23  C   UNL     1      -9.906   9.363  70.282  1.00  0.00    -0.290 A  
HETATM   24  N   UNL     1      -7.972   8.606  66.487  1.00  0.00    -0.098 NA 
HETATM   25  C   UNL     1      -7.229   7.819  65.676  1.00  0.00    -0.068 A  
HETATM   26  C   UNL     1      -7.603   6.550  65.266  1.00  0.00    -0.088 A  
HETATM   27  C   UNL     1      -8.821   6.050  65.706  1.00  0.00    -0.143 A  
ENDBRANCH   3   4
ENDBRANCH   2   3
TORSDOF 2
ENDMDL
MODEL       12
REMARK 921   NORMALIZED FREE ENERGY PREDICTED BY IDOCK:   -6.91 KCAL/MOL
REMARK 922        TOTAL FREE ENERGY PREDICTED BY IDOCK:   -7.84 KCAL/MOL
REMARK 923 INTER-LIGAND FREE ENERGY PREDICTED BY IDOCK:   -7.76 KCAL/MOL
REMARK 924 INTRA-LIGAND FREE ENERGY PREDICTED BY IDOCK:   -0.08 KCAL/MOL
REMARK 927      BINDING AFFINITY PREDICTED BY RF-SCORE:    0.00 PKD
ROOT
HETATM    1  C   UNL     1      -9.022  19.392  68.828  1.00  0.00    -0.396 C  
HETATM    2  C   UNL     1     -10.392  19.537  68.193  1.00  0.00    -0.433 C  
ENDROOT
BRANCH   2   3
HETATM    3  O   UNL     1     -11.000  18.259  67.950  1.00  0.00    -0.291 OA 
BRANCH   3   4
HETATM    4  C   UNL     1     -10.599  17.611  66.822  1.00  0.00    -0.224 C  
HETATM    5  O   UNL     1     -10.090  18.180  65.862  1.00  0.00    -0.546 OA 
HETATM    6  N   UNL     1     -10.769  16.241  66.897  1.00  0.00    -0.267 N  
HETATM    7  C   UNL     1     -10.299  15.395  65.802  1.00  0.00    -0.361 C  
HETATM    8  C   UNL     1      -9.335  14.320  66.320  1.00  0.00    -0.236 C  
HETATM    9  C   UNL     1     -10.015  13.477  67.398  1.00  0.00    -0.234 C  
HETATM   10  C   UNL     1     -10.215  12.127  67.349  1.00  0.00    -0.211 C  
HETATM   11  C   UNL     1     -10.437  14.400  68.546  1.00  0.00    -0.254 C  
HETATM   12  C   UNL     1      -9.829  11.316  66.148  1.00  0.00    -0.262 A  
HETATM   13  C   UNL     1     -11.359  15.529  68.038  1.00  0.00    -0.330 C  
HETATM   14  C   UNL     1      -9.040  10.146  66.214  1.00  0.00    -0.180 A  
HETATM   15  C   UNL     1      -8.753   9.450  65.015  1.00  0.00    -0.216 A  
HETATM   16  C   UNL     1      -8.517   9.487  67.479  1.00  0.00    -0.126 C  
HETATM   17  C   UNL     1      -8.528  10.279  68.787  1.00  0.00    -0.130 C  
HETATM   18  C   UNL     1      -9.232   9.893  63.785  1.00  0.00    -0.243 A  
HETATM   19  C   UNL     1     -10.042  11.015  63.722  1.00  0.00    -0.420 A  
HETATM   20 CL   UNL     1      -8.841   9.032  62.350  1.00  0.00    -0.213 Cl 
HETATM   21  C   UNL     1      -9.933  10.542  69.249  1.00  0.00    -0.233 A  
HETATM   22  C   UNL     1     -10.752  11.432  68.547  1.00  0.00    -0.201 A  
HETATM   23  C   UNL     1     -10.358  11.698  64.897  1.00  0.00    -0.331 A  
HETATM   24  N   UNL     1     -12.041  11.678  68.882  1.00  0.00    -0.386 NA 
HETATM   25  C   UNL     1     -12.527  11.014  69.956  1.00  0.00    -0.250 A  
HETATM   26  C   UNL     1     -11.795  10.112  70.710  1.00  0.00    -0.443 A  
HETATM   27  C   UNL     1     -10.475   9.874  70.351  1.00  0.00    -0.347 A  
ENDBRANCH   3   4
ENDBRANCH   2   3
TORSDOF 2
ENDMDL
MODEL       13
REMARK 921   NORMALIZED FREE ENERGY PREDICTED BY IDOCK:   -6.91 KCAL/MOL
REMARK 922        TOTAL FREE ENERGY PREDICTED BY IDOCK:   -7.83 KCAL/MOL
REMARK 923 INTER-LIGAND FREE ENERGY PREDICTED BY IDOCK:   -7.64 KCAL/MOL
REMARK 924 INTRA-LIGAND FREE ENERGY PREDICTED BY IDOCK:   -0.19 KCAL/MOL
REMARK 927      BINDING AFFINITY PREDICTED BY RF-SCORE:    0.00 PKD
ROOT
HETATM    1  C   UNL     1     -11.709  15.856  72.030  1.00  0.00    -0.588 C  
HETATM    2  C   UNL     1     -13.141  15.822  71.535  1.00  0.00    -0.400 C  
ENDROOT
BRANCH   2   3
HETATM    3  O   UNL     1     -13.433  14.598  70.840  1.00  0.00    -0.361 OA 
BRANCH   3   4
HETATM    4  C   UNL     1     -13.532  13.482  71.612  1.00  0.00    -0.308 C  
HETATM    5  O   UNL     1     -14.357  13.354  72.511  1.00  0.00    -0.692 OA 
HETATM    6  N   UNL     1     -12.649  12.485  71.238  1.00  0.00    -0.306 N  
HETATM    7  C   UNL     1     -12.698  11.188  71.910  1.00  0.00    -0.188 C  
HETATM    8  C   UNL     1     -12.882  10.055  70.892  1.00  0.00    -0.408 C  
HETATM    9  C   UNL     1     -11.756  10.085  69.860  1.00  0.00    -0.190 C  
HETATM   10  C   UNL     1     -10.870   9.075  69.614  1.00  0.00    -0.196 C  
HETATM   11  C   UNL     1     -11.784  11.441  69.145  1.00  0.00    -0.410 C  
HETATM   12  C   UNL     1     -10.877   7.808  70.416  1.00  0.00    -0.248 A  
HETATM   13  C   UNL     1     -11.663  12.601  70.155  1.00  0.00    -0.168 C  
HETATM   14  C   UNL     1     -10.906   6.517  69.841  1.00  0.00    -0.341 A  
HETATM   15  C   UNL     1     -10.892   5.390  70.698  1.00  0.00    -0.193 A  
HETATM   16  C   UNL     1     -10.871   6.196  68.357  1.00  0.00    -0.382 C  
HETATM   17  C   UNL     1     -11.158   7.309  67.349  1.00  0.00    -0.138 C  
HETATM   18  C   UNL     1     -10.846   5.530  72.083  1.00  0.00    -0.235 A  
HETATM   19  C   UNL     1     -10.772   6.793  72.648  1.00  0.00    -0.271 A  
HETATM   20 CL   UNL     1     -10.852   4.136  73.088  1.00  0.00    -0.280 Cl 
HETATM   21  C   UNL     1     -10.075   8.350  67.368  1.00  0.00    -0.301 A  
HETATM   22  C   UNL     1      -9.931   9.199  68.469  1.00  0.00    -0.174 A  
HETATM   23  C   UNL     1     -10.759   7.915  71.818  1.00  0.00    -0.281 A  
HETATM   24  N   UNL     1      -8.949  10.126  68.569  1.00  0.00    -0.123 NA 
HETATM   25  C   UNL     1      -8.082  10.206  67.534  1.00  0.00    -0.113 A  
HETATM   26  C   UNL     1      -8.141   9.407  66.405  1.00  0.00    -0.108 A  
HETATM   27  C   UNL     1      -9.156   8.463  66.321  1.00  0.00    -0.241 A  
ENDBRANCH   3   4
ENDBRANCH   2   3
TORSDOF 2
ENDMDL
MODEL       14
REMARK 921   NORMALIZED FREE ENERGY PREDICTED BY IDOCK:   -6.89 KCAL/MOL
REMARK 922        TOTAL FREE ENERGY PREDICTED BY IDOCK:   -7.81 KCAL/MOL
REMARK 923 INTER-LIGAND FREE ENERGY PREDICTED BY IDOCK:   -7.69 KCAL/MOL
REMARK 924 INTRA-LIGAND FREE ENERGY PREDICTED BY IDOCK:   -0.12 KCAL/MOL
REMARK 927      BINDING AFFINITY PREDICTED BY RF-SCORE:    0.00 PKD
ROOT
HETATM    1  C   UNL     1     -10.192  19.826  68.373  1.00  0.00    -0.568 C  
HETATM    2  C   UNL     1     -10.050  18.322  68.509  1.00  0.00    -0.398 C  
ENDROOT
BRANCH   2   3
HETATM    3  O   UNL     1     -10.948  17.624  67.631  1.00  0.00    -0.296 OA 
BRANCH   3   4
HETATM    4  C   UNL     1     -10.367  16.847  66.677  1.00  0.00    -0.299 C  
HETATM    5  O   UNL     1      -9.694  17.298  65.756  1.00  0.00    -0.530 OA 
HETATM    6  N   UNL     1     -10.564  15.494  66.888  1.00  0.00    -0.304 N  
HETATM    7  C   UNL     1      -9.924  14.525  66.001  1.00  0.00    -0.322 C  
HETATM    8  C   UNL     1      -9.076  13.530  66.805  1.00  0.00    -0.223 C  
HETATM    9  C   UNL     1      -9.942  12.819  67.844  1.00  0.00    -0.229 C  
HETATM   10  C   UNL     1     -10.148  11.472  67.926  1.00  0.00    -0.202 C  
HETATM   11  C   UNL     1     -10.543  13.872  68.782  1.00  0.00    -0.258 C  
HETATM   12  C   UNL     1      -9.571  10.524  66.917  1.00  0.00    -0.206 A  
HETATM   13  C   UNL     1     -11.350  14.922  67.989  1.00  0.00    -0.324 C  
HETATM   14  C   UNL     1      -8.820   9.377  67.260  1.00  0.00    -0.136 A  
HETATM   15  C   UNL     1      -8.340   8.542  66.223  1.00  0.00    -0.118 A  
HETATM   16  C   UNL     1      -8.529   8.883  68.667  1.00  0.00    -0.128 C  
HETATM   17  C   UNL     1      -8.755   9.828  69.847  1.00  0.00    -0.238 C  
HETATM   18  C   UNL     1      -8.595   8.828  64.884  1.00  0.00    -0.150 A  
HETATM   19  C   UNL     1      -9.369   9.926  64.546  1.00  0.00    -0.336 A  
HETATM   20 CL   UNL     1      -7.974   7.801  63.653  1.00  0.00    -0.130 Cl 
HETATM   21  C   UNL     1     -10.215  10.134  70.026  1.00  0.00    -0.271 A  
HETATM   22  C   UNL     1     -10.891  10.923  69.090  1.00  0.00    -0.235 A  
HETATM   23  C   UNL     1      -9.873  10.745  65.557  1.00  0.00    -0.309 A  
HETATM   24  N   UNL     1     -12.215  11.197  69.166  1.00  0.00    -0.442 NA 
HETATM   25  C   UNL     1     -12.886  10.665  70.213  1.00  0.00    -0.147 A  
HETATM   26  C   UNL     1     -12.305   9.869  71.187  1.00  0.00    -0.466 A  
HETATM   27  C   UNL     1     -10.947   9.600  71.091  1.00  0.00    -0.430 A  
ENDBRANCH   3   4
ENDBRANCH   2   3
TORSDOF 2
ENDMDL
MODEL       15
REMARK 921   NORMALIZED FREE ENERGY PREDICTED BY IDOCK:   -6.79 KCAL/MOL
REMARK 922        TOTAL FREE ENERGY PREDICTED BY IDOCK:   -7.70 KCAL/MOL
REMARK 923 INTER-LIGAND FREE ENERGY PREDICTED BY IDOCK:   -7.48 KCAL/MOL
REMARK 924 INTRA-LIGAND FREE ENERGY PREDICTED BY IDOCK:   -0.23 KCAL/MOL
REMARK 927      BINDING AFFINITY PREDICTED BY RF-SCORE:    0.00 PKD
ROOT
HETATM    1  C   UNL     1      -5.984   8.816  65.558  1.00  0.00    -0.051 C  
HETATM    2  C   UNL     1      -6.115   7.511  66.319  1.00  0.00    -0.041 C  
ENDROOT
BRANCH   2   3
HETATM    3  O   UNL     1      -7.488   7.199  66.603  1.00  0.00    -0.084 OA 
BRANCH   3   4
HETATM    4  C   UNL     1      -7.959   7.617  67.810  1.00  0.00    -0.121 C  
HETATM    5  O   UNL     1      -7.534   7.199  68.882  1.00  0.00    -0.093 OA 
HETATM    6  N   UNL     1      -8.922   8.604  67.702  1.00  0.00    -0.135 N  
HETATM    7  C   UNL     1      -9.458   9.224  68.912  1.00  0.00    -0.154 C  
HETATM    8  C   UNL     1      -9.290  10.748  68.862  1.00  0.00    -0.183 C  
HETATM    9  C   UNL     1      -9.974  11.314  67.618  1.00  0.00    -0.197 C  
HETATM   10  C   UNL     1     -10.984  12.233  67.610  1.00  0.00    -0.287 C  
HETATM   11  C   UNL     1      -9.338  10.676  66.378  1.00  0.00    -0.195 C  
HETATM   12  C   UNL     1     -11.591  12.749  68.880  1.00  0.00    -0.362 A  
HETATM   13  C   UNL     1      -9.439   9.137  66.434  1.00  0.00    -0.227 C  
HETATM   14  C   UNL     1     -11.748  14.123  69.172  1.00  0.00    -0.368 A  
HETATM   15  C   UNL     1     -12.352  14.494  70.398  1.00  0.00    -0.400 A  
HETATM   16  C   UNL     1     -11.400  15.280  68.252  1.00  0.00    -0.344 C  
HETATM   17  C   UNL     1     -10.506  15.022  67.039  1.00  0.00    -0.278 C  
HETATM   18  C   UNL     1     -12.792  13.537  71.309  1.00  0.00    -0.338 A  
HETATM   19  C   UNL     1     -12.681  12.191  71.007  1.00  0.00    -0.322 A  
HETATM   20 CL   UNL     1     -13.500  14.030  72.796  1.00  0.00    -0.627 Cl 
HETATM   21  C   UNL     1     -11.197  14.148  66.032  1.00  0.00    -0.319 A  
HETATM   22  C   UNL     1     -11.436  12.799  66.313  1.00  0.00    -0.354 A  
HETATM   23  C   UNL     1     -12.112  11.806  69.792  1.00  0.00    -0.338 A  
HETATM   24  N   UNL     1     -12.094  11.970  65.469  1.00  0.00    -0.447 NA 
HETATM   25  C   UNL     1     -12.528  12.506  64.305  1.00  0.00    -0.432 A  
HETATM   26  C   UNL     1     -12.344  13.830  63.941  1.00  0.00    -0.346 A  
HETATM   27  C   UNL     1     -11.665  14.664  64.819  1.00  0.00    -0.429 A  
ENDBRANCH   3   4
ENDBRANCH   2   3
TORSDOF 2
ENDMDL
MODEL       16
REMARK 921   NORMALIZED FREE ENERGY PREDICTED BY IDOCK:   -6.69 KCAL/MOL
REMARK 922        TOTAL FREE ENERGY PREDICTED BY IDOCK:   -7.59 KCAL/MOL
REMARK 923 INTER-LIGAND FREE ENERGY PREDICTED BY IDOCK:   -7.40 KCAL/MOL
REMARK 924 INTRA-LIGAND FREE ENERGY PREDICTED BY IDOCK:   -0.18 KCAL/MOL
REMARK 927      BINDING AFFINITY PREDICTED BY RF-SCORE:    0.00 PKD
ROOT
HETATM    1  C   UNL     1      -9.044  15.967  66.137  1.00  0.00    -0.387 C  
HETATM    2  C   UNL     1     -10.451  15.961  65.571  1.00  0.00    -0.404 C  
ENDROOT
BRANCH   2   3
HETATM    3  O   UNL     1     -11.074  14.675  65.713  1.00  0.00    -0.317 OA 
BRANCH   3   4
HETATM    4  C   UNL     1     -11.315  14.265  66.989  1.00  0.00    -0.341 C  
HETATM    5  O   UNL     1     -12.020  14.888  67.776  1.00  0.00    -0.321 OA 
HETATM    6  N   UNL     1     -10.733  13.046  67.284  1.00  0.00    -0.248 N  
HETATM    7  C   UNL     1     -10.978  12.425  68.584  1.00  0.00    -0.247 C  
HETATM    8  C   UNL     1     -11.542  11.009  68.414  1.00  0.00    -0.372 C  
HETATM    9  C   UNL     1     -10.584  10.156  67.582  1.00  0.00    -0.316 C  
HETATM   10  C   UNL     1      -9.985   8.999  67.990  1.00  0.00    -0.213 C  
HETATM   11  C   UNL     1     -10.406  10.818  66.211  1.00  0.00    -0.303 C  
HETATM   12  C   UNL     1     -10.166   8.465  69.379  1.00  0.00    -0.208 A  
HETATM   13  C   UNL     1      -9.898  12.268  66.359  1.00  0.00    -0.230 C  
HETATM   14  C   UNL     1     -10.558   7.137  69.663  1.00  0.00    -0.249 A  
HETATM   15  C   UNL     1     -10.680   6.737  71.016  1.00  0.00    -0.265 A  
HETATM   16  C   UNL     1     -10.792   6.034  68.645  1.00  0.00    -0.379 C  
HETATM   17  C   UNL     1     -10.956   6.407  67.171  1.00  0.00    -0.476 C  
HETATM   18  C   UNL     1     -10.420   7.621  72.060  1.00  0.00    -0.213 A  
HETATM   19  C   UNL     1      -9.994   8.910  71.786  1.00  0.00    -0.397 A  
HETATM   20 CL   UNL     1     -10.602   7.103  73.689  1.00  0.00    -0.415 Cl 
HETATM   21  C   UNL     1      -9.677   6.952  66.604  1.00  0.00    -0.221 A  
HETATM   22  C   UNL     1      -9.203   8.205  67.008  1.00  0.00    -0.153 A  
HETATM   23  C   UNL     1      -9.842   9.313  70.459  1.00  0.00    -0.310 A  
HETATM   24  N   UNL     1      -8.035   8.733  66.571  1.00  0.00    -0.102 NA 
HETATM   25  C   UNL     1      -7.317   7.986  65.702  1.00  0.00    -0.079 A  
HETATM   26  C   UNL     1      -7.701   6.735  65.249  1.00  0.00    -0.106 A  
HETATM   27  C   UNL     1      -8.902   6.210  65.707  1.00  0.00    -0.133 A  
ENDBRANCH   3   4
ENDBRANCH   2   3
TORSDOF 2
ENDMDL
MODEL       17
REMARK 921   NORMALIZED FREE ENERGY PREDICTED BY IDOCK:   -6.40 KCAL/MOL
REMARK 922        TOTAL FREE ENERGY PREDICTED BY IDOCK:   -7.27 KCAL/MOL
REMARK 923 INTER-LIGAND FREE ENERGY PREDICTED BY IDOCK:   -7.23 KCAL/MOL
REMARK 924 INTRA-LIGAND FREE ENERGY PREDICTED BY IDOCK:   -0.04 KCAL/MOL
REMARK 927      BINDING AFFINITY PREDICTED BY RF-SCORE:    0.00 PKD
ROOT
HETATM    1  C   UNL     1     -10.782  16.839  68.085  1.00  0.00    -0.361 C  
HETATM    2  C   UNL     1     -11.366  16.156  69.307  1.00  0.00    -0.328 C  
ENDROOT
BRANCH   2   3
HETATM    3  O   UNL     1     -12.245  15.079  68.942  1.00  0.00    -0.216 OA 
BRANCH   3   4
HETATM    4  C   UNL     1     -12.528  14.180  69.924  1.00  0.00    -0.260 C  
HETATM    5  O   UNL     1     -13.382  14.367  70.785  1.00  0.00    -0.322 OA 
HETATM    6  N   UNL     1     -11.796  13.012  69.813  1.00  0.00    -0.321 N  
HETATM    7  C   UNL     1     -12.053  11.909  70.738  1.00  0.00    -0.226 C  
HETATM    8  C   UNL     1     -12.383  10.622  69.971  1.00  0.00    -0.341 C  
HETATM    9  C   UNL     1     -11.242  10.270  69.017  1.00  0.00    -0.260 C  
HETATM   10  C   UNL     1     -10.513   9.115  69.035  1.00  0.00    -0.238 C  
HETATM   11  C   UNL     1     -11.052  11.431  68.034  1.00  0.00    -0.317 C  
HETATM   12  C   UNL     1     -10.727   8.064  70.083  1.00  0.00    -0.244 A  
HETATM   13  C   UNL     1     -10.780  12.751  68.785  1.00  0.00    -0.214 C  
HETATM   14  C   UNL     1     -10.937   6.697  69.790  1.00  0.00    -0.367 A  
HETATM   15  C   UNL     1     -11.111   5.790  70.862  1.00  0.00    -0.267 A  
HETATM   16  C   UNL     1     -10.918   6.063  68.409  1.00  0.00    -0.340 C  
HETATM   17  C   UNL     1     -11.013   6.964  67.178  1.00  0.00    -0.427 C  
HETATM   18  C   UNL     1     -11.075   6.216  72.188  1.00  0.00    -0.275 A  
HETATM   19  C   UNL     1     -10.824   7.547  72.479  1.00  0.00    -0.349 A  
HETATM   20 CL   UNL     1     -11.312   5.085  73.460  1.00  0.00    -0.347 Cl 
HETATM   21  C   UNL     1      -9.787   7.820  67.036  1.00  0.00    -0.286 A  
HETATM   22  C   UNL     1      -9.541   8.857  67.941  1.00  0.00    -0.148 A  
HETATM   23  C   UNL     1     -10.625   8.451  71.435  1.00  0.00    -0.296 A  
HETATM   24  N   UNL     1      -8.433   9.634  67.898  1.00  0.00    -0.121 NA 
HETATM   25  C   UNL     1      -7.542   9.367  66.917  1.00  0.00    -0.091 A  
HETATM   26  C   UNL     1      -7.695   8.361  65.978  1.00  0.00    -0.090 A  
HETATM   27  C   UNL     1      -8.838   7.575  66.038  1.00  0.00    -0.179 A  
ENDBRANCH   3   4
ENDBRANCH   2   3
TORSDOF 2
ENDMDL
MODEL       18
REMARK 921   NORMALIZED FREE ENERGY PREDICTED BY IDOCK:   -6.23 KCAL/MOL
REMARK 922        TOTAL FREE ENERGY PREDICTED BY IDOCK:   -7.07 KCAL/MOL
REMARK 923 INTER-LIGAND FREE ENERGY PREDICTED BY IDOCK:   -6.96 KCAL/MOL
REMARK 924 INTRA-LIGAND FREE ENERGY PREDICTED BY IDOCK:   -0.11 KCAL/MOL
REMARK 927      BINDING AFFINITY PREDICTED BY RF-SCORE:    0.00 PKD
ROOT
HETATM    1  C   UNL     1      -9.478   7.437  74.070  1.00  0.00    -0.264 C  
HETATM    2  C   UNL     1     -10.898   7.092  73.667  1.00  0.00    -0.163 C  
ENDROOT
BRANCH   2   3
HETATM    3  O   UNL     1     -11.275   7.745  72.444  1.00  0.00    -0.285 OA 
BRANCH   3   4
HETATM    4  C   UNL     1     -10.637   7.322  71.318  1.00  0.00    -0.220 C  
HETATM    5  O   UNL     1     -10.387   6.143  71.088  1.00  0.00    -0.196 OA 
HETATM    6  N   UNL     1     -10.357   8.349  70.437  1.00  0.00    -0.201 N  
HETATM    7  C   UNL     1      -9.759   8.044  69.139  1.00  0.00    -0.163 C  
HETATM    8  C   UNL     1     -10.615   8.609  67.998  1.00  0.00    -0.205 C  
HETATM    9  C   UNL     1     -10.790  10.118  68.168  1.00  0.00    -0.310 C  
HETATM   10  C   UNL     1     -10.403  11.074  67.273  1.00  0.00    -0.249 C  
HETATM   11  C   UNL     1     -11.471  10.382  69.516  1.00  0.00    -0.311 C  
HETATM   12  C   UNL     1      -9.677  10.721  66.009  1.00  0.00    -0.264 A  
HETATM   13  C   UNL     1     -10.660   9.767  70.676  1.00  0.00    -0.313 C  
HETATM   14  C   UNL     1     -10.075  11.165  64.727  1.00  0.00    -0.351 A  
HETATM   15  C   UNL     1      -9.302  10.784  63.605  1.00  0.00    -0.301 A  
HETATM   16  C   UNL     1     -11.232  12.101  64.422  1.00  0.00    -0.400 C  
HETATM   17  C   UNL     1     -12.286  12.355  65.500  1.00  0.00    -0.356 C  
HETATM   18  C   UNL     1      -8.166   9.990  63.740  1.00  0.00    -0.161 A  
HETATM   19  C   UNL     1      -7.748   9.590  64.999  1.00  0.00    -0.114 A  
HETATM   20 CL   UNL     1      -7.268   9.531  62.349  1.00  0.00    -0.103 Cl 
HETATM   21  C   UNL     1     -11.704  13.108  66.661  1.00  0.00    -0.427 A  
HETATM   22  C   UNL     1     -10.785  12.489  67.515  1.00  0.00    -0.225 A  
HETATM   23  C   UNL     1      -8.483   9.978  66.120  1.00  0.00    -0.131 A  
HETATM   24  N   UNL     1     -10.188  13.124  68.551  1.00  0.00    -0.236 NA 
HETATM   25  C   UNL     1     -10.520  14.421  68.741  1.00  0.00    -0.244 A  
HETATM   26  C   UNL     1     -11.415  15.120  67.947  1.00  0.00    -0.344 A  
HETATM   27  C   UNL     1     -12.017  14.451  66.891  1.00  0.00    -0.425 A  
ENDBRANCH   3   4
ENDBRANCH   2   3
TORSDOF 2
ENDMDL
MODEL       19
REMARK 921   NORMALIZED FREE ENERGY PREDICTED BY IDOCK:   -6.21 KCAL/MOL
REMARK 922        TOTAL FREE ENERGY PREDICTED BY IDOCK:   -7.06 KCAL/MOL
REMARK 923 INTER-LIGAND FREE ENERGY PREDICTED BY IDOCK:   -6.97 KCAL/MOL
REMARK 924 INTRA-LIGAND FREE ENERGY PREDICTED BY IDOCK:   -0.09 KCAL/MOL
REMARK 927      BINDING AFFINITY PREDICTED BY RF-SCORE:    0.00 PKD
ROOT
HETATM    1  C   UNL     1     -12.569  15.026  73.716  1.00  0.00    -0.658 C  
HETATM    2  C   UNL     1     -13.520  14.463  72.678  1.00  0.00    -0.509 C  
ENDROOT
BRANCH   2   3
HETATM    3  O   UNL     1     -12.946  13.343  71.985  1.00  0.00    -0.339 OA 
BRANCH   3   4
HETATM    4  C   UNL     1     -12.510  13.583  70.718  1.00  0.00    -0.353 C  
HETATM    5  O   UNL     1     -12.411  14.708  70.240  1.00  0.00    -0.335 OA 
HETATM    6  N   UNL     1     -12.134  12.432  70.050  1.00  0.00    -0.296 N  
HETATM    7  C   UNL     1     -11.555  12.532  68.712  1.00  0.00    -0.322 C  
HETATM    8  C   UNL     1     -10.187  11.839  68.658  1.00  0.00    -0.211 C  
HETATM    9  C   UNL     1     -10.319  10.376  69.079  1.00  0.00    -0.232 C  
HETATM   10  C   UNL     1      -9.998   9.292  68.314  1.00  0.00    -0.196 C  
HETATM   11  C   UNL     1     -10.875  10.328  70.507  1.00  0.00    -0.281 C  
HETATM   12  C   UNL     1      -9.526   9.438  66.898  1.00  0.00    -0.204 A  
HETATM   13  C   UNL     1     -12.223  11.073  70.601  1.00  0.00    -0.385 C  
HETATM   14  C   UNL     1      -8.352   8.831  66.398  1.00  0.00    -0.117 A  
HETATM   15  C   UNL     1      -8.013   9.024  65.037  1.00  0.00    -0.123 A  
HETATM   16  C   UNL     1      -7.427   7.900  67.163  1.00  0.00    -0.092 C  
HETATM   17  C   UNL     1      -7.534   7.836  68.687  1.00  0.00    -0.100 C  
HETATM   18  C   UNL     1      -8.810   9.792  64.192  1.00  0.00    -0.231 A  
HETATM   19  C   UNL     1      -9.984  10.351  64.667  1.00  0.00    -0.408 A  
HETATM   20 CL   UNL     1      -8.350  10.020  62.551  1.00  0.00    -0.148 Cl 
HETATM   21  C   UNL     1      -8.843   7.235  69.115  1.00  0.00    -0.136 A  
HETATM   22  C   UNL     1     -10.037   7.938  68.926  1.00  0.00    -0.197 A  
HETATM   23  C   UNL     1     -10.348  10.150  66.000  1.00  0.00    -0.234 A  
HETATM   24  N   UNL     1     -11.253   7.436  69.245  1.00  0.00     0.022 NA 
HETATM   25  C   UNL     1     -11.277   6.190  69.771  1.00  0.00    -0.423 A  
HETATM   26  C   UNL     1     -10.150   5.416  69.991  1.00  0.00    -0.324 A  
HETATM   27  C   UNL     1      -8.912   5.949  69.658  1.00  0.00    -0.133 A  
ENDBRANCH   3   4
ENDBRANCH   2   3
TORSDOF 2
ENDMDL
MODEL       20
REMARK 921   NORMALIZED FREE ENERGY PREDICTED BY IDOCK:   -6.16 KCAL/MOL
REMARK 922        TOTAL FREE ENERGY PREDICTED BY IDOCK:   -7.00 KCAL/MOL
REMARK 923 INTER-LIGAND FREE ENERGY PREDICTED BY IDOCK:   -6.84 KCAL/MOL
REMARK 924 INTRA-LIGAND FREE ENERGY PREDICTED BY IDOCK:   -0.16 KCAL/MOL
REMARK 927      BINDING AFFINITY PREDICTED BY RF-SCORE:    0.00 PKD
ROOT
HETATM    1  C   UNL     1      -6.098  20.991  66.988  1.00  0.00    -0.362 C  
HETATM    2  C   UNL     1      -6.100  20.788  68.491  1.00  0.00    -0.338 C  
ENDROOT
BRANCH   2   3
HETATM    3  O   UNL     1      -7.094  19.832  68.894  1.00  0.00    -0.330 OA 
BRANCH   3   4
HETATM    4  C   UNL     1      -6.624  18.640  69.356  1.00  0.00    -0.227 C  
HETATM    5  O   UNL     1      -5.823  18.543  70.280  1.00  0.00    -0.230 OA 
HETATM    6  N   UNL     1      -7.189  17.552  68.715  1.00  0.00    -0.249 N  
HETATM    7  C   UNL     1      -6.858  16.201  69.161  1.00  0.00    -0.196 C  
HETATM    8  C   UNL     1      -8.129  15.416  69.511  1.00  0.00    -0.207 C  
HETATM    9  C   UNL     1      -9.068  15.371  68.306  1.00  0.00    -0.187 C  
HETATM   10  C   UNL     1      -9.512  14.241  67.681  1.00  0.00    -0.211 C  
HETATM   11  C   UNL     1      -9.430  16.808  67.915  1.00  0.00    -0.230 C  
HETATM   12  C   UNL     1      -9.046  12.877  68.094  1.00  0.00    -0.207 A  
HETATM   13  C   UNL     1      -8.163  17.636  67.618  1.00  0.00    -0.224 C  
HETATM   14  C   UNL     1      -9.920  11.804  68.383  1.00  0.00    -0.202 A  
HETATM   15  C   UNL     1      -9.365  10.554  68.747  1.00  0.00    -0.181 A  
HETATM   16  C   UNL     1     -11.434  11.825  68.267  1.00  0.00    -0.370 C  
HETATM   17  C   UNL     1     -12.151  13.171  68.152  1.00  0.00    -0.224 C  
HETATM   18  C   UNL     1      -7.987  10.363  68.820  1.00  0.00    -0.122 A  
HETATM   19  C   UNL     1      -7.128  11.399  68.494  1.00  0.00    -0.085 A  
HETATM   20 CL   UNL     1      -7.356   8.834  69.287  1.00  0.00    -0.069 Cl 
HETATM   21  C   UNL     1     -11.828  13.849  66.851  1.00  0.00    -0.453 A  
HETATM   22  C   UNL     1     -10.546  14.359  66.621  1.00  0.00    -0.282 A  
HETATM   23  C   UNL     1      -7.656  12.632  68.108  1.00  0.00    -0.132 A  
HETATM   24  N   UNL     1     -10.176  14.939  65.454  1.00  0.00    -0.363 NA 
HETATM   25  C   UNL     1     -11.118  15.012  64.487  1.00  0.00    -0.234 A  
HETATM   26  C   UNL     1     -12.410  14.531  64.619  1.00  0.00    -0.419 A  
HETATM   27  C   UNL     1     -12.770  13.941  65.823  1.00  0.00    -0.503 A  
ENDBRANCH   3   4
ENDBRANCH   2   3
TORSDOF 2
ENDMDL
MODEL       21
REMARK 921   NORMALIZED FREE ENERGY PREDICTED BY IDOCK:   -6.13 KCAL/MOL
REMARK 922        TOTAL FREE ENERGY PREDICTED BY IDOCK:   -6.97 KCAL/MOL
REMARK 923 INTER-LIGAND FREE ENERGY PREDICTED BY IDOCK:   -7.68 KCAL/MOL
REMARK 924 INTRA-LIGAND FREE ENERGY PREDICTED BY IDOCK:    0.71 KCAL/MOL
REMARK 927      BINDING AFFINITY PREDICTED BY RF-SCORE:    0.00 PKD
ROOT
HETATM    1  C   UNL     1     -13.659  10.440  72.424  1.00  0.00     0.044 C  
HETATM    2  C   UNL     1     -13.078  11.786  72.037  1.00  0.00    -0.331 C  
ENDROOT
BRANCH   2   3
HETATM    3  O   UNL     1     -13.818  12.870  72.621  1.00  0.00    -0.596 OA 
BRANCH   3   4
HETATM    4  C   UNL     1     -13.191  14.078  72.646  1.00  0.00    -0.509 C  
HETATM    5  O   UNL     1     -12.908  14.670  73.682  1.00  0.00    -0.508 OA 
HETATM    6  N   UNL     1     -12.852  14.536  71.386  1.00  0.00    -0.316 N  
HETATM    7  C   UNL     1     -12.088  15.775  71.251  1.00  0.00    -0.437 C  
HETATM    8  C   UNL     1     -10.807  15.539  70.440  1.00  0.00    -0.356 C  
HETATM    9  C   UNL     1     -11.152  14.966  69.066  1.00  0.00    -0.260 C  
HETATM   10  C   UNL     1     -10.846  15.536  67.863  1.00  0.00    -0.307 C  
HETATM   11  C   UNL     1     -11.899  13.642  69.262  1.00  0.00    -0.395 C  
HETATM   12  C   UNL     1     -10.172  16.872  67.772  1.00  0.00    -0.308 A  
HETATM   13  C   UNL     1     -13.160  13.843  70.129  1.00  0.00     0.341 C  
HETATM   14  C   UNL     1      -9.013  17.114  67.001  1.00  0.00    -0.244 A  
HETATM   15  C   UNL     1      -8.472  18.422  66.976  1.00  0.00    -0.257 A  
HETATM   16  C   UNL     1      -8.306  16.110  66.106  1.00  0.00    -0.222 C  
HETATM   17  C   UNL     1      -8.626  14.624  66.261  1.00  0.00     0.261 C  
HETATM   18  C   UNL     1      -9.060  19.465  67.689  1.00  0.00    -0.303 A  
HETATM   19  C   UNL     1     -10.222  19.241  68.409  1.00  0.00    -0.503 A  
HETATM   20 CL   UNL     1      -8.359  21.033  67.649  1.00  0.00    -0.062 Cl 
HETATM   21  C   UNL     1     -10.038  14.326  65.842  1.00  0.00    -0.344 A  
HETATM   22  C   UNL     1     -11.113  14.776  66.614  1.00  0.00    -0.333 A  
HETATM   23  C   UNL     1     -10.784  17.964  68.424  1.00  0.00    -0.171 A  
HETATM   24  N   UNL     1     -12.408  14.583  66.269  1.00  0.00    -0.281 NA 
HETATM   25  C   UNL     1     -12.636  13.917  65.114  1.00  0.00    -0.434 A  
HETATM   26  C   UNL     1     -11.639  13.438  64.281  1.00  0.00    -0.442 A  
HETATM   27  C   UNL     1     -10.317  13.645  64.653  1.00  0.00    -0.407 A  
ENDBRANCH   3   4
ENDBRANCH   2   3
TORSDOF 2
ENDMDL
MODEL       22
REMARK 921   NORMALIZED FREE ENERGY PREDICTED BY IDOCK:   -6.12 KCAL/MOL
REMARK 922        TOTAL FREE ENERGY PREDICTED BY IDOCK:   -6.96 KCAL/MOL
REMARK 923 INTER-LIGAND FREE ENERGY PREDICTED BY IDOCK:   -6.86 KCAL/MOL
REMARK 924 INTRA-LIGAND FREE ENERGY PREDICTED BY IDOCK:   -0.10 KCAL/MOL
REMARK 927      BINDING AFFINITY PREDICTED BY RF-SCORE:    0.00 PKD
ROOT
HETATM    1  C   UNL     1     -13.016  15.027  73.223  1.00  0.00    -0.642 C  
HETATM    2  C   UNL     1     -13.822  14.206  72.236  1.00  0.00    -0.544 C  
ENDROOT
BRANCH   2   3
HETATM    3  O   UNL     1     -13.264  12.894  72.058  1.00  0.00    -0.452 OA 
BRANCH   3   4
HETATM    4  C   UNL     1     -12.706  12.641  70.843  1.00  0.00    -0.188 C  
HETATM    5  O   UNL     1     -12.455  13.515  70.020  1.00  0.00    -0.268 OA 
HETATM    6  N   UNL     1     -12.396  11.306  70.658  1.00  0.00    -0.373 N  
HETATM    7  C   UNL     1     -11.705  10.887  69.440  1.00  0.00    -0.325 C  
HETATM    8  C   UNL     1     -10.414  10.130  69.781  1.00  0.00    -0.301 C  
HETATM    9  C   UNL     1     -10.729   8.922  70.663  1.00  0.00    -0.282 C  
HETATM   10  C   UNL     1     -10.459   7.619  70.359  1.00  0.00    -0.221 C  
HETATM   11  C   UNL     1     -11.400   9.419  71.949  1.00  0.00    -0.276 C  
HETATM   12  C   UNL     1      -9.863   7.224  69.041  1.00  0.00    -0.165 A  
HETATM   13  C   UNL     1     -12.668  10.238  71.630  1.00  0.00    -0.456 C  
HETATM   14  C   UNL     1      -8.720   6.401  68.914  1.00  0.00    -0.126 A  
HETATM   15  C   UNL     1      -8.255   6.078  67.617  1.00  0.00    -0.109 A  
HETATM   16  C   UNL     1      -7.960   5.740  70.051  1.00  0.00    -0.099 C  
HETATM   17  C   UNL     1      -8.195   6.225  71.482  1.00  0.00    -0.118 C  
HETATM   18  C   UNL     1      -8.899   6.550  66.475  1.00  0.00    -0.138 A  
HETATM   19  C   UNL     1     -10.045   7.319  66.596  1.00  0.00    -0.238 A  
HETATM   20 CL   UNL     1      -8.289   6.153  64.919  1.00  0.00    -0.126 Cl 
HETATM   21  C   UNL     1      -9.588   5.904  71.942  1.00  0.00    -0.169 A  
HETATM   22  C   UNL     1     -10.685   6.574  71.391  1.00  0.00    -0.238 A  
HETATM   23  C   UNL     1     -10.533   7.626  67.867  1.00  0.00    -0.270 A  
HETATM   24  N   UNL     1     -11.968   6.300  71.727  1.00  0.00    -0.305 NA 
HETATM   25  C   UNL     1     -12.161   5.324  72.644  1.00  0.00     0.156 A  
HETATM   26  C   UNL     1     -11.140   4.604  73.241  1.00  0.00    -0.403 A  
HETATM   27  C   UNL     1      -9.831   4.900  72.884  1.00  0.00    -0.181 A  
ENDBRANCH   3   4
ENDBRANCH   2   3
TORSDOF 2
ENDMDL
MODEL       23
REMARK 921   NORMALIZED FREE ENERGY PREDICTED BY IDOCK:   -6.00 KCAL/MOL
REMARK 922        TOTAL FREE ENERGY PREDICTED BY IDOCK:   -6.81 KCAL/MOL
REMARK 923 INTER-LIGAND FREE ENERGY PREDICTED BY IDOCK:   -6.57 KCAL/MOL
REMARK 924 INTRA-LIGAND FREE ENERGY PREDICTED BY IDOCK:   -0.24 KCAL/MOL
REMARK 927      BINDING AFFINITY PREDICTED BY RF-SCORE:    0.00 PKD
ROOT
HETATM    1  C   UNL     1      -9.123  20.141  67.152  1.00  0.00    -0.489 C  
HETATM    2  C   UNL     1      -7.645  20.256  67.469  1.00  0.00    -0.306 C  
ENDROOT
BRANCH   2   3
HETATM    3  O   UNL     1      -6.890  19.190  66.871  1.00  0.00    -0.197 OA 
BRANCH   3   4
HETATM    4  C   UNL     1      -6.502  18.190  67.710  1.00  0.00    -0.188 C  
HETATM    5  O   UNL     1      -5.770  18.367  68.678  1.00  0.00    -0.182 OA 
HETATM    6  N   UNL     1      -7.068  16.969  67.392  1.00  0.00    -0.149 N  
HETATM    7  C   UNL     1      -6.823  15.814  68.254  1.00  0.00    -0.118 C  
HETATM    8  C   UNL     1      -8.146  15.200  68.729  1.00  0.00    -0.166 C  
HETATM    9  C   UNL     1      -9.004  14.803  67.529  1.00  0.00    -0.192 C  
HETATM   10  C   UNL     1      -9.451  13.544  67.248  1.00  0.00    -0.230 C  
HETATM   11  C   UNL     1      -9.279  16.056  66.689  1.00  0.00    -0.276 C  
HETATM   12  C   UNL     1      -9.070  12.365  68.093  1.00  0.00    -0.200 A  
HETATM   13  C   UNL     1      -7.961  16.728  66.251  1.00  0.00    -0.316 C  
HETATM   14  C   UNL     1     -10.005  11.451  68.629  1.00  0.00    -0.209 A  
HETATM   15  C   UNL     1      -9.529  10.363  69.399  1.00  0.00    -0.204 A  
HETATM   16  C   UNL     1     -11.506  11.463  68.396  1.00  0.00    -0.367 C  
HETATM   17  C   UNL     1     -12.158  12.721  67.821  1.00  0.00    -0.191 C  
HETATM   18  C   UNL     1      -8.168  10.178  69.632  1.00  0.00    -0.165 A  
HETATM   19  C   UNL     1      -7.246  11.046  69.071  1.00  0.00    -0.111 A  
HETATM   20 CL   UNL     1      -7.632   8.856  70.591  1.00  0.00    -0.085 Cl 
HETATM   21  C   UNL     1     -11.720  12.958  66.404  1.00  0.00    -0.454 A  
HETATM   22  C   UNL     1     -10.406  13.349  66.126  1.00  0.00    -0.295 A  
HETATM   23  C   UNL     1      -7.696  12.110  68.287  1.00  0.00    -0.135 A  
HETATM   24  N   UNL     1      -9.936  13.534  64.870  1.00  0.00    -0.216 NA 
HETATM   25  C   UNL     1     -10.807  13.322  63.858  1.00  0.00    -0.146 A  
HETATM   26  C   UNL     1     -12.124  12.930  64.032  1.00  0.00    -0.526 A  
HETATM   27  C   UNL     1     -12.588  12.747  65.328  1.00  0.00    -0.460 A  
ENDBRANCH   3   4
ENDBRANCH   2   3
TORSDOF 2
ENDMDL
MODEL       24
REMARK 921   NORMALIZED FREE ENERGY PREDICTED BY IDOCK:   -5.99 KCAL/MOL
REMARK 922        TOTAL FREE ENERGY PREDICTED BY IDOCK:   -6.81 KCAL/MOL
REMARK 923 INTER-LIGAND FREE ENERGY PREDICTED BY IDOCK:   -6.65 KCAL/MOL
REMARK 924 INTRA-LIGAND FREE ENERGY PREDICTED BY IDOCK:   -0.16 KCAL/MOL
REMARK 927      BINDING AFFINITY PREDICTED BY RF-SCORE:    0.00 PKD
ROOT
HETATM    1  C   UNL     1      -8.741   5.655  64.617  1.00  0.00     0.028 C  
HETATM    2  C   UNL     1      -8.105   6.938  64.120  1.00  0.00    -0.026 C  
ENDROOT
BRANCH   2   3
HETATM    3  O   UNL     1      -7.804   7.834  65.202  1.00  0.00    -0.107 OA 
BRANCH   3   4
HETATM    4  C   UNL     1      -8.621   8.916  65.327  1.00  0.00    -0.184 C  
HETATM    5  O   UNL     1      -9.099   9.515  64.369  1.00  0.00    -0.230 OA 
HETATM    6  N   UNL     1      -8.902   9.232  66.644  1.00  0.00    -0.126 N  
HETATM    7  C   UNL     1      -9.841  10.312  66.942  1.00  0.00    -0.197 C  
HETATM    8  C   UNL     1     -10.978   9.811  67.842  1.00  0.00    -0.246 C  
HETATM    9  C   UNL     1     -10.409   9.221  69.132  1.00  0.00    -0.222 C  
HETATM   10  C   UNL     1     -10.681   9.655  70.397  1.00  0.00    -0.356 C  
HETATM   11  C   UNL     1      -9.478   8.058  68.768  1.00  0.00    -0.147 C  
HETATM   12  C   UNL     1     -11.552  10.849  70.651  1.00  0.00    -0.341 A  
HETATM   13  C   UNL     1      -8.360   8.524  67.811  1.00  0.00    -0.130 C  
HETATM   14  C   UNL     1     -12.653  10.841  71.538  1.00  0.00    -0.500 A  
HETATM   15  C   UNL     1     -13.394  12.034  71.712  1.00  0.00    -0.338 A  
HETATM   16  C   UNL     1     -13.092   9.678  72.411  1.00  0.00    -0.389 C  
HETATM   17  C   UNL     1     -12.550   8.280  72.114  1.00  0.00    -0.379 C  
HETATM   18  C   UNL     1     -13.060  13.203  71.034  1.00  0.00    -0.045 A  
HETATM   19  C   UNL     1     -11.955  13.227  70.199  1.00  0.00    -0.388 A  
HETATM   20 CL   UNL     1     -14.000  14.625  71.257  1.00  0.00    -0.435 Cl 
HETATM   21  C   UNL     1     -11.075   8.202  72.382  1.00  0.00    -0.437 A  
HETATM   22  C   UNL     1     -10.170   8.875  71.555  1.00  0.00    -0.328 A  
HETATM   23  C   UNL     1     -11.196  12.067  70.035  1.00  0.00     0.093 A  
HETATM   24  N   UNL     1      -8.833   8.885  71.768  1.00  0.00    -0.358 NA 
HETATM   25  C   UNL     1      -8.385   8.198  72.843  1.00  0.00    -0.188 A  
HETATM   26  C   UNL     1      -9.202   7.505  73.721  1.00  0.00    -0.327 A  
HETATM   27  C   UNL     1     -10.570   7.507  73.485  1.00  0.00    -0.347 A  
ENDBRANCH   3   4
ENDBRANCH   2   3
TORSDOF 2
ENDMDL
MODEL       25
REMARK 921   NORMALIZED FREE ENERGY PREDICTED BY IDOCK:   -5.99 KCAL/MOL
REMARK 922        TOTAL FREE ENERGY PREDICTED BY IDOCK:   -6.80 KCAL/MOL
REMARK 923 INTER-LIGAND FREE ENERGY PREDICTED BY IDOCK:   -6.64 KCAL/MOL
REMARK 924 INTRA-LIGAND FREE ENERGY PREDICTED BY IDOCK:   -0.16 KCAL/MOL
REMARK 927      BINDING AFFINITY PREDICTED BY RF-SCORE:    0.00 PKD
ROOT
HETATM    1  C   UNL     1      -6.098   9.436  63.198  1.00  0.00    -0.091 C  
HETATM    2  C   UNL     1      -7.435   9.904  62.657  1.00  0.00    -0.121 C  
ENDROOT
BRANCH   2   3
HETATM    3  O   UNL     1      -8.531   9.339  63.394  1.00  0.00    -0.184 OA 
BRANCH   3   4
HETATM    4  C   UNL     1      -9.367  10.228  63.998  1.00  0.00    -0.289 C  
HETATM    5  O   UNL     1     -10.044  11.043  63.380  1.00  0.00    -0.327 OA 
HETATM    6  N   UNL     1      -9.418  10.074  65.371  1.00  0.00    -0.229 N  
HETATM    7  C   UNL     1     -10.342  10.892  66.154  1.00  0.00    -0.248 C  
HETATM    8  C   UNL     1     -11.265  10.009  67.003  1.00  0.00     0.194 C  
HETATM    9  C   UNL     1     -10.438   9.106  67.917  1.00  0.00    -0.293 C  
HETATM   10  C   UNL     1     -10.495   9.082  69.281  1.00  0.00    -0.238 C  
HETATM   11  C   UNL     1      -9.529   8.231  67.046  1.00  0.00    -0.226 C  
HETATM   12  C   UNL     1     -11.368  10.029  70.050  1.00  0.00    -0.334 A  
HETATM   13  C   UNL     1      -8.633   9.097  66.137  1.00  0.00    -0.136 C  
HETATM   14  C   UNL     1     -12.284   9.617  71.044  1.00  0.00    -0.409 A  
HETATM   15  C   UNL     1     -13.044  10.603  71.719  1.00  0.00    -0.571 A  
HETATM   16  C   UNL     1     -12.493   8.196  71.539  1.00  0.00    -0.333 C  
HETATM   17  C   UNL     1     -11.941   7.035  70.712  1.00  0.00    -0.392 C  
HETATM   18  C   UNL     1     -12.903  11.957  71.425  1.00  0.00    -0.307 A  
HETATM   19  C   UNL     1     -11.973  12.367  70.483  1.00  0.00    -0.284 A  
HETATM   20 CL   UNL     1     -13.861  13.120  72.252  1.00  0.00    -0.631 Cl 
HETATM   21  C   UNL     1     -10.439   7.039  70.705  1.00  0.00    -0.231 A  
HETATM   22  C   UNL     1      -9.739   8.037  70.018  1.00  0.00    -0.173 A  
HETATM   23  C   UNL     1     -11.197  11.411  69.827  1.00  0.00    -0.266 A  
HETATM   24  N   UNL     1      -8.388   8.126  70.011  1.00  0.00    -0.120 NA 
HETATM   25  C   UNL     1      -7.713   7.187  70.712  1.00  0.00    -0.094 A  
HETATM   26  C   UNL     1      -8.317   6.165  71.426  1.00  0.00    -0.123 A  
HETATM   27  C   UNL     1      -9.703   6.090  71.421  1.00  0.00    -0.189 A  
ENDBRANCH   3   4
ENDBRANCH   2   3
TORSDOF 2
ENDMDL
MODEL       26
REMARK 921   NORMALIZED FREE ENERGY PREDICTED BY IDOCK:   -5.91 KCAL/MOL
REMARK 922        TOTAL FREE ENERGY PREDICTED BY IDOCK:   -6.72 KCAL/MOL
REMARK 923 INTER-LIGAND FREE ENERGY PREDICTED BY IDOCK:   -6.62 KCAL/MOL
REMARK 924 INTRA-LIGAND FREE ENERGY PREDICTED BY IDOCK:   -0.10 KCAL/MOL
REMARK 927      BINDING AFFINITY PREDICTED BY RF-SCORE:    0.00 PKD
ROOT
HETATM    1  C   UNL     1     -10.357  18.032  68.017  1.00  0.00    -0.397 C  
HETATM    2  C   UNL     1     -10.412  16.581  68.452  1.00  0.00    -0.307 C  
ENDROOT
BRANCH   2   3
HETATM    3  O   UNL     1     -11.237  15.796  67.576  1.00  0.00    -0.308 OA 
BRANCH   3   4
HETATM    4  C   UNL     1     -10.607  14.802  66.892  1.00  0.00    -0.294 C  
HETATM    5  O   UNL     1      -9.813  15.009  65.981  1.00  0.00    -0.280 OA 
HETATM    6  N   UNL     1     -10.908  13.541  67.373  1.00  0.00    -0.266 N  
HETATM    7  C   UNL     1     -10.237  12.373  66.806  1.00  0.00    -0.219 C  
HETATM    8  C   UNL     1      -9.543  11.558  67.904  1.00  0.00    -0.178 C  
HETATM    9  C   UNL     1     -10.556  11.133  68.966  1.00  0.00    -0.251 C  
HETATM   10  C   UNL     1     -10.852   9.848  69.320  1.00  0.00    -0.255 C  
HETATM   11  C   UNL     1     -11.188  12.392  69.569  1.00  0.00    -0.171 C  
HETATM   12  C   UNL     1     -10.230   8.675  68.621  1.00  0.00    -0.214 A  
HETATM   13  C   UNL     1     -11.840  13.263  68.474  1.00  0.00    -0.349 C  
HETATM   14  C   UNL     1      -9.591   7.610  69.296  1.00  0.00    -0.159 A  
HETATM   15  C   UNL     1      -9.055   6.545  68.533  1.00  0.00    -0.127 A  
HETATM   16  C   UNL     1      -9.483   7.439  70.801  1.00  0.00    -0.167 C  
HETATM   17  C   UNL     1      -9.776   8.635  71.707  1.00  0.00    -0.361 C  
HETATM   18  C   UNL     1      -9.148   6.528  67.143  1.00  0.00    -0.120 A  
HETATM   19  C   UNL     1      -9.813   7.547  66.482  1.00  0.00    -0.226 A  
HETATM   20 CL   UNL     1      -8.464   5.226  66.253  1.00  0.00    -0.114 Cl 
HETATM   21  C   UNL     1     -11.225   9.025  71.641  1.00  0.00    -0.431 A  
HETATM   22  C   UNL     1     -11.747   9.605  70.480  1.00  0.00    -0.242 A  
HETATM   23  C   UNL     1     -10.371   8.592  67.220  1.00  0.00    -0.366 A  
HETATM   24  N   UNL     1     -13.052   9.936  70.338  1.00  0.00     0.000 NA 
HETATM   25  C   UNL     1     -13.862   9.680  71.390  1.00  0.00    -0.117 A  
HETATM   26  C   UNL     1     -13.439   9.105  72.577  1.00  0.00    -0.490 A  
HETATM   27  C   UNL     1     -12.097   8.774  72.704  1.00  0.00    -0.207 A  
ENDBRANCH   3   4
ENDBRANCH   2   3
TORSDOF 2
ENDMDL
MODEL       27
REMARK 921   NORMALIZED FREE ENERGY PREDICTED BY IDOCK:   -5.89 KCAL/MOL
REMARK 922        TOTAL FREE ENERGY PREDICTED BY IDOCK:   -6.70 KCAL/MOL
REMARK 923 INTER-LIGAND FREE ENERGY PREDICTED BY IDOCK:   -6.53 KCAL/MOL
REMARK 924 INTRA-LIGAND FREE ENERGY PREDICTED BY IDOCK:   -0.16 KCAL/MOL
REMARK 927      BINDING AFFINITY PREDICTED BY RF-SCORE:    0.00 PKD
ROOT
HETATM    1  C   UNL     1      -6.774   2.828  65.732  1.00  0.00    -0.043 C  
HETATM    2  C   UNL     1      -8.009   1.950  65.786  1.00  0.00    -0.074 C  
ENDROOT
BRANCH   2   3
HETATM    3  O   UNL     1      -9.071   2.575  66.525  1.00  0.00    -0.141 OA 
BRANCH   3   4
HETATM    4  C   UNL     1      -9.509   3.771  66.046  1.00  0.00    -0.173 C  
HETATM    5  O   UNL     1      -9.958   3.921  64.915  1.00  0.00    -0.189 OA 
HETATM    6  N   UNL     1      -9.451   4.783  66.987  1.00  0.00    -0.141 N  
HETATM    7  C   UNL     1      -9.975   6.107  66.655  1.00  0.00    -0.158 C  
HETATM    8  C   UNL     1     -11.029   6.547  67.678  1.00  0.00    -0.426 C  
HETATM    9  C   UNL     1     -10.433   6.542  69.085  1.00  0.00    -0.260 C  
HETATM   10  C   UNL     1     -10.342   7.619  69.919  1.00  0.00    -0.225 C  
HETATM   11  C   UNL     1      -9.952   5.122  69.406  1.00  0.00    -0.292 C  
HETATM   12  C   UNL     1     -10.777   8.988  69.489  1.00  0.00    -0.215 A  
HETATM   13  C   UNL     1      -8.936   4.631  68.354  1.00  0.00    -0.113 C  
HETATM   14  C   UNL     1     -11.659   9.801  70.236  1.00  0.00    -0.283 A  
HETATM   15  C   UNL     1     -11.987  11.085  69.740  1.00  0.00    -0.428 A  
HETATM   16  C   UNL     1     -12.250   9.468  71.596  1.00  0.00    -0.477 C  
HETATM   17  C   UNL     1     -12.191   8.025  72.098  1.00  0.00    -0.377 C  
HETATM   18  C   UNL     1     -11.458  11.558  68.541  1.00  0.00    -0.292 A  
HETATM   19  C   UNL     1     -10.559  10.782  67.829  1.00  0.00    -0.266 A  
HETATM   20 CL   UNL     1     -11.900  13.115  67.963  1.00  0.00    -0.399 Cl 
HETATM   21  C   UNL     1     -10.776   7.604  72.372  1.00  0.00    -0.333 A  
HETATM   22  C   UNL     1      -9.878   7.416  71.316  1.00  0.00    -0.176 A  
HETATM   23  C   UNL     1     -10.204   9.524  68.316  1.00  0.00    -0.225 A  
HETATM   24  N   UNL     1      -8.578   7.082  71.496  1.00  0.00    -0.117 NA 
HETATM   25  C   UNL     1      -8.161   6.931  72.774  1.00  0.00    -0.108 A  
HETATM   26  C   UNL     1      -8.973   7.101  73.883  1.00  0.00    -0.237 A  
HETATM   27  C   UNL     1     -10.303   7.441  73.678  1.00  0.00    -0.367 A  
ENDBRANCH   3   4
ENDBRANCH   2   3
TORSDOF 2
ENDMDL
MODEL       28
REMARK 921   NORMALIZED FREE ENERGY PREDICTED BY IDOCK:   -5.86 KCAL/MOL
REMARK 922        TOTAL FREE ENERGY PREDICTED BY IDOCK:   -6.66 KCAL/MOL
REMARK 923 INTER-LIGAND FREE ENERGY PREDICTED BY IDOCK:   -6.53 KCAL/MOL
REMARK 924 INTRA-LIGAND FREE ENERGY PREDICTED BY IDOCK:   -0.13 KCAL/MOL
REMARK 927      BINDING AFFINITY PREDICTED BY RF-SCORE:    0.00 PKD
ROOT
HETATM    1  C   UNL     1      -8.909   4.794  64.189  1.00  0.00    -0.122 C  
HETATM    2  C   UNL     1      -8.044   5.939  63.699  1.00  0.00    -0.094 C  
ENDROOT
BRANCH   2   3
HETATM    3  O   UNL     1      -7.685   6.828  64.769  1.00  0.00    -0.097 OA 
BRANCH   3   4
HETATM    4  C   UNL     1      -8.222   8.078  64.713  1.00  0.00    -0.121 C  
HETATM    5  O   UNL     1      -8.501   8.646  63.662  1.00  0.00    -0.156 OA 
HETATM    6  N   UNL     1      -8.476   8.613  65.962  1.00  0.00    -0.133 N  
HETATM    7  C   UNL     1      -9.139   9.911  66.070  1.00  0.00    -0.158 C  
HETATM    8  C   UNL     1     -10.400   9.807  66.937  1.00  0.00    -0.301 C  
HETATM    9  C   UNL     1     -10.045   9.267  68.322  1.00  0.00    -0.214 C  
HETATM   10  C   UNL     1     -10.258   9.908  69.509  1.00  0.00    -0.243 C  
HETATM   11  C   UNL     1      -9.406   7.884  68.158  1.00  0.00    -0.146 C  
HETATM   12  C   UNL     1     -10.827  11.295  69.564  1.00  0.00    -0.207 A  
HETATM   13  C   UNL     1      -8.169   7.951  67.237  1.00  0.00    -0.122 C  
HETATM   14  C   UNL     1     -11.934  11.656  70.366  1.00  0.00    -0.448 A  
HETATM   15  C   UNL     1     -12.374  13.001  70.352  1.00  0.00    -0.351 A  
HETATM   16  C   UNL     1     -12.676  10.748  71.330  1.00  0.00    -0.544 C  
HETATM   17  C   UNL     1     -12.474   9.236  71.231  1.00  0.00    -0.389 C  
HETATM   18  C   UNL     1     -11.740  13.966  69.572  1.00  0.00    -0.313 A  
HETATM   19  C   UNL     1     -10.627  13.625  68.821  1.00  0.00    -0.247 A  
HETATM   20 CL   UNL     1     -12.320  15.583  69.567  1.00  0.00    -0.265 Cl 
HETATM   21  C   UNL     1     -11.073   8.850  71.611  1.00  0.00    -0.420 A  
HETATM   22  C   UNL     1      -9.999   9.184  70.780  1.00  0.00    -0.269 A  
HETATM   23  C   UNL     1     -10.163  12.309  68.842  1.00  0.00    -0.041 A  
HETATM   24  N   UNL     1      -8.709   8.907  71.085  1.00  0.00    -0.207 NA 
HETATM   25  C   UNL     1      -8.485   8.276  72.260  1.00  0.00    -0.187 A  
HETATM   26  C   UNL     1      -9.481   7.909  73.149  1.00  0.00    -0.344 A  
HETATM   27  C   UNL     1     -10.797   8.200  72.818  1.00  0.00    -0.390 A  
ENDBRANCH   3   4
ENDBRANCH   2   3
TORSDOF 2
ENDMDL
MODEL       29
REMARK 921   NORMALIZED FREE ENERGY PREDICTED BY IDOCK:   -5.75 KCAL/MOL
REMARK 922        TOTAL FREE ENERGY PREDICTED BY IDOCK:   -6.54 KCAL/MOL
REMARK 923 INTER-LIGAND FREE ENERGY PREDICTED BY IDOCK:   -6.47 KCAL/MOL
REMARK 924 INTRA-LIGAND FREE ENERGY PREDICTED BY IDOCK:   -0.08 KCAL/MOL
REMARK 927      BINDING AFFINITY PREDICTED BY RF-SCORE:    0.00 PKD
ROOT
HETATM    1  C   UNL     1     -10.328  19.369  68.092  1.00  0.00    -0.525 C  
HETATM    2  C   UNL     1     -10.160  18.014  68.752  1.00  0.00    -0.381 C  
ENDROOT
BRANCH   2   3
HETATM    3  O   UNL     1     -10.763  16.968  67.974  1.00  0.00    -0.357 OA 
BRANCH   3   4
HETATM    4  C   UNL     1     -11.333  15.952  68.678  1.00  0.00    -0.376 C  
HETATM    5  O   UNL     1     -12.389  16.065  69.291  1.00  0.00    -0.128 OA 
HETATM    6  N   UNL     1     -10.630  14.765  68.580  1.00  0.00    -0.247 N  
HETATM    7  C   UNL     1     -11.164  13.556  69.204  1.00  0.00    -0.260 C  
HETATM    8  C   UNL     1     -11.297  12.426  68.174  1.00  0.00    -0.341 C  
HETATM    9  C   UNL     1      -9.944  12.143  67.523  1.00  0.00    -0.202 C  
HETATM   10  C   UNL     1      -9.278  10.951  67.549  1.00  0.00    -0.153 C  
HETATM   11  C   UNL     1      -9.455  13.424  66.836  1.00  0.00    -0.253 C  
HETATM   12  C   UNL     1      -9.805   9.771  68.309  1.00  0.00    -0.167 A  
HETATM   13  C   UNL     1      -9.372  14.593  67.840  1.00  0.00    -0.198 C  
HETATM   14  C   UNL     1      -9.959   8.483  67.747  1.00  0.00    -0.241 A  
HETATM   15  C   UNL     1     -10.450   7.438  68.566  1.00  0.00    -0.215 A  
HETATM   16  C   UNL     1      -9.569   8.066  66.340  1.00  0.00    -0.267 C  
HETATM   17  C   UNL     1      -9.290   9.148  65.296  1.00  0.00    -0.224 C  
HETATM   18  C   UNL     1     -10.778   7.654  69.902  1.00  0.00    -0.249 A  
HETATM   19  C   UNL     1     -10.586   8.904  70.468  1.00  0.00    -0.262 A  
HETATM   20 CL   UNL     1     -11.392   6.363  70.856  1.00  0.00    -0.379 Cl 
HETATM   21  C   UNL     1      -8.052   9.926  65.638  1.00  0.00    -0.128 A  
HETATM   22  C   UNL     1      -8.045  10.794  66.735  1.00  0.00    -0.137 A  
HETATM   23  C   UNL     1     -10.078   9.940  69.683  1.00  0.00    -0.254 A  
HETATM   24  N   UNL     1      -6.951  11.489  67.126  1.00  0.00    -0.127 NA 
HETATM   25  C   UNL     1      -5.826  11.311  66.396  1.00  0.00    -0.136 A  
HETATM   26  C   UNL     1      -5.735  10.472  65.298  1.00  0.00    -0.141 A  
HETATM   27  C   UNL     1      -6.868   9.769  64.912  1.00  0.00    -0.117 A  
ENDBRANCH   3   4
ENDBRANCH   2   3
TORSDOF 2
ENDMDL
MODEL       30
REMARK 921   NORMALIZED FREE ENERGY PREDICTED BY IDOCK:   -5.72 KCAL/MOL
REMARK 922        TOTAL FREE ENERGY PREDICTED BY IDOCK:   -6.50 KCAL/MOL
REMARK 923 INTER-LIGAND FREE ENERGY PREDICTED BY IDOCK:   -6.27 KCAL/MOL
REMARK 924 INTRA-LIGAND FREE ENERGY PREDICTED BY IDOCK:   -0.23 KCAL/MOL
REMARK 927      BINDING AFFINITY PREDICTED BY RF-SCORE:    0.00 PKD
ROOT
HETATM    1  C   UNL     1     -12.157  12.670  63.628  1.00  0.00    -0.632 C  
HETATM    2  C   UNL     1     -11.604  13.917  64.291  1.00  0.00    -0.355 C  
ENDROOT
BRANCH   2   3
HETATM    3  O   UNL     1     -10.270  13.709  64.781  1.00  0.00    -0.392 OA 
BRANCH   3   4
HETATM    4  C   UNL     1     -10.137  13.610  66.132  1.00  0.00    -0.306 C  
HETATM    5  O   UNL     1     -10.401  14.525  66.905  1.00  0.00    -0.261 OA 
HETATM    6  N   UNL     1      -9.733  12.353  66.544  1.00  0.00    -0.235 N  
HETATM    7  C   UNL     1      -9.636  12.059  67.972  1.00  0.00    -0.199 C  
HETATM    8  C   UNL     1     -10.484  10.833  68.334  1.00  0.00    -0.207 C  
HETATM    9  C   UNL     1     -10.047   9.626  67.505  1.00  0.00    -0.247 C  
HETATM   10  C   UNL     1      -9.578   8.443  68.001  1.00  0.00    -0.168 C  
HETATM   11  C   UNL     1     -10.222   9.964  66.020  1.00  0.00    -0.269 C  
HETATM   12  C   UNL     1      -9.375   8.230  69.471  1.00  0.00    -0.158 A  
HETATM   13  C   UNL     1      -9.427  11.232  65.645  1.00  0.00    -0.229 C  
HETATM   14  C   UNL     1      -9.893   7.123  70.181  1.00  0.00    -0.180 A  
HETATM   15  C   UNL     1      -9.622   7.016  71.566  1.00  0.00    -0.159 A  
HETATM   16  C   UNL     1     -10.665   5.958  69.586  1.00  0.00    -0.415 C  
HETATM   17  C   UNL     1     -11.245   6.093  68.178  1.00  0.00    -0.166 C  
HETATM   18  C   UNL     1      -8.860   7.972  72.234  1.00  0.00    -0.166 A  
HETATM   19  C   UNL     1      -8.314   9.034  71.533  1.00  0.00    -0.070 A  
HETATM   20 CL   UNL     1      -8.574   7.816  73.922  1.00  0.00    -0.287 Cl 
HETATM   21  C   UNL     1     -10.155   6.175  67.148  1.00  0.00    -0.210 A  
HETATM   22  C   UNL     1      -9.342   7.311  67.069  1.00  0.00    -0.148 A  
HETATM   23  C   UNL     1      -8.549   9.142  70.161  1.00  0.00    -0.195 A  
HETATM   24  N   UNL     1      -8.314   7.429  66.196  1.00  0.00    -0.132 NA 
HETATM   25  C   UNL     1      -8.090   6.378  65.375  1.00  0.00    -0.128 A  
HETATM   26  C   UNL     1      -8.837   5.211  65.382  1.00  0.00    -0.153 A  
HETATM   27  C   UNL     1      -9.887   5.109  66.283  1.00  0.00    -0.209 A  
ENDBRANCH   3   4
ENDBRANCH   2   3
TORSDOF 2
ENDMDL
MODEL       31
REMARK 921   NORMALIZED FREE ENERGY PREDICTED BY IDOCK:   -5.71 KCAL/MOL
REMARK 922        TOTAL FREE ENERGY PREDICTED BY IDOCK:   -6.49 KCAL/MOL
REMARK 923 INTER-LIGAND FREE ENERGY PREDICTED BY IDOCK:   -6.40 KCAL/MOL
REMARK 924 INTRA-LIGAND FREE ENERGY PREDICTED BY IDOCK:   -0.09 KCAL/MOL
REMARK 927      BINDING AFFINITY PREDICTED BY RF-SCORE:    0.00 PKD
ROOT
HETATM    1  C   UNL     1      -6.828   5.713  62.438  1.00  0.00    -0.032 C  
HETATM    2  C   UNL     1      -6.795   7.064  63.125  1.00  0.00    -0.056 C  
ENDROOT
BRANCH   2   3
HETATM    3  O   UNL     1      -8.088   7.436  63.626  1.00  0.00    -0.107 OA 
BRANCH   3   4
HETATM    4  C   UNL     1      -8.387   8.763  63.584  1.00  0.00    -0.143 C  
HETATM    5  O   UNL     1      -8.561   9.383  62.540  1.00  0.00    -0.182 OA 
HETATM    6  N   UNL     1      -8.534   9.324  64.840  1.00  0.00    -0.157 N  
HETATM    7  C   UNL     1      -8.948  10.720  64.963  1.00  0.00    -0.194 C  
HETATM    8  C   UNL     1     -10.204  10.840  65.835  1.00  0.00    -0.319 C  
HETATM    9  C   UNL     1      -9.949  10.231  67.213  1.00  0.00    -0.233 C  
HETATM   10  C   UNL     1     -10.038  10.889  68.407  1.00  0.00    -0.196 C  
HETATM   11  C   UNL     1      -9.575   8.756  67.034  1.00  0.00    -0.236 C  
HETATM   12  C   UNL     1     -10.343  12.356  68.478  1.00  0.00    -0.232 A  
HETATM   13  C   UNL     1      -8.350   8.604  66.108  1.00  0.00    -0.125 C  
HETATM   14  C   UNL     1     -11.362  12.906  69.288  1.00  0.00    -0.303 A  
HETATM   15  C   UNL     1     -11.548  14.309  69.288  1.00  0.00    -0.350 A  
HETATM   16  C   UNL     1     -12.255  12.139  70.248  1.00  0.00    -0.344 C  
HETATM   17  C   UNL     1     -12.334  10.617  70.134  1.00  0.00    -0.370 C  
HETATM   18  C   UNL     1     -10.750  15.148  68.515  1.00  0.00    -0.240 A  
HETATM   19  C   UNL     1      -9.721  14.617  67.754  1.00  0.00    -0.215 A  
HETATM   20 CL   UNL     1     -11.024  16.845  68.527  1.00  0.00    -0.331 Cl 
HETATM   21  C   UNL     1     -11.026   9.977  70.503  1.00  0.00    -0.392 A  
HETATM   22  C   UNL     1      -9.912  10.117  69.670  1.00  0.00    -0.232 A  
HETATM   23  C   UNL     1      -9.506  13.238  67.762  1.00  0.00    -0.208 A  
HETATM   24  N   UNL     1      -8.694   9.605  69.966  1.00  0.00    -0.218 NA 
HETATM   25  C   UNL     1      -8.585   8.932  71.134  1.00  0.00    -0.208 A  
HETATM   26  C   UNL     1      -9.629   8.745  72.025  1.00  0.00    -0.356 A  
HETATM   27  C   UNL     1     -10.871   9.276  71.703  1.00  0.00    -0.418 A  
ENDBRANCH   3   4
ENDBRANCH   2   3
TORSDOF 2
ENDMDL
MODEL       32
REMARK 921   NORMALIZED FREE ENERGY PREDICTED BY IDOCK:   -5.67 KCAL/MOL
REMARK 922        TOTAL FREE ENERGY PREDICTED BY IDOCK:   -6.45 KCAL/MOL
REMARK 923 INTER-LIGAND FREE ENERGY PREDICTED BY IDOCK:   -6.35 KCAL/MOL
REMARK 924 INTRA-LIGAND FREE ENERGY PREDICTED BY IDOCK:   -0.11 KCAL/MOL
REMARK 927      BINDING AFFINITY PREDICTED BY RF-SCORE:    0.00 PKD
ROOT
HETATM    1  C   UNL     1     -10.403  16.041  65.790  1.00  0.00    -0.398 C  
HETATM    2  C   UNL     1     -11.387  14.890  65.850  1.00  0.00    -0.306 C  
ENDROOT
BRANCH   2   3
HETATM    3  O   UNL     1     -10.861  13.781  66.597  1.00  0.00    -0.285 OA 
BRANCH   3   4
HETATM    4  C   UNL     1     -10.592  12.654  65.882  1.00  0.00    -0.273 C  
HETATM    5  O   UNL     1     -10.163  12.670  64.733  1.00  0.00    -0.302 OA 
HETATM    6  N   UNL     1     -10.793  11.494  66.608  1.00  0.00    -0.276 N  
HETATM    7  C   UNL     1     -10.458  10.202  66.011  1.00  0.00    -0.095 C  
HETATM    8  C   UNL     1      -9.479   9.429  66.904  1.00  0.00    -0.204 C  
HETATM    9  C   UNL     1     -10.075   9.239  68.298  1.00  0.00    -0.214 C  
HETATM   10  C   UNL     1     -10.319   8.041  68.907  1.00  0.00    -0.222 C  
HETATM   11  C   UNL     1     -10.355  10.620  68.902  1.00  0.00    -0.225 C  
HETATM   12  C   UNL     1     -10.076   6.737  68.207  1.00  0.00    -0.173 A  
HETATM   13  C   UNL     1     -11.289  11.443  67.990  1.00  0.00    -0.303 C  
HETATM   14  C   UNL     1      -9.319   5.680  68.760  1.00  0.00    -0.145 A  
HETATM   15  C   UNL     1      -9.171   4.486  68.015  1.00  0.00    -0.166 A  
HETATM   16  C   UNL     1      -8.693   5.654  70.144  1.00  0.00    -0.140 C  
HETATM   17  C   UNL     1      -8.554   6.964  70.920  1.00  0.00    -0.136 C  
HETATM   18  C   UNL     1      -9.755   4.336  66.759  1.00  0.00    -0.219 A  
HETATM   19  C   UNL     1     -10.535   5.353  66.234  1.00  0.00    -0.277 A  
HETATM   20 CL   UNL     1      -9.532   2.878  65.877  1.00  0.00    -0.045 Cl 
HETATM   21  C   UNL     1      -9.898   7.513  71.304  1.00  0.00    -0.188 A  
HETATM   22  C   UNL     1     -10.756   8.027  70.327  1.00  0.00    -0.239 A  
HETATM   23  C   UNL     1     -10.714   6.527  66.966  1.00  0.00    -0.434 A  
HETATM   24  N   UNL     1     -11.998   8.493  70.599  1.00  0.00    -0.120 NA 
HETATM   25  C   UNL     1     -12.395   8.445  71.891  1.00  0.00    -0.347 A  
HETATM   26  C   UNL     1     -11.619   7.951  72.926  1.00  0.00    -0.303 A  
HETATM   27  C   UNL     1     -10.349   7.478  72.627  1.00  0.00    -0.311 A  
ENDBRANCH   3   4
ENDBRANCH   2   3
TORSDOF 2
ENDMDL
MODEL       33
REMARK 921   NORMALIZED FREE ENERGY PREDICTED BY IDOCK:   -5.63 KCAL/MOL
REMARK 922        TOTAL FREE ENERGY PREDICTED BY IDOCK:   -6.41 KCAL/MOL
REMARK 923 INTER-LIGAND FREE ENERGY PREDICTED BY IDOCK:   -6.19 KCAL/MOL
REMARK 924 INTRA-LIGAND FREE ENERGY PREDICTED BY IDOCK:   -0.21 KCAL/MOL
REMARK 927      BINDING AFFINITY PREDICTED BY RF-SCORE:    0.00 PKD
ROOT
HETATM    1  C   UNL     1     -12.239  12.048  64.116  1.00  0.00    -0.459 C  
HETATM    2  C   UNL     1     -12.450  13.184  65.098  1.00  0.00    -0.483 C  
ENDROOT
BRANCH   2   3
HETATM    3  O   UNL     1     -11.304  13.374  65.943  1.00  0.00    -0.303 OA 
BRANCH   3   4
HETATM    4  C   UNL     1     -11.473  13.065  67.258  1.00  0.00    -0.332 C  
HETATM    5  O   UNL     1     -12.214  13.691  68.008  1.00  0.00    -0.323 OA 
HETATM    6  N   UNL     1     -10.770  11.938  67.642  1.00  0.00    -0.208 N  
HETATM    7  C   UNL     1     -10.922  11.421  69.001  1.00  0.00    -0.236 C  
HETATM    8  C   UNL     1     -11.353   9.949  68.978  1.00  0.00    -0.073 C  
HETATM    9  C   UNL     1     -10.340   9.115  68.195  1.00  0.00    -0.263 C  
HETATM   10  C   UNL     1      -9.624   8.061  68.685  1.00  0.00    -0.150 C  
HETATM   11  C   UNL     1     -10.261   9.660  66.765  1.00  0.00    -0.308 C  
HETATM   12  C   UNL     1      -9.718   7.644  70.123  1.00  0.00    -0.179 A  
HETATM   13  C   UNL     1      -9.889  11.157  66.763  1.00  0.00    -0.200 C  
HETATM   14  C   UNL     1      -9.974   6.318  70.539  1.00  0.00    -0.221 A  
HETATM   15  C   UNL     1     -10.023   6.038  71.926  1.00  0.00    -0.195 A  
HETATM   16  C   UNL     1     -10.128   5.108  69.634  1.00  0.00    -0.332 C  
HETATM   17  C   UNL     1     -10.364   5.325  68.139  1.00  0.00    -0.181 C  
HETATM   18  C   UNL     1      -9.823   7.035  72.877  1.00  0.00    -0.177 A  
HETATM   19  C   UNL     1      -9.527   8.326  72.473  1.00  0.00    -0.356 A  
HETATM   20 CL   UNL     1      -9.913   6.656  74.551  1.00  0.00    -0.356 Cl 
HETATM   21  C   UNL     1      -9.157   5.931  67.481  1.00  0.00    -0.106 A  
HETATM   22  C   UNL     1      -8.794   7.254  67.754  1.00  0.00    -0.124 A  
HETATM   23  C   UNL     1      -9.449   8.616  71.110  1.00  0.00    -0.274 A  
HETATM   24  N   UNL     1      -7.693   7.845  67.232  1.00  0.00    -0.103 NA 
HETATM   25  C   UNL     1      -6.930   7.089  66.410  1.00  0.00    -0.069 A  
HETATM   26  C   UNL     1      -7.205   5.771  66.085  1.00  0.00    -0.076 A  
HETATM   27  C   UNL     1      -8.338   5.183  66.630  1.00  0.00    -0.108 A  
ENDBRANCH   3   4
ENDBRANCH   2   3
TORSDOF 2
ENDMDL
MODEL       34
REMARK 921   NORMALIZED FREE ENERGY PREDICTED BY IDOCK:   -5.60 KCAL/MOL
REMARK 922        TOTAL FREE ENERGY PREDICTED BY IDOCK:   -6.37 KCAL/MOL
REMARK 923 INTER-LIGAND FREE ENERGY PREDICTED BY IDOCK:   -6.83 KCAL/MOL
REMARK 924 INTRA-LIGAND FREE ENERGY PREDICTED BY IDOCK:    0.46 KCAL/MOL
REMARK 927      BINDING AFFINITY PREDICTED BY RF-SCORE:    0.00 PKD
ROOT
HETATM    1  C   UNL     1     -12.452  14.944  73.930  1.00  0.00    -0.561 C  
HETATM    2  C   UNL     1     -13.475  15.611  73.032  1.00  0.00    -0.562 C  
ENDROOT
BRANCH   2   3
HETATM    3  O   UNL     1     -14.197  14.650  72.245  1.00  0.00    -0.463 OA 
BRANCH   3   4
HETATM    4  C   UNL     1     -13.666  13.398  72.197  1.00  0.00    -0.552 C  
HETATM    5  O   UNL     1     -14.001  12.493  72.954  1.00  0.00    -0.044 OA 
HETATM    6  N   UNL     1     -12.755  13.236  71.169  1.00  0.00    -0.352 N  
HETATM    7  C   UNL     1     -12.166  11.921  70.926  1.00  0.00    -0.249 C  
HETATM    8  C   UNL     1     -12.401  11.479  69.476  1.00  0.00    -0.190 C  
HETATM    9  C   UNL     1     -11.825  12.513  68.510  1.00  0.00    -0.341 C  
HETATM   10  C   UNL     1     -10.858  12.281  67.574  1.00  0.00    -0.271 C  
HETATM   11  C   UNL     1     -12.515  13.858  68.766  1.00  0.00     0.173 C  
HETATM   12  C   UNL     1     -10.191  10.944  67.445  1.00  0.00    -0.236 A  
HETATM   13  C   UNL     1     -12.345  14.295  70.236  1.00  0.00    -0.354 C  
HETATM   14  C   UNL     1     -10.074  10.242  66.224  1.00  0.00    -0.300 A  
HETATM   15  C   UNL     1      -9.407   8.993  66.218  1.00  0.00    -0.284 A  
HETATM   16  C   UNL     1     -10.530  10.732  64.860  1.00  0.00    -0.324 C  
HETATM   17  C   UNL     1     -11.490  11.918  64.781  1.00  0.00    -0.323 C  
HETATM   18  C   UNL     1      -8.867   8.452  67.383  1.00  0.00    -0.134 A  
HETATM   19  C   UNL     1      -8.941   9.158  68.572  1.00  0.00    -0.133 A  
HETATM   20 CL   UNL     1      -8.084   6.923  67.337  1.00  0.00    -0.114 Cl 
HETATM   21  C   UNL     1     -10.831  13.183  65.253  1.00  0.00    -0.314 A  
HETATM   22  C   UNL     1     -10.517  13.354  66.605  1.00  0.00    -0.280 A  
HETATM   23  C   UNL     1      -9.572  10.403  68.591  1.00  0.00    -0.166 A  
HETATM   24  N   UNL     1      -9.881  14.447  67.087  1.00  0.00    -0.249 NA 
HETATM   25  C   UNL     1      -9.548  15.402  66.189  1.00  0.00    -0.329 A  
HETATM   26  C   UNL     1      -9.812  15.321  64.832  1.00  0.00     0.156 A  
HETATM   27  C   UNL     1     -10.465  14.192  64.357  1.00  0.00    -0.034 A  
ENDBRANCH   3   4
ENDBRANCH   2   3
TORSDOF 2
ENDMDL
MODEL       35
REMARK 921   NORMALIZED FREE ENERGY PREDICTED BY IDOCK:   -5.54 KCAL/MOL
REMARK 922        TOTAL FREE ENERGY PREDICTED BY IDOCK:   -6.31 KCAL/MOL
REMARK 923 INTER-LIGAND FREE ENERGY PREDICTED BY IDOCK:   -6.24 KCAL/MOL
REMARK 924 INTRA-LIGAND FREE ENERGY PREDICTED BY IDOCK:   -0.07 KCAL/MOL
REMARK 927      BINDING AFFINITY PREDICTED BY RF-SCORE:    0.00 PKD
ROOT
HETATM    1  C   UNL     1     -12.095  14.437  66.811  1.00  0.00    -0.393 C  
HETATM    2  C   UNL     1     -10.705  14.156  67.348  1.00  0.00    -0.284 C  
ENDROOT
BRANCH   2   3
HETATM    3  O   UNL     1     -10.586  12.808  67.828  1.00  0.00    -0.215 OA 
BRANCH   3   4
HETATM    4  C   UNL     1     -10.315  11.860  66.890  1.00  0.00    -0.210 C  
HETATM    5  O   UNL     1      -9.850  12.119  65.784  1.00  0.00    -0.243 OA 
HETATM    6  N   UNL     1     -10.559  10.574  67.334  1.00  0.00    -0.244 N  
HETATM    7  C   UNL     1     -10.228   9.438  66.475  1.00  0.00    -0.238 C  
HETATM    8  C   UNL     1      -9.291   8.463  67.199  1.00  0.00    -0.192 C  
HETATM    9  C   UNL     1      -9.932   7.984  68.501  1.00  0.00    -0.206 C  
HETATM   10  C   UNL     1     -10.216   6.688  68.823  1.00  0.00    -0.186 C  
HETATM   11  C   UNL     1     -10.207   9.204  69.388  1.00  0.00    -0.212 C  
HETATM   12  C   UNL     1      -9.975   5.566  67.857  1.00  0.00    -0.185 A  
HETATM   13  C   UNL     1     -11.097  10.230  68.657  1.00  0.00    -0.239 C  
HETATM   14  C   UNL     1      -9.254   4.394  68.182  1.00  0.00    -0.178 A  
HETATM   15  C   UNL     1      -9.104   3.391  67.195  1.00  0.00    -0.196 A  
HETATM   16  C   UNL     1      -8.671   4.048  69.542  1.00  0.00    -0.124 C  
HETATM   17  C   UNL     1      -8.533   5.150  70.592  1.00  0.00    -0.118 C  
HETATM   18  C   UNL     1      -9.652   3.536  65.923  1.00  0.00    -0.098 A  
HETATM   19  C   UNL     1     -10.397   4.663  65.615  1.00  0.00    -0.266 A  
HETATM   20 CL   UNL     1      -9.427   2.305  64.745  1.00  0.00    -0.116 Cl 
HETATM   21  C   UNL     1      -9.878   5.633  71.054  1.00  0.00    -0.231 A  
HETATM   22  C   UNL     1     -10.696   6.371  70.192  1.00  0.00    -0.271 A  
HETATM   23  C   UNL     1     -10.577   5.650  66.585  1.00  0.00    -0.361 A  
HETATM   24  N   UNL     1     -11.938   6.795  70.528  1.00  0.00    -0.376 NA 
HETATM   25  C   UNL     1     -12.375   6.472  71.767  1.00  0.00    -0.287 A  
HETATM   26  C   UNL     1     -11.641   5.743  72.687  1.00  0.00    -0.304 A  
HETATM   27  C   UNL     1     -10.370   5.317  72.324  1.00  0.00    -0.265 A  
ENDBRANCH   3   4
ENDBRANCH   2   3
TORSDOF 2
ENDMDL
MODEL       36
REMARK 921   NORMALIZED FREE ENERGY PREDICTED BY IDOCK:   -5.53 KCAL/MOL
REMARK 922        TOTAL FREE ENERGY PREDICTED BY IDOCK:   -6.30 KCAL/MOL
REMARK 923 INTER-LIGAND FREE ENERGY PREDICTED BY IDOCK:   -6.17 KCAL/MOL
REMARK 924 INTRA-LIGAND FREE ENERGY PREDICTED BY IDOCK:   -0.12 KCAL/MOL
REMARK 927      BINDING AFFINITY PREDICTED BY RF-SCORE:    0.00 PKD
ROOT
HETATM    1  C   UNL     1      -8.742   3.247  65.193  1.00  0.00    -0.117 C  
HETATM    2  C   UNL     1      -8.198   4.421  64.403  1.00  0.00    -0.104 C  
ENDROOT
BRANCH   2   3
HETATM    3  O   UNL     1      -7.666   5.439  65.265  1.00  0.00    -0.084 OA 
BRANCH   3   4
HETATM    4  C   UNL     1      -8.123   6.703  65.051  1.00  0.00    -0.124 C  
HETATM    5  O   UNL     1      -8.361   7.154  63.935  1.00  0.00     0.022 OA 
HETATM    6  N   UNL     1      -8.348   7.402  66.222  1.00  0.00    -0.125 N  
HETATM    7  C   UNL     1      -8.929   8.742  66.162  1.00  0.00    -0.185 C  
HETATM    8  C   UNL     1     -10.199   8.823  67.020  1.00  0.00    -0.351 C  
HETATM    9  C   UNL     1      -9.885   8.437  68.465  1.00  0.00    -0.186 C  
HETATM   10  C   UNL     1     -10.063   9.231  69.561  1.00  0.00    -0.205 C  
HETATM   11  C   UNL     1      -9.333   7.007  68.479  1.00  0.00    -0.135 C  
HETATM   12  C   UNL     1     -10.544  10.646  69.440  1.00  0.00    -0.270 A  
HETATM   13  C   UNL     1      -8.090   6.884  67.572  1.00  0.00    -0.116 C  
HETATM   14  C   UNL     1     -11.630  11.170  70.177  1.00  0.00    -0.410 A  
HETATM   15  C   UNL     1     -11.984  12.528  69.994  1.00  0.00    -0.372 A  
HETATM   16  C   UNL     1     -12.433  10.435  71.236  1.00  0.00    -0.521 C  
HETATM   17  C   UNL     1     -12.325   8.912  71.325  1.00  0.00    -0.342 C  
HETATM   18  C   UNL     1     -11.286  13.349  69.111  1.00  0.00    -0.280 A  
HETATM   19  C   UNL     1     -10.194  12.850  68.420  1.00  0.00    -0.238 A  
HETATM   20 CL   UNL     1     -11.764  14.986  68.901  1.00  0.00    -0.345 Cl 
HETATM   21  C   UNL     1     -10.953   8.490  71.767  1.00  0.00    -0.376 A  
HETATM   22  C   UNL     1      -9.856   8.652  70.914  1.00  0.00    -0.205 A  
HETATM   23  C   UNL     1      -9.814  11.521  68.608  1.00  0.00    -0.184 A  
HETATM   24  N   UNL     1      -8.588   8.336  71.267  1.00  0.00    -0.135 NA 
HETATM   25  C   UNL     1      -8.410   7.841  72.513  1.00  0.00    -0.129 A  
HETATM   26  C   UNL     1      -9.431   7.648  73.428  1.00  0.00    -0.330 A  
HETATM   27  C   UNL     1     -10.725   7.978  73.047  1.00  0.00    -0.325 A  
ENDBRANCH   3   4
ENDBRANCH   2   3
TORSDOF 2
ENDMDL
MODEL       37
REMARK 921   NORMALIZED FREE ENERGY PREDICTED BY IDOCK:   -5.34 KCAL/MOL
REMARK 922        TOTAL FREE ENERGY PREDICTED BY IDOCK:   -6.08 KCAL/MOL
REMARK 923 INTER-LIGAND FREE ENERGY PREDICTED BY IDOCK:   -5.81 KCAL/MOL
REMARK 924 INTRA-LIGAND FREE ENERGY PREDICTED BY IDOCK:   -0.27 KCAL/MOL
REMARK 927      BINDING AFFINITY PREDICTED BY RF-SCORE:    0.00 PKD
ROOT
HETATM    1  C   UNL     1     -12.085  13.079  63.533  1.00  0.00    -0.617 C  
HETATM    2  C   UNL     1     -12.035  14.380  64.309  1.00  0.00    -0.410 C  
ENDROOT
BRANCH   2   3
HETATM    3  O   UNL     1     -10.954  14.391  65.255  1.00  0.00    -0.314 OA 
BRANCH   3   4
HETATM    4  C   UNL     1     -11.240  13.909  66.495  1.00  0.00    -0.321 C  
HETATM    5  O   UNL     1     -12.126  14.367  67.210  1.00  0.00    -0.406 OA 
HETATM    6  N   UNL     1     -10.472  12.811  66.839  1.00  0.00    -0.240 N  
HETATM    7  C   UNL     1     -10.724  12.120  68.101  1.00  0.00    -0.211 C  
HETATM    8  C   UNL     1     -10.993  10.629  67.861  1.00  0.00    -0.351 C  
HETATM    9  C   UNL     1      -9.813   9.993  67.126  1.00  0.00    -0.231 C  
HETATM   10  C   UNL     1      -9.051   8.956  67.583  1.00  0.00    -0.144 C  
HETATM   11  C   UNL     1      -9.626  10.714  65.786  1.00  0.00    -0.258 C  
HETATM   12  C   UNL     1      -9.267   8.360  68.942  1.00  0.00    -0.147 A  
HETATM   13  C   UNL     1      -9.417  12.229  65.998  1.00  0.00    -0.189 C  
HETATM   14  C   UNL     1      -9.428   6.974  69.173  1.00  0.00    -0.143 A  
HETATM   15  C   UNL     1      -9.607   6.522  70.502  1.00  0.00    -0.180 A  
HETATM   16  C   UNL     1      -9.347   5.876  68.126  1.00  0.00    -0.117 C  
HETATM   17  C   UNL     1      -9.430   6.253  66.647  1.00  0.00    -0.178 C  
HETATM   18  C   UNL     1      -9.625   7.409  71.575  1.00  0.00    -0.151 A  
HETATM   19  C   UNL     1      -9.423   8.762  71.358  1.00  0.00    -0.330 A  
HETATM   20 CL   UNL     1      -9.868   6.821  73.172  1.00  0.00    -0.187 Cl 
HETATM   21  C   UNL     1      -8.226   7.042  66.220  1.00  0.00    -0.120 A  
HETATM   22  C   UNL     1      -8.039   8.349  66.681  1.00  0.00    -0.101 A  
HETATM   23  C   UNL     1      -9.218   9.223  70.056  1.00  0.00    -0.231 A  
HETATM   24  N   UNL     1      -6.954   9.098  66.372  1.00  0.00    -0.079 NA 
HETATM   25  C   UNL     1      -6.025   8.522  65.576  1.00  0.00    -0.045 A  
HETATM   26  C   UNL     1      -6.119   7.234  65.075  1.00  0.00    -0.038 A  
HETATM   27  C   UNL     1      -7.240   6.483  65.402  1.00  0.00    -0.073 A  
ENDBRANCH   3   4
ENDBRANCH   2   3
TORSDOF 2
ENDMDL
MODEL       38
REMARK 921   NORMALIZED FREE ENERGY PREDICTED BY IDOCK:   -5.29 KCAL/MOL
REMARK 922        TOTAL FREE ENERGY PREDICTED BY IDOCK:   -6.03 KCAL/MOL
REMARK 923 INTER-LIGAND FREE ENERGY PREDICTED BY IDOCK:   -5.78 KCAL/MOL
REMARK 924 INTRA-LIGAND FREE ENERGY PREDICTED BY IDOCK:   -0.24 KCAL/MOL
REMARK 927      BINDING AFFINITY PREDICTED BY RF-SCORE:    0.00 PKD
ROOT
HETATM    1  C   UNL     1     -10.544   7.683  73.120  1.00  0.00    -0.438 C  
HETATM    2  C   UNL     1     -10.201   6.303  72.594  1.00  0.00    -0.185 C  
ENDROOT
BRANCH   2   3
HETATM    3  O   UNL     1      -9.589   6.367  71.297  1.00  0.00    -0.169 OA 
BRANCH   3   4
HETATM    4  C   UNL     1     -10.397   6.754  70.272  1.00  0.00    -0.198 C  
HETATM    5  O   UNL     1     -11.502   6.264  70.063  1.00  0.00    -0.412 OA 
HETATM    6  N   UNL     1      -9.869   7.796  69.532  1.00  0.00    -0.176 N  
HETATM    7  C   UNL     1     -10.660   8.388  68.454  1.00  0.00    -0.105 C  
HETATM    8  C   UNL     1     -10.809   9.901  68.657  1.00  0.00    -0.244 C  
HETATM    9  C   UNL     1      -9.433  10.560  68.740  1.00  0.00    -0.181 C  
HETATM   10  C   UNL     1      -8.961  11.532  67.905  1.00  0.00    -0.159 C  
HETATM   11  C   UNL     1      -8.667   9.946  69.918  1.00  0.00    -0.225 C  
HETATM   12  C   UNL     1      -9.759  12.021  66.734  1.00  0.00    -0.218 A  
HETATM   13  C   UNL     1      -8.558   8.414  69.768  1.00  0.00    -0.132 C  
HETATM   14  C   UNL     1     -10.018  13.387  66.478  1.00  0.00    -0.286 A  
HETATM   15  C   UNL     1     -10.770  13.733  65.330  1.00  0.00    -0.345 A  
HETATM   16  C   UNL     1      -9.496  14.565  67.282  1.00  0.00    -0.218 C  
HETATM   17  C   UNL     1      -8.914  14.314  68.674  1.00  0.00    -0.154 C  
HETATM   18  C   UNL     1     -11.251  12.761  64.455  1.00  0.00    -0.333 A  
HETATM   19  C   UNL     1     -10.960  11.426  64.679  1.00  0.00    -0.324 A  
HETATM   20 CL   UNL     1     -12.179  13.223  63.084  1.00  0.00    -0.453 Cl 
HETATM   21  C   UNL     1      -7.637  13.527  68.594  1.00  0.00    -0.108 A  
HETATM   22  C   UNL     1      -7.660  12.181  68.214  1.00  0.00    -0.132 A  
HETATM   23  C   UNL     1     -10.198  11.068  65.792  1.00  0.00    -0.316 A  
HETATM   24  N   UNL     1      -6.543  11.429  68.077  1.00  0.00    -0.057 NA 
HETATM   25  C   UNL     1      -5.363  12.041  68.330  1.00  0.00    -0.051 A  
HETATM   26  C   UNL     1      -5.240  13.368  68.707  1.00  0.00    -0.072 A  
HETATM   27  C   UNL     1      -6.397  14.122  68.843  1.00  0.00    -0.091 A  
ENDBRANCH   3   4
ENDBRANCH   2   3
TORSDOF 2
ENDMDL
MODEL       39
REMARK 921   NORMALIZED FREE ENERGY PREDICTED BY IDOCK:   -5.28 KCAL/MOL
REMARK 922        TOTAL FREE ENERGY PREDICTED BY IDOCK:   -6.01 KCAL/MOL
REMARK 923 INTER-LIGAND FREE ENERGY PREDICTED BY IDOCK:   -5.92 KCAL/MOL
REMARK 924 INTRA-LIGAND FREE ENERGY PREDICTED BY IDOCK:   -0.09 KCAL/MOL
REMARK 927      BINDING AFFINITY PREDICTED BY RF-SCORE:    0.00 PKD
ROOT
HETATM    1  C   UNL     1     -10.435   3.730  74.452  1.00  0.00    -0.262 C  
HETATM    2  C   UNL     1     -10.384   5.203  74.097  1.00  0.00    -0.271 C  
ENDROOT
BRANCH   2   3
HETATM    3  O   UNL     1     -11.327   5.531  73.063  1.00  0.00    -0.294 OA 
BRANCH   3   4
HETATM    4  C   UNL     1     -11.336   6.829  72.653  1.00  0.00    -0.222 C  
HETATM    5  O   UNL     1     -11.391   7.780  73.425  1.00  0.00    -0.287 OA 
HETATM    6  N   UNL     1     -11.216   6.963  71.282  1.00  0.00    -0.257 N  
HETATM    7  C   UNL     1     -11.116   8.297  70.693  1.00  0.00    -0.253 C  
HETATM    8  C   UNL     1      -9.851   8.419  69.833  1.00  0.00    -0.186 C  
HETATM    9  C   UNL     1      -9.850   7.348  68.743  1.00  0.00    -0.164 C  
HETATM   10  C   UNL     1      -9.813   7.577  67.397  1.00  0.00    -0.221 C  
HETATM   11  C   UNL     1      -9.898   5.970  69.412  1.00  0.00    -0.203 C  
HETATM   12  C   UNL     1      -9.839   8.967  66.834  1.00  0.00    -0.288 A  
HETATM   13  C   UNL     1     -11.130   5.845  70.333  1.00  0.00    -0.283 C  
HETATM   14  C   UNL     1      -8.905   9.445  65.887  1.00  0.00    -0.193 A  
HETATM   15  C   UNL     1      -9.038  10.772  65.411  1.00  0.00    -0.216 A  
HETATM   16  C   UNL     1      -7.788   8.642  65.244  1.00  0.00    -0.107 C  
HETATM   17  C   UNL     1      -7.381   7.306  65.868  1.00  0.00    -0.075 C  
HETATM   18  C   UNL     1     -10.063  11.604  65.853  1.00  0.00    -0.230 A  
HETATM   19  C   UNL     1     -11.006  11.124  66.747  1.00  0.00    -0.309 A  
HETATM   20 CL   UNL     1     -10.175  13.215  65.266  1.00  0.00    -0.307 Cl 
HETATM   21  C   UNL     1      -8.478   6.289  65.736  1.00  0.00    -0.148 A  
HETATM   22  C   UNL     1      -9.660   6.426  66.471  1.00  0.00    -0.145 A  
HETATM   23  C   UNL     1     -10.906   9.810  67.207  1.00  0.00    -0.247 A  
HETATM   24  N   UNL     1     -10.705   5.572  66.364  1.00  0.00    -0.256 NA 
HETATM   25  C   UNL     1     -10.564   4.546  65.494  1.00  0.00    -0.183 A  
HETATM   26  C   UNL     1      -9.436   4.330  64.720  1.00  0.00    -0.167 A  
HETATM   27  C   UNL     1      -8.375   5.217  64.845  1.00  0.00    -0.145 A  
ENDBRANCH   3   4
ENDBRANCH   2   3
TORSDOF 2
ENDMDL
MODEL       40
REMARK 921   NORMALIZED FREE ENERGY PREDICTED BY IDOCK:   -5.26 KCAL/MOL
REMARK 922        TOTAL FREE ENERGY PREDICTED BY IDOCK:   -5.99 KCAL/MOL
REMARK 923 INTER-LIGAND FREE ENERGY PREDICTED BY IDOCK:   -5.83 KCAL/MOL
REMARK 924 INTRA-LIGAND FREE ENERGY PREDICTED BY IDOCK:   -0.15 KCAL/MOL
REMARK 927      BINDING AFFINITY PREDICTED BY RF-SCORE:    0.00 PKD
ROOT
HETATM    1  C   UNL     1      -8.975   2.983  66.703  1.00  0.00    -0.169 C  
HETATM    2  C   UNL     1      -8.604   3.664  65.400  1.00  0.00    -0.112 C  
ENDROOT
BRANCH   2   3
HETATM    3  O   UNL     1      -9.346   4.879  65.207  1.00  0.00    -0.158 OA 
BRANCH   3   4
HETATM    4  C   UNL     1      -8.611   5.994  64.949  1.00  0.00    -0.002 C  
HETATM    5  O   UNL     1      -7.955   6.148  63.924  1.00  0.00    -0.113 OA 
HETATM    6  N   UNL     1      -8.729   6.959  65.933  1.00  0.00    -0.152 N  
HETATM    7  C   UNL     1      -8.074   8.254  65.756  1.00  0.00    -0.109 C  
HETATM    8  C   UNL     1      -9.088   9.398  65.881  1.00  0.00    -0.242 C  
HETATM    9  C   UNL     1      -9.793   9.332  67.236  1.00  0.00    -0.236 C  
HETATM   10  C   UNL     1      -9.787  10.310  68.189  1.00  0.00    -0.166 C  
HETATM   11  C   UNL     1     -10.510   7.982  67.347  1.00  0.00    -0.357 C  
HETATM   12  C   UNL     1      -8.996  11.572  68.017  1.00  0.00    -0.170 A  
HETATM   13  C   UNL     1      -9.520   6.813  67.162  1.00  0.00    -0.142 C  
HETATM   14  C   UNL     1      -9.540  12.866  68.182  1.00  0.00    -0.223 A  
HETATM   15  C   UNL     1      -8.693  13.987  68.013  1.00  0.00    -0.180 A  
HETATM   16  C   UNL     1     -10.960  13.193  68.613  1.00  0.00    -0.296 C  
HETATM   17  C   UNL     1     -12.023  12.096  68.560  1.00  0.00    -0.273 C  
HETATM   18  C   UNL     1      -7.346  13.839  67.692  1.00  0.00    -0.172 A  
HETATM   19  C   UNL     1      -6.799  12.572  67.574  1.00  0.00    -0.150 A  
HETATM   20 CL   UNL     1      -6.357  15.227  67.473  1.00  0.00    -0.170 Cl 
HETATM   21  C   UNL     1     -11.739  11.016  69.565  1.00  0.00    -0.400 A  
HETATM   22  C   UNL     1     -10.650  10.156  69.388  1.00  0.00    -0.237 A  
HETATM   23  C   UNL     1      -7.613  11.454  67.764  1.00  0.00    -0.105 A  
HETATM   24  N   UNL     1     -10.312   9.194  70.278  1.00  0.00    -0.200 NA 
HETATM   25  C   UNL     1     -11.087   9.086  71.381  1.00  0.00    -0.329 A  
HETATM   26  C   UNL     1     -12.181   9.893  71.645  1.00  0.00    -0.482 A  
HETATM   27  C   UNL     1     -12.513  10.874  70.720  1.00  0.00    -0.489 A  
ENDBRANCH   3   4
ENDBRANCH   2   3
TORSDOF 2
ENDMDL
MODEL       41
REMARK 921   NORMALIZED FREE ENERGY PREDICTED BY IDOCK:   -5.23 KCAL/MOL
REMARK 922        TOTAL FREE ENERGY PREDICTED BY IDOCK:   -5.96 KCAL/MOL
REMARK 923 INTER-LIGAND FREE ENERGY PREDICTED BY IDOCK:   -5.82 KCAL/MOL
REMARK 924 INTRA-LIGAND FREE ENERGY PREDICTED BY IDOCK:   -0.14 KCAL/MOL
REMARK 927      BINDING AFFINITY PREDICTED BY RF-SCORE:    0.00 PKD
ROOT
HETATM    1  C   UNL     1     -11.124   5.751  71.836  1.00  0.00    -0.308 C  
HETATM    2  C   UNL     1     -12.249   6.703  72.191  1.00  0.00    -0.228 C  
ENDROOT
BRANCH   2   3
HETATM    3  O   UNL     1     -11.791   8.063  72.261  1.00  0.00    -0.327 OA 
BRANCH   3   4
HETATM    4  C   UNL     1     -12.499   8.970  71.534  1.00  0.00    -0.331 C  
HETATM    5  O   UNL     1     -13.616   9.364  71.850  1.00  0.00    -0.393 OA 
HETATM    6  N   UNL     1     -11.803   9.445  70.437  1.00  0.00    -0.158 N  
HETATM    7  C   UNL     1     -12.391  10.495  69.609  1.00  0.00    -0.075 C  
HETATM    8  C   UNL     1     -11.444  11.697  69.501  1.00  0.00    -0.371 C  
HETATM    9  C   UNL     1     -10.095  11.257  68.935  1.00  0.00    -0.185 C  
HETATM   10  C   UNL     1      -9.518  11.725  67.789  1.00  0.00    -0.181 C  
HETATM   11  C   UNL     1      -9.495  10.199  69.868  1.00  0.00    -0.150 C  
HETATM   12  C   UNL     1     -10.216  12.712  66.901  1.00  0.00    -0.242 A  
HETATM   13  C   UNL     1     -10.458   9.006  70.042  1.00  0.00    -0.214 C  
HETATM   14  C   UNL     1      -9.625  13.915  66.451  1.00  0.00    -0.292 A  
HETATM   15  C   UNL     1     -10.373  14.763  65.601  1.00  0.00    -0.369 A  
HETATM   16  C   UNL     1      -8.203  14.372  66.725  1.00  0.00     0.080 C  
HETATM   17  C   UNL     1      -7.404  13.689  67.835  1.00  0.00    -0.148 C  
HETATM   18  C   UNL     1     -11.667  14.435  65.202  1.00  0.00    -0.372 A  
HETATM   19  C   UNL     1     -12.231  13.237  65.604  1.00  0.00    -0.514 A  
HETATM   20 CL   UNL     1     -12.549  15.505  64.186  1.00  0.00     0.030 Cl 
HETATM   21  C   UNL     1      -7.104  12.259  67.486  1.00  0.00    -0.142 A  
HETATM   22  C   UNL     1      -8.131  11.310  67.456  1.00  0.00    -0.124 A  
HETATM   23  C   UNL     1     -11.499  12.375  66.422  1.00  0.00    -0.427 A  
HETATM   24  N   UNL     1      -7.937  10.017  67.104  1.00  0.00    -0.109 NA 
HETATM   25  C   UNL     1      -6.675   9.660  66.772  1.00  0.00    -0.075 A  
HETATM   26  C   UNL     1      -5.596  10.528  66.768  1.00  0.00    -0.051 A  
HETATM   27  C   UNL     1      -5.815  11.850  67.133  1.00  0.00    -0.144 A  
ENDBRANCH   3   4
ENDBRANCH   2   3
TORSDOF 2
ENDMDL
MODEL       42
REMARK 921   NORMALIZED FREE ENERGY PREDICTED BY IDOCK:   -5.17 KCAL/MOL
REMARK 922        TOTAL FREE ENERGY PREDICTED BY IDOCK:   -5.89 KCAL/MOL
REMARK 923 INTER-LIGAND FREE ENERGY PREDICTED BY IDOCK:   -5.77 KCAL/MOL
REMARK 924 INTRA-LIGAND FREE ENERGY PREDICTED BY IDOCK:   -0.12 KCAL/MOL
REMARK 927      BINDING AFFINITY PREDICTED BY RF-SCORE:    0.00 PKD
ROOT
HETATM    1  C   UNL     1     -10.259   3.606  72.881  1.00  0.00    -0.236 C  
HETATM    2  C   UNL     1      -9.795   4.767  72.022  1.00  0.00    -0.176 C  
ENDROOT
BRANCH   2   3
HETATM    3  O   UNL     1     -10.845   5.244  71.165  1.00  0.00    -0.178 OA 
BRANCH   3   4
HETATM    4  C   UNL     1     -11.311   6.495  71.431  1.00  0.00    -0.294 C  
HETATM    5  O   UNL     1     -11.853   6.803  72.487  1.00  0.00    -0.218 OA 
HETATM    6  N   UNL     1     -11.055   7.395  70.412  1.00  0.00    -0.262 N  
HETATM    7  C   UNL     1     -11.410   8.802  70.586  1.00  0.00    -0.254 C  
HETATM    8  C   UNL     1     -10.188   9.703  70.365  1.00  0.00    -0.348 C  
HETATM    9  C   UNL     1      -9.600   9.463  68.975  1.00  0.00    -0.164 C  
HETATM   10  C   UNL     1      -9.462  10.403  67.994  1.00  0.00    -0.152 C  
HETATM   11  C   UNL     1      -9.192   7.990  68.864  1.00  0.00    -0.147 C  
HETATM   12  C   UNL     1      -9.957  11.807  68.171  1.00  0.00    -0.196 A  
HETATM   13  C   UNL     1     -10.393   7.061  69.144  1.00  0.00    -0.201 C  
HETATM   14  C   UNL     1      -9.164  12.953  67.934  1.00  0.00    -0.208 A  
HETATM   15  C   UNL     1      -9.743  14.231  68.117  1.00  0.00    -0.226 A  
HETATM   16  C   UNL     1      -7.738  12.963  67.411  1.00  0.00    -0.160 C  
HETATM   17  C   UNL     1      -6.928  11.667  67.437  1.00  0.00    -0.117 C  
HETATM   18  C   UNL     1     -11.068  14.378  68.521  1.00  0.00    -0.253 A  
HETATM   19  C   UNL     1     -11.861  13.258  68.710  1.00  0.00    -0.371 A  
HETATM   20 CL   UNL     1     -11.726  15.948  68.754  1.00  0.00    -0.394 Cl 
HETATM   21  C   UNL     1      -7.496  10.653  66.485  1.00  0.00    -0.134 A  
HETATM   22  C   UNL     1      -8.728  10.048  66.751  1.00  0.00    -0.129 A  
HETATM   23  C   UNL     1     -11.314  11.990  68.509  1.00  0.00    -0.323 A  
HETATM   24  N   UNL     1      -9.318   9.163  65.913  1.00  0.00    -0.226 NA 
HETATM   25  C   UNL     1      -8.654   8.873  64.771  1.00  0.00    -0.158 A  
HETATM   26  C   UNL     1      -7.434   9.424  64.418  1.00  0.00    -0.110 A  
HETATM   27  C   UNL     1      -6.845  10.329  65.291  1.00  0.00    -0.131 A  
ENDBRANCH   3   4
ENDBRANCH   2   3
TORSDOF 2
ENDMDL
MODEL       43
REMARK 921   NORMALIZED FREE ENERGY PREDICTED BY IDOCK:   -5.14 KCAL/MOL
REMARK 922        TOTAL FREE ENERGY PREDICTED BY IDOCK:   -5.86 KCAL/MOL
REMARK 923 INTER-LIGAND FREE ENERGY PREDICTED BY IDOCK:   -5.70 KCAL/MOL
REMARK 924 INTRA-LIGAND FREE ENERGY PREDICTED BY IDOCK:   -0.16 KCAL/MOL
REMARK 927      BINDING AFFINITY PREDICTED BY RF-SCORE:    0.00 PKD
ROOT
HETATM    1  C   UNL     1      -9.171   2.810  70.986  1.00  0.00    -0.200 C  
HETATM    2  C   UNL     1      -9.062   3.410  72.374  1.00  0.00    -0.100 C  
ENDROOT
BRANCH   2   3
HETATM    3  O   UNL     1      -8.560   4.756  72.331  1.00  0.00    -0.117 OA 
BRANCH   3   4
HETATM    4  C   UNL     1      -9.331   5.701  72.934  1.00  0.00    -0.141 C  
HETATM    5  O   UNL     1      -9.508   5.754  74.147  1.00  0.00    -0.134 OA 
HETATM    6  N   UNL     1      -9.842   6.629  72.046  1.00  0.00    -0.159 N  
HETATM    7  C   UNL     1     -10.614   7.763  72.551  1.00  0.00    -0.293 C  
HETATM    8  C   UNL     1     -10.009   9.089  72.072  1.00  0.00    -0.225 C  
HETATM    9  C   UNL     1      -9.946   9.119  70.546  1.00  0.00    -0.288 C  
HETATM   10  C   UNL     1     -10.557  10.035  69.738  1.00  0.00    -0.301 C  
HETATM   11  C   UNL     1      -9.080   7.947  70.070  1.00  0.00    -0.152 C  
HETATM   12  C   UNL     1     -11.444  11.108  70.294  1.00  0.00    -0.329 A  
HETATM   13  C   UNL     1      -9.633   6.604  70.592  1.00  0.00    -0.169 C  
HETATM   14  C   UNL     1     -11.302  12.480  69.985  1.00  0.00     0.040 A  
HETATM   15  C   UNL     1     -12.210  13.404  70.556  1.00  0.00    -0.425 A  
HETATM   16  C   UNL     1     -10.299  13.081  69.015  1.00  0.00     0.035 C  
HETATM   17  C   UNL     1      -9.111  12.235  68.557  1.00  0.00    -0.076 C  
HETATM   18  C   UNL     1     -13.232  12.988  71.405  1.00  0.00    -0.192 A  
HETATM   19  C   UNL     1     -13.402  11.640  71.674  1.00  0.00    -0.254 A  
HETATM   20 CL   UNL     1     -14.299  14.145  72.095  1.00  0.00    -0.630 Cl 
HETATM   21  C   UNL     1      -9.562  11.081  67.708  1.00  0.00    -0.180 A  
HETATM   22  C   UNL     1     -10.270  10.019  68.280  1.00  0.00    -0.173 A  
HETATM   23  C   UNL     1     -12.532  10.712  71.100  1.00  0.00    -0.523 A  
HETATM   24  N   UNL     1     -10.746   8.972  67.565  1.00  0.00    -0.235 NA 
HETATM   25  C   UNL     1     -10.505   8.987  66.234  1.00  0.00     0.097 A  
HETATM   26  C   UNL     1      -9.818   9.994  65.578  1.00  0.00    -0.373 A  
HETATM   27  C   UNL     1      -9.338  11.059  66.329  1.00  0.00    -0.206 A  
ENDBRANCH   3   4
ENDBRANCH   2   3
TORSDOF 2
ENDMDL
MODEL       44
REMARK 921   NORMALIZED FREE ENERGY PREDICTED BY IDOCK:   -5.14 KCAL/MOL
REMARK 922        TOTAL FREE ENERGY PREDICTED BY IDOCK:   -5.85 KCAL/MOL
REMARK 923 INTER-LIGAND FREE ENERGY PREDICTED BY IDOCK:   -6.56 KCAL/MOL
REMARK 924 INTRA-LIGAND FREE ENERGY PREDICTED BY IDOCK:    0.71 KCAL/MOL
REMARK 927      BINDING AFFINITY PREDICTED BY RF-SCORE:    0.00 PKD
ROOT
HETATM    1  C   UNL     1     -13.903  13.939  72.309  1.00  0.00    -0.669 C  
HETATM    2  C   UNL     1     -13.052  12.711  72.566  1.00  0.00     0.092 C  
ENDROOT
BRANCH   2   3
HETATM    3  O   UNL     1     -13.700  11.512  72.110  1.00  0.00    -0.197 OA 
BRANCH   3   4
HETATM    4  C   UNL     1     -12.878  10.483  71.764  1.00  0.00    -0.454 C  
HETATM    5  O   UNL     1     -12.917   9.380  72.299  1.00  0.00    -0.401 OA 
HETATM    6  N   UNL     1     -12.040  10.792  70.709  1.00  0.00    -0.344 N  
HETATM    7  C   UNL     1     -11.162   9.761  70.159  1.00  0.00    -0.272 C  
HETATM    8  C   UNL     1     -11.393   9.599  68.651  1.00  0.00     0.099 C  
HETATM    9  C   UNL     1     -11.171  10.932  67.937  1.00  0.00    -0.387 C  
HETATM   10  C   UNL     1     -10.253  11.169  66.954  1.00  0.00    -0.260 C  
HETATM   11  C   UNL     1     -12.151  11.962  68.509  1.00  0.00    -0.122 C  
HETATM   12  C   UNL     1      -9.286  10.113  66.508  1.00  0.00    -0.182 A  
HETATM   13  C   UNL     1     -11.982  12.097  70.037  1.00  0.00    -0.315 C  
HETATM   14  C   UNL     1      -9.093   9.749  65.156  1.00  0.00    -0.270 A  
HETATM   15  C   UNL     1      -8.138   8.749  64.850  1.00  0.00    -0.147 A  
HETATM   16  C   UNL     1      -9.762  10.387  63.951  1.00  0.00    -0.367 C  
HETATM   17  C   UNL     1     -10.992  11.270  64.166  1.00  0.00    -0.376 C  
HETATM   18  C   UNL     1      -7.391   8.128  65.848  1.00  0.00    -0.076 A  
HETATM   19  C   UNL     1      -7.545   8.515  67.169  1.00  0.00    -0.096 A  
HETATM   20 CL   UNL     1      -6.258   6.904  65.436  1.00  0.00    -0.036 Cl 
HETATM   21  C   UNL     1     -10.633  12.529  64.903  1.00  0.00    -0.330 A  
HETATM   22  C   UNL     1     -10.267  12.478  66.251  1.00  0.00    -0.248 A  
HETATM   23  C   UNL     1      -8.463   9.517  67.487  1.00  0.00    -0.126 A  
HETATM   24  N   UNL     1      -9.888  13.567  66.960  1.00  0.00    -0.244 NA 
HETATM   25  C   UNL     1      -9.875  14.747  66.300  1.00  0.00    -0.296 A  
HETATM   26  C   UNL     1     -10.216  14.897  64.966  1.00  0.00    -0.365 A  
HETATM   27  C   UNL     1     -10.603  13.768  64.256  1.00  0.00    -0.172 A  
ENDBRANCH   3   4
ENDBRANCH   2   3
TORSDOF 2
ENDMDL
MODEL       45
REMARK 921   NORMALIZED FREE ENERGY PREDICTED BY IDOCK:   -5.11 KCAL/MOL
REMARK 922        TOTAL FREE ENERGY PREDICTED BY IDOCK:   -5.82 KCAL/MOL
REMARK 923 INTER-LIGAND FREE ENERGY PREDICTED BY IDOCK:   -5.64 KCAL/MOL
REMARK 924 INTRA-LIGAND FREE ENERGY PREDICTED BY IDOCK:   -0.18 KCAL/MOL
REMARK 927      BINDING AFFINITY PREDICTED BY RF-SCORE:    0.00 PKD
ROOT
HETATM    1  C   UNL     1     -11.027   6.415  68.531  1.00  0.00    -0.396 C  
HETATM    2  C   UNL     1     -10.627   6.588  67.079  1.00  0.00    -0.332 C  
ENDROOT
BRANCH   2   3
HETATM    3  O   UNL     1     -10.868   7.928  66.619  1.00  0.00    -0.126 OA 
BRANCH   3   4
HETATM    4  C   UNL     1      -9.771   8.725  66.499  1.00  0.00    -0.259 C  
HETATM    5  O   UNL     1      -8.855   8.500  65.715  1.00  0.00    -0.175 OA 
HETATM    6  N   UNL     1      -9.826   9.844  67.310  1.00  0.00    -0.174 N  
HETATM    7  C   UNL     1      -8.767  10.847  67.227  1.00  0.00    -0.131 C  
HETATM    8  C   UNL     1      -9.352  12.235  66.934  1.00  0.00    -0.210 C  
HETATM    9  C   UNL     1     -10.371  12.615  68.008  1.00  0.00    -0.231 C  
HETATM   10  C   UNL     1     -10.301  13.705  68.827  1.00  0.00    -0.182 C  
HETATM   11  C   UNL     1     -11.488  11.565  68.015  1.00  0.00    -0.381 C  
HETATM   12  C   UNL     1      -9.129  14.641  68.794  1.00  0.00    -0.178 A  
HETATM   13  C   UNL     1     -10.916  10.150  68.246  1.00  0.00    -0.248 C  
HETATM   14  C   UNL     1      -9.250  16.043  68.669  1.00  0.00    -0.216 A  
HETATM   15  C   UNL     1      -8.074  16.830  68.667  1.00  0.00    -0.251 A  
HETATM   16  C   UNL     1     -10.548  16.830  68.614  1.00  0.00    -0.353 C  
HETATM   17  C   UNL     1     -11.855  16.087  68.336  1.00  0.00    -0.068 C  
HETATM   18  C   UNL     1      -6.812  16.252  68.789  1.00  0.00    -0.151 A  
HETATM   19  C   UNL     1      -6.693  14.883  68.957  1.00  0.00    -0.117 A  
HETATM   20 CL   UNL     1      -5.408  17.242  68.759  1.00  0.00    -0.145 Cl 
HETATM   21  C   UNL     1     -12.210  15.169  69.471  1.00  0.00    -0.268 A  
HETATM   22  C   UNL     1     -11.451  14.020  69.713  1.00  0.00    -0.230 A  
HETATM   23  C   UNL     1      -7.843  14.094  68.987  1.00  0.00    -0.010 A  
HETATM   24  N   UNL     1     -11.688  13.177  70.746  1.00  0.00     0.113 NA 
HETATM   25  C   UNL     1     -12.718  13.493  71.564  1.00  0.00    -0.322 A  
HETATM   26  C   UNL     1     -13.522  14.610  71.408  1.00  0.00    -0.462 A  
HETATM   27  C   UNL     1     -13.264  15.461  70.342  1.00  0.00    -0.139 A  
ENDBRANCH   3   4
ENDBRANCH   2   3
TORSDOF 2
ENDMDL
MODEL       46
REMARK 921   NORMALIZED FREE ENERGY PREDICTED BY IDOCK:   -5.08 KCAL/MOL
REMARK 922        TOTAL FREE ENERGY PREDICTED BY IDOCK:   -5.78 KCAL/MOL
REMARK 923 INTER-LIGAND FREE ENERGY PREDICTED BY IDOCK:   -5.68 KCAL/MOL
REMARK 924 INTRA-LIGAND FREE ENERGY PREDICTED BY IDOCK:   -0.11 KCAL/MOL
REMARK 927      BINDING AFFINITY PREDICTED BY RF-SCORE:    0.00 PKD
ROOT
HETATM    1  C   UNL     1     -13.093  14.980  71.056  1.00  0.00    -0.482 C  
HETATM    2  C   UNL     1     -11.944  13.995  70.969  1.00  0.00    -0.233 C  
ENDROOT
BRANCH   2   3
HETATM    3  O   UNL     1     -12.360  12.745  70.394  1.00  0.00    -0.318 OA 
BRANCH   3   4
HETATM    4  C   UNL     1     -12.488  11.702  71.260  1.00  0.00    -0.266 C  
HETATM    5  O   UNL     1     -13.333  11.662  72.147  1.00  0.00    -0.491 OA 
HETATM    6  N   UNL     1     -11.607  10.670  70.995  1.00  0.00    -0.240 N  
HETATM    7  C   UNL     1     -11.683   9.438  71.778  1.00  0.00    -0.374 C  
HETATM    8  C   UNL     1     -11.856   8.220  70.860  1.00  0.00    -0.232 C  
HETATM    9  C   UNL     1     -10.707   8.149  69.855  1.00  0.00    -0.241 C  
HETATM   10  C   UNL     1      -9.827   7.114  69.720  1.00  0.00    -0.173 C  
HETATM   11  C   UNL     1     -10.706   9.437  69.023  1.00  0.00    -0.209 C  
HETATM   12  C   UNL     1      -9.864   5.924  70.630  1.00  0.00    -0.230 A  
HETATM   13  C   UNL     1     -10.596  10.681  69.929  1.00  0.00    -0.151 C  
HETATM   14  C   UNL     1      -9.894   4.587  70.171  1.00  0.00    -0.296 A  
HETATM   15  C   UNL     1      -9.910   3.541  71.124  1.00  0.00    -0.185 A  
HETATM   16  C   UNL     1      -9.830   4.135  68.722  1.00  0.00    -0.087 C  
HETATM   17  C   UNL     1     -10.083   5.157  67.614  1.00  0.00    -0.204 C  
HETATM   18  C   UNL     1      -9.893   3.802  72.492  1.00  0.00    -0.153 A  
HETATM   19  C   UNL     1      -9.818   5.109  72.945  1.00  0.00    -0.181 A  
HETATM   20 CL   UNL     1      -9.936   2.503  73.616  1.00  0.00    -0.147 Cl 
HETATM   21  C   UNL     1      -8.990   6.187  67.565  1.00  0.00    -0.111 A  
HETATM   22  C   UNL     1      -8.862   7.129  68.590  1.00  0.00    -0.126 A  
HETATM   23  C   UNL     1      -9.776   6.153  72.019  1.00  0.00    -0.167 A  
HETATM   24  N   UNL     1      -7.872   8.053  68.631  1.00  0.00    -0.116 NA 
HETATM   25  C   UNL     1      -6.982   8.034  67.613  1.00  0.00    -0.075 A  
HETATM   26  C   UNL     1      -7.024   7.138  66.557  1.00  0.00    -0.076 A  
HETATM   27  C   UNL     1      -8.047   6.200  66.533  1.00  0.00    -0.110 A  
ENDBRANCH   3   4
ENDBRANCH   2   3
TORSDOF 2
ENDMDL
MODEL       47
REMARK 921   NORMALIZED FREE ENERGY PREDICTED BY IDOCK:   -5.01 KCAL/MOL
REMARK 922        TOTAL FREE ENERGY PREDICTED BY IDOCK:   -5.71 KCAL/MOL
REMARK 923 INTER-LIGAND FREE ENERGY PREDICTED BY IDOCK:   -5.62 KCAL/MOL
REMARK 924 INTRA-LIGAND FREE ENERGY PREDICTED BY IDOCK:   -0.09 KCAL/MOL
REMARK 927      BINDING AFFINITY PREDICTED BY RF-SCORE:    0.00 PKD
ROOT
HETATM    1  C   UNL     1     -12.107  12.977  63.518  1.00  0.00    -0.617 C  
HETATM    2  C   UNL     1     -12.156  13.203  65.017  1.00  0.00    -0.415 C  
ENDROOT
BRANCH   2   3
HETATM    3  O   UNL     1     -12.038  11.969  65.743  1.00  0.00    -0.536 OA 
BRANCH   3   4
HETATM    4  C   UNL     1     -11.517  12.061  66.997  1.00  0.00    -0.338 C  
HETATM    5  O   UNL     1     -11.776  12.978  67.769  1.00  0.00    -0.324 OA 
HETATM    6  N   UNL     1     -10.717  10.983  67.331  1.00  0.00    -0.240 N  
HETATM    7  C   UNL     1     -10.160  10.888  68.678  1.00  0.00    -0.191 C  
HETATM    8  C   UNL     1     -10.544   9.555  69.333  1.00  0.00    -0.235 C  
HETATM    9  C   UNL     1     -10.068   8.387  68.470  1.00  0.00    -0.218 C  
HETATM   10  C   UNL     1      -9.202   7.405  68.860  1.00  0.00    -0.142 C  
HETATM   11  C   UNL     1     -10.724   8.501  67.089  1.00  0.00    -0.209 C  
HETATM   12  C   UNL     1      -8.555   7.417  70.213  1.00  0.00    -0.145 A  
HETATM   13  C   UNL     1     -10.403   9.862  66.435  1.00  0.00    -0.176 C  
HETATM   14  C   UNL     1      -8.566   6.314  71.096  1.00  0.00    -0.125 A  
HETATM   15  C   UNL     1      -7.906   6.433  72.342  1.00  0.00    -0.102 A  
HETATM   16  C   UNL     1      -9.158   4.944  70.812  1.00  0.00    -0.181 C  
HETATM   17  C   UNL     1     -10.119   4.780  69.634  1.00  0.00    -0.275 C  
HETATM   18  C   UNL     1      -7.251   7.606  72.708  1.00  0.00    -0.077 A  
HETATM   19  C   UNL     1      -7.201   8.674  71.827  1.00  0.00    -0.103 A  
HETATM   20 CL   UNL     1      -6.481   7.718  74.241  1.00  0.00    -0.099 Cl 
HETATM   21  C   UNL     1      -9.411   4.982  68.324  1.00  0.00    -0.173 A  
HETATM   22  C   UNL     1      -8.960   6.253  67.954  1.00  0.00    -0.113 A  
HETATM   23  C   UNL     1      -7.823   8.565  70.583  1.00  0.00    -0.091 A  
HETATM   24  N   UNL     1      -8.275   6.494  66.811  1.00  0.00    -0.109 NA 
HETATM   25  C   UNL     1      -8.033   5.431  66.012  1.00  0.00    -0.105 A  
HETATM   26  C   UNL     1      -8.435   4.136  66.295  1.00  0.00    -0.109 A  
HETATM   27  C   UNL     1      -9.137   3.909  67.471  1.00  0.00    -0.176 A  
ENDBRANCH   3   4
ENDBRANCH   2   3
TORSDOF 2
ENDMDL
MODEL       48
REMARK 921   NORMALIZED FREE ENERGY PREDICTED BY IDOCK:   -4.93 KCAL/MOL
REMARK 922        TOTAL FREE ENERGY PREDICTED BY IDOCK:   -5.62 KCAL/MOL
REMARK 923 INTER-LIGAND FREE ENERGY PREDICTED BY IDOCK:   -5.49 KCAL/MOL
REMARK 924 INTRA-LIGAND FREE ENERGY PREDICTED BY IDOCK:   -0.13 KCAL/MOL
REMARK 927      BINDING AFFINITY PREDICTED BY RF-SCORE:    0.00 PKD
ROOT
HETATM    1  C   UNL     1     -10.282   3.169  72.962  1.00  0.00    -0.232 C  
HETATM    2  C   UNL     1     -10.604   4.478  73.655  1.00  0.00    -0.247 C  
ENDROOT
BRANCH   2   3
HETATM    3  O   UNL     1      -9.711   5.527  73.246  1.00  0.00    -0.149 OA 
BRANCH   3   4
HETATM    4  C   UNL     1     -10.276   6.749  73.046  1.00  0.00    -0.214 C  
HETATM    5  O   UNL     1     -10.714   7.447  73.954  1.00  0.00    -0.319 OA 
HETATM    6  N   UNL     1     -10.250   7.145  71.721  1.00  0.00    -0.195 N  
HETATM    7  C   UNL     1     -10.735   8.475  71.356  1.00  0.00    -0.250 C  
HETATM    8  C   UNL     1      -9.656   9.256  70.594  1.00  0.00    -0.334 C  
HETATM    9  C   UNL     1      -9.223   8.481  69.350  1.00  0.00    -0.153 C  
HETATM   10  C   UNL     1      -9.313   8.924  68.062  1.00  0.00    -0.153 C  
HETATM   11  C   UNL     1      -8.672   7.121  69.791  1.00  0.00    -0.142 C  
HETATM   12  C   UNL     1      -9.934  10.246  67.723  1.00  0.00    -0.203 A  
HETATM   13  C   UNL     1      -9.718   6.340  70.614  1.00  0.00    -0.176 C  
HETATM   14  C   UNL     1      -9.309  11.221  66.914  1.00  0.00    -0.190 A  
HETATM   15  C   UNL     1      -9.999  12.428  66.646  1.00  0.00    -0.236 A  
HETATM   16  C   UNL     1      -7.969  11.079  66.213  1.00  0.00    -0.148 C  
HETATM   17  C   UNL     1      -7.023   9.956  66.639  1.00  0.00    -0.086 C  
HETATM   18  C   UNL     1     -11.271  12.666  67.159  1.00  0.00    -0.300 A  
HETATM   19  C   UNL     1     -11.905  11.695  67.915  1.00  0.00    -0.273 A  
HETATM   20 CL   UNL     1     -12.065  14.154  66.829  1.00  0.00    -0.474 Cl 
HETATM   21  C   UNL     1      -7.590   8.609  66.291  1.00  0.00    -0.094 A  
HETATM   22  C   UNL     1      -8.704   8.113  66.975  1.00  0.00    -0.131 A  
HETATM   23  C   UNL     1     -11.251  10.488  68.168  1.00  0.00    -0.357 A  
HETATM   24  N   UNL     1      -9.292   6.930  66.679  1.00  0.00    -0.159 NA 
HETATM   25  C   UNL     1      -8.747   6.217  65.667  1.00  0.00    -0.114 A  
HETATM   26  C   UNL     1      -7.649   6.626  64.930  1.00  0.00    -0.101 A  
HETATM   27  C   UNL     1      -7.060   7.842  65.248  1.00  0.00    -0.060 A  
ENDBRANCH   3   4
ENDBRANCH   2   3
TORSDOF 2
ENDMDL
MODEL       49
REMARK 921   NORMALIZED FREE ENERGY PREDICTED BY IDOCK:   -4.80 KCAL/MOL
REMARK 922        TOTAL FREE ENERGY PREDICTED BY IDOCK:   -5.48 KCAL/MOL
REMARK 923 INTER-LIGAND FREE ENERGY PREDICTED BY IDOCK:   -5.21 KCAL/MOL
REMARK 924 INTRA-LIGAND FREE ENERGY PREDICTED BY IDOCK:   -0.27 KCAL/MOL
REMARK 927      BINDING AFFINITY PREDICTED BY RF-SCORE:    0.00 PKD
ROOT
HETATM    1  C   UNL     1      -8.310   7.619  72.429  1.00  0.00    -0.147 C  
HETATM    2  C   UNL     1      -7.445   6.559  71.775  1.00  0.00    -0.093 C  
ENDROOT
BRANCH   2   3
HETATM    3  O   UNL     1      -6.854   7.036  70.556  1.00  0.00    -0.055 OA 
BRANCH   3   4
HETATM    4  C   UNL     1      -7.647   6.993  69.450  1.00  0.00    -0.099 C  
HETATM    5  O   UNL     1      -8.137   5.957  69.011  1.00  0.00    -0.101 OA 
HETATM    6  N   UNL     1      -7.892   8.243  68.911  1.00  0.00    -0.109 N  
HETATM    7  C   UNL     1      -8.803   8.373  67.776  1.00  0.00    -0.137 C  
HETATM    8  C   UNL     1      -9.927   9.368  68.092  1.00  0.00    -0.202 C  
HETATM    9  C   UNL     1      -9.338  10.727  68.469  1.00  0.00    -0.174 C  
HETATM   10  C   UNL     1      -9.572  11.906  67.822  1.00  0.00    -0.190 C  
HETATM   11  C   UNL     1      -8.438  10.546  69.696  1.00  0.00     0.013 C  
HETATM   12  C   UNL     1     -10.415  11.972  66.583  1.00  0.00    -0.247 A  
HETATM   13  C   UNL     1      -7.335   9.502  69.424  1.00  0.00    -0.084 C  
HETATM   14  C   UNL     1     -11.495  12.869  66.417  1.00  0.00    -0.389 A  
HETATM   15  C   UNL     1     -12.210  12.855  65.196  1.00  0.00    -0.519 A  
HETATM   16  C   UNL     1     -11.934  13.936  67.406  1.00  0.00    -0.436 C  
HETATM   17  C   UNL     1     -11.425  13.868  68.846  1.00  0.00    -0.340 C  
HETATM   18  C   UNL     1     -11.870  11.982  64.165  1.00  0.00    -0.373 A  
HETATM   19  C   UNL     1     -10.785  11.133  64.307  1.00  0.00    -0.403 A  
HETATM   20 CL   UNL     1     -12.779  11.981  62.706  1.00  0.00     0.181 Cl 
HETATM   21  C   UNL     1      -9.945  14.116  68.910  1.00  0.00    -0.132 A  
HETATM   22  C   UNL     1      -9.049  13.168  68.406  1.00  0.00    -0.134 A  
HETATM   23  C   UNL     1     -10.052  11.152  65.495  1.00  0.00    -0.309 A  
HETATM   24  N   UNL     1      -7.707  13.349  68.390  1.00  0.00    -0.134 NA 
HETATM   25  C   UNL     1      -7.246  14.516  68.896  1.00  0.00    -0.125 A  
HETATM   26  C   UNL     1      -8.054  15.515  69.412  1.00  0.00    -0.241 A  
HETATM   27  C   UNL     1      -9.427  15.310  69.420  1.00  0.00    -0.231 A  
ENDBRANCH   3   4
ENDBRANCH   2   3
TORSDOF 2
ENDMDL
MODEL       50
REMARK 921   NORMALIZED FREE ENERGY PREDICTED BY IDOCK:   -4.80 KCAL/MOL
REMARK 922        TOTAL FREE ENERGY PREDICTED BY IDOCK:   -5.47 KCAL/MOL
REMARK 923 INTER-LIGAND FREE ENERGY PREDICTED BY IDOCK:   -5.38 KCAL/MOL
REMARK 924 INTRA-LIGAND FREE ENERGY PREDICTED BY IDOCK:   -0.10 KCAL/MOL
REMARK 927      BINDING AFFINITY PREDICTED BY RF-SCORE:    0.00 PKD
ROOT
HETATM    1  C   UNL     1     -11.051   6.768  72.641  1.00  0.00    -0.301 C  
HETATM    2  C   UNL     1     -11.614   8.146  72.354  1.00  0.00    -0.399 C  
ENDROOT
BRANCH   2   3
HETATM    3  O   UNL     1     -12.097   8.251  71.005  1.00  0.00    -0.288 OA 
BRANCH   3   4
HETATM    4  C   UNL     1     -12.539   9.480  70.622  1.00  0.00     0.001 C  
HETATM    5  O   UNL     1     -13.529  10.022  71.104  1.00  0.00    -0.357 OA 
HETATM    6  N   UNL     1     -11.724  10.078  69.679  1.00  0.00    -0.102 N  
HETATM    7  C   UNL     1     -12.013  11.441  69.235  1.00  0.00    -0.332 C  
HETATM    8  C   UNL     1     -10.792  12.348  69.437  1.00  0.00     0.011 C  
HETATM    9  C   UNL     1      -9.586  11.783  68.689  1.00  0.00    -0.122 C  
HETATM   10  C   UNL     1      -8.886  12.419  67.704  1.00  0.00    -0.177 C  
HETATM   11  C   UNL     1      -9.289  10.380  69.230  1.00  0.00    -0.202 C  
HETATM   12  C   UNL     1      -9.296  13.768  67.191  1.00  0.00    -0.240 A  
HETATM   13  C   UNL     1     -10.524   9.464  69.095  1.00  0.00    -0.217 C  
HETATM   14  C   UNL     1      -8.414  14.867  67.087  1.00  0.00    -0.244 A  
HETATM   15  C   UNL     1      -8.908  16.090  66.572  1.00  0.00    -0.340 A  
HETATM   16  C   UNL     1      -6.928  14.858  67.403  1.00  0.00    -0.162 C  
HETATM   17  C   UNL     1      -6.349  13.697  68.212  1.00  0.00    -0.107 C  
HETATM   18  C   UNL     1     -10.233  16.225  66.167  1.00  0.00    -0.346 A  
HETATM   19  C   UNL     1     -11.089  15.137  66.226  1.00  0.00    -0.309 A  
HETATM   20 CL   UNL     1     -10.799  17.733  65.567  1.00  0.00    -0.119 Cl 
HETATM   21  C   UNL     1      -6.410  12.412  67.437  1.00  0.00    -0.157 A  
HETATM   22  C   UNL     1      -7.641  11.798  67.184  1.00  0.00    -0.155 A  
HETATM   23  C   UNL     1     -10.612  13.917  66.707  1.00  0.00    -0.277 A  
HETATM   24  N   UNL     1      -7.770  10.665  66.453  1.00  0.00    -0.135 NA 
HETATM   25  C   UNL     1      -6.631  10.128  65.959  1.00  0.00    -0.102 A  
HETATM   26  C   UNL     1      -5.369  10.665  66.152  1.00  0.00    -0.091 A  
HETATM   27  C   UNL     1      -5.257  11.826  66.905  1.00  0.00    -0.108 A  
ENDBRANCH   3   4
ENDBRANCH   2   3
TORSDOF 2
ENDMDL
MODEL       51
REMARK 921   NORMALIZED FREE ENERGY PREDICTED BY IDOCK:   -4.76 KCAL/MOL
REMARK 922        TOTAL FREE ENERGY PREDICTED BY IDOCK:   -5.44 KCAL/MOL
REMARK 923 INTER-LIGAND FREE ENERGY PREDICTED BY IDOCK:   -5.23 KCAL/MOL
REMARK 924 INTRA-LIGAND FREE ENERGY PREDICTED BY IDOCK:   -0.20 KCAL/MOL
REMARK 927      BINDING AFFINITY PREDICTED BY RF-SCORE:    0.00 PKD
ROOT
HETATM    1  C   UNL     1      -9.560   4.962  73.057  1.00  0.00    -0.155 C  
HETATM    2  C   UNL     1     -10.683   5.857  73.543  1.00  0.00    -0.259 C  
ENDROOT
BRANCH   2   3
HETATM    3  O   UNL     1     -11.675   6.063  72.524  1.00  0.00    -0.292 OA 
BRANCH   3   4
HETATM    4  C   UNL     1     -11.993   7.358  72.252  1.00  0.00    -0.239 C  
HETATM    5  O   UNL     1     -12.551   8.099  73.056  1.00  0.00    -0.069 OA 
HETATM    6  N   UNL     1     -11.568   7.769  71.002  1.00  0.00    -0.283 N  
HETATM    7  C   UNL     1     -11.751   9.161  70.599  1.00  0.00    -0.209 C  
HETATM    8  C   UNL     1     -10.414   9.787  70.181  1.00  0.00    -0.338 C  
HETATM    9  C   UNL     1      -9.784   8.977  69.049  1.00  0.00    -0.167 C  
HETATM   10  C   UNL     1      -9.472   9.449  67.806  1.00  0.00    -0.152 C  
HETATM   11  C   UNL     1      -9.560   7.543  69.540  1.00  0.00    -0.156 C  
HETATM   12  C   UNL     1      -9.794  10.854  67.393  1.00  0.00    -0.199 A  
HETATM   13  C   UNL     1     -10.882   6.912  70.026  1.00  0.00    -0.262 C  
HETATM   14  C   UNL     1      -8.850  11.740  66.824  1.00  0.00    -0.191 A  
HETATM   15  C   UNL     1      -9.272  13.039  66.456  1.00  0.00    -0.187 A  
HETATM   16  C   UNL     1      -7.407  11.413  66.482  1.00  0.00    -0.063 C  
HETATM   17  C   UNL     1      -6.771  10.155  67.074  1.00  0.00    -0.078 C  
HETATM   18  C   UNL     1     -10.589  13.455  66.639  1.00  0.00    -0.282 A  
HETATM   19  C   UNL     1     -11.527  12.575  67.153  1.00  0.00    -0.414 A  
HETATM   20 CL   UNL     1     -11.055  15.050  66.198  1.00  0.00    -0.338 Cl 
HETATM   21  C   UNL     1      -7.407   8.912  66.520  1.00  0.00    -0.085 A  
HETATM   22  C   UNL     1      -8.719   8.576  66.868  1.00  0.00    -0.128 A  
HETATM   23  C   UNL     1     -11.134  11.281  67.499  1.00  0.00    -0.346 A  
HETATM   24  N   UNL     1      -9.368   7.498  66.368  1.00  0.00    -0.174 NA 
HETATM   25  C   UNL     1      -8.682   6.729  65.492  1.00  0.00    -0.032 A  
HETATM   26  C   UNL     1      -7.384   6.983  65.083  1.00  0.00    -0.081 A  
HETATM   27  C   UNL     1      -6.736   8.094  65.607  1.00  0.00    -0.055 A  
ENDBRANCH   3   4
ENDBRANCH   2   3
TORSDOF 2
ENDMDL
MODEL       52
REMARK 921   NORMALIZED FREE ENERGY PREDICTED BY IDOCK:   -4.64 KCAL/MOL
REMARK 922        TOTAL FREE ENERGY PREDICTED BY IDOCK:   -5.30 KCAL/MOL
REMARK 923 INTER-LIGAND FREE ENERGY PREDICTED BY IDOCK:   -5.19 KCAL/MOL
REMARK 924 INTRA-LIGAND FREE ENERGY PREDICTED BY IDOCK:   -0.12 KCAL/MOL
REMARK 927      BINDING AFFINITY PREDICTED BY RF-SCORE:    0.00 PKD
ROOT
HETATM    1  C   UNL     1     -12.258  14.554  64.872  1.00  0.00    -0.409 C  
HETATM    2  C   UNL     1     -12.480  13.104  65.254  1.00  0.00    -0.495 C  
ENDROOT
BRANCH   2   3
HETATM    3  O   UNL     1     -11.429  12.613  66.101  1.00  0.00    -0.324 OA 
BRANCH   3   4
HETATM    4  C   UNL     1     -10.594  11.693  65.545  1.00  0.00    -0.279 C  
HETATM    5  O   UNL     1      -9.944  11.900  64.526  1.00  0.00    -0.254 OA 
HETATM    6  N   UNL     1     -10.509  10.525  66.282  1.00  0.00    -0.215 N  
HETATM    7  C   UNL     1      -9.581   9.476  65.866  1.00  0.00    -0.261 C  
HETATM    8  C   UNL     1      -8.624   9.112  67.009  1.00  0.00    -0.127 C  
HETATM    9  C   UNL     1      -9.416   8.674  68.240  1.00  0.00    -0.150 C  
HETATM   10  C   UNL     1      -9.327   7.459  68.857  1.00  0.00    -0.145 C  
HETATM   11  C   UNL     1     -10.330   9.827  68.669  1.00  0.00    -0.224 C  
HETATM   12  C   UNL     1      -8.452   6.365  68.320  1.00  0.00    -0.115 A  
HETATM   13  C   UNL     1     -11.260  10.254  67.515  1.00  0.00    -0.117 C  
HETATM   14  C   UNL     1      -7.507   5.663  69.102  1.00  0.00    -0.083 A  
HETATM   15  C   UNL     1      -6.748   4.636  68.493  1.00  0.00    -0.050 A  
HETATM   16  C   UNL     1      -7.264   5.843  70.591  1.00  0.00    -0.083 C  
HETATM   17  C   UNL     1      -7.816   7.087  71.288  1.00  0.00    -0.099 C  
HETATM   18  C   UNL     1      -6.918   4.306  67.150  1.00  0.00    -0.060 A  
HETATM   19  C   UNL     1      -7.875   4.960  66.393  1.00  0.00    -0.099 A  
HETATM   20 CL   UNL     1      -5.960   3.066  66.443  1.00  0.00    -0.023 Cl 
HETATM   21  C   UNL     1      -9.318   7.071  71.317  1.00  0.00    -0.160 A  
HETATM   22  C   UNL     1     -10.048   7.243  70.137  1.00  0.00    -0.189 A  
HETATM   23  C   UNL     1      -8.650   5.959  66.984  1.00  0.00    -0.110 A  
HETATM   24  N   UNL     1     -11.401   7.192  70.087  1.00  0.00    -0.266 NA 
HETATM   25  C   UNL     1     -12.044   6.963  71.254  1.00  0.00    -0.373 A  
HETATM   26  C   UNL     1     -11.408   6.776  72.471  1.00  0.00    -0.292 A  
HETATM   27  C   UNL     1     -10.021   6.833  72.502  1.00  0.00    -0.185 A  
ENDBRANCH   3   4
ENDBRANCH   2   3
TORSDOF 2
ENDMDL
MODEL       53
REMARK 921   NORMALIZED FREE ENERGY PREDICTED BY IDOCK:   -4.48 KCAL/MOL
REMARK 922        TOTAL FREE ENERGY PREDICTED BY IDOCK:   -5.12 KCAL/MOL
REMARK 923 INTER-LIGAND FREE ENERGY PREDICTED BY IDOCK:   -5.01 KCAL/MOL
REMARK 924 INTRA-LIGAND FREE ENERGY PREDICTED BY IDOCK:   -0.11 KCAL/MOL
REMARK 927      BINDING AFFINITY PREDICTED BY RF-SCORE:    0.00 PKD
ROOT
HETATM    1  C   UNL     1     -10.729  15.529  68.179  1.00  0.00    -0.282 C  
HETATM    2  C   UNL     1     -11.901  14.586  67.989  1.00  0.00    -0.315 C  
ENDROOT
BRANCH   2   3
HETATM    3  O   UNL     1     -11.465  13.230  67.804  1.00  0.00    -0.281 OA 
BRANCH   3   4
HETATM    4  C   UNL     1     -11.358  12.477  68.933  1.00  0.00    -0.297 C  
HETATM    5  O   UNL     1     -11.929  12.752  69.983  1.00  0.00    -0.332 OA 
HETATM    6  N   UNL     1     -10.591  11.341  68.754  1.00  0.00    -0.196 N  
HETATM    7  C   UNL     1     -10.458  10.380  69.848  1.00  0.00    -0.218 C  
HETATM    8  C   UNL     1     -10.884   8.978  69.394  1.00  0.00    -0.152 C  
HETATM    9  C   UNL     1     -10.054   8.539  68.188  1.00  0.00    -0.240 C  
HETATM   10  C   UNL     1      -9.251   7.436  68.130  1.00  0.00    -0.133 C  
HETATM   11  C   UNL     1     -10.272   9.546  67.053  1.00  0.00    -0.321 C  
HETATM   12  C   UNL     1      -9.046   6.546  69.319  1.00  0.00    -0.137 A  
HETATM   13  C   UNL     1      -9.909  10.976  67.505  1.00  0.00    -0.169 C  
HETATM   14  C   UNL     1      -9.210   5.143  69.285  1.00  0.00    -0.151 A  
HETATM   15  C   UNL     1      -8.971   4.401  70.467  1.00  0.00    -0.155 A  
HETATM   16  C   UNL     1      -9.546   4.309  68.061  1.00  0.00    -0.204 C  
HETATM   17  C   UNL     1     -10.086   5.008  66.813  1.00  0.00    -0.270 C  
HETATM   18  C   UNL     1      -8.580   5.024  71.650  1.00  0.00    -0.128 A  
HETATM   19  C   UNL     1      -8.375   6.393  71.675  1.00  0.00    -0.125 A  
HETATM   20 CL   UNL     1      -8.323   4.088  73.068  1.00  0.00    -0.092 Cl 
HETATM   21  C   UNL     1      -9.041   5.888  66.189  1.00  0.00    -0.160 A  
HETATM   22  C   UNL     1      -8.631   7.061  66.833  1.00  0.00    -0.120 A  
HETATM   23  C   UNL     1      -8.580   7.138  70.512  1.00  0.00    -0.144 A  
HETATM   24  N   UNL     1      -7.662   7.874  66.349  1.00  0.00    -0.094 NA 
HETATM   25  C   UNL     1      -7.084   7.503  65.184  1.00  0.00    -0.063 A  
HETATM   26  C   UNL     1      -7.419   6.360  64.477  1.00  0.00    -0.089 A  
HETATM   27  C   UNL     1      -8.416   5.540  64.989  1.00  0.00    -0.147 A  
ENDBRANCH   3   4
ENDBRANCH   2   3
TORSDOF 2
ENDMDL
MODEL       54
REMARK 921   NORMALIZED FREE ENERGY PREDICTED BY IDOCK:   -4.39 KCAL/MOL
REMARK 922        TOTAL FREE ENERGY PREDICTED BY IDOCK:   -5.02 KCAL/MOL
REMARK 923 INTER-LIGAND FREE ENERGY PREDICTED BY IDOCK:   -4.84 KCAL/MOL
REMARK 924 INTRA-LIGAND FREE ENERGY PREDICTED BY IDOCK:   -0.18 KCAL/MOL
REMARK 927      BINDING AFFINITY PREDICTED BY RF-SCORE:    0.00 PKD
ROOT
HETATM    1  C   UNL     1     -12.586  11.965  63.394  1.00  0.00    -0.555 C  
HETATM    2  C   UNL     1     -12.568  12.855  64.622  1.00  0.00    -0.391 C  
ENDROOT
BRANCH   2   3
HETATM    3  O   UNL     1     -11.287  12.836  65.272  1.00  0.00    -0.290 OA 
BRANCH   3   4
HETATM    4  C   UNL     1     -11.267  12.334  66.537  1.00  0.00    -0.324 C  
HETATM    5  O   UNL     1     -12.031  12.703  67.422  1.00  0.00    -0.398 OA 
HETATM    6  N   UNL     1     -10.337  11.323  66.702  1.00  0.00    -0.229 N  
HETATM    7  C   UNL     1     -10.258  10.617  67.979  1.00  0.00    -0.175 C  
HETATM    8  C   UNL     1     -10.416   9.104  67.775  1.00  0.00    -0.306 C  
HETATM    9  C   UNL     1      -9.352   8.589  66.808  1.00  0.00    -0.232 C  
HETATM   10  C   UNL     1      -8.411   7.638  67.086  1.00  0.00    -0.121 C  
HETATM   11  C   UNL     1      -9.513   9.318  65.469  1.00  0.00    -0.309 C  
HETATM   12  C   UNL     1      -8.286   7.030  68.452  1.00  0.00    -0.124 A  
HETATM   13  C   UNL     1      -9.421  10.846  65.657  1.00  0.00    -0.215 C  
HETATM   14  C   UNL     1      -8.256   5.637  68.689  1.00  0.00    -0.103 A  
HETATM   15  C   UNL     1      -8.116   5.177  70.020  1.00  0.00    -0.082 A  
HETATM   16  C   UNL     1      -8.277   4.547  67.631  1.00  0.00    -0.099 C  
HETATM   17  C   UNL     1      -8.695   4.905  66.205  1.00  0.00    -0.115 C  
HETATM   18  C   UNL     1      -8.006   6.064  71.088  1.00  0.00    -0.116 A  
HETATM   19  C   UNL     1      -7.991   7.429  70.855  1.00  0.00    -0.097 A  
HETATM   20 CL   UNL     1      -7.861   5.463  72.692  1.00  0.00    -0.101 Cl 
HETATM   21  C   UNL     1      -7.689   5.811  65.556  1.00  0.00    -0.090 A  
HETATM   22  C   UNL     1      -7.546   7.133  65.989  1.00  0.00    -0.089 A  
HETATM   23  C   UNL     1      -8.101   7.901  69.546  1.00  0.00    -0.121 A  
HETATM   24  N   UNL     1      -6.627   7.987  65.480  1.00  0.00    -0.045 NA 
HETATM   25  C   UNL     1      -5.825   7.504  64.504  1.00  0.00    -0.037 A  
HETATM   26  C   UNL     1      -5.888   6.211  64.012  1.00  0.00    -0.022 A  
HETATM   27  C   UNL     1      -6.837   5.351  64.547  1.00  0.00    -0.048 A  
ENDBRANCH   3   4
ENDBRANCH   2   3
TORSDOF 2
ENDMDL
MODEL       55
REMARK 921   NORMALIZED FREE ENERGY PREDICTED BY IDOCK:   -4.36 KCAL/MOL
REMARK 922        TOTAL FREE ENERGY PREDICTED BY IDOCK:   -4.98 KCAL/MOL
REMARK 923 INTER-LIGAND FREE ENERGY PREDICTED BY IDOCK:   -4.90 KCAL/MOL
REMARK 924 INTRA-LIGAND FREE ENERGY PREDICTED BY IDOCK:   -0.08 KCAL/MOL
REMARK 927      BINDING AFFINITY PREDICTED BY RF-SCORE:    0.00 PKD
ROOT
HETATM    1  C   UNL     1     -10.897   1.889  73.892  1.00  0.00    -0.245 C  
HETATM    2  C   UNL     1     -10.475   3.345  73.925  1.00  0.00    -0.182 C  
ENDROOT
BRANCH   2   3
HETATM    3  O   UNL     1     -10.395   3.903  72.603  1.00  0.00    -0.164 OA 
BRANCH   3   4
HETATM    4  C   UNL     1     -10.707   5.223  72.492  1.00  0.00    -0.236 C  
HETATM    5  O   UNL     1     -11.009   5.928  73.450  1.00  0.00    -0.260 OA 
HETATM    6  N   UNL     1     -10.589   5.699  71.199  1.00  0.00    -0.243 N  
HETATM    7  C   UNL     1     -10.799   7.120  70.932  1.00  0.00    -0.244 C  
HETATM    8  C   UNL     1      -9.581   7.726  70.223  1.00  0.00    -0.175 C  
HETATM    9  C   UNL     1      -9.295   6.971  68.926  1.00  0.00    -0.139 C  
HETATM   10  C   UNL     1      -9.282   7.512  67.672  1.00  0.00    -0.135 C  
HETATM   11  C   UNL     1      -9.026   5.500  69.266  1.00  0.00    -0.125 C  
HETATM   12  C   UNL     1      -9.628   8.951  67.431  1.00  0.00    -0.201 A  
HETATM   13  C   UNL     1     -10.214   4.885  70.036  1.00  0.00    -0.243 C  
HETATM   14  C   UNL     1      -8.815   9.839  66.691  1.00  0.00    -0.153 A  
HETATM   15  C   UNL     1      -9.251  11.173  66.512  1.00  0.00    -0.194 A  
HETATM   16  C   UNL     1      -7.521   9.486  65.977  1.00  0.00    -0.100 C  
HETATM   17  C   UNL     1      -6.820   8.171  66.319  1.00  0.00    -0.058 C  
HETATM   18  C   UNL     1     -10.458  11.621  67.045  1.00  0.00    -0.224 A  
HETATM   19  C   UNL     1     -11.278  10.742  67.733  1.00  0.00    -0.385 A  
HETATM   20 CL   UNL     1     -10.940  13.255  66.824  1.00  0.00    -0.292 Cl 
HETATM   21  C   UNL     1      -7.636   6.990  65.878  1.00  0.00    -0.097 A  
HETATM   22  C   UNL     1      -8.833   6.676  66.529  1.00  0.00    -0.139 A  
HETATM   23  C   UNL     1     -10.876   9.415  67.896  1.00  0.00    -0.215 A  
HETATM   24  N   UNL     1      -9.639   5.655  66.152  1.00  0.00    -0.148 NA 
HETATM   25  C   UNL     1      -9.234   4.923  65.089  1.00  0.00    -0.123 A  
HETATM   26  C   UNL     1      -8.068   5.158  64.379  1.00  0.00    -0.121 A  
HETATM   27  C   UNL     1      -7.256   6.209  64.782  1.00  0.00    -0.063 A  
ENDBRANCH   3   4
ENDBRANCH   2   3
TORSDOF 2
ENDMDL
MODEL       56
REMARK 921   NORMALIZED FREE ENERGY PREDICTED BY IDOCK:   -4.26 KCAL/MOL
REMARK 922        TOTAL FREE ENERGY PREDICTED BY IDOCK:   -4.87 KCAL/MOL
REMARK 923 INTER-LIGAND FREE ENERGY PREDICTED BY IDOCK:   -4.84 KCAL/MOL
REMARK 924 INTRA-LIGAND FREE ENERGY PREDICTED BY IDOCK:   -0.03 KCAL/MOL
REMARK 927      BINDING AFFINITY PREDICTED BY RF-SCORE:    0.00 PKD
ROOT
HETATM    1  C   UNL     1      -5.442  14.683  68.458  1.00  0.00    -0.102 C  
HETATM    2  C   UNL     1      -5.855  13.227  68.556  1.00  0.00    -0.083 C  
ENDROOT
BRANCH   2   3
HETATM    3  O   UNL     1      -6.705  12.843  67.463  1.00  0.00    -0.142 OA 
BRANCH   3   4
HETATM    4  C   UNL     1      -6.550  11.572  67.003  1.00  0.00    -0.138 C  
HETATM    5  O   UNL     1      -5.635  11.229  66.261  1.00  0.00    -0.137 OA 
HETATM    6  N   UNL     1      -7.494  10.696  67.507  1.00  0.00    -0.092 N  
HETATM    7  C   UNL     1      -7.405   9.274  67.181  1.00  0.00    -0.091 C  
HETATM    8  C   UNL     1      -7.363   8.425  68.458  1.00  0.00    -0.093 C  
HETATM    9  C   UNL     1      -8.595   8.704  69.318  1.00  0.00    -0.131 C  
HETATM   10  C   UNL     1      -9.528   7.783  69.701  1.00  0.00    -0.156 C  
HETATM   11  C   UNL     1      -8.611  10.194  69.679  1.00  0.00    -0.170 C  
HETATM   12  C   UNL     1      -9.466   6.358  69.238  1.00  0.00    -0.140 A  
HETATM   13  C   UNL     1      -8.590  11.071  68.410  1.00  0.00    -0.149 C  
HETATM   14  C   UNL     1      -9.533   5.248  70.109  1.00  0.00    -0.217 A  
HETATM   15  C   UNL     1      -9.482   3.945  69.558  1.00  0.00    -0.259 A  
HETATM   16  C   UNL     1      -9.739   5.300  71.614  1.00  0.00    -0.211 C  
HETATM   17  C   UNL     1      -9.536   6.627  72.345  1.00  0.00    -0.154 C  
HETATM   18  C   UNL     1      -9.371   3.742  68.184  1.00  0.00    -0.173 A  
HETATM   19  C   UNL     1      -9.350   4.827  67.324  1.00  0.00    -0.150 A  
HETATM   20 CL   UNL     1      -9.290   2.144  67.557  1.00  0.00    -0.171 Cl 
HETATM   21  C   UNL     1     -10.584   7.629  71.952  1.00  0.00    -0.257 A  
HETATM   22  C   UNL     1     -10.584   8.182  70.667  1.00  0.00    -0.215 A  
HETATM   23  C   UNL     1      -9.426   6.118  67.848  1.00  0.00    -0.115 A  
HETATM   24  N   UNL     1     -11.525   9.054  70.234  1.00  0.00    -0.185 NA 
HETATM   25  C   UNL     1     -12.498   9.384  71.113  1.00  0.00    -0.293 A  
HETATM   26  C   UNL     1     -12.585   8.885  72.402  1.00  0.00    -0.423 A  
HETATM   27  C   UNL     1     -11.610   7.994  72.828  1.00  0.00    -0.390 A  
ENDBRANCH   3   4
ENDBRANCH   2   3
TORSDOF 2
ENDMDL
MODEL       57
REMARK 921   NORMALIZED FREE ENERGY PREDICTED BY IDOCK:   -4.24 KCAL/MOL
REMARK 922        TOTAL FREE ENERGY PREDICTED BY IDOCK:   -4.85 KCAL/MOL
REMARK 923 INTER-LIGAND FREE ENERGY PREDICTED BY IDOCK:   -4.77 KCAL/MOL
REMARK 924 INTRA-LIGAND FREE ENERGY PREDICTED BY IDOCK:   -0.09 KCAL/MOL
REMARK 927      BINDING AFFINITY PREDICTED BY RF-SCORE:    0.00 PKD
ROOT
HETATM    1  C   UNL     1     -14.131  14.653  71.481  1.00  0.00    -0.527 C  
HETATM    2  C   UNL     1     -13.717  13.349  72.134  1.00  0.00    -0.552 C  
ENDROOT
BRANCH   2   3
HETATM    3  O   UNL     1     -13.310  12.375  71.160  1.00  0.00    -0.014 OA 
BRANCH   3   4
HETATM    4  C   UNL     1     -12.933  11.162  71.650  1.00  0.00    -0.443 C  
HETATM    5  O   UNL     1     -13.550  10.566  72.527  1.00  0.00    -0.073 OA 
HETATM    6  N   UNL     1     -11.818  10.646  71.014  1.00  0.00    -0.327 N  
HETATM    7  C   UNL     1     -11.344   9.308  71.362  1.00  0.00    -0.364 C  
HETATM    8  C   UNL     1     -11.258   8.420  70.114  1.00  0.00    -0.136 C  
HETATM    9  C   UNL     1     -10.342   9.062  69.072  1.00  0.00    -0.233 C  
HETATM   10  C   UNL     1      -9.205   8.508  68.558  1.00  0.00    -0.135 C  
HETATM   11  C   UNL     1     -10.913  10.435  68.700  1.00  0.00    -0.288 C  
HETATM   12  C   UNL     1      -8.686   7.185  69.037  1.00  0.00    -0.132 A  
HETATM   13  C   UNL     1     -11.068  11.326  69.950  1.00  0.00    -0.109 C  
HETATM   14  C   UNL     1      -8.349   6.117  68.175  1.00  0.00    -0.114 A  
HETATM   15  C   UNL     1      -7.851   4.918  68.740  1.00  0.00    -0.077 A  
HETATM   16  C   UNL     1      -8.389   6.143  66.657  1.00  0.00    -0.111 C  
HETATM   17  C   UNL     1      -9.155   7.264  65.954  1.00  0.00    -0.064 C  
HETATM   18  C   UNL     1      -7.687   4.776  70.115  1.00  0.00    -0.058 A  
HETATM   19  C   UNL     1      -7.974   5.836  70.959  1.00  0.00    -0.115 A  
HETATM   20 CL   UNL     1      -7.100   3.295  70.762  1.00  0.00    -0.033 Cl 
HETATM   21  C   UNL     1      -8.493   8.594  66.173  1.00  0.00    -0.140 A  
HETATM   22  C   UNL     1      -8.510   9.192  67.437  1.00  0.00    -0.115 A  
HETATM   23  C   UNL     1      -8.441   7.035  70.418  1.00  0.00    -0.141 A  
HETATM   24  N   UNL     1      -7.893  10.365  67.713  1.00  0.00    -0.101 NA 
HETATM   25  C   UNL     1      -7.238  10.962  66.691  1.00  0.00    -0.139 A  
HETATM   26  C   UNL     1      -7.161  10.445  65.408  1.00  0.00    -0.117 A  
HETATM   27  C   UNL     1      -7.800   9.242  65.145  1.00  0.00    -0.110 A  
ENDBRANCH   3   4
ENDBRANCH   2   3
TORSDOF 2
ENDMDL
MODEL       58
REMARK 921   NORMALIZED FREE ENERGY PREDICTED BY IDOCK:   -4.20 KCAL/MOL
REMARK 922        TOTAL FREE ENERGY PREDICTED BY IDOCK:   -4.80 KCAL/MOL
REMARK 923 INTER-LIGAND FREE ENERGY PREDICTED BY IDOCK:   -4.73 KCAL/MOL
REMARK 924 INTRA-LIGAND FREE ENERGY PREDICTED BY IDOCK:   -0.08 KCAL/MOL
REMARK 927      BINDING AFFINITY PREDICTED BY RF-SCORE:    0.00 PKD
ROOT
HETATM    1  C   UNL     1     -12.667  14.107  66.077  1.00  0.00    -0.325 C  
HETATM    2  C   UNL     1     -11.297  14.006  66.719  1.00  0.00    -0.334 C  
ENDROOT
BRANCH   2   3
HETATM    3  O   UNL     1     -11.028  12.675  67.186  1.00  0.00    -0.247 OA 
BRANCH   3   4
HETATM    4  C   UNL     1     -10.446  11.833  66.289  1.00  0.00    -0.244 C  
HETATM    5  O   UNL     1      -9.943  12.211  65.236  1.00  0.00    -0.254 OA 
HETATM    6  N   UNL     1     -10.427  10.517  66.716  1.00  0.00    -0.247 N  
HETATM    7  C   UNL     1      -9.752   9.506  65.906  1.00  0.00    -0.282 C  
HETATM    8  C   UNL     1      -8.693   8.764  66.733  1.00  0.00    -0.134 C  
HETATM    9  C   UNL     1      -9.337   8.127  67.964  1.00  0.00    -0.144 C  
HETATM   10  C   UNL     1      -9.340   6.795  68.264  1.00  0.00    -0.124 C  
HETATM   11  C   UNL     1      -9.980   9.234  68.807  1.00  0.00    -0.193 C  
HETATM   12  C   UNL     1      -8.744   5.777  67.339  1.00  0.00    -0.107 A  
HETATM   13  C   UNL     1     -11.005  10.036  67.978  1.00  0.00    -0.240 C  
HETATM   14  C   UNL     1      -7.807   4.801  67.748  1.00  0.00    -0.086 A  
HETATM   15  C   UNL     1      -7.324   3.878  66.790  1.00  0.00    -0.072 A  
HETATM   16  C   UNL     1      -7.305   4.578  69.164  1.00  0.00    -0.052 C  
HETATM   17  C   UNL     1      -7.538   5.664  70.214  1.00  0.00    -0.081 C  
HETATM   18  C   UNL     1      -7.756   3.912  65.466  1.00  0.00    -0.085 A  
HETATM   19  C   UNL     1      -8.707   4.837  65.073  1.00  0.00    -0.147 A  
HETATM   20 CL   UNL     1      -7.128   2.786  64.329  1.00  0.00    -0.048 Cl 
HETATM   21  C   UNL     1      -8.999   5.812  70.527  1.00  0.00    -0.152 A  
HETATM   22  C   UNL     1      -9.873   6.352  69.578  1.00  0.00    -0.154 A  
HETATM   23  C   UNL     1      -9.214   5.739  66.010  1.00  0.00    -0.155 A  
HETATM   24  N   UNL     1     -11.208   6.469  69.779  1.00  0.00    -0.370 NA 
HETATM   25  C   UNL     1     -11.684   6.032  70.967  1.00  0.00     0.013 A  
HETATM   26  C   UNL     1     -10.899   5.479  71.965  1.00  0.00    -0.287 A  
HETATM   27  C   UNL     1      -9.533   5.369  71.741  1.00  0.00    -0.177 A  
ENDBRANCH   3   4
ENDBRANCH   2   3
TORSDOF 2
ENDMDL
MODEL       59
REMARK 921   NORMALIZED FREE ENERGY PREDICTED BY IDOCK:   -4.17 KCAL/MOL
REMARK 922        TOTAL FREE ENERGY PREDICTED BY IDOCK:   -4.77 KCAL/MOL
REMARK 923 INTER-LIGAND FREE ENERGY PREDICTED BY IDOCK:   -4.66 KCAL/MOL
REMARK 924 INTRA-LIGAND FREE ENERGY PREDICTED BY IDOCK:   -0.11 KCAL/MOL
REMARK 927      BINDING AFFINITY PREDICTED BY RF-SCORE:    0.00 PKD
ROOT
HETATM    1  C   UNL     1      -5.592   3.610  63.733  1.00  0.00    -0.013 C  
HETATM    2  C   UNL     1      -7.019   3.134  63.927  1.00  0.00    -0.048 C  
ENDROOT
BRANCH   2   3
HETATM    3  O   UNL     1      -7.507   3.447  65.242  1.00  0.00    -0.074 OA 
BRANCH   3   4
HETATM    4  C   UNL     1      -8.286   4.559  65.341  1.00  0.00    -0.111 C  
HETATM    5  O   UNL     1      -8.946   5.006  64.409  1.00  0.00    -0.128 OA 
HETATM    6  N   UNL     1      -8.302   5.095  66.616  1.00  0.00    -0.108 N  
HETATM    7  C   UNL     1      -9.166   6.237  66.907  1.00  0.00    -0.130 C  
HETATM    8  C   UNL     1     -10.100   5.926  68.084  1.00  0.00    -0.199 C  
HETATM    9  C   UNL     1      -9.285   5.539  69.317  1.00  0.00    -0.140 C  
HETATM   10  C   UNL     1      -9.302   6.183  70.521  1.00  0.00    -0.173 C  
HETATM   11  C   UNL     1      -8.441   4.305  68.977  1.00  0.00    -0.099 C  
HETATM   12  C   UNL     1     -10.110   7.428  70.737  1.00  0.00    -0.190 A  
HETATM   13  C   UNL     1      -7.536   4.573  67.756  1.00  0.00    -0.077 C  
HETATM   14  C   UNL     1     -11.013   7.600  71.811  1.00  0.00    -0.276 A  
HETATM   15  C   UNL     1     -11.709   8.826  71.925  1.00  0.00    -0.429 A  
HETATM   16  C   UNL     1     -11.266   6.610  72.935  1.00  0.00    -0.227 C  
HETATM   17  C   UNL     1     -10.789   5.167  72.776  1.00  0.00    -0.314 C  
HETATM   18  C   UNL     1     -11.520   9.858  71.009  1.00  0.00    -0.388 A  
HETATM   19  C   UNL     1     -10.602   9.710  69.981  1.00  0.00    -0.300 A  
HETATM   20 CL   UNL     1     -12.402  11.324  71.171  1.00  0.00    -0.457 Cl 
HETATM   21  C   UNL     1      -9.289   5.090  72.759  1.00  0.00    -0.150 A  
HETATM   22  C   UNL     1      -8.569   5.590  71.669  1.00  0.00    -0.132 A  
HETATM   23  C   UNL     1      -9.887   8.517  69.868  1.00  0.00    -0.186 A  
HETATM   24  N   UNL     1      -7.216   5.595  71.611  1.00  0.00    -0.080 NA 
HETATM   25  C   UNL     1      -6.561   5.081  72.677  1.00  0.00    -0.056 A  
HETATM   26  C   UNL     1      -7.186   4.567  73.802  1.00  0.00    -0.069 A  
HETATM   27  C   UNL     1      -8.574   4.571  73.842  1.00  0.00    -0.102 A  
ENDBRANCH   3   4
ENDBRANCH   2   3
TORSDOF 2
ENDMDL
MODEL       60
REMARK 921   NORMALIZED FREE ENERGY PREDICTED BY IDOCK:   -4.16 KCAL/MOL
REMARK 922        TOTAL FREE ENERGY PREDICTED BY IDOCK:   -4.76 KCAL/MOL
REMARK 923 INTER-LIGAND FREE ENERGY PREDICTED BY IDOCK:   -4.91 KCAL/MOL
REMARK 924 INTRA-LIGAND FREE ENERGY PREDICTED BY IDOCK:    0.15 KCAL/MOL
REMARK 927      BINDING AFFINITY PREDICTED BY RF-SCORE:    0.00 PKD
ROOT
HETATM    1  C   UNL     1      -9.043   5.573  74.176  1.00  0.00    -0.122 C  
HETATM    2  C   UNL     1     -10.322   6.385  74.224  1.00  0.00    -0.291 C  
ENDROOT
BRANCH   2   3
HETATM    3  O   UNL     1     -10.472   7.207  73.055  1.00  0.00    -0.234 OA 
BRANCH   3   4
HETATM    4  C   UNL     1     -10.319   6.576  71.858  1.00  0.00    -0.200 C  
HETATM    5  O   UNL     1     -10.700   5.430  71.646  1.00  0.00    -0.236 OA 
HETATM    6  N   UNL     1      -9.748   7.384  70.891  1.00  0.00    -0.170 N  
HETATM    7  C   UNL     1      -9.604   6.882  69.526  1.00  0.00    -0.148 C  
HETATM    8  C   UNL     1     -10.277   7.830  68.525  1.00  0.00    -0.227 C  
HETATM    9  C   UNL     1      -9.686   9.234  68.649  1.00  0.00    -0.158 C  
HETATM   10  C   UNL     1      -9.059   9.928  67.653  1.00  0.00    -0.140 C  
HETATM   11  C   UNL     1      -9.913   9.736  70.079  1.00  0.00    -0.299 C  
HETATM   12  C   UNL     1      -8.821   9.324  66.301  1.00  0.00    -0.172 A  
HETATM   13  C   UNL     1      -9.298   8.765  71.109  1.00  0.00    -0.233 C  
HETATM   14  C   UNL     1      -9.181   9.954  65.088  1.00  0.00    -0.288 A  
HETATM   15  C   UNL     1      -8.891   9.297  63.868  1.00  0.00    -0.160 A  
HETATM   16  C   UNL     1      -9.792  11.337  64.943  1.00  0.00    -0.310 C  
HETATM   17  C   UNL     1     -10.393  12.016  66.173  1.00  0.00    -0.257 C  
HETATM   18  C   UNL     1      -8.261   8.055  63.844  1.00  0.00    -0.041 A  
HETATM   19  C   UNL     1      -7.867   7.456  65.028  1.00  0.00    -0.124 A  
HETATM   20 CL   UNL     1      -7.947   7.281  62.341  1.00  0.00    -0.132 Cl 
HETATM   21  C   UNL     1      -9.329  12.358  67.178  1.00  0.00    -0.199 A  
HETATM   22  C   UNL     1      -8.678  11.344  67.888  1.00  0.00    -0.145 A  
HETATM   23  C   UNL     1      -8.121   8.101  66.240  1.00  0.00    -0.107 A  
HETATM   24  N   UNL     1      -7.680  11.580  68.772  1.00  0.00    -0.137 NA 
HETATM   25  C   UNL     1      -7.321  12.872  68.953  1.00  0.00    -0.014 A  
HETATM   26  C   UNL     1      -7.903  13.941  68.293  1.00  0.00    -0.146 A  
HETATM   27  C   UNL     1      -8.926  13.679  67.392  1.00  0.00    -0.218 A  
ENDBRANCH   3   4
ENDBRANCH   2   3
TORSDOF 2
ENDMDL
MODEL       61
REMARK 921   NORMALIZED FREE ENERGY PREDICTED BY IDOCK:   -4.06 KCAL/MOL
REMARK 922        TOTAL FREE ENERGY PREDICTED BY IDOCK:   -4.65 KCAL/MOL
REMARK 923 INTER-LIGAND FREE ENERGY PREDICTED BY IDOCK:   -4.46 KCAL/MOL
REMARK 924 INTRA-LIGAND FREE ENERGY PREDICTED BY IDOCK:   -0.18 KCAL/MOL
REMARK 927      BINDING AFFINITY PREDICTED BY RF-SCORE:    0.00 PKD
ROOT
HETATM    1  C   UNL     1      -6.248   4.660  73.050  1.00  0.00    -0.033 C  
HETATM    2  C   UNL     1      -7.172   5.615  73.779  1.00  0.00    -0.086 C  
ENDROOT
BRANCH   2   3
HETATM    3  O   UNL     1      -8.497   5.598  73.225  1.00  0.00    -0.117 OA 
BRANCH   3   4
HETATM    4  C   UNL     1      -9.046   6.813  72.950  1.00  0.00    -0.127 C  
HETATM    5  O   UNL     1      -9.293   7.652  73.809  1.00  0.00    -0.263 OA 
HETATM    6  N   UNL     1      -9.239   7.024  71.597  1.00  0.00    -0.143 N  
HETATM    7  C   UNL     1      -9.734   8.319  71.132  1.00  0.00    -0.165 C  
HETATM    8  C   UNL     1      -8.780   8.925  70.095  1.00  0.00    -0.168 C  
HETATM    9  C   UNL     1      -8.600   7.964  68.920  1.00  0.00    -0.132 C  
HETATM   10  C   UNL     1      -8.899   8.233  67.615  1.00  0.00    -0.137 C  
HETATM   11  C   UNL     1      -8.027   6.646  69.451  1.00  0.00    -0.115 C  
HETATM   12  C   UNL     1      -9.524   9.532  67.201  1.00  0.00    -0.187 A  
HETATM   13  C   UNL     1      -8.938   6.047  70.543  1.00  0.00    -0.146 C  
HETATM   14  C   UNL     1      -9.017  10.350  66.166  1.00  0.00    -0.175 A  
HETATM   15  C   UNL     1      -9.701  11.548  65.849  1.00  0.00    -0.260 A  
HETATM   16  C   UNL     1      -7.827  10.036  65.276  1.00  0.00    -0.138 C  
HETATM   17  C   UNL     1      -6.861   8.926  65.693  1.00  0.00    -0.076 C  
HETATM   18  C   UNL     1     -10.855  11.929  66.530  1.00  0.00    -0.278 A  
HETATM   19  C   UNL     1     -11.379  11.107  67.514  1.00  0.00    -0.351 A  
HETATM   20 CL   UNL     1     -11.642  13.403  66.129  1.00  0.00    -0.358 Cl 
HETATM   21  C   UNL     1      -7.526   7.580  65.642  1.00  0.00    -0.083 A  
HETATM   22  C   UNL     1      -8.519   7.249  66.569  1.00  0.00    -0.125 A  
HETATM   23  C   UNL     1     -10.733   9.909  67.822  1.00  0.00    -0.332 A  
HETATM   24  N   UNL     1      -9.191   6.073  66.549  1.00  0.00    -0.144 NA 
HETATM   25  C   UNL     1      -8.857   5.199  65.572  1.00  0.00    -0.148 A  
HETATM   26  C   UNL     1      -7.892   5.439  64.609  1.00  0.00    -0.105 A  
HETATM   27  C   UNL     1      -7.214   6.650  64.646  1.00  0.00    -0.071 A  
ENDBRANCH   3   4
ENDBRANCH   2   3
TORSDOF 2
ENDMDL
MODEL       62
REMARK 921   NORMALIZED FREE ENERGY PREDICTED BY IDOCK:   -3.86 KCAL/MOL
REMARK 922        TOTAL FREE ENERGY PREDICTED BY IDOCK:   -4.43 KCAL/MOL
REMARK 923 INTER-LIGAND FREE ENERGY PREDICTED BY IDOCK:   -4.30 KCAL/MOL
REMARK 924 INTRA-LIGAND FREE ENERGY PREDICTED BY IDOCK:   -0.13 KCAL/MOL
REMARK 927      BINDING AFFINITY PREDICTED BY RF-SCORE:    0.00 PKD
ROOT
HETATM    1  C   UNL     1      -5.326   6.950  63.478  1.00  0.00    -0.028 C  
HETATM    2  C   UNL     1      -6.719   7.550  63.491  1.00  0.00    -0.054 C  
ENDROOT
BRANCH   2   3
HETATM    3  O   UNL     1      -6.782   8.723  64.319  1.00  0.00    -0.074 OA 
BRANCH   3   4
HETATM    4  C   UNL     1      -8.003   9.020  64.841  1.00  0.00    -0.126 C  
HETATM    5  O   UNL     1      -8.992   9.254  64.155  1.00  0.00    -0.191 OA 
HETATM    6  N   UNL     1      -8.026   8.970  66.223  1.00  0.00    -0.102 N  
HETATM    7  C   UNL     1      -9.288   9.172  66.931  1.00  0.00    -0.156 C  
HETATM    8  C   UNL     1      -9.588   7.987  67.859  1.00  0.00    -0.178 C  
HETATM    9  C   UNL     1      -8.441   7.789  68.849  1.00  0.00    -0.129 C  
HETATM   10  C   UNL     1      -8.542   7.840  70.210  1.00  0.00    -0.138 C  
HETATM   11  C   UNL     1      -7.155   7.524  68.059  1.00  0.00    -0.084 C  
HETATM   12  C   UNL     1      -9.834   8.177  70.892  1.00  0.00    -0.203 A  
HETATM   13  C   UNL     1      -6.864   8.675  67.072  1.00  0.00    -0.067 C  
HETATM   14  C   UNL     1     -10.404   7.394  71.922  1.00  0.00    -0.218 A  
HETATM   15  C   UNL     1     -11.620   7.819  72.506  1.00  0.00    -0.422 A  
HETATM   16  C   UNL     1      -9.793   6.150  72.543  1.00  0.00    -0.180 C  
HETATM   17  C   UNL     1      -8.640   5.450  71.824  1.00  0.00    -0.131 C  
HETATM   18  C   UNL     1     -12.258   8.986  72.091  1.00  0.00    -0.357 A  
HETATM   19  C   UNL     1     -11.680   9.779  71.113  1.00  0.00    -0.465 A  
HETATM   20 CL   UNL     1     -13.746   9.454  72.811  1.00  0.00    -0.333 Cl 
HETATM   21  C   UNL     1      -7.407   6.309  71.813  1.00  0.00    -0.093 A  
HETATM   22  C   UNL     1      -7.364   7.471  71.036  1.00  0.00    -0.071 A  
HETATM   23  C   UNL     1     -10.467   9.389  70.544  1.00  0.00    -0.335 A  
HETATM   24  N   UNL     1      -6.304   8.313  71.017  1.00  0.00    -0.037 NA 
HETATM   25  C   UNL     1      -5.251   7.982  71.799  1.00  0.00    -0.034 A  
HETATM   26  C   UNL     1      -5.203   6.856  72.604  1.00  0.00    -0.037 A  
HETATM   27  C   UNL     1      -6.299   6.005  72.610  1.00  0.00    -0.058 A  
ENDBRANCH   3   4
ENDBRANCH   2   3
TORSDOF 2
ENDMDL
MODEL       63
REMARK 921   NORMALIZED FREE ENERGY PREDICTED BY IDOCK:   -3.77 KCAL/MOL
REMARK 922        TOTAL FREE ENERGY PREDICTED BY IDOCK:   -4.32 KCAL/MOL
REMARK 923 INTER-LIGAND FREE ENERGY PREDICTED BY IDOCK:   -4.16 KCAL/MOL
REMARK 924 INTRA-LIGAND FREE ENERGY PREDICTED BY IDOCK:   -0.17 KCAL/MOL
REMARK 927      BINDING AFFINITY PREDICTED BY RF-SCORE:    0.00 PKD
ROOT
HETATM    1  C   UNL     1     -11.804   6.855  70.807  1.00  0.00    -0.427 C  
HETATM    2  C   UNL     1     -12.562   7.624  71.872  1.00  0.00    -0.303 C  
ENDROOT
BRANCH   2   3
HETATM    3  O   UNL     1     -13.324   8.702  71.305  1.00  0.00    -0.261 OA 
BRANCH   3   4
HETATM    4  C   UNL     1     -12.992   9.954  71.726  1.00  0.00    -0.449 C  
HETATM    5  O   UNL     1     -12.827  10.247  72.906  1.00  0.00     0.565 OA 
HETATM    6  N   UNL     1     -12.802  10.842  70.683  1.00  0.00    -0.324 N  
HETATM    7  C   UNL     1     -12.350  12.202  70.967  1.00  0.00    -0.230 C  
HETATM    8  C   UNL     1     -11.071  12.525  70.184  1.00  0.00     0.606 C  
HETATM    9  C   UNL     1     -11.309  12.339  68.686  1.00  0.00    -0.339 C  
HETATM   10  C   UNL     1     -11.176  13.304  67.729  1.00  0.00    -0.308 C  
HETATM   11  C   UNL     1     -11.725  10.885  68.435  1.00  0.00    -0.290 C  
HETATM   12  C   UNL     1     -10.832  14.721  68.082  1.00  0.00    -0.256 A  
HETATM   13  C   UNL     1     -12.974  10.516  69.261  1.00  0.00     1.322 C  
HETATM   14  C   UNL     1      -9.781  15.445  67.476  1.00  0.00    -0.208 A  
HETATM   15  C   UNL     1      -9.559  16.785  67.876  1.00  0.00    -0.236 A  
HETATM   16  C   UNL     1      -8.885  14.954  66.352  1.00  0.00    -0.196 C  
HETATM   17  C   UNL     1      -8.848  13.460  66.031  1.00  0.00     0.524 C  
HETATM   18  C   UNL     1     -10.353  17.395  68.843  1.00  0.00    -0.340 A  
HETATM   19  C   UNL     1     -11.412  16.703  69.406  1.00  0.00     0.136 A  
HETATM   20 CL   UNL     1     -10.035  19.017  69.317  1.00  0.00    -0.313 Cl 
HETATM   21  C   UNL     1     -10.163  12.991  65.476  1.00  0.00    -0.296 A  
HETATM   22  C   UNL     1     -11.292  12.924  66.298  1.00  0.00    -0.323 A  
HETATM   23  C   UNL     1     -11.662  15.390  69.005  1.00  0.00    -0.380 A  
HETATM   24  N   UNL     1     -12.516  12.556  65.850  1.00  0.00    -0.517 NA 
HETATM   25  C   UNL     1     -12.614  12.244  64.538  1.00  0.00    -0.327 A  
HETATM   26  C   UNL     1     -11.555  12.285  63.646  1.00  0.00    -0.581 A  
HETATM   27  C   UNL     1     -10.308  12.664  64.124  1.00  0.00    -0.412 A  
ENDBRANCH   3   4
ENDBRANCH   2   3
TORSDOF 2
ENDMDL
MODEL       64
REMARK 921   NORMALIZED FREE ENERGY PREDICTED BY IDOCK:   -3.74 KCAL/MOL
REMARK 922        TOTAL FREE ENERGY PREDICTED BY IDOCK:   -4.30 KCAL/MOL
REMARK 923 INTER-LIGAND FREE ENERGY PREDICTED BY IDOCK:   -4.17 KCAL/MOL
REMARK 924 INTRA-LIGAND FREE ENERGY PREDICTED BY IDOCK:   -0.12 KCAL/MOL
REMARK 927      BINDING AFFINITY PREDICTED BY RF-SCORE:    0.00 PKD
ROOT
HETATM    1  C   UNL     1     -10.849   3.600  63.786  1.00  0.00    -0.213 C  
HETATM    2  C   UNL     1      -9.988   2.353  63.826  1.00  0.00    -0.142 C  
ENDROOT
BRANCH   2   3
HETATM    3  O   UNL     1      -9.067   2.381  64.929  1.00  0.00    -0.124 OA 
BRANCH   3   4
HETATM    4  C   UNL     1      -8.249   3.467  64.997  1.00  0.00    -0.094 C  
HETATM    5  O   UNL     1      -7.607   3.889  64.041  1.00  0.00    -0.075 OA 
HETATM    6  N   UNL     1      -8.266   4.079  66.237  1.00  0.00    -0.104 N  
HETATM    7  C   UNL     1      -7.512   5.314  66.442  1.00  0.00    -0.087 C  
HETATM    8  C   UNL     1      -8.426   6.429  66.966  1.00  0.00    -0.112 C  
HETATM    9  C   UNL     1      -9.103   5.989  68.264  1.00  0.00    -0.111 C  
HETATM   10  C   UNL     1      -8.995   6.614  69.473  1.00  0.00    -0.138 C  
HETATM   11  C   UNL     1      -9.925   4.726  67.983  1.00  0.00    -0.154 C  
HETATM   12  C   UNL     1      -8.107   7.808  69.667  1.00  0.00    -0.122 A  
HETATM   13  C   UNL     1      -9.038   3.609  67.395  1.00  0.00    -0.161 C  
HETATM   14  C   UNL     1      -8.540   9.019  70.253  1.00  0.00    -0.193 A  
HETATM   15  C   UNL     1      -7.609  10.074  70.402  1.00  0.00    -0.037 A  
HETATM   16  C   UNL     1      -9.918   9.292  70.831  1.00  0.00    -0.367 C  
HETATM   17  C   UNL     1     -11.068   8.345  70.489  1.00  0.00    -0.267 C  
HETATM   18  C   UNL     1      -6.286   9.940  69.987  1.00  0.00    -0.071 A  
HETATM   19  C   UNL     1      -5.847   8.739  69.454  1.00  0.00    -0.034 A  
HETATM   20 CL   UNL     1      -5.193  11.254  70.165  1.00  0.00    -0.068 Cl 
HETATM   21  C   UNL     1     -10.851   6.987  71.092  1.00  0.00    -0.263 A  
HETATM   22  C   UNL     1      -9.840   6.152  70.604  1.00  0.00    -0.179 A  
HETATM   23  C   UNL     1      -6.745   7.679  69.324  1.00  0.00    -0.044 A  
HETATM   24  N   UNL     1      -9.560   4.937  71.133  1.00  0.00    -0.160 NA 
HETATM   25  C   UNL     1     -10.317   4.543  72.182  1.00  0.00    -0.162 A  
HETATM   26  C   UNL     1     -11.335   5.300  72.737  1.00  0.00    -0.342 A  
HETATM   27  C   UNL     1     -11.607   6.543  72.180  1.00  0.00    -0.349 A  
ENDBRANCH   3   4
ENDBRANCH   2   3
TORSDOF 2
ENDMDL
MODEL       65
REMARK 921   NORMALIZED FREE ENERGY PREDICTED BY IDOCK:   -3.73 KCAL/MOL
REMARK 922        TOTAL FREE ENERGY PREDICTED BY IDOCK:   -4.28 KCAL/MOL
REMARK 923 INTER-LIGAND FREE ENERGY PREDICTED BY IDOCK:   -4.42 KCAL/MOL
REMARK 924 INTRA-LIGAND FREE ENERGY PREDICTED BY IDOCK:    0.14 KCAL/MOL
REMARK 927      BINDING AFFINITY PREDICTED BY RF-SCORE:    0.00 PKD
ROOT
HETATM    1  C   UNL     1      -9.587   1.649  68.876  1.00  0.00    -0.144 C  
HETATM    2  C   UNL     1      -9.242   3.011  68.304  1.00  0.00    -0.189 C  
ENDROOT
BRANCH   2   3
HETATM    3  O   UNL     1      -8.799   3.918  69.326  1.00  0.00    -0.079 OA 
BRANCH   3   4
HETATM    4  C   UNL     1      -9.636   4.953  69.610  1.00  0.00    -0.173 C  
HETATM    5  O   UNL     1     -10.437   4.937  70.539  1.00  0.00    -0.216 OA 
HETATM    6  N   UNL     1      -9.447   6.044  68.783  1.00  0.00    -0.124 N  
HETATM    7  C   UNL     1     -10.206   7.270  69.021  1.00  0.00    -0.197 C  
HETATM    8  C   UNL     1      -9.263   8.469  69.189  1.00  0.00    -0.150 C  
HETATM    9  C   UNL     1      -8.374   8.617  67.955  1.00  0.00    -0.123 C  
HETATM   10  C   UNL     1      -8.313   9.711  67.140  1.00  0.00    -0.121 C  
HETATM   11  C   UNL     1      -7.560   7.330  67.782  1.00  0.00    -0.110 C  
HETATM   12  C   UNL     1      -9.203  10.900  67.349  1.00  0.00    -0.155 A  
HETATM   13  C   UNL     1      -8.485   6.100  67.674  1.00  0.00    -0.108 C  
HETATM   14  C   UNL     1      -8.729  12.229  67.428  1.00  0.00    -0.180 A  
HETATM   15  C   UNL     1      -9.665  13.276  67.610  1.00  0.00    -0.219 A  
HETATM   16  C   UNL     1      -7.289  12.679  67.254  1.00  0.00    -0.106 C  
HETATM   17  C   UNL     1      -6.172  11.637  67.325  1.00  0.00    -0.115 C  
HETATM   18  C   UNL     1     -11.030  13.021  67.709  1.00  0.00    -0.251 A  
HETATM   19  C   UNL     1     -11.502  11.725  67.587  1.00  0.00    -0.370 A  
HETATM   20 CL   UNL     1     -12.131  14.319  67.952  1.00  0.00    -0.354 Cl 
HETATM   21  C   UNL     1      -6.241  10.688  66.163  1.00  0.00    -0.125 A  
HETATM   22  C   UNL     1      -7.284   9.761  66.070  1.00  0.00    -0.101 A  
HETATM   23  C   UNL     1     -10.597  10.683  67.381  1.00  0.00    -0.304 A  
HETATM   24  N   UNL     1      -7.430   8.910  65.027  1.00  0.00    -0.095 NA 
HETATM   25  C   UNL     1      -6.504   8.987  64.045  1.00  0.00    -0.087 A  
HETATM   26  C   UNL     1      -5.440   9.874  64.046  1.00  0.00    -0.093 A  
HETATM   27  C   UNL     1      -5.306  10.738  65.125  1.00  0.00    -0.134 A  
ENDBRANCH   3   4
ENDBRANCH   2   3
TORSDOF 2
ENDMDL
MODEL       66
REMARK 921   NORMALIZED FREE ENERGY PREDICTED BY IDOCK:   -3.66 KCAL/MOL
REMARK 922        TOTAL FREE ENERGY PREDICTED BY IDOCK:   -4.21 KCAL/MOL
REMARK 923 INTER-LIGAND FREE ENERGY PREDICTED BY IDOCK:   -4.33 KCAL/MOL
REMARK 924 INTRA-LIGAND FREE ENERGY PREDICTED BY IDOCK:    0.12 KCAL/MOL
REMARK 927      BINDING AFFINITY PREDICTED BY RF-SCORE:    0.00 PKD
ROOT
HETATM    1  C   UNL     1      -5.206   2.802  65.169  1.00  0.00    -0.008 C  
HETATM    2  C   UNL     1      -5.733   4.214  65.004  1.00  0.00    -0.014 C  
ENDROOT
BRANCH   2   3
HETATM    3  O   UNL     1      -5.305   5.068  66.077  1.00  0.00    -0.012 OA 
BRANCH   3   4
HETATM    4  C   UNL     1      -6.060   5.029  67.209  1.00  0.00    -0.031 C  
HETATM    5  O   UNL     1      -5.815   4.292  68.158  1.00  0.00    -0.024 OA 
HETATM    6  N   UNL     1      -7.093   5.948  67.202  1.00  0.00    -0.069 N  
HETATM    7  C   UNL     1      -7.937   6.094  68.386  1.00  0.00    -0.108 C  
HETATM    8  C   UNL     1      -7.949   7.550  68.869  1.00  0.00    -0.126 C  
HETATM    9  C   UNL     1      -8.429   8.473  67.749  1.00  0.00    -0.130 C  
HETATM   10  C   UNL     1      -9.520   9.293  67.801  1.00  0.00    -0.160 C  
HETATM   11  C   UNL     1      -7.480   8.325  66.554  1.00  0.00    -0.081 C  
HETATM   12  C   UNL     1     -10.431   9.317  68.991  1.00  0.00    -0.233 A  
HETATM   13  C   UNL     1      -7.402   6.856  66.089  1.00  0.00    -0.076 C  
HETATM   14  C   UNL     1     -10.810  10.501  69.663  1.00  0.00    -0.320 A  
HETATM   15  C   UNL     1     -11.692  10.405  70.767  1.00  0.00    -0.464 A  
HETATM   16  C   UNL     1     -10.426  11.917  69.271  1.00  0.00     0.050 C  
HETATM   17  C   UNL     1      -9.278  12.128  68.283  1.00  0.00    -0.192 C  
HETATM   18  C   UNL     1     -12.190   9.176  71.194  1.00  0.00    -0.285 A  
HETATM   19  C   UNL     1     -11.856   8.019  70.510  1.00  0.00    -0.017 A  
HETATM   20 CL   UNL     1     -13.240   9.101  72.552  1.00  0.00    -0.501 Cl 
HETATM   21  C   UNL     1      -9.638  11.618  66.917  1.00  0.00    -0.199 A  
HETATM   22  C   UNL     1      -9.763  10.244  66.686  1.00  0.00    -0.185 A  
HETATM   23  C   UNL     1     -11.009   8.098  69.404  1.00  0.00    -0.015 A  
HETATM   24  N   UNL     1     -10.130   9.722  65.492  1.00  0.00    -0.263 NA 
HETATM   25  C   UNL     1     -10.379  10.601  64.495  1.00  0.00    -0.282 A  
HETATM   26  C   UNL     1     -10.286  11.976  64.628  1.00  0.00    -0.325 A  
HETATM   27  C   UNL     1      -9.908  12.493  65.860  1.00  0.00    -0.257 A  
ENDBRANCH   3   4
ENDBRANCH   2   3
TORSDOF 2
ENDMDL
MODEL       67
REMARK 921   NORMALIZED FREE ENERGY PREDICTED BY IDOCK:   -3.63 KCAL/MOL
REMARK 922        TOTAL FREE ENERGY PREDICTED BY IDOCK:   -4.18 KCAL/MOL
REMARK 923 INTER-LIGAND FREE ENERGY PREDICTED BY IDOCK:   -4.04 KCAL/MOL
REMARK 924 INTRA-LIGAND FREE ENERGY PREDICTED BY IDOCK:   -0.14 KCAL/MOL
REMARK 927      BINDING AFFINITY PREDICTED BY RF-SCORE:    0.00 PKD
ROOT
HETATM    1  C   UNL     1     -11.295   5.797  72.995  1.00  0.00    -0.254 C  
HETATM    2  C   UNL     1     -11.178   7.254  72.594  1.00  0.00    -0.313 C  
ENDROOT
BRANCH   2   3
HETATM    3  O   UNL     1     -11.872   7.523  71.366  1.00  0.00    -0.275 OA 
BRANCH   3   4
HETATM    4  C   UNL     1     -11.356   8.518  70.593  1.00  0.00    -0.241 C  
HETATM    5  O   UNL     1     -11.253   9.680  70.969  1.00  0.00    -0.316 OA 
HETATM    6  N   UNL     1     -10.905   8.068  69.365  1.00  0.00    -0.155 N  
HETATM    7  C   UNL     1     -10.237   8.999  68.457  1.00  0.00    -0.200 C  
HETATM    8  C   UNL     1      -8.851   8.472  68.061  1.00  0.00    -0.142 C  
HETATM    9  C   UNL     1      -8.976   7.091  67.420  1.00  0.00    -0.117 C  
HETATM   10  C   UNL     1      -8.574   6.756  66.159  1.00  0.00    -0.146 C  
HETATM   11  C   UNL     1      -9.628   6.141  68.431  1.00  0.00    -0.123 C  
HETATM   12  C   UNL     1      -8.009   7.775  65.215  1.00  0.00    -0.127 A  
HETATM   13  C   UNL     1     -10.998   6.680  68.893  1.00  0.00    -0.267 C  
HETATM   14  C   UNL     1      -6.788   7.609  64.523  1.00  0.00    -0.055 A  
HETATM   15  C   UNL     1      -6.360   8.631  63.642  1.00  0.00    -0.081 A  
HETATM   16  C   UNL     1      -5.895   6.380  64.561  1.00  0.00    -0.023 C  
HETATM   17  C   UNL     1      -6.106   5.344  65.665  1.00  0.00    -0.033 C  
HETATM   18  C   UNL     1      -7.116   9.785  63.446  1.00  0.00    -0.117 A  
HETATM   19  C   UNL     1      -8.334   9.930  64.088  1.00  0.00    -0.168 A  
HETATM   20 CL   UNL     1      -6.549  11.012  62.385  1.00  0.00    -0.043 Cl 
HETATM   21  C   UNL     1      -7.426   4.644  65.508  1.00  0.00    -0.081 A  
HETATM   22  C   UNL     1      -8.621   5.332  65.739  1.00  0.00    -0.139 A  
HETATM   23  C   UNL     1      -8.784   8.921  64.940  1.00  0.00    -0.184 A  
HETATM   24  N   UNL     1      -9.844   4.774  65.569  1.00  0.00    -0.167 NA 
HETATM   25  C   UNL     1      -9.872   3.487  65.156  1.00  0.00    -0.086 A  
HETATM   26  C   UNL     1      -8.744   2.726  64.898  1.00  0.00    -0.113 A  
HETATM   27  C   UNL     1      -7.500   3.315  65.078  1.00  0.00    -0.073 A  
ENDBRANCH   3   4
ENDBRANCH   2   3
TORSDOF 2
ENDMDL
MODEL       68
REMARK 921   NORMALIZED FREE ENERGY PREDICTED BY IDOCK:   -3.63 KCAL/MOL
REMARK 922        TOTAL FREE ENERGY PREDICTED BY IDOCK:   -4.17 KCAL/MOL
REMARK 923 INTER-LIGAND FREE ENERGY PREDICTED BY IDOCK:   -3.95 KCAL/MOL
REMARK 924 INTRA-LIGAND FREE ENERGY PREDICTED BY IDOCK:   -0.22 KCAL/MOL
REMARK 927      BINDING AFFINITY PREDICTED BY RF-SCORE:    0.00 PKD
ROOT
HETATM    1  C   UNL     1     -10.705   4.091  64.553  1.00  0.00    -0.181 C  
HETATM    2  C   UNL     1      -9.652   3.086  64.130  1.00  0.00    -0.146 C  
ENDROOT
BRANCH   2   3
HETATM    3  O   UNL     1      -8.760   2.767  65.211  1.00  0.00    -0.106 OA 
BRANCH   3   4
HETATM    4  C   UNL     1      -7.963   3.781  65.646  1.00  0.00    -0.093 C  
HETATM    5  O   UNL     1      -7.308   4.496  64.894  1.00  0.00    -0.069 OA 
HETATM    6  N   UNL     1      -8.015   3.958  67.017  1.00  0.00    -0.095 N  
HETATM    7  C   UNL     1      -7.287   5.068  67.629  1.00  0.00    -0.078 C  
HETATM    8  C   UNL     1      -8.231   5.944  68.462  1.00  0.00    -0.109 C  
HETATM    9  C   UNL     1      -8.926   5.102  69.531  1.00  0.00    -0.128 C  
HETATM   10  C   UNL     1      -8.853   5.303  70.880  1.00  0.00    -0.151 C  
HETATM   11  C   UNL     1      -9.720   3.989  68.836  1.00  0.00    -0.151 C  
HETATM   12  C   UNL     1      -7.991   6.378  71.471  1.00  0.00    -0.105 A  
HETATM   13  C   UNL     1      -8.802   3.131  67.941  1.00  0.00    -0.132 C  
HETATM   14  C   UNL     1      -8.457   7.330  72.406  1.00  0.00    -0.127 A  
HETATM   15  C   UNL     1      -7.548   8.290  72.911  1.00  0.00    -0.161 A  
HETATM   16  C   UNL     1      -9.851   7.388  73.007  1.00  0.00    -0.279 C  
HETATM   17  C   UNL     1     -10.977   6.591  72.349  1.00  0.00    -0.279 C  
HETATM   18  C   UNL     1      -6.214   8.310  72.508  1.00  0.00    -0.073 A  
HETATM   19  C   UNL     1      -5.744   7.352  71.626  1.00  0.00    -0.036 A  
HETATM   20 CL   UNL     1      -5.148   9.507  73.128  1.00  0.00    -0.099 Cl 
HETATM   21  C   UNL     1     -10.748   5.113  72.485  1.00  0.00    -0.286 A  
HETATM   22  C   UNL     1      -9.713   4.491  71.780  1.00  0.00    -0.171 A  
HETATM   23  C   UNL     1      -6.620   6.381  71.138  1.00  0.00    -0.051 A  
HETATM   24  N   UNL     1      -9.423   3.174  71.894  1.00  0.00    -0.128 NA 
HETATM   25  C   UNL     1     -10.193   2.453  72.740  1.00  0.00    -0.155 A  
HETATM   26  C   UNL     1     -11.236   2.980  73.484  1.00  0.00    -0.293 A  
HETATM   27  C   UNL     1     -11.518   4.333  73.353  1.00  0.00    -0.267 A  
ENDBRANCH   3   4
ENDBRANCH   2   3
TORSDOF 2
ENDMDL
MODEL       69
REMARK 921   NORMALIZED FREE ENERGY PREDICTED BY IDOCK:   -3.51 KCAL/MOL
REMARK 922        TOTAL FREE ENERGY PREDICTED BY IDOCK:   -4.04 KCAL/MOL
REMARK 923 INTER-LIGAND FREE ENERGY PREDICTED BY IDOCK:   -4.50 KCAL/MOL
REMARK 924 INTRA-LIGAND FREE ENERGY PREDICTED BY IDOCK:    0.46 KCAL/MOL
REMARK 927      BINDING AFFINITY PREDICTED BY RF-SCORE:    0.00 PKD
ROOT
HETATM    1  C   UNL     1     -13.076   8.541  72.088  1.00  0.00    -0.393 C  
HETATM    2  C   UNL     1     -12.724  10.011  72.201  1.00  0.00    -0.265 C  
ENDROOT
BRANCH   2   3
HETATM    3  O   UNL     1     -13.869  10.849  71.976  1.00  0.00    -0.022 OA 
BRANCH   3   4
HETATM    4  C   UNL     1     -13.620  12.182  71.853  1.00  0.00    -0.077 C  
HETATM    5  O   UNL     1     -13.964  13.012  72.687  1.00  0.00    -0.657 OA 
HETATM    6  N   UNL     1     -12.887  12.492  70.722  1.00  0.00    -0.097 N  
HETATM    7  C   UNL     1     -12.457  13.871  70.497  1.00  0.00    -0.352 C  
HETATM    8  C   UNL     1     -10.936  13.943  70.311  1.00  0.00     0.428 C  
HETATM    9  C   UNL     1     -10.503  13.048  69.151  1.00  0.00     0.077 C  
HETATM   10  C   UNL     1      -9.851  13.459  68.024  1.00  0.00    -0.229 C  
HETATM   11  C   UNL     1     -10.925  11.607  69.462  1.00  0.00    -0.159 C  
HETATM   12  C   UNL     1      -9.542  14.906  67.776  1.00  0.00    -0.208 A  
HETATM   13  C   UNL     1     -12.445  11.519  69.715  1.00  0.00    -0.057 C  
HETATM   14  C   UNL     1      -8.256  15.385  67.436  1.00  0.00    -0.205 A  
HETATM   15  C   UNL     1      -8.085  16.771  67.207  1.00  0.00    -0.201 A  
HETATM   16  C   UNL     1      -7.016  14.539  67.205  1.00  0.00     0.055 C  
HETATM   17  C   UNL     1      -7.010  13.086  67.682  1.00  0.00    -0.154 C  
HETATM   18  C   UNL     1      -9.152  17.661  67.307  1.00  0.00    -0.237 A  
HETATM   19  C   UNL     1     -10.422  17.189  67.595  1.00  0.00    -0.355 A  
HETATM   20 CL   UNL     1      -8.897  19.340  67.042  1.00  0.00    -0.306 Cl 
HETATM   21  C   UNL     1      -7.984  12.253  66.899  1.00  0.00    -0.068 A  
HETATM   22  C   UNL     1      -9.361  12.441  67.059  1.00  0.00    -0.204 A  
HETATM   23  C   UNL     1     -10.614  15.822  67.798  1.00  0.00    -0.292 A  
HETATM   24  N   UNL     1     -10.291  11.758  66.351  1.00  0.00    -0.216 NA 
HETATM   25  C   UNL     1      -9.831  10.857  65.454  1.00  0.00    -0.255 A  
HETATM   26  C   UNL     1      -8.489  10.605  65.222  1.00  0.00    -0.152 A  
HETATM   27  C   UNL     1      -7.550  11.315  65.958  1.00  0.00     0.101 A  
ENDBRANCH   3   4
ENDBRANCH   2   3
TORSDOF 2
ENDMDL
MODEL       70
REMARK 921   NORMALIZED FREE ENERGY PREDICTED BY IDOCK:   -3.51 KCAL/MOL
REMARK 922        TOTAL FREE ENERGY PREDICTED BY IDOCK:   -4.04 KCAL/MOL
REMARK 923 INTER-LIGAND FREE ENERGY PREDICTED BY IDOCK:   -3.95 KCAL/MOL
REMARK 924 INTRA-LIGAND FREE ENERGY PREDICTED BY IDOCK:   -0.09 KCAL/MOL
REMARK 927      BINDING AFFINITY PREDICTED BY RF-SCORE:    0.00 PKD
ROOT
HETATM    1  C   UNL     1     -10.080   6.843  69.195  1.00  0.00    -0.180 C  
HETATM    2  C   UNL     1      -8.756   7.092  68.498  1.00  0.00    -0.126 C  
ENDROOT
BRANCH   2   3
HETATM    3  O   UNL     1      -8.868   8.120  67.500  1.00  0.00    -0.133 OA 
BRANCH   3   4
HETATM    4  C   UNL     1      -7.872   9.047  67.483  1.00  0.00    -0.100 C  
HETATM    5  O   UNL     1      -6.782   8.856  66.956  1.00  0.00    -0.067 OA 
HETATM    6  N   UNL     1      -8.240  10.246  68.068  1.00  0.00    -0.112 N  
HETATM    7  C   UNL     1      -7.311  11.374  68.045  1.00  0.00    -0.090 C  
HETATM    8  C   UNL     1      -7.969  12.607  67.411  1.00  0.00    -0.177 C  
HETATM    9  C   UNL     1      -9.244  12.973  68.170  1.00  0.00    -0.212 C  
HETATM   10  C   UNL     1      -9.488  14.163  68.794  1.00  0.00    -0.102 C  
HETATM   11  C   UNL     1     -10.205  11.780  68.116  1.00  0.00    -0.210 C  
HETATM   12  C   UNL     1      -8.455  15.249  68.853  1.00  0.00    -0.202 A  
HETATM   13  C   UNL     1      -9.543  10.511  68.692  1.00  0.00    -0.171 C  
HETATM   14  C   UNL     1      -8.704  16.588  68.475  1.00  0.00    -0.228 A  
HETATM   15  C   UNL     1      -7.657  17.533  68.590  1.00  0.00    -0.273 A  
HETATM   16  C   UNL     1     -10.036  17.159  68.021  1.00  0.00    -0.311 C  
HETATM   17  C   UNL     1     -11.151  16.199  67.602  1.00  0.00    -0.212 C  
HETATM   18  C   UNL     1      -6.399  17.170  69.066  1.00  0.00    -0.204 A  
HETATM   19  C   UNL     1      -6.165  15.869  69.479  1.00  0.00    -0.163 A  
HETATM   20 CL   UNL     1      -5.148  18.344  69.168  1.00  0.00    -0.184 Cl 
HETATM   21  C   UNL     1     -11.649  15.402  68.774  1.00  0.00    -0.382 A  
HETATM   22  C   UNL     1     -10.839  14.421  69.356  1.00  0.00    -0.201 A  
HETATM   23  C   UNL     1      -7.194  14.930  69.398  1.00  0.00    -0.182 A  
HETATM   24  N   UNL     1     -11.208  13.701  70.441  1.00  0.00     0.249 NA 
HETATM   25  C   UNL     1     -12.427  13.968  70.962  1.00  0.00    -0.371 A  
HETATM   26  C   UNL     1     -13.297  14.922  70.459  1.00  0.00    -0.145 A  
HETATM   27  C   UNL     1     -12.901  15.650  69.345  1.00  0.00     0.541 A  
ENDBRANCH   3   4
ENDBRANCH   2   3
TORSDOF 2
ENDMDL
MODEL       71
REMARK 921   NORMALIZED FREE ENERGY PREDICTED BY IDOCK:   -3.46 KCAL/MOL
REMARK 922        TOTAL FREE ENERGY PREDICTED BY IDOCK:   -3.98 KCAL/MOL
REMARK 923 INTER-LIGAND FREE ENERGY PREDICTED BY IDOCK:   -3.88 KCAL/MOL
REMARK 924 INTRA-LIGAND FREE ENERGY PREDICTED BY IDOCK:   -0.10 KCAL/MOL
REMARK 927      BINDING AFFINITY PREDICTED BY RF-SCORE:    0.00 PKD
ROOT
HETATM    1  C   UNL     1      -8.212   7.089  62.952  1.00  0.00     0.036 C  
HETATM    2  C   UNL     1      -6.989   7.488  63.755  1.00  0.00    -0.059 C  
ENDROOT
BRANCH   2   3
HETATM    3  O   UNL     1      -7.199   7.307  65.164  1.00  0.00    -0.064 OA 
BRANCH   3   4
HETATM    4  C   UNL     1      -6.389   8.029  65.987  1.00  0.00    -0.046 C  
HETATM    5  O   UNL     1      -5.208   7.757  66.180  1.00  0.00    -0.024 OA 
HETATM    6  N   UNL     1      -7.018   9.133  66.531  1.00  0.00    -0.080 N  
HETATM    7  C   UNL     1      -6.254  10.062  67.362  1.00  0.00    -0.059 C  
HETATM    8  C   UNL     1      -6.359  11.492  66.816  1.00  0.00    -0.134 C  
HETATM    9  C   UNL     1      -7.824  11.920  66.737  1.00  0.00    -0.070 C  
HETATM   10  C   UNL     1      -8.381  12.987  67.382  1.00  0.00    -0.194 C  
HETATM   11  C   UNL     1      -8.567  10.950  65.811  1.00  0.00    -0.176 C  
HETATM   12  C   UNL     1      -7.586  13.840  68.326  1.00  0.00    -0.129 A  
HETATM   13  C   UNL     1      -8.424   9.495  66.305  1.00  0.00    -0.115 C  
HETATM   14  C   UNL     1      -7.526  15.250  68.245  1.00  0.00    -0.112 A  
HETATM   15  C   UNL     1      -6.757  15.953  69.203  1.00  0.00    -0.164 A  
HETATM   16  C   UNL     1      -8.283  16.125  67.262  1.00  0.00    -0.203 C  
HETATM   17  C   UNL     1      -8.917  15.479  66.029  1.00  0.00    -0.250 C  
HETATM   18  C   UNL     1      -6.068  15.287  70.214  1.00  0.00    -0.111 A  
HETATM   19  C   UNL     1      -6.162  13.910  70.322  1.00  0.00    -0.110 A  
HETATM   20 CL   UNL     1      -5.127  16.178  71.343  1.00  0.00    -0.136 Cl 
HETATM   21  C   UNL     1     -10.046  14.567  66.415  1.00  0.00    -0.293 A  
HETATM   22  C   UNL     1      -9.786  13.363  67.078  1.00  0.00    -0.239 A  
HETATM   23  C   UNL     1      -6.937  13.201  69.403  1.00  0.00     0.097 A  
HETATM   24  N   UNL     1     -10.759  12.519  67.495  1.00  0.00    -0.222 NA 
HETATM   25  C   UNL     1     -12.034  12.889  67.240  1.00  0.00    -0.309 A  
HETATM   26  C   UNL     1     -12.391  14.061  66.595  1.00  0.00    -0.408 A  
HETATM   27  C   UNL     1     -11.379  14.914  66.175  1.00  0.00    -0.307 A  
ENDBRANCH   3   4
ENDBRANCH   2   3
TORSDOF 2
ENDMDL
MODEL       72
REMARK 921   NORMALIZED FREE ENERGY PREDICTED BY IDOCK:   -3.41 KCAL/MOL
REMARK 922        TOTAL FREE ENERGY PREDICTED BY IDOCK:   -3.92 KCAL/MOL
REMARK 923 INTER-LIGAND FREE ENERGY PREDICTED BY IDOCK:   -3.77 KCAL/MOL
REMARK 924 INTRA-LIGAND FREE ENERGY PREDICTED BY IDOCK:   -0.15 KCAL/MOL
REMARK 927      BINDING AFFINITY PREDICTED BY RF-SCORE:    0.00 PKD
ROOT
HETATM    1  C   UNL     1      -7.169   2.926  64.444  1.00  0.00    -0.061 C  
HETATM    2  C   UNL     1      -6.269   3.986  63.840  1.00  0.00    -0.022 C  
ENDROOT
BRANCH   2   3
HETATM    3  O   UNL     1      -6.028   5.062  64.761  1.00  0.00    -0.020 OA 
BRANCH   3   4
HETATM    4  C   UNL     1      -6.903   6.103  64.707  1.00  0.00    -0.047 C  
HETATM    5  O   UNL     1      -7.483   6.445  63.681  1.00  0.00    -0.067 OA 
HETATM    6  N   UNL     1      -7.116   6.694  65.939  1.00  0.00    -0.061 N  
HETATM    7  C   UNL     1      -8.102   7.766  66.064  1.00  0.00    -0.117 C  
HETATM    8  C   UNL     1      -9.140   7.427  67.141  1.00  0.00    -0.146 C  
HETATM    9  C   UNL     1      -8.448   7.173  68.480  1.00  0.00    -0.125 C  
HETATM   10  C   UNL     1      -8.663   7.868  69.635  1.00  0.00    -0.134 C  
HETATM   11  C   UNL     1      -7.469   6.006  68.309  1.00  0.00    -0.086 C  
HETATM   12  C   UNL     1      -9.592   9.044  69.686  1.00  0.00    -0.175 A  
HETATM   13  C   UNL     1      -6.451   6.297  67.187  1.00  0.00    -0.053 C  
HETATM   14  C   UNL     1     -10.628   9.183  70.638  1.00  0.00    -0.305 A  
HETATM   15  C   UNL     1     -11.433  10.346  70.602  1.00  0.00    -0.438 A  
HETATM   16  C   UNL     1     -10.930   8.229  71.780  1.00  0.00    -0.342 C  
HETATM   17  C   UNL     1     -10.318   6.828  71.758  1.00  0.00    -0.217 C  
HETATM   18  C   UNL     1     -11.223  11.347  69.656  1.00  0.00    -0.230 A  
HETATM   19  C   UNL     1     -10.181  11.235  68.751  1.00  0.00    -0.215 A  
HETATM   20 CL   UNL     1     -12.239  12.734  69.633  1.00  0.00    -0.246 Cl 
HETATM   21  C   UNL     1      -8.825   6.885  71.918  1.00  0.00    -0.126 A  
HETATM   22  C   UNL     1      -8.025   7.398  70.892  1.00  0.00    -0.097 A  
HETATM   23  C   UNL     1      -9.360  10.107  68.788  1.00  0.00    -0.168 A  
HETATM   24  N   UNL     1      -6.680   7.521  70.990  1.00  0.00    -0.043 NA 
HETATM   25  C   UNL     1      -6.116   7.118  72.151  1.00  0.00    -0.041 A  
HETATM   26  C   UNL     1      -6.825   6.603  73.223  1.00  0.00    -0.076 A  
HETATM   27  C   UNL     1      -8.203   6.484  73.104  1.00  0.00    -0.114 A  
ENDBRANCH   3   4
ENDBRANCH   2   3
TORSDOF 2
ENDMDL
MODEL       73
REMARK 921   NORMALIZED FREE ENERGY PREDICTED BY IDOCK:   -3.35 KCAL/MOL
REMARK 922        TOTAL FREE ENERGY PREDICTED BY IDOCK:   -3.85 KCAL/MOL
REMARK 923 INTER-LIGAND FREE ENERGY PREDICTED BY IDOCK:   -3.74 KCAL/MOL
REMARK 924 INTRA-LIGAND FREE ENERGY PREDICTED BY IDOCK:   -0.11 KCAL/MOL
REMARK 927      BINDING AFFINITY PREDICTED BY RF-SCORE:    0.00 PKD
ROOT
HETATM    1  C   UNL     1      -9.302  18.370  68.671  1.00  0.00    -0.339 C  
HETATM    2  C   UNL     1      -7.973  19.084  68.821  1.00  0.00    -0.333 C  
ENDROOT
BRANCH   2   3
HETATM    3  O   UNL     1      -6.906  18.352  68.196  1.00  0.00    -0.219 OA 
BRANCH   3   4
HETATM    4  C   UNL     1      -6.270  17.437  68.979  1.00  0.00    -0.209 C  
HETATM    5  O   UNL     1      -5.549  17.742  69.923  1.00  0.00    -0.216 OA 
HETATM    6  N   UNL     1      -6.572  16.132  68.637  1.00  0.00    -0.122 N  
HETATM    7  C   UNL     1      -6.042  15.034  69.443  1.00  0.00    -0.110 C  
HETATM    8  C   UNL     1      -7.176  14.132  69.946  1.00  0.00     0.253 C  
HETATM    9  C   UNL     1      -7.983  13.592  68.766  1.00  0.00    -0.022 C  
HETATM   10  C   UNL     1      -8.160  12.274  68.453  1.00  0.00    -0.151 C  
HETATM   11  C   UNL     1      -8.563  14.779  67.987  1.00  0.00    -0.166 C  
HETATM   12  C   UNL     1      -7.492  11.183  69.236  1.00  0.00    -0.076 A  
HETATM   13  C   UNL     1      -7.445  15.736  67.524  1.00  0.00    -0.172 C  
HETATM   14  C   UNL     1      -8.180  10.071  69.773  1.00  0.00    -0.191 A  
HETATM   15  C   UNL     1      -7.443   9.092  70.480  1.00  0.00    -0.099 A  
HETATM   16  C   UNL     1      -9.657   9.762  69.601  1.00  0.00    -0.239 C  
HETATM   17  C   UNL     1     -10.593  10.864  69.101  1.00  0.00    -0.253 C  
HETATM   18  C   UNL     1      -6.065   9.202  70.652  1.00  0.00    -0.047 A  
HETATM   19  C   UNL     1      -5.381  10.267  70.089  1.00  0.00    -0.042 A  
HETATM   20 CL   UNL     1      -5.211   8.002  71.537  1.00  0.00    -0.034 Cl 
HETATM   21  C   UNL     1     -10.285  11.233  67.678  1.00  0.00    -0.206 A  
HETATM   22  C   UNL     1      -9.102  11.909  67.364  1.00  0.00    -0.178 A  
HETATM   23  C   UNL     1      -6.088  11.229  69.365  1.00  0.00    -0.074 A  
HETATM   24  N   UNL     1      -8.742  12.229  66.099  1.00  0.00     0.048 NA 
HETATM   25  C   UNL     1      -9.593  11.862  65.114  1.00  0.00    -0.114 A  
HETATM   26  C   UNL     1     -10.784  11.187  65.325  1.00  0.00    -0.271 A  
HETATM   27  C   UNL     1     -11.136  10.868  66.630  1.00  0.00    -0.155 A  
ENDBRANCH   3   4
ENDBRANCH   2   3
TORSDOF 2
ENDMDL
MODEL       74
REMARK 921   NORMALIZED FREE ENERGY PREDICTED BY IDOCK:   -3.27 KCAL/MOL
REMARK 922        TOTAL FREE ENERGY PREDICTED BY IDOCK:   -3.77 KCAL/MOL
REMARK 923 INTER-LIGAND FREE ENERGY PREDICTED BY IDOCK:   -3.58 KCAL/MOL
REMARK 924 INTRA-LIGAND FREE ENERGY PREDICTED BY IDOCK:   -0.19 KCAL/MOL
REMARK 927      BINDING AFFINITY PREDICTED BY RF-SCORE:    0.00 PKD
ROOT
HETATM    1  C   UNL     1     -11.525   4.893  73.166  1.00  0.00    -0.362 C  
HETATM    2  C   UNL     1     -10.940   3.553  73.569  1.00  0.00    -0.236 C  
ENDROOT
BRANCH   2   3
HETATM    3  O   UNL     1      -9.593   3.399  73.095  1.00  0.00    -0.106 OA 
BRANCH   3   4
HETATM    4  C   UNL     1      -9.457   2.993  71.803  1.00  0.00    -0.139 C  
HETATM    5  O   UNL     1      -9.821   1.894  71.399  1.00  0.00    -0.144 OA 
HETATM    6  N   UNL     1      -8.923   3.970  70.983  1.00  0.00    -0.101 N  
HETATM    7  C   UNL     1      -8.801   3.721  69.548  1.00  0.00    -0.092 C  
HETATM    8  C   UNL     1      -9.515   4.815  68.743  1.00  0.00    -0.209 C  
HETATM    9  C   UNL     1      -8.947   6.188  69.101  1.00  0.00    -0.126 C  
HETATM   10  C   UNL     1      -8.356   7.060  68.232  1.00  0.00    -0.123 C  
HETATM   11  C   UNL     1      -9.150   6.424  70.602  1.00  0.00    -0.148 C  
HETATM   12  C   UNL     1      -8.139   6.710  66.790  1.00  0.00    -0.113 A  
HETATM   13  C   UNL     1      -8.494   5.301  71.433  1.00  0.00    -0.125 C  
HETATM   14  C   UNL     1      -8.538   7.535  65.715  1.00  0.00    -0.158 A  
HETATM   15  C   UNL     1      -8.264   7.110  64.393  1.00  0.00     0.018 A  
HETATM   16  C   UNL     1      -9.178   8.908  65.828  1.00  0.00    -0.283 C  
HETATM   17  C   UNL     1      -9.762   9.346  67.171  1.00  0.00    -0.225 C  
HETATM   18  C   UNL     1      -7.612   5.906  64.137  1.00  0.00    -0.085 A  
HETATM   19  C   UNL     1      -7.180   5.117  65.189  1.00  0.00    -0.067 A  
HETATM   20 CL   UNL     1      -7.319   5.416  62.516  1.00  0.00    -0.044 Cl 
HETATM   21  C   UNL     1      -8.682   9.529  68.199  1.00  0.00    -0.120 A  
HETATM   22  C   UNL     1      -7.996   8.421  68.706  1.00  0.00    -0.120 A  
HETATM   23  C   UNL     1      -7.418   5.533  66.500  1.00  0.00    -0.087 A  
HETATM   24  N   UNL     1      -6.982   8.520  69.598  1.00  0.00    -0.047 NA 
HETATM   25  C   UNL     1      -6.643   9.767  69.997  1.00  0.00    -0.081 A  
HETATM   26  C   UNL     1      -7.260  10.923  69.548  1.00  0.00    -0.113 A  
HETATM   27  C   UNL     1      -8.298  10.801  68.635  1.00  0.00    -0.141 A  
ENDBRANCH   3   4
ENDBRANCH   2   3
TORSDOF 2
ENDMDL
MODEL       75
REMARK 921   NORMALIZED FREE ENERGY PREDICTED BY IDOCK:   -3.17 KCAL/MOL
REMARK 922        TOTAL FREE ENERGY PREDICTED BY IDOCK:   -3.65 KCAL/MOL
REMARK 923 INTER-LIGAND FREE ENERGY PREDICTED BY IDOCK:   -4.72 KCAL/MOL
REMARK 924 INTRA-LIGAND FREE ENERGY PREDICTED BY IDOCK:    1.07 KCAL/MOL
REMARK 927      BINDING AFFINITY PREDICTED BY RF-SCORE:    0.00 PKD
ROOT
HETATM    1  C   UNL     1     -12.940  12.996  71.683  1.00  0.00    -0.417 C  
HETATM    2  C   UNL     1     -12.525  12.993  70.225  1.00  0.00    -0.147 C  
ENDROOT
BRANCH   2   3
HETATM    3  O   UNL     1     -11.335  13.769  70.012  1.00  0.00    -0.160 OA 
BRANCH   3   4
HETATM    4  C   UNL     1     -10.720  13.602  68.809  1.00  0.00    -0.244 C  
HETATM    5  O   UNL     1     -10.319  14.534  68.120  1.00  0.00    -0.226 OA 
HETATM    6  N   UNL     1     -10.540  12.272  68.475  1.00  0.00    -0.230 N  
HETATM    7  C   UNL     1      -9.810  11.927  67.257  1.00  0.00    -0.187 C  
HETATM    8  C   UNL     1      -8.635  10.992  67.573  1.00  0.00    -0.128 C  
HETATM    9  C   UNL     1      -9.138   9.732  68.275  1.00  0.00    -0.122 C  
HETATM   10  C   UNL     1      -8.986   8.451  67.825  1.00  0.00    -0.140 C  
HETATM   11  C   UNL     1      -9.844  10.143  69.572  1.00  0.00    -0.255 C  
HETATM   12  C   UNL     1      -8.340   8.152  66.505  1.00  0.00    -0.113 A  
HETATM   13  C   UNL     1     -10.992  11.134  69.285  1.00  0.00    -0.247 C  
HETATM   14  C   UNL     1      -7.284   7.226  66.342  1.00  0.00    -0.079 A  
HETATM   15  C   UNL     1      -6.763   7.010  65.044  1.00  0.00    -0.047 A  
HETATM   16  C   UNL     1      -6.682   6.352  67.429  1.00  0.00    -0.060 C  
HETATM   17  C   UNL     1      -6.968   6.686  68.893  1.00  0.00    -0.079 C  
HETATM   18  C   UNL     1      -7.269   7.686  63.936  1.00  0.00    -0.081 A  
HETATM   19  C   UNL     1      -8.333   8.559  64.085  1.00  0.00    -0.102 A  
HETATM   20 CL   UNL     1      -6.592   7.411  62.380  1.00  0.00    -0.068 Cl 
HETATM   21  C   UNL     1      -8.417   6.472  69.225  1.00  0.00    -0.127 A  
HETATM   22  C   UNL     1      -9.395   7.323  68.700  1.00  0.00    -0.138 A  
HETATM   23  C   UNL     1      -8.877   8.765  65.354  1.00  0.00    -0.221 A  
HETATM   24  N   UNL     1     -10.720   7.158  68.922  1.00  0.00    -0.201 NA 
HETATM   25  C   UNL     1     -11.081   6.108  69.695  1.00  0.00    -0.419 A  
HETATM   26  C   UNL     1     -10.188   5.210  70.255  1.00  0.00    -0.342 A  
HETATM   27  C   UNL     1      -8.833   5.397  70.016  1.00  0.00    -0.141 A  
ENDBRANCH   3   4
ENDBRANCH   2   3
TORSDOF 2
ENDMDL
MODEL       76
REMARK 921   NORMALIZED FREE ENERGY PREDICTED BY IDOCK:   -3.15 KCAL/MOL
REMARK 922        TOTAL FREE ENERGY PREDICTED BY IDOCK:   -3.63 KCAL/MOL
REMARK 923 INTER-LIGAND FREE ENERGY PREDICTED BY IDOCK:   -3.74 KCAL/MOL
REMARK 924 INTRA-LIGAND FREE ENERGY PREDICTED BY IDOCK:    0.11 KCAL/MOL
REMARK 927      BINDING AFFINITY PREDICTED BY RF-SCORE:    0.00 PKD
ROOT
HETATM    1  C   UNL     1      -6.803  10.233  63.568  1.00  0.00    -0.083 C  
HETATM    2  C   UNL     1      -8.140  10.417  62.876  1.00  0.00    -0.153 C  
ENDROOT
BRANCH   2   3
HETATM    3  O   UNL     1      -9.117   9.478  63.352  1.00  0.00    -0.233 OA 
BRANCH   3   4
HETATM    4  C   UNL     1      -9.517   9.635  64.644  1.00  0.00    -0.152 C  
HETATM    5  O   UNL     1     -10.266  10.533  65.014  1.00  0.00    -0.315 OA 
HETATM    6  N   UNL     1      -9.040   8.643  65.481  1.00  0.00    -0.171 N  
HETATM    7  C   UNL     1      -9.459   8.618  66.881  1.00  0.00    -0.180 C  
HETATM    8  C   UNL     1     -10.082   7.263  67.239  1.00  0.00    -0.291 C  
HETATM    9  C   UNL     1      -9.091   6.135  66.953  1.00  0.00    -0.129 C  
HETATM   10  C   UNL     1      -8.606   5.245  67.869  1.00  0.00    -0.103 C  
HETATM   11  C   UNL     1      -8.729   6.169  65.464  1.00  0.00    -0.105 C  
HETATM   12  C   UNL     1      -8.966   5.336  69.322  1.00  0.00    -0.126 A  
HETATM   13  C   UNL     1      -8.157   7.545  65.065  1.00  0.00    -0.127 C  
HETATM   14  C   UNL     1      -9.461   4.247  70.076  1.00  0.00    -0.254 A  
HETATM   15  C   UNL     1      -9.750   4.445  71.447  1.00  0.00    -0.248 A  
HETATM   16  C   UNL     1      -9.647   2.824  69.579  1.00  0.00    -0.055 C  
HETATM   17  C   UNL     1      -9.631   2.555  68.074  1.00  0.00    -0.083 C  
HETATM   18  C   UNL     1      -9.554   5.680  72.061  1.00  0.00    -0.151 A  
HETATM   19  C   UNL     1      -9.027   6.736  71.336  1.00  0.00    -0.142 A  
HETATM   20 CL   UNL     1      -9.939   5.883  73.723  1.00  0.00    -0.185 Cl 
HETATM   21  C   UNL     1      -8.269   2.806  67.493  1.00  0.00    -0.087 A  
HETATM   22  C   UNL     1      -7.770   4.110  67.402  1.00  0.00    -0.084 A  
HETATM   23  C   UNL     1      -8.711   6.552  69.989  1.00  0.00    -0.140 A  
HETATM   24  N   UNL     1      -6.534   4.401  66.932  1.00  0.00    -0.040 NA 
HETATM   25  C   UNL     1      -5.771   3.356  66.540  1.00  0.00    -0.022 A  
HETATM   26  C   UNL     1      -6.175   2.032  66.597  1.00  0.00    -0.023 A  
HETATM   27  C   UNL     1      -7.446   1.754  67.080  1.00  0.00    -0.059 A  
ENDBRANCH   3   4
ENDBRANCH   2   3
TORSDOF 2
ENDMDL
MODEL       77
REMARK 921   NORMALIZED FREE ENERGY PREDICTED BY IDOCK:   -3.07 KCAL/MOL
REMARK 922        TOTAL FREE ENERGY PREDICTED BY IDOCK:   -3.55 KCAL/MOL
REMARK 923 INTER-LIGAND FREE ENERGY PREDICTED BY IDOCK:   -3.82 KCAL/MOL
REMARK 924 INTRA-LIGAND FREE ENERGY PREDICTED BY IDOCK:    0.27 KCAL/MOL
REMARK 927      BINDING AFFINITY PREDICTED BY RF-SCORE:    0.00 PKD
ROOT
HETATM    1  C   UNL     1     -10.374  14.335  67.281  1.00  0.00    -0.260 C  
HETATM    2  C   UNL     1      -9.936  13.130  66.471  1.00  0.00    -0.268 C  
ENDROOT
BRANCH   2   3
HETATM    3  O   UNL     1      -8.537  12.855  66.645  1.00  0.00    -0.121 OA 
BRANCH   3   4
HETATM    4  C   UNL     1      -8.144  12.535  67.909  1.00  0.00    -0.163 C  
HETATM    5  O   UNL     1      -8.015  13.363  68.805  1.00  0.00    -0.093 OA 
HETATM    6  N   UNL     1      -7.964  11.176  68.091  1.00  0.00    -0.119 N  
HETATM    7  C   UNL     1      -7.633  10.664  69.419  1.00  0.00    -0.134 C  
HETATM    8  C   UNL     1      -8.644   9.597  69.858  1.00  0.00    -0.218 C  
HETATM    9  C   UNL     1      -8.688   8.460  68.838  1.00  0.00    -0.136 C  
HETATM   10  C   UNL     1      -8.411   7.147  69.092  1.00  0.00    -0.133 C  
HETATM   11  C   UNL     1      -9.094   9.040  67.478  1.00  0.00    -0.145 C  
HETATM   12  C   UNL     1      -7.952   6.686  70.443  1.00  0.00    -0.115 A  
HETATM   13  C   UNL     1      -8.127  10.160  67.043  1.00  0.00    -0.117 C  
HETATM   14  C   UNL     1      -8.547   5.616  71.150  1.00  0.00    -0.127 A  
HETATM   15  C   UNL     1      -8.018   5.256  72.412  1.00  0.00    -0.103 A  
HETATM   16  C   UNL     1      -9.678   4.732  70.652  1.00  0.00    -0.271 C  
HETATM   17  C   UNL     1     -10.499   5.187  69.445  1.00  0.00    -0.203 C  
HETATM   18  C   UNL     1      -6.929   5.929  72.962  1.00  0.00    -0.077 A  
HETATM   19  C   UNL     1      -6.316   6.948  72.253  1.00  0.00    -0.049 A  
HETATM   20 CL   UNL     1      -6.331   5.474  74.508  1.00  0.00    -0.068 Cl 
HETATM   21  C   UNL     1      -9.668   5.193  68.194  1.00  0.00    -0.190 A  
HETATM   22  C   UNL     1      -8.651   6.139  68.028  1.00  0.00    -0.115 A  
HETATM   23  C   UNL     1      -6.808   7.299  70.995  1.00  0.00    -0.055 A  
HETATM   24  N   UNL     1      -7.835   6.170  66.947  1.00  0.00    -0.103 NA 
HETATM   25  C   UNL     1      -8.043   5.227  66.001  1.00  0.00    -0.110 A  
HETATM   26  C   UNL     1      -9.021   4.248  66.079  1.00  0.00    -0.123 A  
HETATM   27  C   UNL     1      -9.847   4.233  67.194  1.00  0.00    -0.205 A  
ENDBRANCH   3   4
ENDBRANCH   2   3
TORSDOF 2
ENDMDL
MODEL       78
REMARK 921   NORMALIZED FREE ENERGY PREDICTED BY IDOCK:   -3.07 KCAL/MOL
REMARK 922        TOTAL FREE ENERGY PREDICTED BY IDOCK:   -3.54 KCAL/MOL
REMARK 923 INTER-LIGAND FREE ENERGY PREDICTED BY IDOCK:   -3.87 KCAL/MOL
REMARK 924 INTRA-LIGAND FREE ENERGY PREDICTED BY IDOCK:    0.32 KCAL/MOL
REMARK 927      BINDING AFFINITY PREDICTED BY RF-SCORE:    0.00 PKD
ROOT
HETATM    1  C   UNL     1      -7.052  14.354  68.880  1.00  0.00    -0.116 C  
HETATM    2  C   UNL     1      -6.126  13.494  68.042  1.00  0.00    -0.133 C  
ENDROOT
BRANCH   2   3
HETATM    3  O   UNL     1      -5.200  12.761  68.859  1.00  0.00    -0.066 OA 
BRANCH   3   4
HETATM    4  C   UNL     1      -5.723  12.157  69.961  1.00  0.00    -0.141 C  
HETATM    5  O   UNL     1      -5.857  12.724  71.041  1.00  0.00    -0.312 OA 
HETATM    6  N   UNL     1      -6.143  10.862  69.720  1.00  0.00    -0.073 N  
HETATM    7  C   UNL     1      -6.813  10.112  70.780  1.00  0.00     0.095 C  
HETATM    8  C   UNL     1      -8.180   9.603  70.306  1.00  0.00    -0.217 C  
HETATM    9  C   UNL     1      -8.016   8.739  69.056  1.00  0.00    -0.111 C  
HETATM   10  C   UNL     1      -8.388   7.431  68.934  1.00  0.00    -0.129 C  
HETATM   11  C   UNL     1      -7.363   9.587  67.958  1.00  0.00    -0.082 C  
HETATM   12  C   UNL     1      -8.958   6.663  70.090  1.00  0.00    -0.152 A  
HETATM   13  C   UNL     1      -6.013  10.162  68.435  1.00  0.00    -0.041 C  
HETATM   14  C   UNL     1     -10.163   5.927  70.023  1.00  0.00    -0.286 A  
HETATM   15  C   UNL     1     -10.596   5.224  71.173  1.00  0.00    -0.243 A  
HETATM   16  C   UNL     1     -11.030   5.737  68.790  1.00  0.00    -0.223 C  
HETATM   17  C   UNL     1     -10.818   6.652  67.585  1.00  0.00    -0.393 C  
HETATM   18  C   UNL     1      -9.861   5.243  72.356  1.00  0.00    -0.162 A  
HETATM   19  C   UNL     1      -8.657   5.926  72.411  1.00  0.00    -0.120 A  
HETATM   20 CL   UNL     1     -10.433   4.395  73.737  1.00  0.00    -0.246 Cl 
HETATM   21  C   UNL     1      -9.481   6.406  66.945  1.00  0.00    -0.166 A  
HETATM   22  C   UNL     1      -8.304   6.776  67.604  1.00  0.00    -0.123 A  
HETATM   23  C   UNL     1      -8.201   6.603  71.279  1.00  0.00    -0.120 A  
HETATM   24  N   UNL     1      -7.068   6.540  67.104  1.00  0.00    -0.074 NA 
HETATM   25  C   UNL     1      -7.006   5.914  65.907  1.00  0.00    -0.062 A  
HETATM   26  C   UNL     1      -8.114   5.506  65.183  1.00  0.00    -0.124 A  
HETATM   27  C   UNL     1      -9.373   5.758  65.711  1.00  0.00    -0.046 A  
ENDBRANCH   3   4
ENDBRANCH   2   3
TORSDOF 2
ENDMDL
MODEL       79
REMARK 921   NORMALIZED FREE ENERGY PREDICTED BY IDOCK:   -3.05 KCAL/MOL
REMARK 922        TOTAL FREE ENERGY PREDICTED BY IDOCK:   -3.52 KCAL/MOL
REMARK 923 INTER-LIGAND FREE ENERGY PREDICTED BY IDOCK:   -3.38 KCAL/MOL
REMARK 924 INTRA-LIGAND FREE ENERGY PREDICTED BY IDOCK:   -0.14 KCAL/MOL
REMARK 927      BINDING AFFINITY PREDICTED BY RF-SCORE:    0.00 PKD
ROOT
HETATM    1  C   UNL     1      -5.322  16.504  71.185  1.00  0.00     0.014 C  
HETATM    2  C   UNL     1      -5.138  15.149  71.841  1.00  0.00    -0.107 C  
ENDROOT
BRANCH   2   3
HETATM    3  O   UNL     1      -6.265  14.290  71.605  1.00  0.00    -0.049 OA 
BRANCH   3   4
HETATM    4  C   UNL     1      -6.014  13.158  70.891  1.00  0.00     0.057 C  
HETATM    5  O   UNL     1      -5.388  12.203  71.338  1.00  0.00    -0.322 OA 
HETATM    6  N   UNL     1      -6.591  13.174  69.634  1.00  0.00    -0.046 N  
HETATM    7  C   UNL     1      -6.492  11.992  68.781  1.00  0.00    -0.077 C  
HETATM    8  C   UNL     1      -7.884  11.520  68.341  1.00  0.00    -0.136 C  
HETATM    9  C   UNL     1      -8.618  12.648  67.617  1.00  0.00    -0.180 C  
HETATM   10  C   UNL     1      -9.083  12.604  66.333  1.00  0.00    -0.114 C  
HETATM   11  C   UNL     1      -8.746  13.840  68.571  1.00  0.00    -0.118 C  
HETATM   12  C   UNL     1      -8.848  11.414  65.450  1.00  0.00     0.018 A  
HETATM   13  C   UNL     1      -7.361  14.294  69.077  1.00  0.00    -0.117 C  
HETATM   14  C   UNL     1      -9.874  10.752  64.739  1.00  0.00    -0.358 A  
HETATM   15  C   UNL     1      -9.532   9.649  63.920  1.00  0.00     0.040 A  
HETATM   16  C   UNL     1     -11.338  11.155  64.694  1.00  0.00     0.058 C  
HETATM   17  C   UNL     1     -11.868  12.143  65.733  1.00  0.00    -0.342 C  
HETATM   18  C   UNL     1      -8.214   9.213  63.803  1.00  0.00    -0.173 A  
HETATM   19  C   UNL     1      -7.201   9.887  64.463  1.00  0.00    -0.137 A  
HETATM   20 CL   UNL     1      -7.844   7.855  62.815  1.00  0.00    -0.137 Cl 
HETATM   21  C   UNL     1     -11.266  13.506  65.543  1.00  0.00    -0.304 A  
HETATM   22  C   UNL     1      -9.914  13.726  65.826  1.00  0.00    -0.275 A  
HETATM   23  C   UNL     1      -7.516  10.993  65.254  1.00  0.00     0.331 A  
HETATM   24  N   UNL     1      -9.299  14.916  65.633  1.00  0.00    -0.129 NA 
HETATM   25  C   UNL     1     -10.060  15.920  65.140  1.00  0.00    -0.058 A  
HETATM   26  C   UNL     1     -11.403  15.798  64.826  1.00  0.00    -0.319 A  
HETATM   27  C   UNL     1     -12.016  14.569  65.032  1.00  0.00    -0.399 A  
ENDBRANCH   3   4
ENDBRANCH   2   3
TORSDOF 2
ENDMDL
MODEL       80
REMARK 921   NORMALIZED FREE ENERGY PREDICTED BY IDOCK:   -2.90 KCAL/MOL
REMARK 922        TOTAL FREE ENERGY PREDICTED BY IDOCK:   -3.35 KCAL/MOL
REMARK 923 INTER-LIGAND FREE ENERGY PREDICTED BY IDOCK:   -6.18 KCAL/MOL
REMARK 924 INTRA-LIGAND FREE ENERGY PREDICTED BY IDOCK:    2.82 KCAL/MOL
REMARK 927      BINDING AFFINITY PREDICTED BY RF-SCORE:    0.00 PKD
ROOT
HETATM    1  C   UNL     1      -9.683  10.586  62.806  1.00  0.00    -0.265 C  
HETATM    2  C   UNL     1      -8.930  10.271  64.084  1.00  0.00    -0.237 C  
ENDROOT
BRANCH   2   3
HETATM    3  O   UNL     1      -9.388   9.047  64.681  1.00  0.00    -0.001 OA 
BRANCH   3   4
HETATM    4  C   UNL     1      -9.840   9.140  65.961  1.00  0.00    -0.272 C  
HETATM    5  O   UNL     1      -9.784   8.215  66.765  1.00  0.00    -0.195 OA 
HETATM    6  N   UNL     1     -10.310  10.401  66.279  1.00  0.00    -0.226 N  
HETATM    7  C   UNL     1     -10.743  10.687  67.645  1.00  0.00    -0.267 C  
HETATM    8  C   UNL     1      -9.987  11.895  68.214  1.00  0.00    -0.202 C  
HETATM    9  C   UNL     1     -10.192  13.115  67.317  1.00  0.00    -0.243 C  
HETATM   10  C   UNL     1     -10.748  14.303  67.699  1.00  0.00    -0.259 C  
HETATM   11  C   UNL     1      -9.671  12.784  65.914  1.00  0.00    -0.203 C  
HETATM   12  C   UNL     1     -11.295  14.509  69.080  1.00  0.00    -0.305 A  
HETATM   13  C   UNL     1     -10.373  11.533  65.345  1.00  0.00    -0.273 C  
HETATM   14  C   UNL     1     -10.945  15.602  69.906  1.00  0.00    -0.323 A  
HETATM   15  C   UNL     1     -11.538  15.704  71.186  1.00  0.00    -0.462 A  
HETATM   16  C   UNL     1     -10.034  16.757  69.526  1.00  0.00    -0.051 C  
HETATM   17  C   UNL     1      -9.135  16.620  68.298  1.00  0.00    -0.218 C  
HETATM   18  C   UNL     1     -12.454  14.758  71.641  1.00  0.00    -0.335 A  
HETATM   19  C   UNL     1     -12.833  13.711  70.817  1.00  0.00    -0.273 A  
HETATM   20 CL   UNL     1     -13.135  14.907  73.212  1.00  0.00    -0.608 Cl 
HETATM   21  C   UNL     1      -9.946  16.566  67.035  1.00  0.00    -0.268 A  
HETATM   22  C   UNL     1     -10.734  15.446  66.750  1.00  0.00    -0.310 A  
HETATM   23  C   UNL     1     -12.277  13.609  69.541  1.00  0.00    -0.316 A  
HETATM   24  N   UNL     1     -11.524  15.353  65.654  1.00  0.00    -0.135 NA 
HETATM   25  C   UNL     1     -11.527  16.413  64.815  1.00  0.00    -0.061 A  
HETATM   26  C   UNL     1     -10.785  17.566  65.015  1.00  0.00     0.414 A  
HETATM   27  C   UNL     1      -9.981  17.642  66.143  1.00  0.00    -0.281 A  
ENDBRANCH   3   4
ENDBRANCH   2   3
TORSDOF 2
ENDMDL
MODEL       81
REMARK 921   NORMALIZED FREE ENERGY PREDICTED BY IDOCK:   -2.81 KCAL/MOL
REMARK 922        TOTAL FREE ENERGY PREDICTED BY IDOCK:   -3.26 KCAL/MOL
REMARK 923 INTER-LIGAND FREE ENERGY PREDICTED BY IDOCK:   -3.23 KCAL/MOL
REMARK 924 INTRA-LIGAND FREE ENERGY PREDICTED BY IDOCK:   -0.03 KCAL/MOL
REMARK 927      BINDING AFFINITY PREDICTED BY RF-SCORE:    0.00 PKD
ROOT
HETATM    1  C   UNL     1      -6.266   9.092  74.177  1.00  0.00    -0.012 C  
HETATM    2  C   UNL     1      -6.680   7.859  73.397  1.00  0.00    -0.093 C  
ENDROOT
BRANCH   2   3
HETATM    3  O   UNL     1      -5.688   7.488  72.427  1.00  0.00    -0.037 OA 
BRANCH   3   4
HETATM    4  C   UNL     1      -6.159   7.092  71.212  1.00  0.00    -0.036 C  
HETATM    5  O   UNL     1      -6.472   5.935  70.954  1.00  0.00    -0.038 OA 
HETATM    6  N   UNL     1      -6.305   8.140  70.322  1.00  0.00    -0.036 N  
HETATM    7  C   UNL     1      -6.889   7.893  69.005  1.00  0.00    -0.057 C  
HETATM    8  C   UNL     1      -8.098   8.807  68.766  1.00  0.00    -0.115 C  
HETATM    9  C   UNL     1      -7.687  10.272  68.905  1.00  0.00    -0.098 C  
HETATM   10  C   UNL     1      -7.791  11.227  67.935  1.00  0.00    -0.116 C  
HETATM   11  C   UNL     1      -7.135  10.492  70.318  1.00  0.00     0.018 C  
HETATM   12  C   UNL     1      -8.280  10.899  66.555  1.00  0.00    -0.157 A  
HETATM   13  C   UNL     1      -5.956   9.539  70.606  1.00  0.00    -0.066 C  
HETATM   14  C   UNL     1      -9.313  11.607  65.901  1.00  0.00    -0.232 A  
HETATM   15  C   UNL     1      -9.680  11.219  64.590  1.00  0.00    -0.294 A  
HETATM   16  C   UNL     1     -10.043  12.827  66.438  1.00  0.00    -0.266 C  
HETATM   17  C   UNL     1      -9.929  13.166  67.924  1.00  0.00    -0.233 C  
HETATM   18  C   UNL     1      -9.044  10.165  63.940  1.00  0.00    -0.260 A  
HETATM   19  C   UNL     1      -8.001   9.498  64.560  1.00  0.00    -0.133 A  
HETATM   20 CL   UNL     1      -9.535   9.712  62.356  1.00  0.00    -0.136 Cl 
HETATM   21  C   UNL     1      -8.530  13.580  68.281  1.00  0.00    -0.168 A  
HETATM   22  C   UNL     1      -7.494  12.642  68.277  1.00  0.00    -0.123 A  
HETATM   23  C   UNL     1      -7.608   9.884  65.842  1.00  0.00    -0.108 A  
HETATM   24  N   UNL     1      -6.204  12.958  68.543  1.00  0.00    -0.071 NA 
HETATM   25  C   UNL     1      -5.942  14.255  68.822  1.00  0.00    -0.085 A  
HETATM   26  C   UNL     1      -6.899  15.256  68.845  1.00  0.00    -0.122 A  
HETATM   27  C   UNL     1      -8.216  14.911  68.571  1.00  0.00    -0.153 A  
ENDBRANCH   3   4
ENDBRANCH   2   3
TORSDOF 2
ENDMDL
MODEL       82
REMARK 921   NORMALIZED FREE ENERGY PREDICTED BY IDOCK:   -2.81 KCAL/MOL
REMARK 922        TOTAL FREE ENERGY PREDICTED BY IDOCK:   -3.25 KCAL/MOL
REMARK 923 INTER-LIGAND FREE ENERGY PREDICTED BY IDOCK:   -3.32 KCAL/MOL
REMARK 924 INTRA-LIGAND FREE ENERGY PREDICTED BY IDOCK:    0.07 KCAL/MOL
REMARK 927      BINDING AFFINITY PREDICTED BY RF-SCORE:    0.00 PKD
ROOT
HETATM    1  C   UNL     1     -10.857  16.501  66.180  1.00  0.00    -0.050 C  
HETATM    2  C   UNL     1     -11.297  15.781  64.920  1.00  0.00    -0.280 C  
ENDROOT
BRANCH   2   3
HETATM    3  O   UNL     1     -12.301  14.792  65.198  1.00  0.00    -0.282 OA 
BRANCH   3   4
HETATM    4  C   UNL     1     -12.174  13.608  64.538  1.00  0.00    -0.401 C  
HETATM    5  O   UNL     1     -12.720  13.371  63.466  1.00  0.00    -0.703 OA 
HETATM    6  N   UNL     1     -11.317  12.726  65.172  1.00  0.00    -0.302 N  
HETATM    7  C   UNL     1     -11.002  11.447  64.539  1.00  0.00    -0.277 C  
HETATM    8  C   UNL     1      -9.485  11.278  64.381  1.00  0.00    -0.206 C  
HETATM    9  C   UNL     1      -8.797  11.390  65.741  1.00  0.00    -0.115 C  
HETATM   10  C   UNL     1      -8.031  10.426  66.331  1.00  0.00    -0.130 C  
HETATM   11  C   UNL     1      -9.112  12.768  66.335  1.00  0.00    -0.096 C  
HETATM   12  C   UNL     1      -7.838   9.079  65.702  1.00  0.00    -0.102 A  
HETATM   13  C   UNL     1     -10.635  12.988  66.446  1.00  0.00    -0.284 C  
HETATM   14  C   UNL     1      -6.571   8.486  65.494  1.00  0.00    -0.059 A  
HETATM   15  C   UNL     1      -6.511   7.200  64.907  1.00  0.00    -0.037 A  
HETATM   16  C   UNL     1      -5.231   9.062  65.917  1.00  0.00    -0.036 C  
HETATM   17  C   UNL     1      -5.147  10.539  66.304  1.00  0.00    -0.060 C  
HETATM   18  C   UNL     1      -7.665   6.514  64.537  1.00  0.00    -0.108 A  
HETATM   19  C   UNL     1      -8.909   7.073  64.781  1.00  0.00     0.478 A  
HETATM   20 CL   UNL     1      -7.546   4.963  63.806  1.00  0.00    -0.063 Cl 
HETATM   21  C   UNL     1      -5.906  10.812  67.572  1.00  0.00    -0.044 A  
HETATM   22  C   UNL     1      -7.303  10.748  67.585  1.00  0.00    -0.094 A  
HETATM   23  C   UNL     1      -8.989   8.329  65.383  1.00  0.00    -0.062 A  
HETATM   24  N   UNL     1      -8.044  10.937  68.703  1.00  0.00    -0.135 NA 
HETATM   25  C   UNL     1      -7.367  11.198  69.844  1.00  0.00     0.282 A  
HETATM   26  C   UNL     1      -5.987  11.276  69.930  1.00  0.00    -0.117 A  
HETATM   27  C   UNL     1      -5.245  11.080  68.774  1.00  0.00    -0.040 A  
ENDBRANCH   3   4
ENDBRANCH   2   3
TORSDOF 2
ENDMDL
MODEL       83
REMARK 921   NORMALIZED FREE ENERGY PREDICTED BY IDOCK:   -2.69 KCAL/MOL
REMARK 922        TOTAL FREE ENERGY PREDICTED BY IDOCK:   -3.12 KCAL/MOL
REMARK 923 INTER-LIGAND FREE ENERGY PREDICTED BY IDOCK:   -3.32 KCAL/MOL
REMARK 924 INTRA-LIGAND FREE ENERGY PREDICTED BY IDOCK:    0.20 KCAL/MOL
REMARK 927      BINDING AFFINITY PREDICTED BY RF-SCORE:    0.00 PKD
ROOT
HETATM    1  C   UNL     1     -12.468  12.187  62.542  1.00  0.00     1.442 C  
HETATM    2  C   UNL     1     -12.545  13.280  63.590  1.00  0.00    -0.118 C  
ENDROOT
BRANCH   2   3
HETATM    3  O   UNL     1     -13.072  12.786  64.832  1.00  0.00    -0.833 OA 
BRANCH   3   4
HETATM    4  C   UNL     1     -12.154  12.389  65.756  1.00  0.00    -0.311 C  
HETATM    5  O   UNL     1     -11.842  11.217  65.937  1.00  0.00    -0.008 OA 
HETATM    6  N   UNL     1     -11.567  13.449  66.424  1.00  0.00    -0.331 N  
HETATM    7  C   UNL     1     -10.493  13.192  67.381  1.00  0.00    -0.242 C  
HETATM    8  C   UNL     1      -9.238  13.998  67.019  1.00  0.00    -0.262 C  
HETATM    9  C   UNL     1      -9.566  15.489  66.965  1.00  0.00    -0.233 C  
HETATM   10  C   UNL     1      -8.989  16.463  67.729  1.00  0.00    -0.198 C  
HETATM   11  C   UNL     1     -10.655  15.712  65.909  1.00  0.00    -0.354 C  
HETATM   12  C   UNL     1      -7.980  16.137  68.790  1.00  0.00    -0.216 A  
HETATM   13  C   UNL     1     -11.906  14.863  66.217  1.00  0.00    -0.121 C  
HETATM   14  C   UNL     1      -6.719  16.768  68.890  1.00  0.00    -0.195 A  
HETATM   15  C   UNL     1      -5.853  16.393  69.945  1.00  0.00    -0.199 A  
HETATM   16  C   UNL     1      -6.208  17.896  68.011  1.00  0.00    -0.169 C  
HETATM   17  C   UNL     1      -6.925  18.194  66.694  1.00  0.00    -0.243 C  
HETATM   18  C   UNL     1      -6.219  15.424  70.877  1.00  0.00     0.352 A  
HETATM   19  C   UNL     1      -7.471  14.837  70.807  1.00  0.00     1.245 A  
HETATM   20 CL   UNL     1      -5.128  14.981  72.129  1.00  0.00    -0.157 Cl 
HETATM   21  C   UNL     1      -8.309  18.724  66.938  1.00  0.00    -0.277 A  
HETATM   22  C   UNL     1      -9.306  17.886  67.447  1.00  0.00    -0.257 A  
HETATM   23  C   UNL     1      -8.349  15.214  69.790  1.00  0.00     0.041 A  
HETATM   24  N   UNL     1     -10.560  18.312  67.734  1.00  0.00    -0.412 NA 
HETATM   25  C   UNL     1     -10.825  19.618  67.503  1.00  0.00    -0.335 A  
HETATM   26  C   UNL     1      -9.904  20.524  67.004  1.00  0.00    -0.534 A  
HETATM   27  C   UNL     1      -8.625  20.068  66.716  1.00  0.00    -0.396 A  
ENDBRANCH   3   4
ENDBRANCH   2   3
TORSDOF 2
ENDMDL
MODEL       84
REMARK 921   NORMALIZED FREE ENERGY PREDICTED BY IDOCK:   -2.44 KCAL/MOL
REMARK 922        TOTAL FREE ENERGY PREDICTED BY IDOCK:   -2.84 KCAL/MOL
REMARK 923 INTER-LIGAND FREE ENERGY PREDICTED BY IDOCK:   -2.70 KCAL/MOL
REMARK 924 INTRA-LIGAND FREE ENERGY PREDICTED BY IDOCK:   -0.15 KCAL/MOL
REMARK 927      BINDING AFFINITY PREDICTED BY RF-SCORE:    0.00 PKD
ROOT
HETATM    1  C   UNL     1      -9.565   5.778  74.212  1.00  0.00    -0.169 C  
HETATM    2  C   UNL     1      -8.112   5.364  74.338  1.00  0.00    -0.104 C  
ENDROOT
BRANCH   2   3
HETATM    3  O   UNL     1      -7.298   5.971  73.322  1.00  0.00    -0.088 OA 
BRANCH   3   4
HETATM    4  C   UNL     1      -7.147   5.259  72.172  1.00  0.00    -0.085 C  
HETATM    5  O   UNL     1      -7.191   4.035  72.126  1.00  0.00    -0.049 OA 
HETATM    6  N   UNL     1      -7.002   6.062  71.055  1.00  0.00    -0.066 N  
HETATM    7  C   UNL     1      -6.924   5.448  69.731  1.00  0.00    -0.061 C  
HETATM    8  C   UNL     1      -7.998   6.026  68.799  1.00  0.00    -0.104 C  
HETATM    9  C   UNL     1      -7.847   7.544  68.699  1.00  0.00    -0.121 C  
HETATM   10  C   UNL     1      -7.620   8.251  67.553  1.00  0.00    -0.098 C  
HETATM   11  C   UNL     1      -7.993   8.143  70.103  1.00  0.00    -0.107 C  
HETATM   12  C   UNL     1      -7.421   7.568  66.233  1.00  0.00    -0.083 A  
HETATM   13  C   UNL     1      -6.964   7.530  71.075  1.00  0.00    -0.054 C  
HETATM   14  C   UNL     1      -8.135   7.905  65.061  1.00  0.00    -0.144 A  
HETATM   15  C   UNL     1      -7.851   7.204  63.865  1.00  0.00    -0.109 A  
HETATM   16  C   UNL     1      -9.151   9.026  64.922  1.00  0.00    -0.132 C  
HETATM   17  C   UNL     1      -9.733   9.661  66.184  1.00  0.00    -0.317 C  
HETATM   18  C   UNL     1      -6.886   6.200  63.823  1.00  0.00    -0.038 A  
HETATM   19  C   UNL     1      -6.153   5.898  64.958  1.00  0.00    -0.026 A  
HETATM   20 CL   UNL     1      -6.587   5.358  62.355  1.00  0.00    -0.028 Cl 
HETATM   21  C   UNL     1      -8.682  10.420  66.944  1.00  0.00    -0.130 A  
HETATM   22  C   UNL     1      -7.654   9.735  67.600  1.00  0.00    -0.091 A  
HETATM   23  C   UNL     1      -6.401   6.597  66.140  1.00  0.00    -0.042 A  
HETATM   24  N   UNL     1      -6.651  10.359  68.262  1.00  0.00    -0.060 NA 
HETATM   25  C   UNL     1      -6.676  11.711  68.270  1.00  0.00    -0.064 A  
HETATM   26  C   UNL     1      -7.649  12.475  67.647  1.00  0.00    -0.145 A  
HETATM   27  C   UNL     1      -8.670  11.817  66.974  1.00  0.00    -0.181 A  
ENDBRANCH   3   4
ENDBRANCH   2   3
TORSDOF 2
ENDMDL
MODEL       85
REMARK 921   NORMALIZED FREE ENERGY PREDICTED BY IDOCK:   -2.44 KCAL/MOL
REMARK 922        TOTAL FREE ENERGY PREDICTED BY IDOCK:   -2.84 KCAL/MOL
REMARK 923 INTER-LIGAND FREE ENERGY PREDICTED BY IDOCK:   -3.16 KCAL/MOL
REMARK 924 INTRA-LIGAND FREE ENERGY PREDICTED BY IDOCK:    0.32 KCAL/MOL
REMARK 927      BINDING AFFINITY PREDICTED BY RF-SCORE:    0.00 PKD
ROOT
HETATM    1  C   UNL     1     -12.141  12.428  63.056  1.00  0.00    -0.121 C  
HETATM    2  C   UNL     1     -11.640  13.826  63.361  1.00  0.00     0.371 C  
ENDROOT
BRANCH   2   3
HETATM    3  O   UNL     1     -11.459  14.028  64.771  1.00  0.00    -0.340 OA 
BRANCH   3   4
HETATM    4  C   UNL     1     -12.226  13.258  65.590  1.00  0.00    -0.462 C  
HETATM    5  O   UNL     1     -13.443  13.152  65.471  1.00  0.00    -0.246 OA 
HETATM    6  N   UNL     1     -11.486  12.561  66.527  1.00  0.00    -0.341 N  
HETATM    7  C   UNL     1     -12.156  11.617  67.419  1.00  0.00     0.341 C  
HETATM    8  C   UNL     1     -11.516  10.226  67.318  1.00  0.00     0.389 C  
HETATM    9  C   UNL     1     -10.025  10.306  67.641  1.00  0.00    -0.212 C  
HETATM   10  C   UNL     1      -9.389   9.640  68.649  1.00  0.00    -0.143 C  
HETATM   11  C   UNL     1      -9.360  11.263  66.645  1.00  0.00    -0.196 C  
HETATM   12  C   UNL     1     -10.139   8.778  69.621  1.00  0.00    -0.204 A  
HETATM   13  C   UNL     1     -10.028  12.653  66.683  1.00  0.00    -0.242 C  
HETATM   14  C   UNL     1      -9.782   7.444  69.921  1.00  0.00    -0.171 A  
HETATM   15  C   UNL     1     -10.553   6.731  70.870  1.00  0.00    -0.252 A  
HETATM   16  C   UNL     1      -8.576   6.695  69.380  1.00  0.00    -0.135 C  
HETATM   17  C   UNL     1      -7.840   7.254  68.163  1.00  0.00    -0.118 C  
HETATM   18  C   UNL     1     -11.645   7.316  71.507  1.00  0.00    -0.275 A  
HETATM   19  C   UNL     1     -11.970   8.637  71.248  1.00  0.00    -0.339 A  
HETATM   20 CL   UNL     1     -12.569   6.407  72.636  1.00  0.00     0.231 Cl 
HETATM   21  C   UNL     1      -7.155   8.550  68.492  1.00  0.00    -0.073 A  
HETATM   22  C   UNL     1      -7.907   9.704  68.736  1.00  0.00    -0.081 A  
HETATM   23  C   UNL     1     -11.204   9.365  70.336  1.00  0.00    -0.309 A  
HETATM   24  N   UNL     1      -7.355  10.891  69.082  1.00  0.00    -0.116 NA 
HETATM   25  C   UNL     1      -6.007  10.926  69.188  1.00  0.00    -0.042 A  
HETATM   26  C   UNL     1      -5.180   9.837  68.971  1.00  0.00    -0.036 A  
HETATM   27  C   UNL     1      -5.764   8.629  68.616  1.00  0.00    -0.041 A  
ENDBRANCH   3   4
ENDBRANCH   2   3
TORSDOF 2
ENDMDL
MODEL       86
REMARK 921   NORMALIZED FREE ENERGY PREDICTED BY IDOCK:   -2.32 KCAL/MOL
REMARK 922        TOTAL FREE ENERGY PREDICTED BY IDOCK:   -2.71 KCAL/MOL
REMARK 923 INTER-LIGAND FREE ENERGY PREDICTED BY IDOCK:   -3.00 KCAL/MOL
REMARK 924 INTRA-LIGAND FREE ENERGY PREDICTED BY IDOCK:    0.29 KCAL/MOL
REMARK 927      BINDING AFFINITY PREDICTED BY RF-SCORE:    0.00 PKD
ROOT
HETATM    1  C   UNL     1      -7.748  16.564  68.604  1.00  0.00    -0.216 C  
HETATM    2  C   UNL     1      -6.645  15.992  67.735  1.00  0.00    -0.154 C  
ENDROOT
BRANCH   2   3
HETATM    3  O   UNL     1      -5.524  15.555  68.520  1.00  0.00    -0.093 OA 
BRANCH   3   4
HETATM    4  C   UNL     1      -5.789  14.616  69.469  1.00  0.00    -0.101 C  
HETATM    5  O   UNL     1      -5.921  14.878  70.660  1.00  0.00    -0.152 OA 
HETATM    6  N   UNL     1      -5.955  13.348  68.943  1.00  0.00    -0.075 N  
HETATM    7  C   UNL     1      -6.337  12.245  69.823  1.00  0.00    -0.091 C  
HETATM    8  C   UNL     1      -7.612  11.560  69.314  1.00  0.00     0.075 C  
HETATM    9  C   UNL     1      -7.408  11.061  67.884  1.00  0.00    -0.092 C  
HETATM   10  C   UNL     1      -7.511   9.765  67.467  1.00  0.00    -0.091 C  
HETATM   11  C   UNL     1      -7.066  12.261  66.992  1.00  0.00    -0.040 C  
HETATM   12  C   UNL     1      -7.782   8.647  68.429  1.00  0.00    -0.100 A  
HETATM   13  C   UNL     1      -5.822  13.005  67.520  1.00  0.00    -0.092 C  
HETATM   14  C   UNL     1      -8.808   7.691  68.251  1.00  0.00    -0.125 A  
HETATM   15  C   UNL     1      -8.959   6.668  69.217  1.00  0.00    -0.135 A  
HETATM   16  C   UNL     1      -9.744   7.593  67.059  1.00  0.00    -0.255 C  
HETATM   17  C   UNL     1      -9.857   8.781  66.104  1.00  0.00    -0.297 C  
HETATM   18  C   UNL     1      -8.121   6.585  70.326  1.00  0.00    -0.121 A  
HETATM   19  C   UNL     1      -7.087   7.493  70.480  1.00  0.00    -0.056 A  
HETATM   20 CL   UNL     1      -8.354   5.340  71.487  1.00  0.00    -0.120 Cl 
HETATM   21  C   UNL     1      -8.575   8.995  65.351  1.00  0.00    -0.200 A  
HETATM   22  C   UNL     1      -7.437   9.464  66.014  1.00  0.00    -0.096 A  
HETATM   23  C   UNL     1      -6.906   8.494  69.524  1.00  0.00    -0.044 A  
HETATM   24  N   UNL     1      -6.239   9.634  65.405  1.00  0.00    -0.067 NA 
HETATM   25  C   UNL     1      -6.177   9.326  64.090  1.00  0.00    -0.085 A  
HETATM   26  C   UNL     1      -7.248   8.852  63.350  1.00  0.00    -0.093 A  
HETATM   27  C   UNL     1      -8.467   8.686  63.992  1.00  0.00    -0.080 A  
ENDBRANCH   3   4
ENDBRANCH   2   3
TORSDOF 2
ENDMDL
MODEL       87
REMARK 921   NORMALIZED FREE ENERGY PREDICTED BY IDOCK:   -2.27 KCAL/MOL
REMARK 922        TOTAL FREE ENERGY PREDICTED BY IDOCK:   -2.65 KCAL/MOL
REMARK 923 INTER-LIGAND FREE ENERGY PREDICTED BY IDOCK:   -2.63 KCAL/MOL
REMARK 924 INTRA-LIGAND FREE ENERGY PREDICTED BY IDOCK:   -0.02 KCAL/MOL
REMARK 927      BINDING AFFINITY PREDICTED BY RF-SCORE:    0.00 PKD
ROOT
HETATM    1  C   UNL     1     -11.211   3.986  62.811  1.00  0.00     0.305 C  
HETATM    2  C   UNL     1     -10.227   3.036  63.465  1.00  0.00    -0.184 C  
ENDROOT
BRANCH   2   3
HETATM    3  O   UNL     1      -9.792   3.522  64.746  1.00  0.00    -0.168 OA 
BRANCH   3   4
HETATM    4  C   UNL     1      -8.971   4.607  64.726  1.00  0.00    -0.153 C  
HETATM    5  O   UNL     1      -8.239   4.883  63.781  1.00  0.00    -0.108 OA 
HETATM    6  N   UNL     1      -9.093   5.398  65.854  1.00  0.00    -0.156 N  
HETATM    7  C   UNL     1      -8.345   6.651  65.941  1.00  0.00    -0.137 C  
HETATM    8  C   UNL     1      -9.290   7.830  66.207  1.00  0.00    -0.210 C  
HETATM    9  C   UNL     1     -10.087   7.588  67.488  1.00  0.00    -0.261 C  
HETATM   10  C   UNL     1     -10.082   8.387  68.596  1.00  0.00    -0.210 C  
HETATM   11  C   UNL     1     -10.895   6.296  67.324  1.00  0.00    -0.457 C  
HETATM   12  C   UNL     1      -9.201   9.598  68.690  1.00  0.00    -0.136 A  
HETATM   13  C   UNL     1      -9.972   5.105  66.994  1.00  0.00    -0.196 C  
HETATM   14  C   UNL     1      -9.671  10.882  69.047  1.00  0.00    -0.181 A  
HETATM   15  C   UNL     1      -8.744  11.949  69.121  1.00  0.00     0.458 A  
HETATM   16  C   UNL     1     -11.092  11.237  69.449  1.00  0.00    -0.316 C  
HETATM   17  C   UNL     1     -12.218  10.248  69.148  1.00  0.00     0.313 C  
HETATM   18  C   UNL     1      -7.391  11.757  68.854  1.00  0.00    -0.093 A  
HETATM   19  C   UNL     1      -6.920  10.491  68.548  1.00  0.00    -0.066 A  
HETATM   20 CL   UNL     1      -6.303  13.085  68.934  1.00  0.00    -0.087 Cl 
HETATM   21  C   UNL     1     -12.072   8.995  69.964  1.00  0.00     0.525 A  
HETATM   22  C   UNL     1     -11.032   8.099  69.701  1.00  0.00    -0.088 A  
HETATM   23  C   UNL     1      -7.815   9.421  68.496  1.00  0.00    -0.089 A  
HETATM   24  N   UNL     1     -10.816   6.977  70.428  1.00  0.00    -0.245 NA 
HETATM   25  C   UNL     1     -11.669   6.742  71.451  1.00  0.00    -0.325 A  
HETATM   26  C   UNL     1     -12.725   7.572  71.790  1.00  0.00    -0.360 A  
HETATM   27  C   UNL     1     -12.930   8.717  71.033  1.00  0.00    -0.002 A  
ENDBRANCH   3   4
ENDBRANCH   2   3
TORSDOF 2
ENDMDL
MODEL       88
REMARK 921   NORMALIZED FREE ENERGY PREDICTED BY IDOCK:   -2.01 KCAL/MOL
REMARK 922        TOTAL FREE ENERGY PREDICTED BY IDOCK:   -2.37 KCAL/MOL
REMARK 923 INTER-LIGAND FREE ENERGY PREDICTED BY IDOCK:   -2.96 KCAL/MOL
REMARK 924 INTRA-LIGAND FREE ENERGY PREDICTED BY IDOCK:    0.59 KCAL/MOL
REMARK 927      BINDING AFFINITY PREDICTED BY RF-SCORE:    0.00 PKD
ROOT
HETATM    1  C   UNL     1      -9.409  11.246  62.826  1.00  0.00    -0.362 C  
HETATM    2  C   UNL     1     -10.544  10.413  63.389  1.00  0.00     0.817 C  
ENDROOT
BRANCH   2   3
HETATM    3  O   UNL     1     -11.777  11.150  63.421  1.00  0.00     0.042 OA 
BRANCH   3   4
HETATM    4  C   UNL     1     -11.721  12.384  63.994  1.00  0.00    -0.420 C  
HETATM    5  O   UNL     1     -11.931  13.424  63.379  1.00  0.00    -0.480 OA 
HETATM    6  N   UNL     1     -11.463  12.337  65.352  1.00  0.00    -0.345 N  
HETATM    7  C   UNL     1     -11.465  13.575  66.129  1.00  0.00    -0.325 C  
HETATM    8  C   UNL     1     -12.446  13.478  67.305  1.00  0.00     0.007 C  
HETATM    9  C   UNL     1     -12.090  12.285  68.192  1.00  0.00    -0.076 C  
HETATM   10  C   UNL     1     -11.764  12.344  69.516  1.00  0.00    -0.388 C  
HETATM   11  C   UNL     1     -12.158  11.009  67.345  1.00  0.00     0.960 C  
HETATM   12  C   UNL     1     -11.654  13.650  70.244  1.00  0.00    -0.162 A  
HETATM   13  C   UNL     1     -11.225  11.108  66.120  1.00  0.00     0.011 C  
HETATM   14  C   UNL     1     -12.312  13.924  71.465  1.00  0.00    -0.327 A  
HETATM   15  C   UNL     1     -12.121  15.189  72.072  1.00  0.00    -0.453 A  
HETATM   16  C   UNL     1     -13.165  12.952  72.262  1.00  0.00    -0.519 C  
HETATM   17  C   UNL     1     -13.659  11.673  71.586  1.00  0.00     0.145 C  
HETATM   18  C   UNL     1     -11.303  16.156  71.494  1.00  0.00    -0.212 A  
HETATM   19  C   UNL     1     -10.621  15.875  70.322  1.00  0.00    -0.260 A  
HETATM   20 CL   UNL     1     -11.116  17.687  72.252  1.00  0.00     1.670 Cl 
HETATM   21  C   UNL     1     -12.518  10.748  71.274  1.00  0.00    -0.504 A  
HETATM   22  C   UNL     1     -11.595  11.078  70.276  1.00  0.00    -0.322 A  
HETATM   23  C   UNL     1     -10.777  14.624  69.722  1.00  0.00    -0.129 A  
HETATM   24  N   UNL     1     -10.518  10.313  69.977  1.00  0.00    -0.265 NA 
HETATM   25  C   UNL     1     -10.359   9.180  70.698  1.00  0.00    -0.246 A  
HETATM   26  C   UNL     1     -11.216   8.772  71.707  1.00  0.00    -0.410 A  
HETATM   27  C   UNL     1     -12.314   9.570  71.998  1.00  0.00    -0.404 A  
ENDBRANCH   3   4
ENDBRANCH   2   3
TORSDOF 2
ENDMDL
MODEL       89
REMARK 921   NORMALIZED FREE ENERGY PREDICTED BY IDOCK:   -1.56 KCAL/MOL
REMARK 922        TOTAL FREE ENERGY PREDICTED BY IDOCK:   -1.86 KCAL/MOL
REMARK 923 INTER-LIGAND FREE ENERGY PREDICTED BY IDOCK:   -1.79 KCAL/MOL
REMARK 924 INTRA-LIGAND FREE ENERGY PREDICTED BY IDOCK:   -0.07 KCAL/MOL
REMARK 927      BINDING AFFINITY PREDICTED BY RF-SCORE:    0.00 PKD
ROOT
HETATM    1  C   UNL     1      -9.593   5.160  63.433  1.00  0.00     0.616 C  
HETATM    2  C   UNL     1      -8.630   5.516  64.548  1.00  0.00    -0.042 C  
ENDROOT
BRANCH   2   3
HETATM    3  O   UNL     1      -9.054   6.690  65.259  1.00  0.00     0.143 OA 
BRANCH   3   4
HETATM    4  C   UNL     1      -8.117   7.281  66.050  1.00  0.00    -0.121 C  
HETATM    5  O   UNL     1      -7.018   6.786  66.279  1.00  0.00    -0.059 OA 
HETATM    6  N   UNL     1      -8.509   8.522  66.517  1.00  0.00    -0.112 N  
HETATM    7  C   UNL     1      -7.575   9.325  67.304  1.00  0.00    -0.091 C  
HETATM    8  C   UNL     1      -7.382  10.710  66.672  1.00  0.00    -0.129 C  
HETATM    9  C   UNL     1      -8.727  11.422  66.543  1.00  0.00    -0.181 C  
HETATM   10  C   UNL     1      -9.056  12.618  67.114  1.00  0.00    -0.210 C  
HETATM   11  C   UNL     1      -9.649  10.569  65.664  1.00  0.00    -0.278 C  
HETATM   12  C   UNL     1      -8.108  13.347  68.018  1.00  0.00    -0.160 A  
HETATM   13  C   UNL     1      -9.809   9.149  66.246  1.00  0.00    -0.289 C  
HETATM   14  C   UNL     1      -7.760  14.707  67.855  1.00  0.00    -0.149 A  
HETATM   15  C   UNL     1      -6.867  15.297  68.782  1.00  0.00    -0.109 A  
HETATM   16  C   UNL     1      -8.317  15.656  66.808  1.00  0.00    -0.313 C  
HETATM   17  C   UNL     1      -9.065  15.079  65.606  1.00  0.00     0.314 C  
HETATM   18  C   UNL     1      -6.334  14.568  69.842  1.00  0.00    -0.157 A  
HETATM   19  C   UNL     1      -6.708  13.248  70.031  1.00  0.00     0.277 A  
HETATM   20 CL   UNL     1      -5.235  15.316  70.932  1.00  0.00    -0.138 Cl 
HETATM   21  C   UNL     1     -10.358  14.442  66.026  1.00  0.00    -0.319 A  
HETATM   22  C   UNL     1     -10.353  13.254  66.764  1.00  0.00    -0.257 A  
HETATM   23  C   UNL     1      -7.608  12.657  69.142  1.00  0.00     0.254 A  
HETATM   24  N   UNL     1     -11.480  12.653  67.214  1.00  0.00    -0.321 NA 
HETATM   25  C   UNL     1     -12.652  13.260  66.916  1.00  0.00     0.269 A  
HETATM   26  C   UNL     1     -12.758  14.438  66.196  1.00  0.00    -0.059 A  
HETATM   27  C   UNL     1     -11.591  15.038  65.743  1.00  0.00    -0.171 A  
ENDBRANCH   3   4
ENDBRANCH   2   3
TORSDOF 2
ENDMDL
MODEL       90
REMARK 921   NORMALIZED FREE ENERGY PREDICTED BY IDOCK:   -1.22 KCAL/MOL
REMARK 922        TOTAL FREE ENERGY PREDICTED BY IDOCK:   -1.48 KCAL/MOL
REMARK 923 INTER-LIGAND FREE ENERGY PREDICTED BY IDOCK:   -1.52 KCAL/MOL
REMARK 924 INTRA-LIGAND FREE ENERGY PREDICTED BY IDOCK:    0.04 KCAL/MOL
REMARK 927      BINDING AFFINITY PREDICTED BY RF-SCORE:    0.00 PKD
ROOT
HETATM    1  C   UNL     1      -6.338  20.065  70.430  1.00  0.00    -0.323 C  
HETATM    2  C   UNL     1      -6.475  18.631  69.956  1.00  0.00     0.060 C  
ENDROOT
BRANCH   2   3
HETATM    3  O   UNL     1      -6.866  18.565  68.575  1.00  0.00    -0.245 OA 
BRANCH   3   4
HETATM    4  C   UNL     1      -6.722  17.354  67.971  1.00  0.00    -0.179 C  
HETATM    5  O   UNL     1      -5.677  16.979  67.450  1.00  0.00    -0.123 OA 
HETATM    6  N   UNL     1      -7.856  16.568  68.060  1.00  0.00    -0.154 N  
HETATM    7  C   UNL     1      -7.830  15.202  67.542  1.00  0.00    -0.181 C  
HETATM    8  C   UNL     1      -8.238  14.199  68.629  1.00  0.00    -0.116 C  
HETATM    9  C   UNL     1      -9.626  14.544  69.169  1.00  0.00    -0.034 C  
HETATM   10  C   UNL     1     -10.720  13.728  69.139  1.00  0.00    -0.154 C  
HETATM   11  C   UNL     1      -9.585  15.961  69.752  1.00  0.00    -0.084 C  
HETATM   12  C   UNL     1     -10.681  12.380  68.483  1.00  0.00    -0.262 A  
HETATM   13  C   UNL     1      -9.116  16.981  68.693  1.00  0.00    -0.271 C  
HETATM   14  C   UNL     1     -11.107  11.189  69.114  1.00  0.00    -0.306 A  
HETATM   15  C   UNL     1     -11.040   9.974  68.390  1.00  0.00    -0.236 A  
HETATM   16  C   UNL     1     -11.721  11.078  70.499  1.00  0.00    -0.416 C  
HETATM   17  C   UNL     1     -11.593  12.257  71.464  1.00  0.00     2.325 C  
HETATM   18  C   UNL     1     -10.570   9.934  67.079  1.00  0.00    -0.203 A  
HETATM   19  C   UNL     1     -10.195  11.105  66.443  1.00  0.00    -0.279 A  
HETATM   20 CL   UNL     1     -10.485   8.435  66.244  1.00  0.00     0.073 Cl 
HETATM   21  C   UNL     1     -12.376  13.443  70.978  1.00  0.00    -0.401 A  
HETATM   22  C   UNL     1     -11.957  14.150  69.846  1.00  0.00    -0.338 A  
HETATM   23  C   UNL     1     -10.278  12.316  67.133  1.00  0.00    -0.224 A  
HETATM   24  N   UNL     1     -12.641  15.198  69.329  1.00  0.00     0.046 NA 
HETATM   25  C   UNL     1     -13.782  15.551  69.964  1.00  0.00     1.250 A  
HETATM   26  C   UNL     1     -14.279  14.910  71.087  1.00  0.00    -0.353 A  
HETATM   27  C   UNL     1     -13.563  13.839  71.602  1.00  0.00    -0.386 A  
ENDBRANCH   3   4
ENDBRANCH   2   3
TORSDOF 2
ENDMDL
MODEL       91
REMARK 921   NORMALIZED FREE ENERGY PREDICTED BY IDOCK:   -1.19 KCAL/MOL
REMARK 922        TOTAL FREE ENERGY PREDICTED BY IDOCK:   -1.45 KCAL/MOL
REMARK 923 INTER-LIGAND FREE ENERGY PREDICTED BY IDOCK:   -3.03 KCAL/MOL
REMARK 924 INTRA-LIGAND FREE ENERGY PREDICTED BY IDOCK:    1.58 KCAL/MOL
REMARK 927      BINDING AFFINITY PREDICTED BY RF-SCORE:    0.00 PKD
ROOT
HETATM    1  C   UNL     1      -9.866  15.045  68.435  1.00  0.00    -0.222 C  
HETATM    2  C   UNL     1     -11.109  14.186  68.557  1.00  0.00    -0.255 C  
ENDROOT
BRANCH   2   3
HETATM    3  O   UNL     1     -11.459  13.953  69.931  1.00  0.00    -0.248 OA 
BRANCH   3   4
HETATM    4  C   UNL     1     -11.755  12.666  70.262  1.00  0.00    -0.111 C  
HETATM    5  O   UNL     1     -12.779  12.340  70.854  1.00  0.00    -0.289 OA 
HETATM    6  N   UNL     1     -10.813  11.761  69.808  1.00  0.00     0.097 N  
HETATM    7  C   UNL     1     -11.036  10.330  70.002  1.00  0.00    -0.311 C  
HETATM    8  C   UNL     1     -10.967   9.582  68.664  1.00  0.00    -0.113 C  
HETATM    9  C   UNL     1      -9.619   9.831  67.989  1.00  0.00    -0.160 C  
HETATM   10  C   UNL     1      -8.706   8.873  67.650  1.00  0.00    -0.124 C  
HETATM   11  C   UNL     1      -9.460  11.338  67.757  1.00  0.00    -0.173 C  
HETATM   12  C   UNL     1      -8.921   7.427  67.983  1.00  0.00    -0.132 A  
HETATM   13  C   UNL     1      -9.587  12.118  69.082  1.00  0.00     0.467 C  
HETATM   14  C   UNL     1      -8.814   6.382  67.038  1.00  0.00    -0.115 A  
HETATM   15  C   UNL     1      -9.021   5.050  67.470  1.00  0.00    -0.113 A  
HETATM   16  C   UNL     1      -8.412   6.528  65.580  1.00  0.00    -0.146 C  
HETATM   17  C   UNL     1      -8.431   7.917  64.941  1.00  0.00    -0.045 C  
HETATM   18  C   UNL     1      -9.322   4.755  68.797  1.00  0.00    -0.134 A  
HETATM   19  C   UNL     1      -9.383   5.772  69.735  1.00  0.00    -0.175 A  
HETATM   20 CL   UNL     1      -9.588   3.125  69.276  1.00  0.00    -0.174 Cl 
HETATM   21  C   UNL     1      -7.381   8.806  65.543  1.00  0.00    -0.085 A  
HETATM   22  C   UNL     1      -7.511   9.262  66.858  1.00  0.00    -0.091 A  
HETATM   23  C   UNL     1      -9.156   7.089  69.332  1.00  0.00    -0.145 A  
HETATM   24  N   UNL     1      -6.578  10.026  67.476  1.00  0.00    -0.068 NA 
HETATM   25  C   UNL     1      -5.480  10.346  66.754  1.00  0.00    -0.043 A  
HETATM   26  C   UNL     1      -5.260   9.938  65.449  1.00  0.00    -0.052 A  
HETATM   27  C   UNL     1      -6.228   9.156  64.833  1.00  0.00    -0.066 A  
ENDBRANCH   3   4
ENDBRANCH   2   3
TORSDOF 2
ENDMDL
MODEL       92
REMARK 921   NORMALIZED FREE ENERGY PREDICTED BY IDOCK:   -1.15 KCAL/MOL
REMARK 922        TOTAL FREE ENERGY PREDICTED BY IDOCK:   -1.40 KCAL/MOL
REMARK 923 INTER-LIGAND FREE ENERGY PREDICTED BY IDOCK:   -1.61 KCAL/MOL
REMARK 924 INTRA-LIGAND FREE ENERGY PREDICTED BY IDOCK:    0.21 KCAL/MOL
REMARK 927      BINDING AFFINITY PREDICTED BY RF-SCORE:    0.00 PKD
ROOT
HETATM    1  C   UNL     1      -5.897  15.817  70.720  1.00  0.00     0.124 C  
HETATM    2  C   UNL     1      -6.409  14.810  69.709  1.00  0.00    -0.152 C  
ENDROOT
BRANCH   2   3
HETATM    3  O   UNL     1      -5.441  13.782  69.447  1.00  0.00    -0.082 OA 
BRANCH   3   4
HETATM    4  C   UNL     1      -5.711  12.960  68.396  1.00  0.00    -0.068 C  
HETATM    5  O   UNL     1      -5.200  13.091  67.288  1.00  0.00    -0.330 OA 
HETATM    6  N   UNL     1      -6.571  11.928  68.724  1.00  0.00    -0.074 N  
HETATM    7  C   UNL     1      -6.884  10.906  67.728  1.00  0.00    -0.072 C  
HETATM    8  C   UNL     1      -6.565   9.505  68.268  1.00  0.00    -0.057 C  
HETATM    9  C   UNL     1      -7.336   9.250  69.562  1.00  0.00    -0.070 C  
HETATM   10  C   UNL     1      -8.238   8.246  69.771  1.00  0.00    -0.121 C  
HETATM   11  C   UNL     1      -6.930  10.313  70.590  1.00  0.00     0.126 C  
HETATM   12  C   UNL     1      -8.624   7.294  68.678  1.00  0.00    -0.128 A  
HETATM   13  C   UNL     1      -7.184  11.734  70.045  1.00  0.00     0.876 C  
HETATM   14  C   UNL     1      -8.598   5.888  68.819  1.00  0.00    -0.110 A  
HETATM   15  C   UNL     1      -9.002   5.086  67.725  1.00  0.00    -0.117 A  
HETATM   16  C   UNL     1      -8.250   5.120  70.083  1.00  0.00    -0.086 C  
HETATM   17  C   UNL     1      -7.546   5.851  71.226  1.00  0.00    -0.104 C  
HETATM   18  C   UNL     1      -9.422   5.654  66.524  1.00  0.00    -0.152 A  
HETATM   19  C   UNL     1      -9.491   7.032  66.398  1.00  0.00    -0.176 A  
HETATM   20 CL   UNL     1      -9.883   4.645  65.212  1.00  0.00    -0.167 Cl 
HETATM   21  C   UNL     1      -8.445   6.883  71.845  1.00  0.00    -0.114 A  
HETATM   22  C   UNL     1      -8.787   8.039  71.136  1.00  0.00    -0.140 A  
HETATM   23  C   UNL     1      -9.122   7.838  67.476  1.00  0.00    -0.136 A  
HETATM   24  N   UNL     1      -9.629   8.984  71.616  1.00  0.00    -0.284 NA 
HETATM   25  C   UNL     1     -10.146   8.767  72.847  1.00  0.00     0.448 A  
HETATM   26  C   UNL     1      -9.871   7.653  73.622  1.00  0.00    -0.302 A  
HETATM   27  C   UNL     1      -9.005   6.696  73.112  1.00  0.00    -0.140 A  
ENDBRANCH   3   4
ENDBRANCH   2   3
TORSDOF 2
ENDMDL
MODEL       93
REMARK 921   NORMALIZED FREE ENERGY PREDICTED BY IDOCK:   -0.96 KCAL/MOL
REMARK 922        TOTAL FREE ENERGY PREDICTED BY IDOCK:   -1.19 KCAL/MOL
REMARK 923 INTER-LIGAND FREE ENERGY PREDICTED BY IDOCK:   -3.48 KCAL/MOL
REMARK 924 INTRA-LIGAND FREE ENERGY PREDICTED BY IDOCK:    2.29 KCAL/MOL
REMARK 927      BINDING AFFINITY PREDICTED BY RF-SCORE:    0.00 PKD
ROOT
HETATM    1  C   UNL     1      -9.453   9.848  63.985  1.00  0.00    -0.231 C  
HETATM    2  C   UNL     1     -10.611  10.707  64.452  1.00  0.00    -0.048 C  
ENDROOT
BRANCH   2   3
HETATM    3  O   UNL     1     -11.342  11.258  63.345  1.00  0.00    -0.272 OA 
BRANCH   3   4
HETATM    4  C   UNL     1     -11.686  12.571  63.449  1.00  0.00    -0.488 C  
HETATM    5  O   UNL     1     -12.720  13.037  62.982  1.00  0.00    -0.522 OA 
HETATM    6  N   UNL     1     -10.779  13.309  64.187  1.00  0.00    -0.385 N  
HETATM    7  C   UNL     1     -11.055  14.717  64.470  1.00  0.00    -0.257 C  
HETATM    8  C   UNL     1     -11.017  14.986  65.979  1.00  0.00    -0.334 C  
HETATM    9  C   UNL     1      -9.662  14.577  66.554  1.00  0.00    -0.301 C  
HETATM   10  C   UNL     1      -8.786  15.402  67.201  1.00  0.00    -0.234 C  
HETATM   11  C   UNL     1      -9.446  13.084  66.283  1.00  0.00    -0.199 C  
HETATM   12  C   UNL     1      -9.055  16.869  67.357  1.00  0.00    -0.221 A  
HETATM   13  C   UNL     1      -9.542  12.777  64.774  1.00  0.00     0.243 C  
HETATM   14  C   UNL     1      -8.989  17.550  68.594  1.00  0.00    -0.260 A  
HETATM   15  C   UNL     1      -9.245  18.942  68.619  1.00  0.00    -0.399 A  
HETATM   16  C   UNL     1      -8.584  16.948  69.929  1.00  0.00     1.387 C  
HETATM   17  C   UNL     1      -8.553  15.427  70.077  1.00  0.00     0.363 C  
HETATM   18  C   UNL     1      -9.554  19.645  67.457  1.00  0.00    -0.336 A  
HETATM   19  C   UNL     1      -9.575  18.990  66.237  1.00  0.00    -0.367 A  
HETATM   20 CL   UNL     1      -9.880  21.331  67.534  1.00  0.00    -0.112 Cl 
HETATM   21  C   UNL     1      -7.468  14.821  69.233  1.00  0.00    -0.162 A  
HETATM   22  C   UNL     1      -7.579  14.818  67.839  1.00  0.00    -0.139 A  
HETATM   23  C   UNL     1      -9.299  17.622  66.190  1.00  0.00    -0.159 A  
HETATM   24  N   UNL     1      -6.617  14.331  67.019  1.00  0.00     0.138 NA 
HETATM   25  C   UNL     1      -5.509  13.831  67.611  1.00  0.00     0.035 A  
HETATM   26  C   UNL     1      -5.307  13.795  68.981  1.00  0.00    -0.076 A  
HETATM   27  C   UNL     1      -6.305  14.298  69.805  1.00  0.00    -0.144 A  
ENDBRANCH   3   4
ENDBRANCH   2   3
TORSDOF 2
ENDMDL
MODEL       94
REMARK 921   NORMALIZED FREE ENERGY PREDICTED BY IDOCK:   -0.73 KCAL/MOL
REMARK 922        TOTAL FREE ENERGY PREDICTED BY IDOCK:   -0.93 KCAL/MOL
REMARK 923 INTER-LIGAND FREE ENERGY PREDICTED BY IDOCK:   -2.55 KCAL/MOL
REMARK 924 INTRA-LIGAND FREE ENERGY PREDICTED BY IDOCK:    1.62 KCAL/MOL
REMARK 927      BINDING AFFINITY PREDICTED BY RF-SCORE:    0.00 PKD
ROOT
HETATM    1  C   UNL     1      -6.143  13.514  70.378  1.00  0.00    -0.092 C  
HETATM    2  C   UNL     1      -6.661  13.410  68.957  1.00  0.00    -0.108 C  
ENDROOT
BRANCH   2   3
HETATM    3  O   UNL     1      -6.856  12.042  68.563  1.00  0.00    -0.066 OA 
BRANCH   3   4
HETATM    4  C   UNL     1      -6.579  11.103  69.508  1.00  0.00    -0.126 C  
HETATM    5  O   UNL     1      -6.374  11.372  70.687  1.00  0.00    -0.310 OA 
HETATM    6  N   UNL     1      -6.614   9.812  69.013  1.00  0.00    -0.048 N  
HETATM    7  C   UNL     1      -6.430   8.685  69.925  1.00  0.00    -0.034 C  
HETATM    8  C   UNL     1      -7.611   7.709  69.828  1.00  0.00    -0.093 C  
HETATM    9  C   UNL     1      -7.772   7.218  68.390  1.00  0.00    -0.120 C  
HETATM   10  C   UNL     1      -7.708   5.918  67.978  1.00  0.00    -0.100 C  
HETATM   11  C   UNL     1      -8.018   8.430  67.485  1.00  0.00    -0.106 C  
HETATM   12  C   UNL     1      -7.391   4.804  68.930  1.00  0.00    -0.057 A  
HETATM   13  C   UNL     1      -6.873   9.457  67.612  1.00  0.00    -0.076 C  
HETATM   14  C   UNL     1      -8.175   3.634  69.055  1.00  0.00    -0.074 A  
HETATM   15  C   UNL     1      -7.770   2.639  69.977  1.00  0.00    -0.045 A  
HETATM   16  C   UNL     1      -9.398   3.281  68.227  1.00  0.00    -0.242 C  
HETATM   17  C   UNL     1     -10.080   4.377  67.407  1.00  0.00    -0.081 C  
HETATM   18  C   UNL     1      -6.622   2.790  70.752  1.00  0.00    -0.031 A  
HETATM   19  C   UNL     1      -5.828   3.914  70.599  1.00  0.00    -0.014 A  
HETATM   20 CL   UNL     1      -6.178   1.567  71.875  1.00  0.00    -0.013 Cl 
HETATM   21  C   UNL     1      -9.195   4.850  66.290  1.00  0.00    -0.142 A  
HETATM   22  C   UNL     1      -8.041   5.589  66.568  1.00  0.00    -0.105 A  
HETATM   23  C   UNL     1      -6.198   4.894  69.677  1.00  0.00    -0.029 A  
HETATM   24  N   UNL     1      -7.176   6.004  65.612  1.00  0.00    -0.073 NA 
HETATM   25  C   UNL     1      -7.475   5.671  64.336  1.00  0.00    -0.073 A  
HETATM   26  C   UNL     1      -8.590   4.939  63.963  1.00  0.00    -0.133 A  
HETATM   27  C   UNL     1      -9.465   4.523  64.957  1.00  0.00    -0.156 A  
ENDBRANCH   3   4
ENDBRANCH   2   3
TORSDOF 2
ENDMDL
MODEL       95
REMARK 921   NORMALIZED FREE ENERGY PREDICTED BY IDOCK:   -0.61 KCAL/MOL
REMARK 922        TOTAL FREE ENERGY PREDICTED BY IDOCK:   -0.79 KCAL/MOL
REMARK 923 INTER-LIGAND FREE ENERGY PREDICTED BY IDOCK:   -2.24 KCAL/MOL
REMARK 924 INTRA-LIGAND FREE ENERGY PREDICTED BY IDOCK:    1.45 KCAL/MOL
REMARK 927      BINDING AFFINITY PREDICTED BY RF-SCORE:    0.00 PKD
ROOT
HETATM    1  C   UNL     1      -6.090  12.833  70.610  1.00  0.00     0.134 C  
HETATM    2  C   UNL     1      -6.402  11.806  69.539  1.00  0.00    -0.123 C  
ENDROOT
BRANCH   2   3
HETATM    3  O   UNL     1      -5.336  11.698  68.582  1.00  0.00    -0.043 OA 
BRANCH   3   4
HETATM    4  C   UNL     1      -5.602  10.957  67.472  1.00  0.00    -0.044 C  
HETATM    5  O   UNL     1      -5.134  11.206  66.366  1.00  0.00    -0.087 OA 
HETATM    6  N   UNL     1      -6.404   9.861  67.734  1.00  0.00    -0.055 N  
HETATM    7  C   UNL     1      -6.702   8.913  66.662  1.00  0.00    -0.072 C  
HETATM    8  C   UNL     1      -6.303   7.489  67.069  1.00  0.00    -0.053 C  
HETATM    9  C   UNL     1      -7.020   7.088  68.358  1.00  0.00    -0.076 C  
HETATM   10  C   UNL     1      -7.868   6.027  68.504  1.00  0.00    -0.100 C  
HETATM   11  C   UNL     1      -6.630   8.077  69.462  1.00  0.00    -0.038 C  
HETATM   12  C   UNL     1      -8.245   5.154  67.345  1.00  0.00    -0.107 A  
HETATM   13  C   UNL     1      -6.964   9.526  69.049  1.00  0.00    -0.058 C  
HETATM   14  C   UNL     1      -8.152   3.744  67.363  1.00  0.00    -0.090 A  
HETATM   15  C   UNL     1      -8.554   3.020  66.215  1.00  0.00    -0.121 A  
HETATM   16  C   UNL     1      -7.728   2.889  68.545  1.00  0.00    -0.054 C  
HETATM   17  C   UNL     1      -7.022   3.554  69.727  1.00  0.00    -0.041 C  
HETATM   18  C   UNL     1      -9.038   3.668  65.080  1.00  0.00    -0.143 A  
HETATM   19  C   UNL     1      -9.173   5.046  65.076  1.00  0.00    -0.072 A  
HETATM   20 CL   UNL     1      -9.494   2.753  63.699  1.00  0.00    -0.103 Cl 
HETATM   21  C   UNL     1      -7.947   4.484  70.458  1.00  0.00    -0.057 A  
HETATM   22  C   UNL     1      -8.363   5.679  69.861  1.00  0.00    -0.117 A  
HETATM   23  C   UNL     1      -8.806   5.774  66.208  1.00  0.00    -0.140 A  
HETATM   24  N   UNL     1      -9.231   6.538  70.445  1.00  0.00    -0.155 NA 
HETATM   25  C   UNL     1      -9.698   6.193  71.666  1.00  0.00    -0.158 A  
HETATM   26  C   UNL     1      -9.349   5.032  72.334  1.00  0.00    -0.157 A  
HETATM   27  C   UNL     1      -8.457   4.164  71.719  1.00  0.00    -0.111 A  
ENDBRANCH   3   4
ENDBRANCH   2   3
TORSDOF 2
ENDMDL
MODEL       96
REMARK 921   NORMALIZED FREE ENERGY PREDICTED BY IDOCK:    1.63 KCAL/MOL
REMARK 922        TOTAL FREE ENERGY PREDICTED BY IDOCK:    1.70 KCAL/MOL
REMARK 923 INTER-LIGAND FREE ENERGY PREDICTED BY IDOCK:   -0.06 KCAL/MOL
REMARK 924 INTRA-LIGAND FREE ENERGY PREDICTED BY IDOCK:    1.76 KCAL/MOL
REMARK 927      BINDING AFFINITY PREDICTED BY RF-SCORE:    0.00 PKD
ROOT
HETATM    1  C   UNL     1     -11.109   8.053  68.258  1.00  0.00     0.328 C  
HETATM    2  C   UNL     1     -10.034   7.721  67.241  1.00  0.00    -0.212 C  
ENDROOT
BRANCH   2   3
HETATM    3  O   UNL     1      -8.765   8.287  67.608  1.00  0.00    -0.132 OA 
BRANCH   3   4
HETATM    4  C   UNL     1      -8.779   9.154  68.657  1.00  0.00    -0.129 C  
HETATM    5  O   UNL     1      -8.199   8.940  69.717  1.00  0.00    -0.108 OA 
HETATM    6  N   UNL     1      -9.461  10.325  68.382  1.00  0.00    -0.142 N  
HETATM    7  C   UNL     1      -9.485  11.396  69.375  1.00  0.00     0.464 C  
HETATM    8  C   UNL     1      -8.966  12.708  68.772  1.00  0.00     0.170 C  
HETATM    9  C   UNL     1      -9.797  13.091  67.547  1.00  0.00    -0.209 C  
HETATM   10  C   UNL     1     -10.513  14.243  67.395  1.00  0.00    -0.264 C  
HETATM   11  C   UNL     1      -9.692  11.962  66.515  1.00  0.00    -0.226 C  
HETATM   12  C   UNL     1     -10.612  15.260  68.493  1.00  0.00    -0.237 A  
HETATM   13  C   UNL     1     -10.150  10.617  67.118  1.00  0.00    -0.207 C  
HETATM   14  C   UNL     1     -10.342  16.636  68.313  1.00  0.00    -0.304 A  
HETATM   15  C   UNL     1     -10.485  17.508  69.418  1.00  0.00    -0.001 A  
HETATM   16  C   UNL     1      -9.979  17.314  67.003  1.00  0.00    -0.289 C  
HETATM   17  C   UNL     1      -9.534  16.454  65.820  1.00  0.00    -0.191 C  
HETATM   18  C   UNL     1     -10.888  17.039  70.667  1.00  0.00     0.707 A  
HETATM   19  C   UNL     1     -11.197  15.699  70.835  1.00  0.00    -0.407 A  
HETATM   20 CL   UNL     1     -11.028  18.128  71.989  1.00  0.00     2.300 Cl 
HETATM   21  C   UNL     1     -10.662  15.602  65.313  1.00  0.00    -0.444 A  
HETATM   22  C   UNL     1     -11.142  14.536  66.081  1.00  0.00    -0.334 A  
HETATM   23  C   UNL     1     -11.086  14.829  69.750  1.00  0.00    -0.288 A  
HETATM   24  N   UNL     1     -12.185  13.760  65.705  1.00  0.00    -0.424 NA 
HETATM   25  C   UNL     1     -12.768  14.057  64.521  1.00  0.00    -0.063 A  
HETATM   26  C   UNL     1     -12.367  15.094  63.695  1.00  0.00     0.598 A  
HETATM   27  C   UNL     1     -11.295  15.879  64.098  1.00  0.00    -0.021 A  
ENDBRANCH   3   4
ENDBRANCH   2   3
TORSDOF 2
ENDMDL
MODEL       97
REMARK 921   NORMALIZED FREE ENERGY PREDICTED BY IDOCK:    1.64 KCAL/MOL
REMARK 922        TOTAL FREE ENERGY PREDICTED BY IDOCK:    1.72 KCAL/MOL
REMARK 923 INTER-LIGAND FREE ENERGY PREDICTED BY IDOCK:    1.02 KCAL/MOL
REMARK 924 INTRA-LIGAND FREE ENERGY PREDICTED BY IDOCK:    0.69 KCAL/MOL
REMARK 927      BINDING AFFINITY PREDICTED BY RF-SCORE:    0.00 PKD
ROOT
HETATM    1  C   UNL     1     -10.523  11.071  63.082  1.00  0.00    -0.176 C  
HETATM    2  C   UNL     1     -11.963  10.887  62.647  1.00  0.00     2.214 C  
ENDROOT
BRANCH   2   3
HETATM    3  O   UNL     1     -12.792  11.975  63.084  1.00  0.00    -0.661 OA 
BRANCH   3   4
HETATM    4  C   UNL     1     -12.152  13.149  63.338  1.00  0.00    -0.486 C  
HETATM    5  O   UNL     1     -11.967  14.014  62.488  1.00  0.00     0.827 OA 
HETATM    6  N   UNL     1     -11.789  13.291  64.665  1.00  0.00    -0.360 N  
HETATM    7  C   UNL     1     -11.176  14.538  65.116  1.00  0.00    -0.367 C  
HETATM    8  C   UNL     1     -11.967  15.141  66.284  1.00  0.00     0.187 C  
HETATM    9  C   UNL     1     -12.056  14.139  67.434  1.00  0.00    -0.379 C  
HETATM   10  C   UNL     1     -11.590  14.334  68.703  1.00  0.00    -0.352 C  
HETATM   11  C   UNL     1     -12.755  12.873  66.925  1.00  0.00     1.036 C  
HETATM   12  C   UNL     1     -10.854  15.582  69.088  1.00  0.00    -0.251 A  
HETATM   13  C   UNL     1     -12.013  12.282  65.709  1.00  0.00    -0.293 C  
HETATM   14  C   UNL     1     -11.191  16.376  70.208  1.00  0.00    -0.259 A  
HETATM   15  C   UNL     1     -10.413  17.525  70.487  1.00  0.00     1.397 A  
HETATM   16  C   UNL     1     -12.281  16.078  71.223  1.00  0.00    -0.399 C  
HETATM   17  C   UNL     1     -13.346  15.035  70.883  1.00  0.00    -0.432 C  
HETATM   18  C   UNL     1      -9.330  17.882  69.686  1.00  0.00     0.770 A  
HETATM   19  C   UNL     1      -8.970  17.082  68.615  1.00  0.00    -0.267 A  
HETATM   20 CL   UNL     1      -8.425  19.298  70.046  1.00  0.00     0.854 Cl 
HETATM   21  C   UNL     1     -12.750  13.658  70.801  1.00  0.00    -0.338 A  
HETATM   22  C   UNL     1     -11.893  13.323  69.748  1.00  0.00    -0.325 A  
HETATM   23  C   UNL     1      -9.709  15.930  68.340  1.00  0.00    -0.214 A  
HETATM   24  N   UNL     1     -11.286  12.117  69.640  1.00  0.00    -0.133 NA 
HETATM   25  C   UNL     1     -11.545  11.217  70.615  1.00  0.00    -0.085 A  
HETATM   26  C   UNL     1     -12.375  11.458  71.697  1.00  0.00    -0.069 A  
HETATM   27  C   UNL     1     -12.989  12.700  71.790  1.00  0.00    -0.417 A  
ENDBRANCH   3   4
ENDBRANCH   2   3
TORSDOF 2
ENDMDL
MODEL       98
REMARK 921   NORMALIZED FREE ENERGY PREDICTED BY IDOCK:    1.68 KCAL/MOL
REMARK 922        TOTAL FREE ENERGY PREDICTED BY IDOCK:    1.77 KCAL/MOL
REMARK 923 INTER-LIGAND FREE ENERGY PREDICTED BY IDOCK:    1.16 KCAL/MOL
REMARK 924 INTRA-LIGAND FREE ENERGY PREDICTED BY IDOCK:    0.61 KCAL/MOL
REMARK 927      BINDING AFFINITY PREDICTED BY RF-SCORE:    0.00 PKD
ROOT
HETATM    1  C   UNL     1     -11.281   5.231  65.593  1.00  0.00     0.590 C  
HETATM    2  C   UNL     1     -10.378   4.022  65.438  1.00  0.00    -0.076 C  
ENDROOT
BRANCH   2   3
HETATM    3  O   UNL     1      -9.265   4.300  64.573  1.00  0.00    -0.147 OA 
BRANCH   3   4
HETATM    4  C   UNL     1      -8.870   5.601  64.506  1.00  0.00     0.144 C  
HETATM    5  O   UNL     1      -9.099   6.326  63.544  1.00  0.00     0.734 OA 
HETATM    6  N   UNL     1      -8.240   6.035  65.658  1.00  0.00    -0.133 N  
HETATM    7  C   UNL     1      -7.840   7.435  65.777  1.00  0.00    -0.108 C  
HETATM    8  C   UNL     1      -8.443   8.067  67.039  1.00  0.00    -0.120 C  
HETATM    9  C   UNL     1      -8.019   7.278  68.278  1.00  0.00    -0.124 C  
HETATM   10  C   UNL     1      -7.318   7.774  69.340  1.00  0.00    -0.086 C  
HETATM   11  C   UNL     1      -8.510   5.834  68.129  1.00  0.00    -0.109 C  
HETATM   12  C   UNL     1      -6.818   9.188  69.364  1.00  0.00    -0.048 A  
HETATM   13  C   UNL     1      -7.967   5.196  66.833  1.00  0.00    -0.104 C  
HETATM   14  C   UNL     1      -7.049  10.082  70.433  1.00  0.00    -0.131 A  
HETATM   15  C   UNL     1      -6.512  11.390  70.355  1.00  0.00     0.176 A  
HETATM   16  C   UNL     1      -7.764   9.759  71.734  1.00  0.00     1.555 C  
HETATM   17  C   UNL     1      -8.609   8.488  71.820  1.00  0.00    -0.254 C  
HETATM   18  C   UNL     1      -5.767  11.804  69.254  1.00  0.00    -0.062 A  
HETATM   19  C   UNL     1      -5.501  10.916  68.224  1.00  0.00    -0.039 A  
HETATM   20 CL   UNL     1      -5.152  13.408  69.187  1.00  0.00    -0.073 Cl 
HETATM   21  C   UNL     1      -7.751   7.259  71.738  1.00  0.00    -0.087 A  
HETATM   22  C   UNL     1      -7.119   6.918  70.538  1.00  0.00    -0.067 A  
HETATM   23  C   UNL     1      -6.000   9.615  68.297  1.00  0.00    -0.047 A  
HETATM   24  N   UNL     1      -6.296   5.851  70.408  1.00  0.00    -0.031 NA 
HETATM   25  C   UNL     1      -6.098   5.099  71.515  1.00  0.00    -0.029 A  
HETATM   26  C   UNL     1      -6.675   5.358  72.747  1.00  0.00    -0.072 A  
HETATM   27  C   UNL     1      -7.517   6.456  72.859  1.00  0.00    -0.095 A  
ENDBRANCH   3   4
ENDBRANCH   2   3
TORSDOF 2
ENDMDL
MODEL       99
REMARK 921   NORMALIZED FREE ENERGY PREDICTED BY IDOCK:    2.26 KCAL/MOL
REMARK 922        TOTAL FREE ENERGY PREDICTED BY IDOCK:    2.41 KCAL/MOL
REMARK 923 INTER-LIGAND FREE ENERGY PREDICTED BY IDOCK:    2.22 KCAL/MOL
REMARK 924 INTRA-LIGAND FREE ENERGY PREDICTED BY IDOCK:    0.19 KCAL/MOL
REMARK 927      BINDING AFFINITY PREDICTED BY RF-SCORE:    0.00 PKD
ROOT
HETATM    1  C   UNL     1      -9.846  18.099  70.824  1.00  0.00     3.256 C  
HETATM    2  C   UNL     1      -9.617  17.391  69.503  1.00  0.00     0.317 C  
ENDROOT
BRANCH   2   3
HETATM    3  O   UNL     1      -8.247  17.488  69.081  1.00  0.00    -0.116 OA 
BRANCH   3   4
HETATM    4  C   UNL     1      -7.454  16.422  69.376  1.00  0.00    -0.122 C  
HETATM    5  O   UNL     1      -6.699  16.390  70.342  1.00  0.00     0.391 OA 
HETATM    6  N   UNL     1      -7.633  15.359  68.510  1.00  0.00    -0.118 N  
HETATM    7  C   UNL     1      -6.921  14.105  68.751  1.00  0.00    -0.104 C  
HETATM    8  C   UNL     1      -7.904  12.931  68.840  1.00  0.00     0.139 C  
HETATM    9  C   UNL     1      -8.736  12.841  67.561  1.00  0.00    -0.185 C  
HETATM   10  C   UNL     1      -8.788  11.771  66.714  1.00  0.00    -0.191 C  
HETATM   11  C   UNL     1      -9.505  14.155  67.386  1.00  0.00    -0.220 C  
HETATM   12  C   UNL     1      -7.942  10.551  66.933  1.00  0.00    -0.121 A  
HETATM   13  C   UNL     1      -8.541  15.360  67.356  1.00  0.00    -0.179 C  
HETATM   14  C   UNL     1      -8.457   9.235  66.952  1.00  0.00    -0.128 A  
HETATM   15  C   UNL     1      -7.561   8.157  67.150  1.00  0.00    -0.096 A  
HETATM   16  C   UNL     1      -9.899   8.832  66.697  1.00  0.00    -0.335 C  
HETATM   17  C   UNL     1     -10.988   9.904  66.744  1.00  0.00     0.009 C  
HETATM   18  C   UNL     1      -6.195   8.369  67.321  1.00  0.00    -0.056 A  
HETATM   19  C   UNL     1      -5.682   9.654  67.258  1.00  0.00    -0.044 A  
HETATM   20 CL   UNL     1      -5.144   7.034  67.580  1.00  0.00    -0.014 Cl 
HETATM   21  C   UNL     1     -10.837  10.881  65.614  1.00  0.00    -0.112 A  
HETATM   22  C   UNL     1      -9.766  11.780  65.596  1.00  0.00    -0.233 A  
HETATM   23  C   UNL     1      -6.547  10.727  67.038  1.00  0.00    -0.085 A  
HETATM   24  N   UNL     1      -9.545  12.653  64.585  1.00  0.00     0.121 NA 
HETATM   25  C   UNL     1     -10.425  12.629  63.558  1.00  0.00    -0.216 A  
HETATM   26  C   UNL     1     -11.512  11.774  63.484  1.00  0.00    -0.489 A  
HETATM   27  C   UNL     1     -11.722  10.886  64.531  1.00  0.00     1.149 A  
ENDBRANCH   3   4
ENDBRANCH   2   3
TORSDOF 2
ENDMDL
MODEL      100
REMARK 921   NORMALIZED FREE ENERGY PREDICTED BY IDOCK:    3.17 KCAL/MOL
REMARK 922        TOTAL FREE ENERGY PREDICTED BY IDOCK:    3.42 KCAL/MOL
REMARK 923 INTER-LIGAND FREE ENERGY PREDICTED BY IDOCK:    3.20 KCAL/MOL
REMARK 924 INTRA-LIGAND FREE ENERGY PREDICTED BY IDOCK:    0.23 KCAL/MOL
REMARK 927      BINDING AFFINITY PREDICTED BY RF-SCORE:    0.00 PKD
ROOT
HETATM    1  C   UNL     1     -11.929  17.219  74.017  1.00  0.00     0.151 C  
HETATM    2  C   UNL     1     -12.479  17.182  72.605  1.00  0.00     1.885 C  
ENDROOT
BRANCH   2   3
HETATM    3  O   UNL     1     -13.270  16.005  72.375  1.00  0.00    -0.439 OA 
BRANCH   3   4
HETATM    4  C   UNL     1     -12.607  14.818  72.439  1.00  0.00    -0.339 C  
HETATM    5  O   UNL     1     -12.546  14.134  73.456  1.00  0.00    -0.288 OA 
HETATM    6  N   UNL     1     -12.064  14.436  71.227  1.00  0.00    -0.341 N  
HETATM    7  C   UNL     1     -11.401  13.138  71.110  1.00  0.00     2.073 C  
HETATM    8  C   UNL     1     -12.026  12.308  69.980  1.00  0.00    -0.379 C  
HETATM    9  C   UNL     1     -11.949  13.073  68.660  1.00  0.00    -0.298 C  
HETATM   10  C   UNL     1     -11.313  12.651  67.527  1.00  0.00    -0.361 C  
HETATM   11  C   UNL     1     -12.705  14.397  68.817  1.00  0.00     0.652 C  
HETATM   12  C   UNL     1     -10.537  11.368  67.491  1.00  0.00    -0.252 A  
HETATM   13  C   UNL     1     -12.136  15.223  69.989  1.00  0.00    -0.352 C  
HETATM   14  C   UNL     1     -10.720  10.369  66.508  1.00  0.00    -0.162 A  
HETATM   15  C   UNL     1      -9.917   9.205  66.563  1.00  0.00    -0.359 A  
HETATM   16  C   UNL     1     -11.657  10.447  65.315  1.00  0.00     2.191 C  
HETATM   17  C   UNL     1     -12.753  11.513  65.301  1.00  0.00     2.278 C  
HETATM   18  C   UNL     1      -8.958   9.030  67.557  1.00  0.00    -0.122 A  
HETATM   19  C   UNL     1      -8.745  10.026  68.496  1.00  0.00    -0.123 A  
HETATM   20 CL   UNL     1      -8.019   7.590  67.601  1.00  0.00    -0.116 Cl 
HETATM   21  C   UNL     1     -12.167  12.892  65.200  1.00  0.00    -0.519 A  
HETATM   22  C   UNL     1     -11.462  13.439  66.277  1.00  0.00    -0.325 A  
HETATM   23  C   UNL     1      -9.509  11.192  68.442  1.00  0.00    -0.189 A  
HETATM   24  N   UNL     1     -10.869  14.656  66.236  1.00  0.00    -0.315 NA 
HETATM   25  C   UNL     1     -10.986  15.349  65.081  1.00  0.00    -0.418 A  
HETATM   26  C   UNL     1     -11.659  14.890  63.961  1.00  0.00     0.105 A  
HETATM   27  C   UNL     1     -12.261  13.640  64.023  1.00  0.00    -0.443 A  
ENDBRANCH   3   4
ENDBRANCH   2   3
TORSDOF 2
ENDMDL
MODEL      101
REMARK 921   NORMALIZED FREE ENERGY PREDICTED BY IDOCK:    3.30 KCAL/MOL
REMARK 922        TOTAL FREE ENERGY PREDICTED BY IDOCK:    3.57 KCAL/MOL
REMARK 923 INTER-LIGAND FREE ENERGY PREDICTED BY IDOCK:    1.75 KCAL/MOL
REMARK 924 INTRA-LIGAND FREE ENERGY PREDICTED BY IDOCK:    1.82 KCAL/MOL
REMARK 927      BINDING AFFINITY PREDICTED BY RF-SCORE:    0.00 PKD
ROOT
HETATM    1  C   UNL     1     -10.102   8.606  67.400  1.00  0.00    -0.292 C  
HETATM    2  C   UNL     1      -8.891   8.103  68.160  1.00  0.00    -0.132 C  
ENDROOT
BRANCH   2   3
HETATM    3  O   UNL     1      -8.919   8.516  69.536  1.00  0.00    -0.146 OA 
BRANCH   3   4
HETATM    4  C   UNL     1      -8.179   9.616  69.845  1.00  0.00    -0.174 C  
HETATM    5  O   UNL     1      -7.080   9.559  70.387  1.00  0.00    -0.089 OA 
HETATM    6  N   UNL     1      -8.767  10.797  69.431  1.00  0.00    -0.037 N  
HETATM    7  C   UNL     1      -8.051  12.059  69.606  1.00  0.00     1.287 C  
HETATM    8  C   UNL     1      -7.916  12.798  68.269  1.00  0.00    -0.151 C  
HETATM    9  C   UNL     1      -9.296  13.042  67.659  1.00  0.00    -0.202 C  
HETATM   10  C   UNL     1      -9.833  14.261  67.358  1.00  0.00    -0.235 C  
HETATM   11  C   UNL     1      -9.981  11.688  67.443  1.00  0.00    -0.200 C  
HETATM   12  C   UNL     1      -9.113  15.539  67.672  1.00  0.00    -0.183 A  
HETATM   13  C   UNL     1     -10.072  10.897  68.765  1.00  0.00    -0.194 C  
HETATM   14  C   UNL     1      -8.893  16.566  66.727  1.00  0.00    -0.255 A  
HETATM   15  C   UNL     1      -8.216  17.738  67.141  1.00  0.00    -0.233 A  
HETATM   16  C   UNL     1      -9.387  16.584  65.291  1.00  0.00     0.900 C  
HETATM   17  C   UNL     1      -9.882  15.283  64.659  1.00  0.00     0.842 C  
HETATM   18  C   UNL     1      -7.771  17.895  68.451  1.00  0.00    -0.291 A  
HETATM   19  C   UNL     1      -8.025  16.910  69.391  1.00  0.00     0.175 A  
HETATM   20 CL   UNL     1      -6.933  19.325  68.908  1.00  0.00    -0.359 Cl 
HETATM   21  C   UNL     1     -11.148  14.809  65.314  1.00  0.00    -0.374 A  
HETATM   22  C   UNL     1     -11.124  14.322  66.625  1.00  0.00    -0.321 A  
HETATM   23  C   UNL     1      -8.714  15.759  69.007  1.00  0.00    -0.237 A  
HETATM   24  N   UNL     1     -12.235  13.923  67.290  1.00  0.00    -0.359 NA 
HETATM   25  C   UNL     1     -13.407  14.013  66.622  1.00  0.00     2.372 A  
HETATM   26  C   UNL     1     -13.531  14.486  65.326  1.00  0.00     0.921 A  
HETATM   27  C   UNL     1     -12.381  14.889  64.661  1.00  0.00    -0.290 A  
ENDBRANCH   3   4
ENDBRANCH   2   3
TORSDOF 2
ENDMDL
MODEL      102
REMARK 921   NORMALIZED FREE ENERGY PREDICTED BY IDOCK:    4.23 KCAL/MOL
REMARK 922        TOTAL FREE ENERGY PREDICTED BY IDOCK:    4.60 KCAL/MOL
REMARK 923 INTER-LIGAND FREE ENERGY PREDICTED BY IDOCK:    4.29 KCAL/MOL
REMARK 924 INTRA-LIGAND FREE ENERGY PREDICTED BY IDOCK:    0.32 KCAL/MOL
REMARK 927      BINDING AFFINITY PREDICTED BY RF-SCORE:    0.00 PKD
ROOT
HETATM    1  C   UNL     1     -13.128  16.514  72.945  1.00  0.00     0.292 C  
HETATM    2  C   UNL     1     -12.056  16.479  71.874  1.00  0.00    -0.038 C  
ENDROOT
BRANCH   2   3
HETATM    3  O   UNL     1     -12.620  16.293  70.566  1.00  0.00    -0.050 OA 
BRANCH   3   4
HETATM    4  C   UNL     1     -13.191  15.080  70.329  1.00  0.00     0.010 C  
HETATM    5  O   UNL     1     -14.404  14.903  70.281  1.00  0.00     0.958 OA 
HETATM    6  N   UNL     1     -12.263  14.083  70.088  1.00  0.00    -0.341 N  
HETATM    7  C   UNL     1     -12.721  12.744  69.725  1.00  0.00     0.501 C  
HETATM    8  C   UNL     1     -12.093  12.296  68.398  1.00  0.00    -0.107 C  
HETATM    9  C   UNL     1     -10.569  12.336  68.496  1.00  0.00    -0.254 C  
HETATM   10  C   UNL     1      -9.729  11.273  68.324  1.00  0.00    -0.199 C  
HETATM   11  C   UNL     1     -10.138  13.771  68.823  1.00  0.00    -0.141 C  
HETATM   12  C   UNL     1     -10.250   9.889  68.076  1.00  0.00    -0.219 A  
HETATM   13  C   UNL     1     -10.806  14.267  70.122  1.00  0.00     0.228 C  
HETATM   14  C   UNL     1      -9.817   9.069  67.010  1.00  0.00    -0.270 A  
HETATM   15  C   UNL     1     -10.367   7.770  66.884  1.00  0.00    -0.396 A  
HETATM   16  C   UNL     1      -8.736   9.409  65.998  1.00  0.00    -0.171 C  
HETATM   17  C   UNL     1      -8.274  10.860  65.866  1.00  0.00    -0.133 C  
HETATM   18  C   UNL     1     -11.314   7.291  67.786  1.00  0.00     0.395 A  
HETATM   19  C   UNL     1     -11.706   8.075  68.858  1.00  0.00     1.439 A  
HETATM   20 CL   UNL     1     -11.972   5.717  67.584  1.00  0.00     2.955 Cl 
HETATM   21  C   UNL     1      -7.557  11.316  67.105  1.00  0.00    -0.137 A  
HETATM   22  C   UNL     1      -8.262  11.508  68.298  1.00  0.00    -0.152 A  
HETATM   23  C   UNL     1     -11.156   9.349  69.013  1.00  0.00    -0.014 A  
HETATM   24  N   UNL     1      -7.670  11.872  69.460  1.00  0.00     0.419 NA 
HETATM   25  C   UNL     1      -6.330  12.051  69.429  1.00  0.00    -0.116 A  
HETATM   26  C   UNL     1      -5.547  11.880  68.300  1.00  0.00    -0.050 A  
HETATM   27  C   UNL     1      -6.172  11.508  67.118  1.00  0.00    -0.121 A  
ENDBRANCH   3   4
ENDBRANCH   2   3
TORSDOF 2
ENDMDL
MODEL      103
REMARK 921   NORMALIZED FREE ENERGY PREDICTED BY IDOCK:    5.27 KCAL/MOL
REMARK 922        TOTAL FREE ENERGY PREDICTED BY IDOCK:    5.78 KCAL/MOL
REMARK 923 INTER-LIGAND FREE ENERGY PREDICTED BY IDOCK:    5.70 KCAL/MOL
REMARK 924 INTRA-LIGAND FREE ENERGY PREDICTED BY IDOCK:    0.07 KCAL/MOL
REMARK 927      BINDING AFFINITY PREDICTED BY RF-SCORE:    0.00 PKD
ROOT
HETATM    1  C   UNL     1      -8.813  16.987  70.903  1.00  0.00     5.577 C  
HETATM    2  C   UNL     1      -8.613  16.139  69.663  1.00  0.00     0.219 C  
ENDROOT
BRANCH   2   3
HETATM    3  O   UNL     1      -7.219  15.939  69.377  1.00  0.00    -0.205 OA 
BRANCH   3   4
HETATM    4  C   UNL     1      -6.667  14.794  69.863  1.00  0.00    -0.172 C  
HETATM    5  O   UNL     1      -6.133  14.717  70.965  1.00  0.00    -0.130 OA 
HETATM    6  N   UNL     1      -6.826  13.714  69.013  1.00  0.00    -0.110 N  
HETATM    7  C   UNL     1      -6.370  12.391  69.435  1.00  0.00    -0.119 C  
HETATM    8  C   UNL     1      -7.514  11.372  69.357  1.00  0.00     0.060 C  
HETATM    9  C   UNL     1      -8.079  11.320  67.938  1.00  0.00    -0.121 C  
HETATM   10  C   UNL     1      -8.119  10.218  67.133  1.00  0.00    -0.121 C  
HETATM   11  C   UNL     1      -8.594  12.715  67.566  1.00  0.00    -0.185 C  
HETATM   12  C   UNL     1      -7.524   8.908  67.560  1.00  0.00    -0.085 A  
HETATM   13  C   UNL     1      -7.476  13.770  67.697  1.00  0.00    -0.178 C  
HETATM   14  C   UNL     1      -8.221   7.680  67.514  1.00  0.00    -0.121 A  
HETATM   15  C   UNL     1      -7.552   6.502  67.926  1.00  0.00    -0.103 A  
HETATM   16  C   UNL     1      -9.627   7.466  66.981  1.00  0.00    -0.221 C  
HETATM   17  C   UNL     1     -10.533   8.679  66.768  1.00  0.00    -0.298 C  
HETATM   18  C   UNL     1      -6.232   6.533  68.368  1.00  0.00    -0.033 A  
HETATM   19  C   UNL     1      -5.532   7.728  68.372  1.00  0.00    -0.028 A  
HETATM   20 CL   UNL     1      -5.464   5.084  68.881  1.00  0.00    -0.007 Cl 
HETATM   21  C   UNL     1     -10.016   9.555  65.662  1.00  0.00    -0.269 A  
HETATM   22  C   UNL     1      -8.842  10.293  65.838  1.00  0.00    -0.159 A  
HETATM   23  C   UNL     1      -6.167   8.895  67.944  1.00  0.00    -0.052 A  
HETATM   24  N   UNL     1      -8.297  11.064  64.867  1.00  0.00     0.072 NA 
HETATM   25  C   UNL     1      -8.948  11.099  63.682  1.00  0.00    -0.025 A  
HETATM   26  C   UNL     1     -10.113  10.400  63.413  1.00  0.00    -0.009 A  
HETATM   27  C   UNL     1     -10.657   9.616  64.421  1.00  0.00     2.522 A  
ENDBRANCH   3   4
ENDBRANCH   2   3
TORSDOF 2
ENDMDL
MODEL      104
REMARK 921   NORMALIZED FREE ENERGY PREDICTED BY IDOCK:    5.77 KCAL/MOL
REMARK 922        TOTAL FREE ENERGY PREDICTED BY IDOCK:    6.33 KCAL/MOL
REMARK 923 INTER-LIGAND FREE ENERGY PREDICTED BY IDOCK:    5.10 KCAL/MOL
REMARK 924 INTRA-LIGAND FREE ENERGY PREDICTED BY IDOCK:    1.23 KCAL/MOL
REMARK 927      BINDING AFFINITY PREDICTED BY RF-SCORE:    0.00 PKD
ROOT
HETATM    1  C   UNL     1     -11.720  10.883  65.979  1.00  0.00     1.136 C  
HETATM    2  C   UNL     1     -11.465  11.727  64.745  1.00  0.00    -0.215 C  
ENDROOT
BRANCH   2   3
HETATM    3  O   UNL     1     -10.722  12.916  65.061  1.00  0.00    -0.286 OA 
BRANCH   3   4
HETATM    4  C   UNL     1     -10.988  13.483  66.269  1.00  0.00    -0.289 C  
HETATM    5  O   UNL     1     -11.602  12.910  67.163  1.00  0.00    -0.322 OA 
HETATM    6  N   UNL     1     -10.442  14.747  66.404  1.00  0.00    -0.286 N  
HETATM    7  C   UNL     1     -10.560  15.451  67.679  1.00  0.00    -0.280 C  
HETATM    8  C   UNL     1      -9.178  15.864  68.202  1.00  0.00    -0.190 C  
HETATM    9  C   UNL     1      -8.463  16.736  67.170  1.00  0.00    -0.208 C  
HETATM   10  C   UNL     1      -8.029  18.015  67.367  1.00  0.00    -0.227 C  
HETATM   11  C   UNL     1      -8.314  15.933  65.872  1.00  0.00     0.408 C  
HETATM   12  C   UNL     1      -8.284  18.744  68.653  1.00  0.00    -0.363 A  
HETATM   13  C   UNL     1      -9.688  15.451  65.359  1.00  0.00    -0.215 C  
HETATM   14  C   UNL     1      -7.274  19.396  69.396  1.00  0.00    -0.276 A  
HETATM   15  C   UNL     1      -7.635  20.069  70.588  1.00  0.00     1.052 A  
HETATM   16  C   UNL     1      -5.813  19.525  69.004  1.00  0.00    -0.259 C  
HETATM   17  C   UNL     1      -5.259  18.624  67.900  1.00  0.00    -0.173 C  
HETATM   18  C   UNL     1      -8.954  20.102  71.034  1.00  0.00     2.054 A  
HETATM   19  C   UNL     1      -9.952  19.503  70.284  1.00  0.00     0.787 A  
HETATM   20 CL   UNL     1      -9.345  20.911  72.499  1.00  0.00     2.550 Cl 
HETATM   21  C   UNL     1      -5.868  18.960  66.568  1.00  0.00    -0.179 A  
HETATM   22  C   UNL     1      -7.213  18.673  66.314  1.00  0.00    -0.251 A  
HETATM   23  C   UNL     1      -9.619  18.857  69.093  1.00  0.00    -0.237 A  
HETATM   24  N   UNL     1      -7.834  18.992  65.155  1.00  0.00     0.399 NA 
HETATM   25  C   UNL     1      -7.087  19.618  64.217  1.00  0.00     1.427 A  
HETATM   26  C   UNL     1      -5.752  19.948  64.378  1.00  0.00    -0.282 A  
HETATM   27  C   UNL     1      -5.132  19.612  65.574  1.00  0.00    -0.176 A  
ENDBRANCH   3   4
ENDBRANCH   2   3
TORSDOF 2
ENDMDL
MODEL      105
REMARK 921   NORMALIZED FREE ENERGY PREDICTED BY IDOCK:    6.42 KCAL/MOL
REMARK 922        TOTAL FREE ENERGY PREDICTED BY IDOCK:    7.05 KCAL/MOL
REMARK 923 INTER-LIGAND FREE ENERGY PREDICTED BY IDOCK:    6.94 KCAL/MOL
REMARK 924 INTRA-LIGAND FREE ENERGY PREDICTED BY IDOCK:    0.11 KCAL/MOL
REMARK 927      BINDING AFFINITY PREDICTED BY RF-SCORE:    0.00 PKD
ROOT
HETATM    1  C   UNL     1      -6.603  14.468  72.161  1.00  0.00     1.479 C  
HETATM    2  C   UNL     1      -6.327  13.294  71.241  1.00  0.00     1.145 C  
ENDROOT
BRANCH   2   3
HETATM    3  O   UNL     1      -7.057  13.404  70.009  1.00  0.00     0.360 OA 
BRANCH   3   4
HETATM    4  C   UNL     1      -6.369  13.912  68.950  1.00  0.00    -0.094 C  
HETATM    5  O   UNL     1      -5.582  13.254  68.278  1.00  0.00    -0.079 OA 
HETATM    6  N   UNL     1      -6.696  15.227  68.674  1.00  0.00    -0.099 N  
HETATM    7  C   UNL     1      -6.112  15.887  67.508  1.00  0.00    -0.145 C  
HETATM    8  C   UNL     1      -7.209  16.447  66.594  1.00  0.00    -0.208 C  
HETATM    9  C   UNL     1      -8.099  17.417  67.371  1.00  0.00    -0.213 C  
HETATM   10  C   UNL     1      -8.298  18.734  67.071  1.00  0.00    -0.280 C  
HETATM   11  C   UNL     1      -8.731  16.663  68.547  1.00  0.00    -0.242 C  
HETATM   12  C   UNL     1      -7.579  19.402  65.938  1.00  0.00    -0.286 A  
HETATM   13  C   UNL     1      -7.647  16.036  69.449  1.00  0.00    -0.191 C  
HETATM   14  C   UNL     1      -8.228  20.151  64.931  1.00  0.00     1.406 A  
HETATM   15  C   UNL     1      -7.444  20.753  63.918  1.00  0.00     1.249 A  
HETATM   16  C   UNL     1      -9.714  20.457  64.858  1.00  0.00     1.508 C  
HETATM   17  C   UNL     1     -10.681  19.649  65.724  1.00  0.00    -0.493 C  
HETATM   18  C   UNL     1      -6.057  20.624  63.899  1.00  0.00    -0.287 A  
HETATM   19  C   UNL     1      -5.414  19.928  64.909  1.00  0.00    -0.207 A  
HETATM   20 CL   UNL     1      -5.144  21.352  62.638  1.00  0.00    -0.225 Cl 
HETATM   21  C   UNL     1     -10.475  19.939  67.183  1.00  0.00    -0.566 A  
HETATM   22  C   UNL     1      -9.316  19.503  67.833  1.00  0.00    -0.333 A  
HETATM   23  C   UNL     1      -6.169  19.350  65.930  1.00  0.00    -0.214 A  
HETATM   24  N   UNL     1      -9.047  19.771  69.133  1.00  0.00    -0.123 NA 
HETATM   25  C   UNL     1      -9.966  20.499  69.806  1.00  0.00     0.651 A  
HETATM   26  C   UNL     1     -11.140  20.979  69.248  1.00  0.00     1.472 A  
HETATM   27  C   UNL     1     -11.399  20.692  67.915  1.00  0.00     1.959 A  
ENDBRANCH   3   4
ENDBRANCH   2   3
TORSDOF 2
ENDMDL
MODEL      106
REMARK 921   NORMALIZED FREE ENERGY PREDICTED BY IDOCK:    6.61 KCAL/MOL
REMARK 922        TOTAL FREE ENERGY PREDICTED BY IDOCK:    7.27 KCAL/MOL
REMARK 923 INTER-LIGAND FREE ENERGY PREDICTED BY IDOCK:    7.16 KCAL/MOL
REMARK 924 INTRA-LIGAND FREE ENERGY PREDICTED BY IDOCK:    0.10 KCAL/MOL
REMARK 927      BINDING AFFINITY PREDICTED BY RF-SCORE:    0.00 PKD
ROOT
HETATM    1  C   UNL     1      -5.756  12.936  70.922  1.00  0.00    -0.109 C  
HETATM    2  C   UNL     1      -6.971  13.369  70.125  1.00  0.00     0.672 C  
ENDROOT
BRANCH   2   3
HETATM    3  O   UNL     1      -7.508  12.287  69.348  1.00  0.00     0.154 OA 
BRANCH   3   4
HETATM    4  C   UNL     1      -7.871  11.175  70.043  1.00  0.00     1.025 C  
HETATM    5  O   UNL     1      -8.300  11.207  71.192  1.00  0.00     4.307 OA 
HETATM    6  N   UNL     1      -7.764  10.014  69.299  1.00  0.00    -0.104 N  
HETATM    7  C   UNL     1      -8.206   8.745  69.874  1.00  0.00    -0.118 C  
HETATM    8  C   UNL     1      -9.242   8.069  68.967  1.00  0.00    -0.148 C  
HETATM    9  C   UNL     1      -8.661   7.854  67.570  1.00  0.00    -0.122 C  
HETATM   10  C   UNL     1      -8.515   6.650  66.942  1.00  0.00    -0.115 C  
HETATM   11  C   UNL     1      -8.267   9.217  66.990  1.00  0.00    -0.116 C  
HETATM   12  C   UNL     1      -8.865   5.360  67.620  1.00  0.00    -0.105 A  
HETATM   13  C   UNL     1      -7.271   9.945  67.917  1.00  0.00    -0.087 C  
HETATM   14  C   UNL     1      -9.705   4.377  67.048  1.00  0.00    -0.232 A  
HETATM   15  C   UNL     1      -9.953   3.187  67.774  1.00  0.00     0.565 A  
HETATM   16  C   UNL     1     -10.328   4.426  65.663  1.00  0.00    -0.252 C  
HETATM   17  C   UNL     1     -10.358   5.755  64.909  1.00  0.00     1.925 C  
HETATM   18  C   UNL     1      -9.386   2.969  69.027  1.00  0.00    -0.156 A  
HETATM   19  C   UNL     1      -8.527   3.910  69.570  1.00  0.00    -0.090 A  
HETATM   20 CL   UNL     1      -9.730   1.520  69.885  1.00  0.00    -0.075 Cl 
HETATM   21  C   UNL     1      -8.972   6.198  64.536  1.00  0.00     0.524 A  
HETATM   22  C   UNL     1      -8.077   6.624  65.522  1.00  0.00    -0.124 A  
HETATM   23  C   UNL     1      -8.250   5.077  68.858  1.00  0.00    -0.084 A  
HETATM   24  N   UNL     1      -6.800   6.991  65.259  1.00  0.00    -0.050 NA 
HETATM   25  C   UNL     1      -6.405   6.932  63.967  1.00  0.00    -0.039 A  
HETATM   26  C   UNL     1      -7.216   6.520  62.923  1.00  0.00    -0.054 A  
HETATM   27  C   UNL     1      -8.522   6.148  63.213  1.00  0.00     0.172 A  
ENDBRANCH   3   4
ENDBRANCH   2   3
TORSDOF 2
ENDMDL
MODEL      107
REMARK 921   NORMALIZED FREE ENERGY PREDICTED BY IDOCK:    7.14 KCAL/MOL
REMARK 922        TOTAL FREE ENERGY PREDICTED BY IDOCK:    7.86 KCAL/MOL
REMARK 923 INTER-LIGAND FREE ENERGY PREDICTED BY IDOCK:    1.15 KCAL/MOL
REMARK 924 INTRA-LIGAND FREE ENERGY PREDICTED BY IDOCK:    6.71 KCAL/MOL
REMARK 927      BINDING AFFINITY PREDICTED BY RF-SCORE:    0.00 PKD
ROOT
HETATM    1  C   UNL     1      -9.616  10.010  69.082  1.00  0.00    -0.217 C  
HETATM    2  C   UNL     1      -8.239   9.377  69.101  1.00  0.00    -0.112 C  
ENDROOT
BRANCH   2   3
HETATM    3  O   UNL     1      -7.831   8.954  67.790  1.00  0.00    -0.100 OA 
BRANCH   3   4
HETATM    4  C   UNL     1      -7.345   9.927  66.972  1.00  0.00    -0.091 C  
HETATM    5  O   UNL     1      -6.739   9.694  65.932  1.00  0.00    -0.079 OA 
HETATM    6  N   UNL     1      -7.660  11.203  67.404  1.00  0.00    -0.108 N  
HETATM    7  C   UNL     1      -7.289  12.354  66.584  1.00  0.00     0.378 C  
HETATM    8  C   UNL     1      -8.520  13.214  66.267  1.00  0.00     0.596 C  
HETATM    9  C   UNL     1      -9.191  13.670  67.562  1.00  0.00    -0.218 C  
HETATM   10  C   UNL     1      -9.386  14.965  67.949  1.00  0.00    -0.191 C  
HETATM   11  C   UNL     1      -9.611  12.428  68.358  1.00  0.00    -0.180 C  
HETATM   12  C   UNL     1      -8.876  16.116  67.134  1.00  0.00    -0.218 A  
HETATM   13  C   UNL     1      -8.399  11.514  68.635  1.00  0.00    -0.123 C  
HETATM   14  C   UNL     1      -9.678  17.210  66.736  1.00  0.00    -0.277 A  
HETATM   15  C   UNL     1      -9.084  18.250  65.982  1.00  0.00     0.006 A  
HETATM   16  C   UNL     1     -11.133  17.437  67.108  1.00  0.00     0.195 C  
HETATM   17  C   UNL     1     -11.944  16.272  67.676  1.00  0.00     0.781 C  
HETATM   18  C   UNL     1      -7.736  18.216  65.632  1.00  0.00     0.198 A  
HETATM   19  C   UNL     1      -6.938  17.168  66.059  1.00  0.00    -0.080 A  
HETATM   20 CL   UNL     1      -7.060  19.489  64.697  1.00  0.00     0.531 Cl 
HETATM   21  C   UNL     1     -11.439  15.869  69.032  1.00  0.00    -0.380 A  
HETATM   22  C   UNL     1     -10.195  15.243  69.164  1.00  0.00    -0.242 A  
HETATM   23  C   UNL     1      -7.500  16.146  66.825  1.00  0.00    -0.246 A  
HETATM   24  N   UNL     1      -9.661  14.897  70.359  1.00  0.00     0.581 NA 
HETATM   25  C   UNL     1     -10.394  15.185  71.458  1.00  0.00     1.171 A  
HETATM   26  C   UNL     1     -11.631  15.806  71.428  1.00  0.00    -0.511 A  
HETATM   27  C   UNL     1     -12.163  16.152  70.194  1.00  0.00     0.090 A  
ENDBRANCH   3   4
ENDBRANCH   2   3
TORSDOF 2
ENDMDL
MODEL      108
REMARK 921   NORMALIZED FREE ENERGY PREDICTED BY IDOCK:    7.89 KCAL/MOL
REMARK 922        TOTAL FREE ENERGY PREDICTED BY IDOCK:    8.69 KCAL/MOL
REMARK 923 INTER-LIGAND FREE ENERGY PREDICTED BY IDOCK:   -1.18 KCAL/MOL
REMARK 924 INTRA-LIGAND FREE ENERGY PREDICTED BY IDOCK:    9.87 KCAL/MOL
REMARK 927      BINDING AFFINITY PREDICTED BY RF-SCORE:    0.00 PKD
ROOT
HETATM    1  C   UNL     1     -11.604  14.733  66.634  1.00  0.00    -0.319 C  
HETATM    2  C   UNL     1     -11.594  16.196  66.235  1.00  0.00     0.741 C  
ENDROOT
BRANCH   2   3
HETATM    3  O   UNL     1     -11.189  17.039  67.325  1.00  0.00     0.017 OA 
BRANCH   3   4
HETATM    4  C   UNL     1     -10.682  16.403  68.416  1.00  0.00    -0.327 C  
HETATM    5  O   UNL     1     -10.870  16.784  69.567  1.00  0.00    -0.317 OA 
HETATM    6  N   UNL     1      -9.986  15.252  68.096  1.00  0.00    -0.219 N  
HETATM    7  C   UNL     1      -9.460  14.406  69.165  1.00  0.00     0.048 C  
HETATM    8  C   UNL     1      -9.971  12.966  69.020  1.00  0.00     0.226 C  
HETATM    9  C   UNL     1      -9.587  12.405  67.652  1.00  0.00    -0.193 C  
HETATM   10  C   UNL     1      -8.818  11.299  67.428  1.00  0.00    -0.145 C  
HETATM   11  C   UNL     1     -10.208  13.294  66.568  1.00  0.00    -0.283 C  
HETATM   12  C   UNL     1      -8.194  10.533  68.556  1.00  0.00    -0.123 A  
HETATM   13  C   UNL     1      -9.758  14.761  66.730  1.00  0.00    -0.254 C  
HETATM   14  C   UNL     1      -8.316   9.133  68.714  1.00  0.00    -0.121 A  
HETATM   15  C   UNL     1      -7.667   8.513  69.809  1.00  0.00    -0.092 A  
HETATM   16  C   UNL     1      -9.022   8.182  67.764  1.00  0.00    -0.134 C  
HETATM   17  C   UNL     1      -9.975   8.754  66.714  1.00  0.00    -0.338 C  
HETATM   18  C   UNL     1      -6.917   9.250  70.721  1.00  0.00    -0.109 A  
HETATM   19  C   UNL     1      -6.758  10.614  70.544  1.00  0.00     0.101 A  
HETATM   20 CL   UNL     1      -6.164   8.461  72.050  1.00  0.00    -0.058 Cl 
HETATM   21  C   UNL     1      -9.232   9.564  65.690  1.00  0.00    -0.281 A  
HETATM   22  C   UNL     1      -8.665  10.793  66.040  1.00  0.00    -0.183 A  
HETATM   23  C   UNL     1      -7.368  11.239  69.456  1.00  0.00     0.027 A  
HETATM   24  N   UNL     1      -7.943  11.550  65.179  1.00  0.00     0.718 NA 
HETATM   25  C   UNL     1      -7.784  11.062  63.928  1.00  0.00     0.627 A  
HETATM   26  C   UNL     1      -8.304   9.856  63.491  1.00  0.00    -0.166 A  
HETATM   27  C   UNL     1      -9.042   9.095  64.387  1.00  0.00    -0.023 A  
ENDBRANCH   3   4
ENDBRANCH   2   3
TORSDOF 2
ENDMDL
MODEL      109
REMARK 921   NORMALIZED FREE ENERGY PREDICTED BY IDOCK:    8.39 KCAL/MOL
REMARK 922        TOTAL FREE ENERGY PREDICTED BY IDOCK:    9.25 KCAL/MOL
REMARK 923 INTER-LIGAND FREE ENERGY PREDICTED BY IDOCK:    9.34 KCAL/MOL
REMARK 924 INTRA-LIGAND FREE ENERGY PREDICTED BY IDOCK:   -0.08 KCAL/MOL
REMARK 927      BINDING AFFINITY PREDICTED BY RF-SCORE:    0.00 PKD
ROOT
HETATM    1  C   UNL     1     -10.784  18.602  73.781  1.00  0.00     2.946 C  
HETATM    2  C   UNL     1     -11.056  18.387  72.305  1.00  0.00     3.343 C  
ENDROOT
BRANCH   2   3
HETATM    3  O   UNL     1     -11.238  16.996  71.997  1.00  0.00     0.329 OA 
BRANCH   3   4
HETATM    4  C   UNL     1     -10.703  16.570  70.820  1.00  0.00     0.428 C  
HETATM    5  O   UNL     1      -9.937  17.247  70.142  1.00  0.00     0.607 OA 
HETATM    6  N   UNL     1     -11.065  15.274  70.501  1.00  0.00    -0.303 N  
HETATM    7  C   UNL     1     -10.496  14.638  69.314  1.00  0.00    -0.209 C  
HETATM    8  C   UNL     1      -9.810  13.316  69.682  1.00  0.00     1.320 C  
HETATM    9  C   UNL     1     -10.802  12.380  70.370  1.00  0.00     1.755 C  
HETATM   10  C   UNL     1     -11.165  11.138  69.934  1.00  0.00    -0.293 C  
HETATM   11  C   UNL     1     -11.325  13.069  71.636  1.00  0.00     3.411 C  
HETATM   12  C   UNL     1     -10.652  10.576  68.642  1.00  0.00    -0.226 A  
HETATM   13  C   UNL     1     -11.965  14.432  71.300  1.00  0.00    -0.291 C  
HETATM   14  C   UNL     1     -10.055   9.300  68.525  1.00  0.00    -0.211 A  
HETATM   15  C   UNL     1      -9.622   8.865  67.250  1.00  0.00    -0.212 A  
HETATM   16  C   UNL     1      -9.894   8.280  69.640  1.00  0.00    -0.184 C  
HETATM   17  C   UNL     1     -10.070   8.732  71.090  1.00  0.00    -0.317 C  
HETATM   18  C   UNL     1      -9.776   9.664  66.119  1.00  0.00    -0.252 A  
HETATM   19  C   UNL     1     -10.400  10.895  66.222  1.00  0.00    -0.306 A  
HETATM   20 CL   UNL     1      -9.216   9.107  64.592  1.00  0.00    -0.131 Cl 
HETATM   21  C   UNL     1     -11.492   9.127  71.367  1.00  0.00    -0.420 A  
HETATM   22  C   UNL     1     -12.024  10.289  70.799  1.00  0.00    -0.360 A  
HETATM   23  C   UNL     1     -10.857  11.330  67.467  1.00  0.00    -0.292 A  
HETATM   24  N   UNL     1     -13.310  10.678  70.970  1.00  0.00    -0.172 NA 
HETATM   25  C   UNL     1     -14.089   9.879  71.734  1.00  0.00     0.182 A  
HETATM   26  C   UNL     1     -13.654   8.709  72.333  1.00  0.00    -0.392 A  
HETATM   27  C   UNL     1     -12.332   8.328  72.147  1.00  0.00    -0.410 A  
ENDBRANCH   3   4
ENDBRANCH   2   3
TORSDOF 2
ENDMDL
MODEL      110
REMARK 921   NORMALIZED FREE ENERGY PREDICTED BY IDOCK:    9.51 KCAL/MOL
REMARK 922        TOTAL FREE ENERGY PREDICTED BY IDOCK:   10.51 KCAL/MOL
REMARK 923 INTER-LIGAND FREE ENERGY PREDICTED BY IDOCK:   10.64 KCAL/MOL
REMARK 924 INTRA-LIGAND FREE ENERGY PREDICTED BY IDOCK:   -0.14 KCAL/MOL
REMARK 927      BINDING AFFINITY PREDICTED BY RF-SCORE:    0.00 PKD
ROOT
HETATM    1  C   UNL     1      -8.962   4.582  65.025  1.00  0.00    -0.149 C  
HETATM    2  C   UNL     1      -8.493   5.935  64.527  1.00  0.00    -0.004 C  
ENDROOT
BRANCH   2   3
HETATM    3  O   UNL     1      -7.159   6.229  64.969  1.00  0.00    -0.057 OA 
BRANCH   3   4
HETATM    4  C   UNL     1      -6.999   7.396  65.653  1.00  0.00    -0.060 C  
HETATM    5  O   UNL     1      -6.978   8.497  65.113  1.00  0.00    -0.073 OA 
HETATM    6  N   UNL     1      -6.925   7.214  67.022  1.00  0.00    -0.075 N  
HETATM    7  C   UNL     1      -6.847   8.379  67.901  1.00  0.00    -0.067 C  
HETATM    8  C   UNL     1      -7.973   8.350  68.943  1.00  0.00    -0.115 C  
HETATM    9  C   UNL     1      -7.907   7.057  69.755  1.00  0.00    -0.115 C  
HETATM   10  C   UNL     1      -7.747   6.970  71.108  1.00  0.00    -0.091 C  
HETATM   11  C   UNL     1      -8.050   5.870  68.796  1.00  0.00    -0.103 C  
HETATM   12  C   UNL     1      -7.544   8.190  71.957  1.00  0.00    -0.129 A  
HETATM   13  C   UNL     1      -6.965   5.911  67.699  1.00  0.00    -0.069 C  
HETATM   14  C   UNL     1      -8.305   8.474  73.114  1.00  0.00    -0.086 A  
HETATM   15  C   UNL     1      -8.013   9.648  73.849  1.00  0.00     3.118 A  
HETATM   16  C   UNL     1      -9.382   7.590  73.718  1.00  0.00    -0.331 C  
HETATM   17  C   UNL     1      -9.966   6.453  72.879  1.00  0.00    -0.186 C  
HETATM   18  C   UNL     1      -6.997  10.517  73.458  1.00  0.00     4.712 A  
HETATM   19  C   UNL     1      -6.220  10.218  72.351  1.00  0.00     1.307 A  
HETATM   20 CL   UNL     1      -6.690  11.943  74.366  1.00  0.00     3.759 Cl 
HETATM   21  C   UNL     1      -8.939   5.389  72.618  1.00  0.00    -0.133 A  
HETATM   22  C   UNL     1      -7.859   5.643  71.766  1.00  0.00    -0.109 A  
HETATM   23  C   UNL     1      -6.477   9.052  71.629  1.00  0.00    -0.054 A  
HETATM   24  N   UNL     1      -6.874   4.745  71.526  1.00  0.00    -0.041 NA 
HETATM   25  C   UNL     1      -6.972   3.553  72.156  1.00  0.00    -0.034 A  
HETATM   26  C   UNL     1      -8.000   3.211  73.020  1.00  0.00    -0.064 A  
HETATM   27  C   UNL     1      -9.000   4.145  73.253  1.00  0.00    -0.108 A  
ENDBRANCH   3   4
ENDBRANCH   2   3
TORSDOF 2
ENDMDL
MODEL      111
REMARK 921   NORMALIZED FREE ENERGY PREDICTED BY IDOCK:   10.43 KCAL/MOL
REMARK 922        TOTAL FREE ENERGY PREDICTED BY IDOCK:   11.53 KCAL/MOL
REMARK 923 INTER-LIGAND FREE ENERGY PREDICTED BY IDOCK:   10.99 KCAL/MOL
REMARK 924 INTRA-LIGAND FREE ENERGY PREDICTED BY IDOCK:    0.54 KCAL/MOL
REMARK 927      BINDING AFFINITY PREDICTED BY RF-SCORE:    0.00 PKD
ROOT
HETATM    1  C   UNL     1      -7.441   8.855  69.483  1.00  0.00    -0.075 C  
HETATM    2  C   UNL     1      -6.026   9.373  69.648  1.00  0.00    -0.036 C  
ENDROOT
BRANCH   2   3
HETATM    3  O   UNL     1      -5.644  10.228  68.558  1.00  0.00    -0.039 OA 
BRANCH   3   4
HETATM    4  C   UNL     1      -6.549  10.350  67.549  1.00  0.00    -0.066 C  
HETATM    5  O   UNL     1      -6.963   9.398  66.895  1.00  0.00    -0.080 OA 
HETATM    6  N   UNL     1      -6.997  11.647  67.379  1.00  0.00    -0.107 N  
HETATM    7  C   UNL     1      -8.042  11.927  66.396  1.00  0.00     0.093 C  
HETATM    8  C   UNL     1      -9.229  12.642  67.054  1.00  0.00    -0.212 C  
HETATM    9  C   UNL     1      -8.762  13.933  67.725  1.00  0.00    -0.187 C  
HETATM   10  C   UNL     1      -9.203  15.191  67.432  1.00  0.00    -0.199 C  
HETATM   11  C   UNL     1      -7.711  13.580  68.784  1.00  0.00    -0.044 C  
HETATM   12  C   UNL     1     -10.186  15.445  66.327  1.00  0.00    -0.303 A  
HETATM   13  C   UNL     1      -6.533  12.804  68.157  1.00  0.00    -0.085 C  
HETATM   14  C   UNL     1     -11.373  16.193  66.491  1.00  0.00     0.360 A  
HETATM   15  C   UNL     1     -12.218  16.383  65.372  1.00  0.00     2.081 A  
HETATM   16  C   UNL     1     -11.816  16.906  67.758  1.00  0.00     1.011 C  
HETATM   17  C   UNL     1     -11.140  16.553  69.083  1.00  0.00    -0.270 C  
HETATM   18  C   UNL     1     -11.901  15.852  64.124  1.00  0.00     0.028 A  
HETATM   19  C   UNL     1     -10.716  15.157  63.949  1.00  0.00     1.715 A  
HETATM   20 CL   UNL     1     -12.966  16.087  62.795  1.00  0.00     5.841 Cl 
HETATM   21  C   UNL     1      -9.701  16.983  69.089  1.00  0.00    -0.165 A  
HETATM   22  C   UNL     1      -8.765  16.328  68.282  1.00  0.00    -0.190 A  
HETATM   23  C   UNL     1      -9.858  14.982  65.035  1.00  0.00    -0.062 A  
HETATM   24  N   UNL     1      -7.464  16.695  68.205  1.00  0.00    -0.164 NA 
HETATM   25  C   UNL     1      -7.085  17.752  68.960  1.00  0.00    -0.229 A  
HETATM   26  C   UNL     1      -7.938  18.465  69.785  1.00  0.00     0.948 A  
HETATM   27  C   UNL     1      -9.268  18.073  69.851  1.00  0.00     1.427 A  
ENDBRANCH   3   4
ENDBRANCH   2   3
TORSDOF 2
ENDMDL
MODEL      112
REMARK 921   NORMALIZED FREE ENERGY PREDICTED BY IDOCK:   10.45 KCAL/MOL
REMARK 922        TOTAL FREE ENERGY PREDICTED BY IDOCK:   11.55 KCAL/MOL
REMARK 923 INTER-LIGAND FREE ENERGY PREDICTED BY IDOCK:    6.66 KCAL/MOL
REMARK 924 INTRA-LIGAND FREE ENERGY PREDICTED BY IDOCK:    4.90 KCAL/MOL
REMARK 927      BINDING AFFINITY PREDICTED BY RF-SCORE:    0.00 PKD
ROOT
HETATM    1  C   UNL     1     -11.649   9.143  71.893  1.00  0.00    -0.430 C  
HETATM    2  C   UNL     1     -11.494   7.951  70.969  1.00  0.00    -0.280 C  
ENDROOT
BRANCH   2   3
HETATM    3  O   UNL     1     -10.161   7.861  70.440  1.00  0.00    -0.194 OA 
BRANCH   3   4
HETATM    4  C   UNL     1      -9.901   8.623  69.342  1.00  0.00    -0.184 C  
HETATM    5  O   UNL     1      -9.545   8.156  68.266  1.00  0.00    -0.141 OA 
HETATM    6  N   UNL     1     -10.137   9.969  69.551  1.00  0.00    -0.214 N  
HETATM    7  C   UNL     1      -9.995  10.908  68.439  1.00  0.00    -0.178 C  
HETATM    8  C   UNL     1     -11.285  11.713  68.238  1.00  0.00    -0.320 C  
HETATM    9  C   UNL     1     -11.650  12.453  69.524  1.00  0.00    -0.353 C  
HETATM   10  C   UNL     1     -11.781  13.806  69.658  1.00  0.00    -0.379 C  
HETATM   11  C   UNL     1     -11.844  11.423  70.643  1.00  0.00    -0.327 C  
HETATM   12  C   UNL     1     -11.501  14.741  68.519  1.00  0.00    -0.330 A  
HETATM   13  C   UNL     1     -10.580  10.557  70.822  1.00  0.00     0.593 C  
HETATM   14  C   UNL     1     -12.400  15.745  68.092  1.00  0.00     0.752 A  
HETATM   15  C   UNL     1     -12.021  16.583  67.016  1.00  0.00     1.537 A  
HETATM   16  C   UNL     1     -13.735  16.086  68.731  1.00  0.00     5.131 C  
HETATM   17  C   UNL     1     -14.365  15.092  69.708  1.00  0.00     3.535 C  
HETATM   18  C   UNL     1     -10.790  16.439  66.380  1.00  0.00    -0.065 A  
HETATM   19  C   UNL     1      -9.890  15.486  66.826  1.00  0.00    -0.252 A  
HETATM   20 CL   UNL     1     -10.379  17.463  65.063  1.00  0.00     0.445 Cl 
HETATM   21  C   UNL     1     -13.550  14.976  70.964  1.00  0.00    -0.442 A  
HETATM   22  C   UNL     1     -12.295  14.360  70.937  1.00  0.00    -0.349 A  
HETATM   23  C   UNL     1     -10.235  14.668  67.902  1.00  0.00    -0.226 A  
HETATM   24  N   UNL     1     -11.490  14.264  72.023  1.00  0.00     0.688 NA 
HETATM   25  C   UNL     1     -11.956  14.801  73.173  1.00  0.00    -0.128 A  
HETATM   26  C   UNL     1     -13.182  15.433  73.297  1.00  0.00    -0.612 A  
HETATM   27  C   UNL     1     -13.993  15.521  72.173  1.00  0.00    -0.620 A  
ENDBRANCH   3   4
ENDBRANCH   2   3
TORSDOF 2
ENDMDL
MODEL      113
REMARK 921   NORMALIZED FREE ENERGY PREDICTED BY IDOCK:   10.86 KCAL/MOL
REMARK 922        TOTAL FREE ENERGY PREDICTED BY IDOCK:   12.02 KCAL/MOL
REMARK 923 INTER-LIGAND FREE ENERGY PREDICTED BY IDOCK:   10.88 KCAL/MOL
REMARK 924 INTRA-LIGAND FREE ENERGY PREDICTED BY IDOCK:    1.14 KCAL/MOL
REMARK 927      BINDING AFFINITY PREDICTED BY RF-SCORE:    0.00 PKD
ROOT
HETATM    1  C   UNL     1     -11.659   9.036  71.841  1.00  0.00    -0.441 C  
HETATM    2  C   UNL     1     -11.854   7.715  71.123  1.00  0.00    -0.293 C  
ENDROOT
BRANCH   2   3
HETATM    3  O   UNL     1     -10.806   7.469  70.172  1.00  0.00    -0.243 OA 
BRANCH   3   4
HETATM    4  C   UNL     1     -11.059   7.857  68.892  1.00  0.00     0.274 C  
HETATM    5  O   UNL     1     -11.561   7.120  68.050  1.00  0.00     0.402 OA 
HETATM    6  N   UNL     1     -10.746   9.184  68.658  1.00  0.00    -0.165 N  
HETATM    7  C   UNL     1     -11.047   9.777  67.357  1.00  0.00     0.022 C  
HETATM    8  C   UNL     1     -11.922  11.028  67.518  1.00  0.00     0.451 C  
HETATM    9  C   UNL     1     -11.228  12.043  68.426  1.00  0.00    -0.313 C  
HETATM   10  C   UNL     1     -10.879  13.317  68.080  1.00  0.00    -0.261 C  
HETATM   11  C   UNL     1     -10.986  11.392  69.792  1.00  0.00    -0.118 C  
HETATM   12  C   UNL     1     -11.093  13.843  66.692  1.00  0.00    -0.310 A  
HETATM   13  C   UNL     1     -10.160  10.096  69.649  1.00  0.00    -0.234 C  
HETATM   14  C   UNL     1     -11.753  15.061  66.409  1.00  0.00    -0.110 A  
HETATM   15  C   UNL     1     -11.882  15.467  65.060  1.00  0.00     0.058 A  
HETATM   16  C   UNL     1     -12.285  16.050  67.431  1.00  0.00     1.300 C  
HETATM   17  C   UNL     1     -12.447  15.602  68.884  1.00  0.00     0.310 C  
HETATM   18  C   UNL     1     -11.373  14.698  64.016  1.00  0.00     0.259 A  
HETATM   19  C   UNL     1     -10.686  13.527  64.293  1.00  0.00    -0.324 A  
HETATM   20 CL   UNL     1     -11.571  15.217  62.390  1.00  0.00     5.813 Cl 
HETATM   21  C   UNL     1     -11.114  15.334  69.521  1.00  0.00    -0.286 A  
HETATM   22  C   UNL     1     -10.351  14.231  69.124  1.00  0.00    -0.125 A  
HETATM   23  C   UNL     1     -10.526  13.123  65.619  1.00  0.00    -0.290 A  
HETATM   24  N   UNL     1      -9.122  13.960  69.624  1.00  0.00     0.954 NA 
HETATM   25  C   UNL     1      -8.640  14.818  70.552  1.00  0.00     1.713 A  
HETATM   26  C   UNL     1      -9.318  15.938  71.004  1.00  0.00     2.780 A  
HETATM   27  C   UNL     1     -10.577  16.199  70.480  1.00  0.00     0.052 A  
ENDBRANCH   3   4
ENDBRANCH   2   3
TORSDOF 2
ENDMDL
MODEL      114
REMARK 921   NORMALIZED FREE ENERGY PREDICTED BY IDOCK:   10.92 KCAL/MOL
REMARK 922        TOTAL FREE ENERGY PREDICTED BY IDOCK:   12.08 KCAL/MOL
REMARK 923 INTER-LIGAND FREE ENERGY PREDICTED BY IDOCK:    9.42 KCAL/MOL
REMARK 924 INTRA-LIGAND FREE ENERGY PREDICTED BY IDOCK:    2.66 KCAL/MOL
REMARK 927      BINDING AFFINITY PREDICTED BY RF-SCORE:    0.00 PKD
ROOT
HETATM    1  C   UNL     1     -13.053  11.839  62.871  1.00  0.00     0.698 C  
HETATM    2  C   UNL     1     -13.215  13.132  63.645  1.00  0.00     1.272 C  
ENDROOT
BRANCH   2   3
HETATM    3  O   UNL     1     -12.879  14.276  62.842  1.00  0.00     0.035 OA 
BRANCH   3   4
HETATM    4  C   UNL     1     -11.782  14.980  63.235  1.00  0.00     2.003 C  
HETATM    5  O   UNL     1     -11.326  15.927  62.603  1.00  0.00     3.554 OA 
HETATM    6  N   UNL     1     -11.276  14.557  64.451  1.00  0.00    -0.262 N  
HETATM    7  C   UNL     1     -10.155  15.276  65.054  1.00  0.00    -0.215 C  
HETATM    8  C   UNL     1     -10.509  15.741  66.473  1.00  0.00    -0.304 C  
HETATM    9  C   UNL     1     -10.909  14.545  67.336  1.00  0.00    -0.291 C  
HETATM   10  C   UNL     1     -10.293  14.149  68.488  1.00  0.00    -0.249 C  
HETATM   11  C   UNL     1     -12.121  13.862  66.692  1.00  0.00    -0.485 C  
HETATM   12  C   UNL     1      -9.067  14.841  69.004  1.00  0.00    -0.136 A  
HETATM   13  C   UNL     1     -11.810  13.440  65.240  1.00  0.00    -0.348 C  
HETATM   14  C   UNL     1      -8.935  15.317  70.329  1.00  0.00     0.746 A  
HETATM   15  C   UNL     1      -7.723  15.940  70.710  1.00  0.00     2.489 A  
HETATM   16  C   UNL     1      -9.953  15.157  71.444  1.00  0.00     1.786 C  
HETATM   17  C   UNL     1     -11.385  14.753  71.090  1.00  0.00    -0.185 C  
HETATM   18  C   UNL     1      -6.668  16.088  69.813  1.00  0.00    -0.116 A  
HETATM   19  C   UNL     1      -6.777  15.583  68.528  1.00  0.00    -0.113 A  
HETATM   20 CL   UNL     1      -5.221  16.871  70.311  1.00  0.00    -0.194 Cl 
HETATM   21  C   UNL     1     -11.436  13.352  70.552  1.00  0.00     0.250 A  
HETATM   22  C   UNL     1     -10.899  13.059  69.295  1.00  0.00     0.003 A  
HETATM   23  C   UNL     1      -7.955  14.943  68.142  1.00  0.00    -0.130 A  
HETATM   24  N   UNL     1     -10.871  11.810  68.772  1.00  0.00    -0.219 NA 
HETATM   25  C   UNL     1     -11.398  10.822  69.530  1.00  0.00    -0.289 A  
HETATM   26  C   UNL     1     -11.947  11.013  70.787  1.00  0.00    -0.436 A  
HETATM   27  C   UNL     1     -11.967  12.301  71.305  1.00  0.00     0.555 A  
ENDBRANCH   3   4
ENDBRANCH   2   3
TORSDOF 2
ENDMDL
MODEL      115
REMARK 921   NORMALIZED FREE ENERGY PREDICTED BY IDOCK:   11.12 KCAL/MOL
REMARK 922        TOTAL FREE ENERGY PREDICTED BY IDOCK:   12.30 KCAL/MOL
REMARK 923 INTER-LIGAND FREE ENERGY PREDICTED BY IDOCK:   12.16 KCAL/MOL
REMARK 924 INTRA-LIGAND FREE ENERGY PREDICTED BY IDOCK:    0.14 KCAL/MOL
REMARK 927      BINDING AFFINITY PREDICTED BY RF-SCORE:    0.00 PKD
ROOT
HETATM    1  C   UNL     1     -11.516  18.701  73.671  1.00  0.00     2.703 C  
HETATM    2  C   UNL     1     -11.727  18.639  72.171  1.00  0.00     6.621 C  
ENDROOT
BRANCH   2   3
HETATM    3  O   UNL     1     -12.047  17.308  71.735  1.00  0.00     1.475 OA 
BRANCH   3   4
HETATM    4  C   UNL     1     -11.009  16.429  71.690  1.00  0.00     0.713 C  
HETATM    5  O   UNL     1     -10.450  15.992  72.691  1.00  0.00     2.334 OA 
HETATM    6  N   UNL     1     -10.693  16.033  70.403  1.00  0.00    -0.269 N  
HETATM    7  C   UNL     1      -9.662  15.018  70.194  1.00  0.00     0.292 C  
HETATM    8  C   UNL     1     -10.212  13.845  69.372  1.00  0.00     0.235 C  
HETATM    9  C   UNL     1     -10.753  14.347  68.034  1.00  0.00    -0.244 C  
HETATM   10  C   UNL     1     -10.318  13.958  66.799  1.00  0.00    -0.272 C  
HETATM   11  C   UNL     1     -11.868  15.363  68.308  1.00  0.00    -0.225 C  
HETATM   12  C   UNL     1      -9.170  13.008  66.631  1.00  0.00    -0.222 A  
HETATM   13  C   UNL     1     -11.355  16.523  69.187  1.00  0.00    -0.156 C  
HETATM   14  C   UNL     1      -9.226  11.846  65.828  1.00  0.00    -0.110 A  
HETATM   15  C   UNL     1      -8.073  11.031  65.729  1.00  0.00    -0.038 A  
HETATM   16  C   UNL     1     -10.399  11.406  64.970  1.00  0.00    -0.342 C  
HETATM   17  C   UNL     1     -11.770  12.042  65.202  1.00  0.00    -0.315 C  
HETATM   18  C   UNL     1      -6.896  11.353  66.401  1.00  0.00    -0.003 A  
HETATM   19  C   UNL     1      -6.824  12.514  67.152  1.00  0.00    -0.058 A  
HETATM   20 CL   UNL     1      -5.526  10.324  66.272  1.00  0.00    -0.051 Cl 
HETATM   21  C   UNL     1     -11.764  13.496  64.824  1.00  0.00    -0.397 A  
HETATM   22  C   UNL     1     -11.053  14.422  65.594  1.00  0.00    -0.321 A  
HETATM   23  C   UNL     1      -7.943  13.344  67.240  1.00  0.00    -0.130 A  
HETATM   24  N   UNL     1     -10.968  15.737  65.283  1.00  0.00    -0.362 NA 
HETATM   25  C   UNL     1     -11.616  16.140  64.166  1.00  0.00     0.078 A  
HETATM   26  C   UNL     1     -12.340  15.298  63.339  1.00  0.00     1.287 A  
HETATM   27  C   UNL     1     -12.416  13.953  63.675  1.00  0.00    -0.066 A  
ENDBRANCH   3   4
ENDBRANCH   2   3
TORSDOF 2
ENDMDL
MODEL      116
REMARK 921   NORMALIZED FREE ENERGY PREDICTED BY IDOCK:   11.22 KCAL/MOL
REMARK 922        TOTAL FREE ENERGY PREDICTED BY IDOCK:   12.41 KCAL/MOL
REMARK 923 INTER-LIGAND FREE ENERGY PREDICTED BY IDOCK:    9.81 KCAL/MOL
REMARK 924 INTRA-LIGAND FREE ENERGY PREDICTED BY IDOCK:    2.60 KCAL/MOL
REMARK 927      BINDING AFFINITY PREDICTED BY RF-SCORE:    0.00 PKD
ROOT
HETATM    1  C   UNL     1     -12.454  10.549  66.903  1.00  0.00     5.136 C  
HETATM    2  C   UNL     1     -12.638  10.881  68.371  1.00  0.00     1.604 C  
ENDROOT
BRANCH   2   3
HETATM    3  O   UNL     1     -13.502   9.937  69.023  1.00  0.00     2.736 OA 
BRANCH   3   4
HETATM    4  C   UNL     1     -12.916   9.134  69.953  1.00  0.00     1.829 C  
HETATM    5  O   UNL     1     -13.422   8.881  71.041  1.00  0.00    -0.126 OA 
HETATM    6  N   UNL     1     -11.723   8.585  69.518  1.00  0.00     0.616 N  
HETATM    7  C   UNL     1     -11.019   7.626  70.367  1.00  0.00    -0.247 C  
HETATM    8  C   UNL     1     -10.767   6.315  69.611  1.00  0.00    -0.367 C  
HETATM    9  C   UNL     1      -9.975   6.586  68.333  1.00  0.00    -0.145 C  
HETATM   10  C   UNL     1      -8.753   6.061  68.023  1.00  0.00    -0.112 C  
HETATM   11  C   UNL     1     -10.780   7.551  67.455  1.00  0.00    -0.331 C  
HETATM   12  C   UNL     1      -8.009   5.178  68.980  1.00  0.00    -0.085 A  
HETATM   13  C   UNL     1     -11.101   8.854  68.215  1.00  0.00     0.262 C  
HETATM   14  C   UNL     1      -7.479   3.915  68.631  1.00  0.00    -0.054 A  
HETATM   15  C   UNL     1      -6.778   3.176  69.614  1.00  0.00    -0.034 A  
HETATM   16  C   UNL     1      -7.513   3.278  67.253  1.00  0.00    -0.066 C  
HETATM   17  C   UNL     1      -8.464   3.844  66.197  1.00  0.00    -0.110 C  
HETATM   18  C   UNL     1      -6.600   3.669  70.905  1.00  0.00    -0.031 A  
HETATM   19  C   UNL     1      -7.078   4.926  71.237  1.00  0.00    -0.052 A  
HETATM   20 CL   UNL     1      -5.762   2.730  72.075  1.00  0.00    -0.008 Cl 
HETATM   21  C   UNL     1      -8.052   5.228  65.782  1.00  0.00    -0.112 A  
HETATM   22  C   UNL     1      -8.185   6.300  66.671  1.00  0.00    -0.111 A  
HETATM   23  C   UNL     1      -7.749   5.680  70.273  1.00  0.00    -0.090 A  
HETATM   24  N   UNL     1      -7.790   7.561  66.378  1.00  0.00    -0.096 NA 
HETATM   25  C   UNL     1      -7.245   7.759  65.156  1.00  0.00    -0.065 A  
HETATM   26  C   UNL     1      -7.068   6.761  64.211  1.00  0.00    -0.061 A  
HETATM   27  C   UNL     1      -7.480   5.474  64.531  1.00  0.00    -0.068 A  
ENDBRANCH   3   4
ENDBRANCH   2   3
TORSDOF 2
ENDMDL
MODEL      117
REMARK 921   NORMALIZED FREE ENERGY PREDICTED BY IDOCK:   13.76 KCAL/MOL
REMARK 922        TOTAL FREE ENERGY PREDICTED BY IDOCK:   15.25 KCAL/MOL
REMARK 923 INTER-LIGAND FREE ENERGY PREDICTED BY IDOCK:    8.42 KCAL/MOL
REMARK 924 INTRA-LIGAND FREE ENERGY PREDICTED BY IDOCK:    6.83 KCAL/MOL
REMARK 927      BINDING AFFINITY PREDICTED BY RF-SCORE:    0.00 PKD
ROOT
HETATM    1  C   UNL     1      -7.262   8.311  67.341  1.00  0.00    -0.084 C  
HETATM    2  C   UNL     1      -7.902   7.345  66.363  1.00  0.00    -0.102 C  
ENDROOT
BRANCH   2   3
HETATM    3  O   UNL     1      -7.235   7.360  65.090  1.00  0.00    -0.061 OA 
BRANCH   3   4
HETATM    4  C   UNL     1      -6.651   8.537  64.735  1.00  0.00    -0.065 C  
HETATM    5  O   UNL     1      -5.779   8.626  63.877  1.00  0.00    -0.068 OA 
HETATM    6  N   UNL     1      -7.184   9.626  65.399  1.00  0.00    -0.099 N  
HETATM    7  C   UNL     1      -6.727  10.972  65.060  1.00  0.00     0.517 C  
HETATM    8  C   UNL     1      -7.911  11.867  64.671  1.00  0.00     2.277 C  
HETATM    9  C   UNL     1      -8.931  11.915  65.808  1.00  0.00     0.044 C  
HETATM   10  C   UNL     1      -9.339  13.039  66.468  1.00  0.00    -0.220 C  
HETATM   11  C   UNL     1      -9.420  10.490  66.086  1.00  0.00    -0.222 C  
HETATM   12  C   UNL     1      -8.749  14.385  66.171  1.00  0.00     0.393 A  
HETATM   13  C   UNL     1      -8.239   9.555  66.419  1.00  0.00    -0.115 C  
HETATM   14  C   UNL     1      -9.523  15.534  65.887  1.00  0.00    -0.377 A  
HETATM   15  C   UNL     1      -8.857  16.758  65.639  1.00  0.00     0.360 A  
HETATM   16  C   UNL     1     -11.039  15.619  65.897  1.00  0.00    -0.155 C  
HETATM   17  C   UNL     1     -11.855  14.326  65.881  1.00  0.00    -0.386 C  
HETATM   18  C   UNL     1      -7.468  16.850  65.673  1.00  0.00     0.965 A  
HETATM   19  C   UNL     1      -6.709  15.737  65.995  1.00  0.00     3.014 A  
HETATM   20 CL   UNL     1      -6.698  18.351  65.344  1.00  0.00    -0.256 Cl 
HETATM   21  C   UNL     1     -11.676  13.555  67.157  1.00  0.00    -0.419 A  
HETATM   22  C   UNL     1     -10.454  12.939  67.445  1.00  0.00    -0.233 A  
HETATM   23  C   UNL     1      -7.349  14.527  66.268  1.00  0.00     2.753 A  
HETATM   24  N   UNL     1     -10.212  12.270  68.597  1.00  0.00    -0.201 NA 
HETATM   25  C   UNL     1     -11.225  12.214  69.491  1.00  0.00    -0.131 A  
HETATM   26  C   UNL     1     -12.467  12.795  69.298  1.00  0.00     0.275 A  
HETATM   27  C   UNL     1     -12.696  13.476  68.110  1.00  0.00     1.016 A  
ENDBRANCH   3   4
ENDBRANCH   2   3
TORSDOF 2
ENDMDL
MODEL      118
REMARK 921   NORMALIZED FREE ENERGY PREDICTED BY IDOCK:   14.30 KCAL/MOL
REMARK 922        TOTAL FREE ENERGY PREDICTED BY IDOCK:   15.85 KCAL/MOL
REMARK 923 INTER-LIGAND FREE ENERGY PREDICTED BY IDOCK:   15.37 KCAL/MOL
REMARK 924 INTRA-LIGAND FREE ENERGY PREDICTED BY IDOCK:    0.48 KCAL/MOL
REMARK 927      BINDING AFFINITY PREDICTED BY RF-SCORE:    0.00 PKD
ROOT
HETATM    1  C   UNL     1     -10.775  15.505  70.480  1.00  0.00    -0.309 C  
HETATM    2  C   UNL     1     -10.588  14.744  69.182  1.00  0.00    -0.248 C  
ENDROOT
BRANCH   2   3
HETATM    3  O   UNL     1      -9.241  14.853  68.693  1.00  0.00    -0.182 OA 
BRANCH   3   4
HETATM    4  C   UNL     1      -8.291  14.189  69.408  1.00  0.00     0.425 C  
HETATM    5  O   UNL     1      -7.406  14.754  70.040  1.00  0.00    -0.099 OA 
HETATM    6  N   UNL     1      -8.466  12.817  69.395  1.00  0.00     0.946 N  
HETATM    7  C   UNL     1      -7.582  11.970  70.193  1.00  0.00     2.123 C  
HETATM    8  C   UNL     1      -8.394  11.082  71.145  1.00  0.00     5.834 C  
HETATM    9  C   UNL     1      -9.386  10.231  70.355  1.00  0.00     0.496 C  
HETATM   10  C   UNL     1      -9.432   8.866  70.337  1.00  0.00    -0.227 C  
HETATM   11  C   UNL     1     -10.324  11.165  69.582  1.00  0.00     0.084 C  
HETATM   12  C   UNL     1      -8.424   8.034  71.073  1.00  0.00    -0.134 A  
HETATM   13  C   UNL     1      -9.526  12.112  68.662  1.00  0.00    -0.045 C  
HETATM   14  C   UNL     1      -8.769   6.994  71.966  1.00  0.00    -0.128 A  
HETATM   15  C   UNL     1      -7.731   6.262  72.591  1.00  0.00    -0.101 A  
HETATM   16  C   UNL     1     -10.174   6.509  72.277  1.00  0.00    -0.203 C  
HETATM   17  C   UNL     1     -11.365   7.382  71.883  1.00  0.00    -0.294 C  
HETATM   18  C   UNL     1      -6.390   6.545  72.342  1.00  0.00    -0.054 A  
HETATM   19  C   UNL     1      -6.049   7.533  71.433  1.00  0.00    -0.036 A  
HETATM   20 CL   UNL     1      -5.161   5.647  73.139  1.00  0.00    -0.018 Cl 
HETATM   21  C   UNL     1     -11.499   7.477  70.390  1.00  0.00    -0.219 A  
HETATM   22  C   UNL     1     -10.556   8.189  69.641  1.00  0.00    -0.223 A  
HETATM   23  C   UNL     1      -7.059   8.247  70.787  1.00  0.00    -0.044 A  
HETATM   24  N   UNL     1     -10.592   8.274  68.290  1.00  0.00    -0.152 NA 
HETATM   25  C   UNL     1     -11.602   7.626  67.667  1.00  0.00     1.441 A  
HETATM   26  C   UNL     1     -12.578   6.893  68.321  1.00  0.00     5.731 A  
HETATM   27  C   UNL     1     -12.525   6.818  69.707  1.00  0.00     1.005 A  
ENDBRANCH   3   4
ENDBRANCH   2   3
TORSDOF 2
ENDMDL
MODEL      119
REMARK 921   NORMALIZED FREE ENERGY PREDICTED BY IDOCK:   16.83 KCAL/MOL
REMARK 922        TOTAL FREE ENERGY PREDICTED BY IDOCK:   18.68 KCAL/MOL
REMARK 923 INTER-LIGAND FREE ENERGY PREDICTED BY IDOCK:   18.16 KCAL/MOL
REMARK 924 INTRA-LIGAND FREE ENERGY PREDICTED BY IDOCK:    0.52 KCAL/MOL
REMARK 927      BINDING AFFINITY PREDICTED BY RF-SCORE:    0.00 PKD
ROOT
HETATM    1  C   UNL     1     -11.222   4.008  69.674  1.00  0.00     5.130 C  
HETATM    2  C   UNL     1     -11.339   4.811  70.955  1.00  0.00     1.547 C  
ENDROOT
BRANCH   2   3
HETATM    3  O   UNL     1     -11.556   6.206  70.689  1.00  0.00    -0.321 OA 
BRANCH   3   4
HETATM    4  C   UNL     1     -11.552   6.571  69.378  1.00  0.00    -0.180 C  
HETATM    5  O   UNL     1     -12.406   6.211  68.575  1.00  0.00     2.600 OA 
HETATM    6  N   UNL     1     -10.523   7.439  69.062  1.00  0.00    -0.211 N  
HETATM    7  C   UNL     1     -10.438   7.998  67.714  1.00  0.00    -0.214 C  
HETATM    8  C   UNL     1     -10.406   9.531  67.762  1.00  0.00    -0.291 C  
HETATM    9  C   UNL     1      -9.232  10.007  68.617  1.00  0.00    -0.152 C  
HETATM   10  C   UNL     1      -8.206  10.802  68.193  1.00  0.00    -0.119 C  
HETATM   11  C   UNL     1      -9.398   9.442  70.032  1.00  0.00    -0.253 C  
HETATM   12  C   UNL     1      -8.093  11.250  66.766  1.00  0.00    -0.159 A  
HETATM   13  C   UNL     1      -9.496   7.902  70.005  1.00  0.00    -0.157 C  
HETATM   14  C   UNL     1      -7.914  12.597  66.380  1.00  0.00     0.607 A  
HETATM   15  C   UNL     1      -7.801  12.901  65.002  1.00  0.00     5.383 A  
HETATM   16  C   UNL     1      -7.745  13.783  67.314  1.00  0.00    -0.095 C  
HETATM   17  C   UNL     1      -8.115  13.625  68.789  1.00  0.00     0.001 C  
HETATM   18  C   UNL     1      -7.860  11.904  64.031  1.00  0.00     2.820 A  
HETATM   19  C   UNL     1      -7.990  10.578  64.408  1.00  0.00    -0.013 A  
HETATM   20 CL   UNL     1      -7.742  12.318  62.367  1.00  0.00     2.389 Cl 
HETATM   21  C   UNL     1      -7.184  12.672  69.483  1.00  0.00     0.376 A  
HETATM   22  C   UNL     1      -7.224  11.306  69.187  1.00  0.00    -0.115 A  
HETATM   23  C   UNL     1      -8.076  10.257  65.764  1.00  0.00    -0.149 A  
HETATM   24  N   UNL     1      -6.382  10.401  69.742  1.00  0.00    -0.066 NA 
HETATM   25  C   UNL     1      -5.472  10.878  70.621  1.00  0.00    -0.111 A  
HETATM   26  C   UNL     1      -5.353  12.212  70.973  1.00  0.00    -0.126 A  
HETATM   27  C   UNL     1      -6.226  13.124  70.395  1.00  0.00     0.037 A  
ENDBRANCH   3   4
ENDBRANCH   2   3
TORSDOF 2
ENDMDL
MODEL      120
REMARK 921   NORMALIZED FREE ENERGY PREDICTED BY IDOCK:   18.65 KCAL/MOL
REMARK 922        TOTAL FREE ENERGY PREDICTED BY IDOCK:   20.72 KCAL/MOL
REMARK 923 INTER-LIGAND FREE ENERGY PREDICTED BY IDOCK:   17.67 KCAL/MOL
REMARK 924 INTRA-LIGAND FREE ENERGY PREDICTED BY IDOCK:    3.04 KCAL/MOL
REMARK 927      BINDING AFFINITY PREDICTED BY RF-SCORE:    0.00 PKD
ROOT
HETATM    1  C   UNL     1      -8.368  12.412  66.667  1.00  0.00     0.012 C  
HETATM    2  C   UNL     1      -8.791  12.956  65.317  1.00  0.00     1.393 C  
ENDROOT
BRANCH   2   3
HETATM    3  O   UNL     1      -9.294  11.918  64.460  1.00  0.00     0.010 OA 
BRANCH   3   4
HETATM    4  C   UNL     1      -9.613  10.743  65.069  1.00  0.00    -0.254 C  
HETATM    5  O   UNL     1      -9.102   9.668  64.772  1.00  0.00    -0.211 OA 
HETATM    6  N   UNL     1     -10.525  10.898  66.097  1.00  0.00    -0.246 N  
HETATM    7  C   UNL     1     -10.898   9.742  66.911  1.00  0.00    -0.050 C  
HETATM    8  C   UNL     1     -10.650  10.023  68.399  1.00  0.00    -0.253 C  
HETATM    9  C   UNL     1     -11.427  11.263  68.838  1.00  0.00    -0.363 C  
HETATM   10  C   UNL     1     -12.379  11.306  69.816  1.00  0.00    -0.277 C  
HETATM   11  C   UNL     1     -10.960  12.455  67.996  1.00  0.00    -0.262 C  
HETATM   12  C   UNL     1     -12.821  10.069  70.540  1.00  0.00    -0.178 A  
HETATM   13  C   UNL     1     -11.140  12.173  66.489  1.00  0.00    -0.307 C  
HETATM   14  C   UNL     1     -12.870   9.961  71.948  1.00  0.00    -0.524 A  
HETATM   15  C   UNL     1     -13.322   8.748  72.522  1.00  0.00    -0.403 A  
HETATM   16  C   UNL     1     -12.556  11.064  72.943  1.00  0.00     3.489 C  
HETATM   17  C   UNL     1     -11.808  12.307  72.462  1.00  0.00     4.450 C  
HETATM   18  C   UNL     1     -13.718   7.673  71.731  1.00  0.00    -0.330 A  
HETATM   19  C   UNL     1     -13.714   7.791  70.351  1.00  0.00     1.357 A  
HETATM   20 CL   UNL     1     -14.239   6.210  72.469  1.00  0.00     0.407 Cl 
HETATM   21  C   UNL     1     -12.648  13.111  71.510  1.00  0.00    -0.292 A  
HETATM   22  C   UNL     1     -12.931  12.621  70.232  1.00  0.00     0.523 A  
HETATM   23  C   UNL     1     -13.297   8.988  69.768  1.00  0.00     2.858 A  
HETATM   24  N   UNL     1     -13.719  13.273  69.344  1.00  0.00     3.669 NA 
HETATM   25  C   UNL     1     -14.241  14.453  69.747  1.00  0.00     4.253 A  
HETATM   26  C   UNL     1     -14.021  15.017  70.993  1.00  0.00    -0.343 A  
HETATM   27  C   UNL     1     -13.210  14.334  71.889  1.00  0.00    -0.456 A  
ENDBRANCH   3   4
ENDBRANCH   2   3
TORSDOF 2
ENDMDL
MODEL      121
REMARK 921   NORMALIZED FREE ENERGY PREDICTED BY IDOCK:   20.84 KCAL/MOL
REMARK 922        TOTAL FREE ENERGY PREDICTED BY IDOCK:   23.16 KCAL/MOL
REMARK 923 INTER-LIGAND FREE ENERGY PREDICTED BY IDOCK:   22.26 KCAL/MOL
REMARK 924 INTRA-LIGAND FREE ENERGY PREDICTED BY IDOCK:    0.90 KCAL/MOL
REMARK 927      BINDING AFFINITY PREDICTED BY RF-SCORE:    0.00 PKD
ROOT
HETATM    1  C   UNL     1      -8.908  11.169  66.197  1.00  0.00    -0.195 C  
HETATM    2  C   UNL     1     -10.070  11.592  65.319  1.00  0.00    -0.264 C  
ENDROOT
BRANCH   2   3
HETATM    3  O   UNL     1     -11.215  10.748  65.514  1.00  0.00     0.128 OA 
BRANCH   3   4
HETATM    4  C   UNL     1     -11.520  10.442  66.805  1.00  0.00     0.742 C  
HETATM    5  O   UNL     1     -12.260  11.126  67.504  1.00  0.00    -0.220 OA 
HETATM    6  N   UNL     1     -10.958   9.250  67.224  1.00  0.00    -0.061 N  
HETATM    7  C   UNL     1     -11.268   8.735  68.557  1.00  0.00     0.478 C  
HETATM    8  C   UNL     1     -11.830   7.310  68.472  1.00  0.00     1.435 C  
HETATM    9  C   UNL     1     -10.837   6.393  67.759  1.00  0.00    -0.418 C  
HETATM   10  C   UNL     1     -10.263   5.272  68.286  1.00  0.00    -0.200 C  
HETATM   11  C   UNL     1     -10.589   6.943  66.350  1.00  0.00     0.177 C  
HETATM   12  C   UNL     1     -10.513   4.851  69.704  1.00  0.00    -0.037 A  
HETATM   13  C   UNL     1     -10.083   8.400  66.406  1.00  0.00    -0.172 C  
HETATM   14  C   UNL     1     -10.923   3.550  70.073  1.00  0.00     4.137 A  
HETATM   15  C   UNL     1     -11.112   3.260  71.446  1.00  0.00     2.347 A  
HETATM   16  C   UNL     1     -11.113   2.369  69.136  1.00  0.00     6.500 C  
HETATM   17  C   UNL     1     -11.204   2.623  67.632  1.00  0.00     8.584 C  
HETATM   18  C   UNL     1     -10.900   4.224  72.428  1.00  0.00     0.073 A  
HETATM   19  C   UNL     1     -10.455   5.487  72.073  1.00  0.00    -0.277 A  
HETATM   20 CL   UNL     1     -11.163   3.838  74.082  1.00  0.00    -0.052 Cl 
HETATM   21  C   UNL     1      -9.896   3.121  67.085  1.00  0.00     0.349 A  
HETATM   22  C   UNL     1      -9.437   4.401  67.410  1.00  0.00    -0.171 A  
HETATM   23  C   UNL     1     -10.238   5.783  70.726  1.00  0.00    -0.279 A  
HETATM   24  N   UNL     1      -8.247   4.893  66.990  1.00  0.00    -0.107 NA 
HETATM   25  C   UNL     1      -7.492   4.078  66.219  1.00  0.00    -0.088 A  
HETATM   26  C   UNL     1      -7.859   2.795  65.849  1.00  0.00    -0.081 A  
HETATM   27  C   UNL     1      -9.083   2.309  66.289  1.00  0.00    -0.068 A  
ENDBRANCH   3   4
ENDBRANCH   2   3
TORSDOF 2
ENDMDL
MODEL      122
REMARK 921   NORMALIZED FREE ENERGY PREDICTED BY IDOCK:   22.71 KCAL/MOL
REMARK 922        TOTAL FREE ENERGY PREDICTED BY IDOCK:   25.25 KCAL/MOL
REMARK 923 INTER-LIGAND FREE ENERGY PREDICTED BY IDOCK:   21.40 KCAL/MOL
REMARK 924 INTRA-LIGAND FREE ENERGY PREDICTED BY IDOCK:    3.85 KCAL/MOL
REMARK 927      BINDING AFFINITY PREDICTED BY RF-SCORE:    0.00 PKD
ROOT
HETATM    1  C   UNL     1      -8.521  17.020  69.007  1.00  0.00    -0.124 C  
HETATM    2  C   UNL     1      -7.867  18.222  68.353  1.00  0.00    -0.305 C  
ENDROOT
BRANCH   2   3
HETATM    3  O   UNL     1      -6.935  17.829  67.333  1.00  0.00    -0.175 OA 
BRANCH   3   4
HETATM    4  C   UNL     1      -7.386  16.915  66.432  1.00  0.00    -0.267 C  
HETATM    5  O   UNL     1      -7.536  17.160  65.239  1.00  0.00     0.539 OA 
HETATM    6  N   UNL     1      -7.599  15.667  66.989  1.00  0.00    -0.221 N  
HETATM    7  C   UNL     1      -7.995  14.552  66.131  1.00  0.00     1.772 C  
HETATM    8  C   UNL     1      -7.022  13.375  66.285  1.00  0.00     3.213 C  
HETATM    9  C   UNL     1      -6.958  12.933  67.747  1.00  0.00    -0.138 C  
HETATM   10  C   UNL     1      -7.270  11.691  68.221  1.00  0.00    -0.085 C  
HETATM   11  C   UNL     1      -6.485  14.119  68.595  1.00  0.00    -0.090 C  
HETATM   12  C   UNL     1      -7.793  10.612  67.320  1.00  0.00    -0.112 A  
HETATM   13  C   UNL     1      -7.412  15.338  68.408  1.00  0.00    -0.111 C  
HETATM   14  C   UNL     1      -7.248   9.310  67.259  1.00  0.00    -0.087 A  
HETATM   15  C   UNL     1      -7.836   8.366  66.383  1.00  0.00    -0.098 A  
HETATM   16  C   UNL     1      -6.114   8.771  68.115  1.00  0.00    -0.051 C  
HETATM   17  C   UNL     1      -5.235   9.755  68.887  1.00  0.00    -0.036 C  
HETATM   18  C   UNL     1      -8.933   8.695  65.591  1.00  0.00    -0.182 A  
HETATM   19  C   UNL     1      -9.498   9.957  65.681  1.00  0.00    -0.295 A  
HETATM   20 CL   UNL     1      -9.603   7.527  64.523  1.00  0.00     2.193 Cl 
HETATM   21  C   UNL     1      -6.014  10.443  69.972  1.00  0.00    -0.073 A  
HETATM   22  C   UNL     1      -7.005  11.374  69.648  1.00  0.00    -0.020 A  
HETATM   23  C   UNL     1      -8.947  10.892  66.559  1.00  0.00    -0.178 A  
HETATM   24  N   UNL     1      -7.775  11.993  70.574  1.00  0.00     2.823 NA 
HETATM   25  C   UNL     1      -7.545  11.672  71.868  1.00  0.00    10.262 A  
HETATM   26  C   UNL     1      -6.590  10.760  72.286  1.00  0.00     3.220 A  
HETATM   27  C   UNL     1      -5.811  10.136  71.321  1.00  0.00     0.028 A  
ENDBRANCH   3   4
ENDBRANCH   2   3
TORSDOF 2
ENDMDL
MODEL      123
REMARK 921   NORMALIZED FREE ENERGY PREDICTED BY IDOCK:   23.91 KCAL/MOL
REMARK 922        TOTAL FREE ENERGY PREDICTED BY IDOCK:   26.59 KCAL/MOL
REMARK 923 INTER-LIGAND FREE ENERGY PREDICTED BY IDOCK:   23.23 KCAL/MOL
REMARK 924 INTRA-LIGAND FREE ENERGY PREDICTED BY IDOCK:    3.35 KCAL/MOL
REMARK 927      BINDING AFFINITY PREDICTED BY RF-SCORE:    0.00 PKD
ROOT
HETATM    1  C   UNL     1     -12.646  10.420  66.816  1.00  0.00     6.822 C  
HETATM    2  C   UNL     1     -13.069  10.571  68.264  1.00  0.00     5.564 C  
ENDROOT
BRANCH   2   3
HETATM    3  O   UNL     1     -13.887   9.471  68.693  1.00  0.00     6.767 OA 
BRANCH   3   4
HETATM    4  C   UNL     1     -13.332   8.637  69.615  1.00  0.00     4.043 C  
HETATM    5  O   UNL     1     -13.990   7.898  70.340  1.00  0.00     0.920 OA 
HETATM    6  N   UNL     1     -11.949   8.666  69.605  1.00  0.00     0.814 N  
HETATM    7  C   UNL     1     -11.203   7.756  70.472  1.00  0.00    -0.257 C  
HETATM    8  C   UNL     1     -10.216   6.913  69.654  1.00  0.00    -0.206 C  
HETATM    9  C   UNL     1      -9.263   7.820  68.878  1.00  0.00    -0.140 C  
HETATM   10  C   UNL     1      -7.902   7.837  68.995  1.00  0.00    -0.118 C  
HETATM   11  C   UNL     1     -10.089   8.712  67.944  1.00  0.00    -0.254 C  
HETATM   12  C   UNL     1      -7.186   6.974  69.991  1.00  0.00    -0.079 A  
HETATM   13  C   UNL     1     -11.133   9.526  68.737  1.00  0.00    -0.001 C  
HETATM   14  C   UNL     1      -6.104   6.128  69.659  1.00  0.00    -0.026 A  
HETATM   15  C   UNL     1      -5.492   5.371  70.686  1.00  0.00    -0.005 A  
HETATM   16  C   UNL     1      -5.455   5.998  68.292  1.00  0.00    -0.004 C  
HETATM   17  C   UNL     1      -6.187   6.546  67.067  1.00  0.00    -0.040 C  
HETATM   18  C   UNL     1      -5.932   5.447  72.005  1.00  0.00    -0.022 A  
HETATM   19  C   UNL     1      -6.962   6.308  72.342  1.00  0.00    -0.078 A  
HETATM   20 CL   UNL     1      -5.175   4.493  73.219  1.00  0.00    -0.007 Cl 
HETATM   21  C   UNL     1      -6.281   8.045  67.116  1.00  0.00    -0.055 A  
HETATM   22  C   UNL     1      -7.106   8.669  68.057  1.00  0.00    -0.082 A  
HETATM   23  C   UNL     1      -7.561   7.083  71.347  1.00  0.00    -0.086 A  
HETATM   24  N   UNL     1      -7.200  10.014  68.186  1.00  0.00    -0.081 NA 
HETATM   25  C   UNL     1      -6.446  10.759  67.347  1.00  0.00    -0.063 A  
HETATM   26  C   UNL     1      -5.597  10.233  66.387  1.00  0.00    -0.055 A  
HETATM   27  C   UNL     1      -5.515   8.852  66.270  1.00  0.00    -0.037 A  
ENDBRANCH   3   4
ENDBRANCH   2   3
TORSDOF 2
ENDMDL
MODEL      124
REMARK 921   NORMALIZED FREE ENERGY PREDICTED BY IDOCK:   24.24 KCAL/MOL
REMARK 922        TOTAL FREE ENERGY PREDICTED BY IDOCK:   26.96 KCAL/MOL
REMARK 923 INTER-LIGAND FREE ENERGY PREDICTED BY IDOCK:   15.09 KCAL/MOL
REMARK 924 INTRA-LIGAND FREE ENERGY PREDICTED BY IDOCK:   11.87 KCAL/MOL
REMARK 927      BINDING AFFINITY PREDICTED BY RF-SCORE:    0.00 PKD
ROOT
HETATM    1  C   UNL     1      -7.476   8.607  67.181  1.00  0.00    -0.088 C  
HETATM    2  C   UNL     1      -7.459   7.288  66.434  1.00  0.00    -0.084 C  
ENDROOT
BRANCH   2   3
HETATM    3  O   UNL     1      -6.896   7.431  65.120  1.00  0.00    -0.046 OA 
BRANCH   3   4
HETATM    4  C   UNL     1      -7.104   8.629  64.507  1.00  0.00    -0.081 C  
HETATM    5  O   UNL     1      -6.753   8.869  63.357  1.00  0.00    -0.090 OA 
HETATM    6  N   UNL     1      -7.805   9.524  65.295  1.00  0.00    -0.108 N  
HETATM    7  C   UNL     1      -8.190  10.822  64.745  1.00  0.00     0.047 C  
HETATM    8  C   UNL     1      -9.704  11.036  64.865  1.00  0.00    -0.303 C  
HETATM    9  C   UNL     1     -10.139  10.920  66.325  1.00  0.00    -0.284 C  
HETATM   10  C   UNL     1     -10.756  11.895  67.055  1.00  0.00    -0.280 C  
HETATM   11  C   UNL     1      -9.765   9.524  66.837  1.00  0.00    -0.237 C  
HETATM   12  C   UNL     1     -11.019  13.258  66.487  1.00  0.00    -0.299 A  
HETATM   13  C   UNL     1      -8.254   9.260  66.669  1.00  0.00    -0.115 C  
HETATM   14  C   UNL     1     -12.283  13.890  66.518  1.00  0.00    -0.482 A  
HETATM   15  C   UNL     1     -12.409  15.187  65.966  1.00  0.00     0.513 A  
HETATM   16  C   UNL     1     -13.542  13.344  67.170  1.00  0.00     6.099 C  
HETATM   17  C   UNL     1     -13.600  11.864  67.549  1.00  0.00     9.202 C  
HETATM   18  C   UNL     1     -11.319  15.846  65.402  1.00  0.00     0.020 A  
HETATM   19  C   UNL     1     -10.070  15.249  65.411  1.00  0.00    -0.397 A  
HETATM   20 CL   UNL     1     -11.521  17.412  64.723  1.00  0.00     0.831 Cl 
HETATM   21  C   UNL     1     -12.634  11.549  68.655  1.00  0.00     0.918 A  
HETATM   22  C   UNL     1     -11.256  11.573  68.417  1.00  0.00    -0.255 A  
HETATM   23  C   UNL     1      -9.921  13.981  65.974  1.00  0.00    -0.331 A  
HETATM   24  N   UNL     1     -10.332  11.345  69.380  1.00  0.00    -0.030 NA 
HETATM   25  C   UNL     1     -10.800  11.084  70.621  1.00  0.00     0.895 A  
HETATM   26  C   UNL     1     -12.143  11.043  70.955  1.00  0.00    -0.444 A  
HETATM   27  C   UNL     1     -13.076  11.279  69.954  1.00  0.00     0.520 A  
ENDBRANCH   3   4
ENDBRANCH   2   3
TORSDOF 2
ENDMDL
MODEL      125
REMARK 921   NORMALIZED FREE ENERGY PREDICTED BY IDOCK:   25.56 KCAL/MOL
REMARK 922        TOTAL FREE ENERGY PREDICTED BY IDOCK:   28.44 KCAL/MOL
REMARK 923 INTER-LIGAND FREE ENERGY PREDICTED BY IDOCK:   28.37 KCAL/MOL
REMARK 924 INTRA-LIGAND FREE ENERGY PREDICTED BY IDOCK:    0.06 KCAL/MOL
REMARK 927      BINDING AFFINITY PREDICTED BY RF-SCORE:    0.00 PKD
ROOT
HETATM    1  C   UNL     1      -8.697  14.830  73.294  1.00  0.00     9.357 C  
HETATM    2  C   UNL     1      -8.542  14.110  71.968  1.00  0.00     8.509 C  
ENDROOT
BRANCH   2   3
HETATM    3  O   UNL     1      -7.160  13.934  71.619  1.00  0.00     1.654 OA 
BRANCH   3   4
HETATM    4  C   UNL     1      -6.585  12.769  72.025  1.00  0.00     4.317 C  
HETATM    5  O   UNL     1      -6.032  12.631  73.111  1.00  0.00     1.024 OA 
HETATM    6  N   UNL     1      -6.743  11.742  71.112  1.00  0.00     2.234 N  
HETATM    7  C   UNL     1      -6.264  10.402  71.443  1.00  0.00     0.444 C  
HETATM    8  C   UNL     1      -7.396   9.373  71.319  1.00  0.00     0.085 C  
HETATM    9  C   UNL     1      -7.982   9.402  69.908  1.00  0.00    -0.132 C  
HETATM   10  C   UNL     1      -8.021   8.351  69.037  1.00  0.00    -0.111 C  
HETATM   11  C   UNL     1      -8.521  10.810  69.632  1.00  0.00     0.217 C  
HETATM   12  C   UNL     1      -7.402   7.026  69.372  1.00  0.00    -0.091 A  
HETATM   13  C   UNL     1      -7.415  11.871  69.812  1.00  0.00     0.787 C  
HETATM   14  C   UNL     1      -8.084   5.793  69.261  1.00  0.00    -0.101 A  
HETATM   15  C   UNL     1      -7.393   4.602  69.589  1.00  0.00    -0.051 A  
HETATM   16  C   UNL     1      -9.495   5.593  68.737  1.00  0.00    -0.155 C  
HETATM   17  C   UNL     1     -10.420   6.804  68.614  1.00  0.00    -0.232 C  
HETATM   18  C   UNL     1      -6.066   4.624  70.011  1.00  0.00    -0.018 A  
HETATM   19  C   UNL     1      -5.382   5.826  70.078  1.00  0.00    -0.008 A  
HETATM   20 CL   UNL     1      -5.271   3.156  70.421  1.00  0.00    -0.004 Cl 
HETATM   21  C   UNL     1      -9.933   7.754  67.558  1.00  0.00    -0.242 A  
HETATM   22  C   UNL     1      -8.766   8.497  67.760  1.00  0.00    -0.137 A  
HETATM   23  C   UNL     1      -6.039   7.008  69.734  1.00  0.00    -0.027 A  
HETATM   24  N   UNL     1      -8.247   9.334  66.831  1.00  0.00    -0.118 NA 
HETATM   25  C   UNL     1      -8.918   9.433  65.661  1.00  0.00    -0.193 A  
HETATM   26  C   UNL     1     -10.078   8.736  65.367  1.00  0.00     0.953 A  
HETATM   27  C   UNL     1     -10.594   7.883  66.332  1.00  0.00     0.411 A  
ENDBRANCH   3   4
ENDBRANCH   2   3
TORSDOF 2
ENDMDL
MODEL      126
REMARK 921   NORMALIZED FREE ENERGY PREDICTED BY IDOCK:   27.24 KCAL/MOL
REMARK 922        TOTAL FREE ENERGY PREDICTED BY IDOCK:   30.31 KCAL/MOL
REMARK 923 INTER-LIGAND FREE ENERGY PREDICTED BY IDOCK:   30.41 KCAL/MOL
REMARK 924 INTRA-LIGAND FREE ENERGY PREDICTED BY IDOCK:   -0.10 KCAL/MOL
REMARK 927      BINDING AFFINITY PREDICTED BY RF-SCORE:    0.00 PKD
ROOT
HETATM    1  C   UNL     1      -9.607  18.916  73.506  1.00  0.00     5.894 C  
HETATM    2  C   UNL     1      -9.936  18.571  72.067  1.00  0.00     5.726 C  
ENDROOT
BRANCH   2   3
HETATM    3  O   UNL     1     -10.198  17.167  71.906  1.00  0.00     3.834 OA 
BRANCH   3   4
HETATM    4  C   UNL     1     -11.159  16.839  71.000  1.00  0.00     0.457 C  
HETATM    5  O   UNL     1     -12.169  17.510  70.814  1.00  0.00     3.835 OA 
HETATM    6  N   UNL     1     -10.848  15.706  70.270  1.00  0.00    -0.330 N  
HETATM    7  C   UNL     1     -11.736  15.277  69.191  1.00  0.00    -0.335 C  
HETATM    8  C   UNL     1     -10.966  15.150  67.870  1.00  0.00    -0.302 C  
HETATM    9  C   UNL     1      -9.803  14.172  68.031  1.00  0.00    -0.223 C  
HETATM   10  C   UNL     1      -9.619  13.023  67.316  1.00  0.00    -0.225 C  
HETATM   11  C   UNL     1      -8.873  14.695  69.132  1.00  0.00    -0.024 C  
HETATM   12  C   UNL     1     -10.624  12.556  66.305  1.00  0.00    -0.273 A  
HETATM   13  C   UNL     1      -9.640  14.892  70.456  1.00  0.00     1.067 C  
HETATM   14  C   UNL     1     -10.291  12.200  64.978  1.00  0.00    -0.320 A  
HETATM   15  C   UNL     1     -11.321  11.755  64.115  1.00  0.00    -0.430 A  
HETATM   16  C   UNL     1      -8.895  12.165  64.382  1.00  0.00     1.135 C  
HETATM   17  C   UNL     1      -7.756  12.873  65.117  1.00  0.00     5.436 C  
HETATM   18  C   UNL     1     -12.642  11.660  64.547  1.00  0.00     0.469 A  
HETATM   19  C   UNL     1     -12.963  11.965  65.859  1.00  0.00     3.224 A  
HETATM   20 CL   UNL     1     -13.866  11.136  63.460  1.00  0.00     2.174 Cl 
HETATM   21  C   UNL     1      -7.448  12.194  66.421  1.00  0.00     0.475 A  
HETATM   22  C   UNL     1      -8.355  12.261  67.483  1.00  0.00    -0.170 A  
HETATM   23  C   UNL     1     -11.957  12.381  66.732  1.00  0.00    -0.282 A  
HETATM   24  N   UNL     1      -8.160  11.633  68.667  1.00  0.00    -0.144 NA 
HETATM   25  C   UNL     1      -7.020  10.917  68.794  1.00  0.00    -0.078 A  
HETATM   26  C   UNL     1      -6.066  10.789  67.799  1.00  0.00    -0.047 A  
HETATM   27  C   UNL     1      -6.283  11.440  66.593  1.00  0.00    -0.137 A  
ENDBRANCH   3   4
ENDBRANCH   2   3
TORSDOF 2
ENDMDL
MODEL      127
REMARK 921   NORMALIZED FREE ENERGY PREDICTED BY IDOCK:   27.25 KCAL/MOL
REMARK 922        TOTAL FREE ENERGY PREDICTED BY IDOCK:   30.32 KCAL/MOL
REMARK 923 INTER-LIGAND FREE ENERGY PREDICTED BY IDOCK:   29.61 KCAL/MOL
REMARK 924 INTRA-LIGAND FREE ENERGY PREDICTED BY IDOCK:    0.71 KCAL/MOL
REMARK 927      BINDING AFFINITY PREDICTED BY RF-SCORE:    0.00 PKD
ROOT
HETATM    1  C   UNL     1      -9.965  17.783  74.518  1.00  0.00     7.943 C  
HETATM    2  C   UNL     1      -9.735  18.378  73.143  1.00  0.00     7.896 C  
ENDROOT
BRANCH   2   3
HETATM    3  O   UNL     1     -10.557  17.747  72.148  1.00  0.00     2.633 OA 
BRANCH   3   4
HETATM    4  C   UNL     1     -10.484  16.389  72.087  1.00  0.00     3.289 C  
HETATM    5  O   UNL     1     -10.526  15.665  73.076  1.00  0.00     2.214 OA 
HETATM    6  N   UNL     1     -10.419  15.910  70.791  1.00  0.00     0.112 N  
HETATM    7  C   UNL     1     -10.431  14.468  70.553  1.00  0.00     0.669 C  
HETATM    8  C   UNL     1     -11.568  14.083  69.598  1.00  0.00    -0.348 C  
HETATM    9  C   UNL     1     -11.431  14.845  68.281  1.00  0.00    -0.343 C  
HETATM   10  C   UNL     1     -11.286  14.283  67.044  1.00  0.00    -0.332 C  
HETATM   11  C   UNL     1     -11.482  16.348  68.578  1.00  0.00    -0.209 C  
HETATM   12  C   UNL     1     -11.176  12.799  66.861  1.00  0.00    -0.339 A  
HETATM   13  C   UNL     1     -10.385  16.750  69.586  1.00  0.00    -0.151 C  
HETATM   14  C   UNL     1     -11.971  12.060  65.956  1.00  0.00    -0.110 A  
HETATM   15  C   UNL     1     -11.767  10.663  65.853  1.00  0.00     1.651 A  
HETATM   16  C   UNL     1     -12.998  12.631  64.993  1.00  0.00    -0.028 C  
HETATM   17  C   UNL     1     -13.494  14.062  65.199  1.00  0.00     0.687 C  
HETATM   18  C   UNL     1     -10.804  10.012  66.620  1.00  0.00     0.012 A  
HETATM   19  C   UNL     1      -9.992  10.739  67.475  1.00  0.00    -0.203 A  
HETATM   20 CL   UNL     1     -10.603   8.310  66.482  1.00  0.00    -0.112 Cl 
HETATM   21  C   UNL     1     -12.396  15.058  64.954  1.00  0.00    -0.087 A  
HETATM   22  C   UNL     1     -11.322  15.158  65.844  1.00  0.00    -0.225 A  
HETATM   23  C   UNL     1     -10.161  12.121  67.569  1.00  0.00    -0.209 A  
HETATM   24  N   UNL     1     -10.278  16.000  65.657  1.00  0.00    -0.378 NA 
HETATM   25  C   UNL     1     -10.308  16.767  64.544  1.00  0.00     1.621 A  
HETATM   26  C   UNL     1     -11.324  16.735  63.603  1.00  0.00     3.005 A  
HETATM   27  C   UNL     1     -12.387  15.866  63.813  1.00  0.00     0.951 A  
ENDBRANCH   3   4
ENDBRANCH   2   3
TORSDOF 2
ENDMDL
MODEL      128
REMARK 921   NORMALIZED FREE ENERGY PREDICTED BY IDOCK:   31.07 KCAL/MOL
REMARK 922        TOTAL FREE ENERGY PREDICTED BY IDOCK:   34.58 KCAL/MOL
REMARK 923 INTER-LIGAND FREE ENERGY PREDICTED BY IDOCK:   33.48 KCAL/MOL
REMARK 924 INTRA-LIGAND FREE ENERGY PREDICTED BY IDOCK:    1.11 KCAL/MOL
REMARK 927      BINDING AFFINITY PREDICTED BY RF-SCORE:    0.00 PKD
ROOT
HETATM    1  C   UNL     1     -13.155   9.102  68.779  1.00  0.00     7.051 C  
HETATM    2  C   UNL     1     -11.816   8.577  68.298  1.00  0.00     2.561 C  
ENDROOT
BRANCH   2   3
HETATM    3  O   UNL     1     -10.765   8.872  69.232  1.00  0.00    -0.224 OA 
BRANCH   3   4
HETATM    4  C   UNL     1     -11.020   9.868  70.124  1.00  0.00    -0.301 C  
HETATM    5  O   UNL     1     -11.150   9.678  71.329  1.00  0.00    -0.346 OA 
HETATM    6  N   UNL     1     -11.057  11.121  69.539  1.00  0.00    -0.254 N  
HETATM    7  C   UNL     1     -11.228  12.305  70.380  1.00  0.00     0.868 C  
HETATM    8  C   UNL     1     -10.088  13.305  70.147  1.00  0.00     2.433 C  
HETATM    9  C   UNL     1     -10.024  13.698  68.671  1.00  0.00    -0.163 C  
HETATM   10  C   UNL     1     -10.155  14.962  68.174  1.00  0.00    -0.222 C  
HETATM   11  C   UNL     1      -9.788  12.432  67.840  1.00  0.00    -0.202 C  
HETATM   12  C   UNL     1     -10.456  16.132  69.064  1.00  0.00    -0.261 A  
HETATM   13  C   UNL     1     -10.888  11.383  68.104  1.00  0.00    -0.213 C  
HETATM   14  C   UNL     1      -9.707  17.330  69.061  1.00  0.00    -0.201 A  
HETATM   15  C   UNL     1     -10.094  18.376  69.933  1.00  0.00     0.826 A  
HETATM   16  C   UNL     1      -8.544  17.659  68.141  1.00  0.00    -0.261 C  
HETATM   17  C   UNL     1      -7.872  16.529  67.361  1.00  0.00    -0.181 C  
HETATM   18  C   UNL     1     -11.190  18.247  70.782  1.00  0.00     3.720 A  
HETATM   19  C   UNL     1     -11.953  17.091  70.755  1.00  0.00     2.113 A  
HETATM   20 CL   UNL     1     -11.613  19.532  71.841  1.00  0.00     7.961 Cl 
HETATM   21  C   UNL     1      -8.802  15.952  66.332  1.00  0.00    -0.368 A  
HETATM   22  C   UNL     1      -9.913  15.200  66.728  1.00  0.00    -0.239 A  
HETATM   23  C   UNL     1     -11.602  16.059  69.883  1.00  0.00    -0.301 A  
HETATM   24  N   UNL     1     -10.814  14.692  65.855  1.00  0.00    -0.303 NA 
HETATM   25  C   UNL     1     -10.599  14.942  64.543  1.00  0.00     0.011 A  
HETATM   26  C   UNL     1      -9.531  15.679  64.057  1.00  0.00     6.522 A  
HETATM   27  C   UNL     1      -8.617  16.191  64.967  1.00  0.00     3.455 A  
ENDBRANCH   3   4
ENDBRANCH   2   3
TORSDOF 2
ENDMDL
MODEL      129
REMARK 921   NORMALIZED FREE ENERGY PREDICTED BY IDOCK:   34.98 KCAL/MOL
REMARK 922        TOTAL FREE ENERGY PREDICTED BY IDOCK:   38.95 KCAL/MOL
REMARK 923 INTER-LIGAND FREE ENERGY PREDICTED BY IDOCK:   38.83 KCAL/MOL
REMARK 924 INTRA-LIGAND FREE ENERGY PREDICTED BY IDOCK:    0.12 KCAL/MOL
REMARK 927      BINDING AFFINITY PREDICTED BY RF-SCORE:    0.00 PKD
ROOT
HETATM    1  C   UNL     1     -11.685   9.715  69.769  1.00  0.00     0.057 C  
HETATM    2  C   UNL     1     -11.334  10.593  70.955  1.00  0.00     0.014 C  
ENDROOT
BRANCH   2   3
HETATM    3  O   UNL     1     -12.299  11.640  71.143  1.00  0.00    -0.331 OA 
BRANCH   3   4
HETATM    4  C   UNL     1     -11.803  12.851  71.518  1.00  0.00     1.362 C  
HETATM    5  O   UNL     1     -11.746  13.225  72.685  1.00  0.00     2.195 OA 
HETATM    6  N   UNL     1     -11.315  13.587  70.454  1.00  0.00     0.152 N  
HETATM    7  C   UNL     1     -10.662  14.871  70.704  1.00  0.00     0.069 C  
HETATM    8  C   UNL     1      -9.253  14.892  70.099  1.00  0.00     0.631 C  
HETATM    9  C   UNL     1      -9.319  14.605  68.600  1.00  0.00    -0.206 C  
HETATM   10  C   UNL     1      -8.884  15.435  67.607  1.00  0.00    -0.179 C  
HETATM   11  C   UNL     1      -9.957  13.226  68.394  1.00  0.00    -0.226 C  
HETATM   12  C   UNL     1      -8.336  16.799  67.904  1.00  0.00    -0.196 A  
HETATM   13  C   UNL     1     -11.352  13.160  69.049  1.00  0.00    -0.282 C  
HETATM   14  C   UNL     1      -7.097  17.270  67.412  1.00  0.00    -0.184 A  
HETATM   15  C   UNL     1      -6.689  18.584  67.743  1.00  0.00    -0.214 A  
HETATM   16  C   UNL     1      -6.165  16.526  66.471  1.00  0.00     0.240 C  
HETATM   17  C   UNL     1      -6.360  15.024  66.267  1.00  0.00     3.946 C  
HETATM   18  C   UNL     1      -7.479  19.413  68.536  1.00  0.00    -0.331 A  
HETATM   19  C   UNL     1      -8.713  18.971  68.982  1.00  0.00    -0.204 A  
HETATM   20 CL   UNL     1      -6.935  20.994  68.933  1.00  0.00     0.564 Cl 
HETATM   21  C   UNL     1      -7.653  14.736  65.557  1.00  0.00     6.277 A  
HETATM   22  C   UNL     1      -8.875  14.944  66.205  1.00  0.00     0.049 A  
HETATM   23  C   UNL     1      -9.144  17.688  68.644  1.00  0.00    -0.261 A  
HETATM   24  N   UNL     1     -10.074  14.750  65.607  1.00  0.00    -0.343 NA 
HETATM   25  C   UNL     1     -10.052  14.333  64.321  1.00  0.00     1.001 A  
HETATM   26  C   UNL     1      -8.894  14.105  63.596  1.00  0.00     9.765 A  
HETATM   27  C   UNL     1      -7.674  14.309  64.227  1.00  0.00    15.463 A  
ENDBRANCH   3   4
ENDBRANCH   2   3
TORSDOF 2
ENDMDL
MODEL      130
REMARK 921   NORMALIZED FREE ENERGY PREDICTED BY IDOCK:   41.25 KCAL/MOL
REMARK 922        TOTAL FREE ENERGY PREDICTED BY IDOCK:   45.96 KCAL/MOL
REMARK 923 INTER-LIGAND FREE ENERGY PREDICTED BY IDOCK:   42.91 KCAL/MOL
REMARK 924 INTRA-LIGAND FREE ENERGY PREDICTED BY IDOCK:    3.05 KCAL/MOL
REMARK 927      BINDING AFFINITY PREDICTED BY RF-SCORE:    0.00 PKD
ROOT
HETATM    1  C   UNL     1     -13.847   8.832  69.167  1.00  0.00     8.514 C  
HETATM    2  C   UNL     1     -13.573   7.858  68.038  1.00  0.00    18.961 C  
ENDROOT
BRANCH   2   3
HETATM    3  O   UNL     1     -12.229   7.353  68.088  1.00  0.00     2.378 OA 
BRANCH   3   4
HETATM    4  C   UNL     1     -11.393   7.966  68.970  1.00  0.00     0.561 C  
HETATM    5  O   UNL     1     -10.732   7.360  69.806  1.00  0.00    -0.236 OA 
HETATM    6  N   UNL     1     -11.321   9.335  68.784  1.00  0.00     0.235 N  
HETATM    7  C   UNL     1     -10.394  10.125  69.592  1.00  0.00    -0.247 C  
HETATM    8  C   UNL     1      -9.450  10.938  68.697  1.00  0.00    -0.192 C  
HETATM    9  C   UNL     1     -10.256  11.842  67.765  1.00  0.00    -0.205 C  
HETATM   10  C   UNL     1     -10.179  13.204  67.708  1.00  0.00    -0.231 C  
HETATM   11  C   UNL     1     -11.169  10.963  66.902  1.00  0.00    -0.162 C  
HETATM   12  C   UNL     1      -9.305  13.984  68.644  1.00  0.00    -0.130 A  
HETATM   13  C   UNL     1     -12.086  10.087  67.781  1.00  0.00     2.695 C  
HETATM   14  C   UNL     1      -8.371  14.955  68.218  1.00  0.00    -0.148 A  
HETATM   15  C   UNL     1      -7.611  15.643  69.194  1.00  0.00    -0.206 A  
HETATM   16  C   UNL     1      -8.142  15.412  66.787  1.00  0.00    -0.212 C  
HETATM   17  C   UNL     1      -8.695  14.565  65.641  1.00  0.00     1.407 C  
HETATM   18  C   UNL     1      -7.769  15.383  70.553  1.00  0.00     1.152 A  
HETATM   19  C   UNL     1      -8.715  14.465  70.977  1.00  0.00     3.963 A  
HETATM   20 CL   UNL     1      -6.810  16.225  71.705  1.00  0.00     4.006 Cl 
HETATM   21  C   UNL     1     -10.197  14.579  65.631  1.00  0.00    -0.379 A  
HETATM   22  C   UNL     1     -10.915  13.926  66.638  1.00  0.00    -0.301 A  
HETATM   23  C   UNL     1      -9.492  13.796  70.030  1.00  0.00     2.158 A  
HETATM   24  N   UNL     1     -12.267  13.940  66.715  1.00  0.00    -0.426 NA 
HETATM   25  C   UNL     1     -12.923  14.627  65.753  1.00  0.00     0.255 A  
HETATM   26  C   UNL     1     -12.301  15.308  64.720  1.00  0.00     0.021 A  
HETATM   27  C   UNL     1     -10.914  15.282  64.658  1.00  0.00    -0.322 A  
ENDBRANCH   3   4
ENDBRANCH   2   3
TORSDOF 2
ENDMDL
MODEL      131
REMARK 921   NORMALIZED FREE ENERGY PREDICTED BY IDOCK:   44.54 KCAL/MOL
REMARK 922        TOTAL FREE ENERGY PREDICTED BY IDOCK:   49.63 KCAL/MOL
REMARK 923 INTER-LIGAND FREE ENERGY PREDICTED BY IDOCK:   44.74 KCAL/MOL
REMARK 924 INTRA-LIGAND FREE ENERGY PREDICTED BY IDOCK:    4.89 KCAL/MOL
REMARK 927      BINDING AFFINITY PREDICTED BY RF-SCORE:    0.00 PKD
ROOT
HETATM    1  C   UNL     1      -9.719  10.850  64.164  1.00  0.00    -0.347 C  
HETATM    2  C   UNL     1     -10.932  10.206  63.522  1.00  0.00     2.692 C  
ENDROOT
BRANCH   2   3
HETATM    3  O   UNL     1     -11.523  11.061  62.530  1.00  0.00     1.054 OA 
BRANCH   3   4
HETATM    4  C   UNL     1     -12.387  12.006  62.993  1.00  0.00    -0.037 C  
HETATM    5  O   UNL     1     -13.565  12.066  62.657  1.00  0.00     0.387 OA 
HETATM    6  N   UNL     1     -11.814  12.851  63.926  1.00  0.00    -0.435 N  
HETATM    7  C   UNL     1     -12.638  13.860  64.588  1.00  0.00    -0.249 C  
HETATM    8  C   UNL     1     -12.556  13.715  66.113  1.00  0.00    -0.391 C  
HETATM    9  C   UNL     1     -11.103  13.820  66.575  1.00  0.00    -0.309 C  
HETATM   10  C   UNL     1     -10.605  14.748  67.444  1.00  0.00    -0.268 C  
HETATM   11  C   UNL     1     -10.294  12.707  65.898  1.00  0.00    -0.295 C  
HETATM   12  C   UNL     1     -11.463  15.845  68.001  1.00  0.00    -0.236 A  
HETATM   13  C   UNL     1     -10.412  12.793  64.362  1.00  0.00    -0.386 C  
HETATM   14  C   UNL     1     -11.563  16.135  69.381  1.00  0.00    -0.261 A  
HETATM   15  C   UNL     1     -12.391  17.207  69.792  1.00  0.00     4.058 A  
HETATM   16  C   UNL     1     -10.795  15.453  70.499  1.00  0.00    -0.327 C  
HETATM   17  C   UNL     1     -10.093  14.125  70.215  1.00  0.00     1.387 C  
HETATM   18  C   UNL     1     -13.099  17.974  68.869  1.00  0.00    11.001 A  
HETATM   19  C   UNL     1     -12.967  17.721  67.514  1.00  0.00     6.853 A  
HETATM   20 CL   UNL     1     -14.111  19.253  69.412  1.00  0.00    19.107 Cl 
HETATM   21  C   UNL     1      -8.952  14.309  69.254  1.00  0.00     0.272 A  
HETATM   22  C   UNL     1      -9.202  14.619  67.914  1.00  0.00    -0.197 A  
HETATM   23  C   UNL     1     -12.135  16.684  67.089  1.00  0.00     1.901 A  
HETATM   24  N   UNL     1      -8.221  14.844  67.008  1.00  0.00    -0.213 NA 
HETATM   25  C   UNL     1      -6.948  14.755  67.457  1.00  0.00    -0.172 A  
HETATM   26  C   UNL     1      -6.602  14.459  68.764  1.00  0.00    -0.090 A  
HETATM   27  C   UNL     1      -7.622  14.231  69.678  1.00  0.00     0.239 A  
ENDBRANCH   3   4
ENDBRANCH   2   3
TORSDOF 2
ENDMDL
MODEL      132
REMARK 921   NORMALIZED FREE ENERGY PREDICTED BY IDOCK:   46.31 KCAL/MOL
REMARK 922        TOTAL FREE ENERGY PREDICTED BY IDOCK:   51.61 KCAL/MOL
REMARK 923 INTER-LIGAND FREE ENERGY PREDICTED BY IDOCK:   48.89 KCAL/MOL
REMARK 924 INTRA-LIGAND FREE ENERGY PREDICTED BY IDOCK:    2.72 KCAL/MOL
REMARK 927      BINDING AFFINITY PREDICTED BY RF-SCORE:    0.00 PKD
ROOT
HETATM    1  C   UNL     1     -11.439  20.861  69.318  1.00  0.00     2.349 C  
HETATM    2  C   UNL     1     -12.277  19.608  69.472  1.00  0.00     9.356 C  
ENDROOT
BRANCH   2   3
HETATM    3  O   UNL     1     -12.535  19.309  70.853  1.00  0.00    14.063 OA 
BRANCH   3   4
HETATM    4  C   UNL     1     -12.048  18.122  71.309  1.00  0.00     8.555 C  
HETATM    5  O   UNL     1     -12.668  17.387  72.071  1.00  0.00     3.632 OA 
HETATM    6  N   UNL     1     -10.812  17.805  70.777  1.00  0.00     1.489 N  
HETATM    7  C   UNL     1     -10.198  16.518  71.096  1.00  0.00     2.188 C  
HETATM    8  C   UNL     1      -9.857  15.746  69.815  1.00  0.00    -0.218 C  
HETATM    9  C   UNL     1      -8.932  16.578  68.928  1.00  0.00    -0.245 C  
HETATM   10  C   UNL     1      -7.681  16.217  68.516  1.00  0.00    -0.189 C  
HETATM   11  C   UNL     1      -9.644  17.889  68.575  1.00  0.00    -0.327 C  
HETATM   12  C   UNL     1      -7.039  14.941  68.972  1.00  0.00    -0.130 A  
HETATM   13  C   UNL     1     -10.053  18.656  69.850  1.00  0.00     0.858 C  
HETATM   14  C   UNL     1      -6.468  13.994  68.092  1.00  0.00    -0.126 A  
HETATM   15  C   UNL     1      -5.873  12.831  68.637  1.00  0.00    -0.064 A  
HETATM   16  C   UNL     1      -6.348  14.130  66.584  1.00  0.00     2.578 C  
HETATM   17  C   UNL     1      -7.182  15.191  65.866  1.00  0.00     4.357 C  
HETATM   18  C   UNL     1      -5.839  12.608  70.011  1.00  0.00    -0.151 A  
HETATM   19  C   UNL     1      -6.358  13.554  70.878  1.00  0.00     0.393 A  
HETATM   20 CL   UNL     1      -5.126  11.171  70.630  1.00  0.00    -0.090 Cl 
HETATM   21  C   UNL     1      -6.736  16.576  66.240  1.00  0.00     0.428 A  
HETATM   22  C   UNL     1      -6.971  17.069  67.528  1.00  0.00    -0.146 A  
HETATM   23  C   UNL     1      -6.925  14.720  70.360  1.00  0.00     0.199 A  
HETATM   24  N   UNL     1      -6.555  18.288  67.944  1.00  0.00    -0.201 NA 
HETATM   25  C   UNL     1      -5.882  19.040  67.043  1.00  0.00    -0.155 A  
HETATM   26  C   UNL     1      -5.598  18.637  65.749  1.00  0.00    -0.209 A  
HETATM   27  C   UNL     1      -6.034  17.384  65.341  1.00  0.00     0.693 A  
ENDBRANCH   3   4
ENDBRANCH   2   3
TORSDOF 2
ENDMDL
MODEL      133
REMARK 921   NORMALIZED FREE ENERGY PREDICTED BY IDOCK:   58.35 KCAL/MOL
REMARK 922        TOTAL FREE ENERGY PREDICTED BY IDOCK:   65.05 KCAL/MOL
REMARK 923 INTER-LIGAND FREE ENERGY PREDICTED BY IDOCK:   63.09 KCAL/MOL
REMARK 924 INTRA-LIGAND FREE ENERGY PREDICTED BY IDOCK:    1.96 KCAL/MOL
REMARK 927      BINDING AFFINITY PREDICTED BY RF-SCORE:    0.00 PKD
ROOT
HETATM    1  C   UNL     1      -8.788  18.676  72.418  1.00  0.00    11.063 C  
HETATM    2  C   UNL     1      -8.714  17.302  71.782  1.00  0.00    11.915 C  
ENDROOT
BRANCH   2   3
HETATM    3  O   UNL     1      -9.282  16.293  72.634  1.00  0.00     9.449 OA 
BRANCH   3   4
HETATM    4  C   UNL     1     -10.072  15.370  72.021  1.00  0.00     2.700 C  
HETATM    5  O   UNL     1     -11.000  14.796  72.583  1.00  0.00     0.490 OA 
HETATM    6  N   UNL     1      -9.760  15.192  70.686  1.00  0.00     0.606 N  
HETATM    7  C   UNL     1     -10.579  14.302  69.865  1.00  0.00     0.247 C  
HETATM    8  C   UNL     1     -11.116  15.040  68.632  1.00  0.00    -0.272 C  
HETATM    9  C   UNL     1      -9.958  15.612  67.815  1.00  0.00    -0.223 C  
HETATM   10  C   UNL     1      -9.674  15.312  66.513  1.00  0.00    -0.287 C  
HETATM   11  C   UNL     1      -9.166  16.580  68.701  1.00  0.00    -0.238 C  
HETATM   12  C   UNL     1     -10.468  14.296  65.747  1.00  0.00    -0.326 A  
HETATM   13  C   UNL     1      -8.668  15.876  69.980  1.00  0.00     0.636 C  
HETATM   14  C   UNL     1     -11.036  14.542  64.476  1.00  0.00    -0.264 A  
HETATM   15  C   UNL     1     -11.751  13.501  63.838  1.00  0.00    -0.415 A  
HETATM   16  C   UNL     1     -10.891  15.815  63.661  1.00  0.00     2.754 C  
HETATM   17  C   UNL     1     -10.385  17.083  64.348  1.00  0.00     2.588 C  
HETATM   18  C   UNL     1     -11.900  12.250  64.432  1.00  0.00    -0.388 A  
HETATM   19  C   UNL     1     -11.306  11.992  65.657  1.00  0.00    -0.381 A  
HETATM   20 CL   UNL     1     -12.795  11.020  63.633  1.00  0.00     1.391 Cl 
HETATM   21  C   UNL     1      -8.950  16.936  64.769  1.00  0.00     4.231 A  
HETATM   22  C   UNL     1      -8.606  16.071  65.813  1.00  0.00     0.322 A  
HETATM   23  C   UNL     1     -10.575  12.999  66.290  1.00  0.00    -0.283 A  
HETATM   24  N   UNL     1      -7.329  15.857  66.210  1.00  0.00     0.234 NA 
HETATM   25  C   UNL     1      -6.365  16.531  65.543  1.00  0.00     3.178 A  
HETATM   26  C   UNL     1      -6.607  17.404  64.495  1.00  0.00     4.367 A  
HETATM   27  C   UNL     1      -7.922  17.610  64.103  1.00  0.00     9.997 A  
ENDBRANCH   3   4
ENDBRANCH   2   3
TORSDOF 2
ENDMDL
MODEL      134
REMARK 921   NORMALIZED FREE ENERGY PREDICTED BY IDOCK:   59.43 KCAL/MOL
REMARK 922        TOTAL FREE ENERGY PREDICTED BY IDOCK:   66.27 KCAL/MOL
REMARK 923 INTER-LIGAND FREE ENERGY PREDICTED BY IDOCK:   65.90 KCAL/MOL
REMARK 924 INTRA-LIGAND FREE ENERGY PREDICTED BY IDOCK:    0.36 KCAL/MOL
REMARK 927      BINDING AFFINITY PREDICTED BY RF-SCORE:    0.00 PKD
ROOT
HETATM    1  C   UNL     1      -9.885  17.774  74.452  1.00  0.00     8.787 C  
HETATM    2  C   UNL     1      -9.362  18.493  73.223  1.00  0.00     8.930 C  
ENDROOT
BRANCH   2   3
HETATM    3  O   UNL     1     -10.120  18.156  72.050  1.00  0.00     4.538 OA 
BRANCH   3   4
HETATM    4  C   UNL     1      -9.951  16.893  71.572  1.00  0.00     4.832 C  
HETATM    5  O   UNL     1      -9.949  15.896  72.285  1.00  0.00     3.281 OA 
HETATM    6  N   UNL     1      -9.843  16.848  70.194  1.00  0.00     0.789 N  
HETATM    7  C   UNL     1      -9.751  15.554  69.520  1.00  0.00    -0.282 C  
HETATM    8  C   UNL     1     -10.851  15.414  68.460  1.00  0.00    -0.264 C  
HETATM    9  C   UNL     1     -10.758  16.556  67.449  1.00  0.00    -0.260 C  
HETATM   10  C   UNL     1     -10.565  16.419  66.104  1.00  0.00    -0.259 C  
HETATM   11  C   UNL     1     -10.917  17.884  68.196  1.00  0.00    -0.014 C  
HETATM   12  C   UNL     1     -10.349  15.076  65.471  1.00  0.00    -0.397 A  
HETATM   13  C   UNL     1      -9.859  18.022  69.311  1.00  0.00    -0.041 C  
HETATM   14  C   UNL     1     -11.084  14.607  64.359  1.00  0.00    -0.153 A  
HETATM   15  C   UNL     1     -10.781  13.328  63.833  1.00  0.00    -0.131 A  
HETATM   16  C   UNL     1     -12.141  15.382  63.592  1.00  0.00     0.643 C  
HETATM   17  C   UNL     1     -12.738  16.642  64.218  1.00  0.00     3.488 C  
HETATM   18  C   UNL     1      -9.780  12.533  64.387  1.00  0.00     0.061 A  
HETATM   19  C   UNL     1      -9.028  13.008  65.449  1.00  0.00     1.004 A  
HETATM   20 CL   UNL     1      -9.459  10.977  63.733  1.00  0.00    -0.263 Cl 
HETATM   21  C   UNL     1     -11.712  17.733  64.326  1.00  0.00     4.484 A  
HETATM   22  C   UNL     1     -10.654  17.620  65.234  1.00  0.00     0.179 A  
HETATM   23  C   UNL     1      -9.295  14.278  65.963  1.00  0.00    -0.143 A  
HETATM   24  N   UNL     1      -9.670  18.544  65.348  1.00  0.00     0.255 NA 
HETATM   25  C   UNL     1      -9.747  19.616  64.528  1.00  0.00     4.394 A  
HETATM   26  C   UNL     1     -10.751  19.814  63.596  1.00  0.00     9.838 A  
HETATM   27  C   UNL     1     -11.751  18.856  63.494  1.00  0.00    12.608 A  
ENDBRANCH   3   4
ENDBRANCH   2   3
TORSDOF 2
ENDMDL
MODEL      135
REMARK 921   NORMALIZED FREE ENERGY PREDICTED BY IDOCK:   69.42 KCAL/MOL
REMARK 922        TOTAL FREE ENERGY PREDICTED BY IDOCK:   77.42 KCAL/MOL
REMARK 923 INTER-LIGAND FREE ENERGY PREDICTED BY IDOCK:   77.54 KCAL/MOL
REMARK 924 INTRA-LIGAND FREE ENERGY PREDICTED BY IDOCK:   -0.13 KCAL/MOL
REMARK 927      BINDING AFFINITY PREDICTED BY RF-SCORE:    0.00 PKD
ROOT
HETATM    1  C   UNL     1      -5.786  12.783  70.529  1.00  0.00    -0.168 C  
HETATM    2  C   UNL     1      -7.088  13.284  69.936  1.00  0.00     0.599 C  
ENDROOT
BRANCH   2   3
HETATM    3  O   UNL     1      -7.892  12.204  69.436  1.00  0.00     0.317 OA 
BRANCH   3   4
HETATM    4  C   UNL     1      -8.782  11.665  70.314  1.00  0.00     3.705 C  
HETATM    5  O   UNL     1      -9.338  12.313  71.194  1.00  0.00     8.979 OA 
HETATM    6  N   UNL     1      -9.039  10.328  70.070  1.00  0.00     0.013 N  
HETATM    7  C   UNL     1     -10.044   9.630  70.869  1.00  0.00    -0.186 C  
HETATM    8  C   UNL     1     -11.107   8.990  69.966  1.00  0.00    -0.197 C  
HETATM    9  C   UNL     1     -10.449   8.033  68.973  1.00  0.00    -0.212 C  
HETATM   10  C   UNL     1     -10.706   6.697  68.859  1.00  0.00    -0.304 C  
HETATM   11  C   UNL     1      -9.447   8.824  68.124  1.00  0.00    -0.152 C  
HETATM   12  C   UNL     1     -11.655   5.996  69.785  1.00  0.00    -0.005 A  
HETATM   13  C   UNL     1      -8.403   9.529  69.014  1.00  0.00    -0.126 C  
HETATM   14  C   UNL     1     -12.719   5.177  69.344  1.00  0.00    11.398 A  
HETATM   15  C   UNL     1     -13.541   4.549  70.310  1.00  0.00    18.660 A  
HETATM   16  C   UNL     1     -13.038   4.821  67.902  1.00  0.00    20.628 C  
HETATM   17  C   UNL     1     -12.404   5.641  66.778  1.00  0.00     5.453 C  
HETATM   18  C   UNL     1     -13.320   4.721  71.675  1.00  0.00     5.873 A  
HETATM   19  C   UNL     1     -12.251   5.487  72.111  1.00  0.00     0.384 A  
HETATM   20 CL   UNL     1     -14.356   3.960  72.815  1.00  0.00     3.937 Cl 
HETATM   21  C   UNL     1     -10.918   5.430  66.725  1.00  0.00    -0.035 A  
HETATM   22  C   UNL     1     -10.097   5.935  67.739  1.00  0.00    -0.159 A  
HETATM   23  C   UNL     1     -11.414   6.092  71.172  1.00  0.00    -0.246 A  
HETATM   24  N   UNL     1      -8.757   5.741  67.776  1.00  0.00    -0.108 NA 
HETATM   25  C   UNL     1      -8.220   5.019  66.766  1.00  0.00    -0.107 A  
HETATM   26  C   UNL     1      -8.950   4.476  65.723  1.00  0.00    -0.131 A  
HETATM   27  C   UNL     1     -10.322   4.686  65.702  1.00  0.00    -0.266 A  
ENDBRANCH   3   4
ENDBRANCH   2   3
TORSDOF 2
ENDMDL
MODEL      136
REMARK 921   NORMALIZED FREE ENERGY PREDICTED BY IDOCK:   74.63 KCAL/MOL
REMARK 922        TOTAL FREE ENERGY PREDICTED BY IDOCK:   83.24 KCAL/MOL
REMARK 923 INTER-LIGAND FREE ENERGY PREDICTED BY IDOCK:   83.32 KCAL/MOL
REMARK 924 INTRA-LIGAND FREE ENERGY PREDICTED BY IDOCK:   -0.08 KCAL/MOL
REMARK 927      BINDING AFFINITY PREDICTED BY RF-SCORE:    0.00 PKD
ROOT
HETATM    1  C   UNL     1      -9.481  17.441  72.073  1.00  0.00    10.290 C  
HETATM    2  C   UNL     1      -9.996  16.021  72.204  1.00  0.00     4.679 C  
ENDROOT
BRANCH   2   3
HETATM    3  O   UNL     1     -11.265  15.855  71.553  1.00  0.00    -0.326 OA 
BRANCH   3   4
HETATM    4  C   UNL     1     -11.542  14.604  71.093  1.00  0.00    -0.220 C  
HETATM    5  O   UNL     1     -11.917  13.687  71.817  1.00  0.00     0.161 OA 
HETATM    6  N   UNL     1     -11.417  14.493  69.721  1.00  0.00    -0.269 N  
HETATM    7  C   UNL     1     -11.771  13.237  69.063  1.00  0.00    -0.322 C  
HETATM    8  C   UNL     1     -12.817  13.474  67.966  1.00  0.00     1.475 C  
HETATM    9  C   UNL     1     -12.294  14.486  66.948  1.00  0.00    -0.083 C  
HETATM   10  C   UNL     1     -12.122  14.260  65.612  1.00  0.00    -0.399 C  
HETATM   11  C   UNL     1     -11.992  15.800  67.676  1.00  0.00     0.420 C  
HETATM   12  C   UNL     1     -12.379  12.915  65.001  1.00  0.00    -0.541 A  
HETATM   13  C   UNL     1     -10.988  15.577  68.827  1.00  0.00    -0.270 C  
HETATM   14  C   UNL     1     -13.199  12.713  63.867  1.00  0.00     0.317 A  
HETATM   15  C   UNL     1     -13.355  11.399  63.366  1.00  0.00     1.078 A  
HETATM   16  C   UNL     1     -13.888  13.796  63.055  1.00  0.00     6.140 C  
HETATM   17  C   UNL     1     -14.016  15.200  63.648  1.00  0.00     5.854 C  
HETATM   18  C   UNL     1     -12.719  10.313  63.962  1.00  0.00     7.415 A  
HETATM   19  C   UNL     1     -11.880  10.513  65.045  1.00  0.00     2.857 A  
HETATM   20 CL   UNL     1     -12.954   8.730  63.335  1.00  0.00    18.405 Cl 
HETATM   21  C   UNL     1     -12.672  15.857  63.782  1.00  0.00     1.491 A  
HETATM   22  C   UNL     1     -11.752  15.395  64.728  1.00  0.00    -0.232 A  
HETATM   23  C   UNL     1     -11.693  11.805  65.538  1.00  0.00    -0.105 A  
HETATM   24  N   UNL     1     -10.508  15.911  64.868  1.00  0.00    -0.549 NA 
HETATM   25  C   UNL     1     -10.172  16.923  64.036  1.00  0.00     4.963 A  
HETATM   26  C   UNL     1     -11.012  17.444  63.066  1.00  0.00    11.240 A  
HETATM   27  C   UNL     1     -12.284  16.902  62.938  1.00  0.00     9.849 A  
ENDBRANCH   3   4
ENDBRANCH   2   3
TORSDOF 2
ENDMDL
MODEL      137
REMARK 921   NORMALIZED FREE ENERGY PREDICTED BY IDOCK:   80.28 KCAL/MOL
REMARK 922        TOTAL FREE ENERGY PREDICTED BY IDOCK:   89.55 KCAL/MOL
REMARK 923 INTER-LIGAND FREE ENERGY PREDICTED BY IDOCK:   80.32 KCAL/MOL
REMARK 924 INTRA-LIGAND FREE ENERGY PREDICTED BY IDOCK:    9.23 KCAL/MOL
REMARK 927      BINDING AFFINITY PREDICTED BY RF-SCORE:    0.00 PKD
ROOT
HETATM    1  C   UNL     1      -7.466   9.642  66.758  1.00  0.00    -0.094 C  
HETATM    2  C   UNL     1      -7.039   9.715  65.305  1.00  0.00    -0.109 C  
ENDROOT
BRANCH   2   3
HETATM    3  O   UNL     1      -5.993  10.679  65.108  1.00  0.00    -0.129 OA 
BRANCH   3   4
HETATM    4  C   UNL     1      -6.241  11.934  65.574  1.00  0.00     2.260 C  
HETATM    5  O   UNL     1      -5.550  12.908  65.291  1.00  0.00     5.352 OA 
HETATM    6  N   UNL     1      -7.385  12.007  66.347  1.00  0.00     0.257 N  
HETATM    7  C   UNL     1      -7.839  13.304  66.843  1.00  0.00     0.223 C  
HETATM    8  C   UNL     1      -9.288  13.573  66.416  1.00  0.00    -0.191 C  
HETATM    9  C   UNL     1     -10.202  12.455  66.918  1.00  0.00    -0.238 C  
HETATM   10  C   UNL     1     -11.270  12.610  67.755  1.00  0.00    -0.319 C  
HETATM   11  C   UNL     1      -9.719  11.127  66.325  1.00  0.00    -0.244 C  
HETATM   12  C   UNL     1     -11.624  13.944  68.342  1.00  0.00    -0.368 A  
HETATM   13  C   UNL     1      -8.242  10.863  66.688  1.00  0.00    -0.145 C  
HETATM   14  C   UNL     1     -12.918  14.508  68.280  1.00  0.00     1.831 A  
HETATM   15  C   UNL     1     -13.141  15.768  68.886  1.00  0.00     1.976 A  
HETATM   16  C   UNL     1     -14.154  13.854  67.687  1.00  0.00    11.001 C  
HETATM   17  C   UNL     1     -13.985  12.637  66.777  1.00  0.00    10.245 C  
HETATM   18  C   UNL     1     -12.118  16.452  69.537  1.00  0.00     0.464 A  
HETATM   19  C   UNL     1     -10.859  15.882  69.637  1.00  0.00    -0.314 A  
HETATM   20 CL   UNL     1     -12.425  17.990  70.240  1.00  0.00    10.205 Cl 
HETATM   21  C   UNL     1     -13.466  11.454  67.544  1.00  0.00     9.286 A  
HETATM   22  C   UNL     1     -12.152  11.446  68.024  1.00  0.00     0.097 A  
HETATM   23  C   UNL     1     -10.628  14.629  69.069  1.00  0.00    -0.248 A  
HETATM   24  N   UNL     1     -11.637  10.434  68.762  1.00  0.00    -0.179 NA 
HETATM   25  C   UNL     1     -12.461   9.395  69.027  1.00  0.00     2.677 A  
HETATM   26  C   UNL     1     -13.776   9.315  68.599  1.00  0.00    10.615 A  
HETATM   27  C   UNL     1     -14.286  10.362  67.843  1.00  0.00    16.414 A  
ENDBRANCH   3   4
ENDBRANCH   2   3
TORSDOF 2
ENDMDL
