MODEL        1
REMARK 921   NORMALIZED FREE ENERGY PREDICTED BY IDOCK:   -7.44 KCAL/MOL
REMARK 922        TOTAL FREE ENERGY PREDICTED BY IDOCK:   -8.52 KCAL/MOL
REMARK 923 INTER-LIGAND FREE ENERGY PREDICTED BY IDOCK:   -7.87 KCAL/MOL
REMARK 924 INTRA-LIGAND FREE ENERGY PREDICTED BY IDOCK:   -0.65 KCAL/MOL
REMARK 927      BINDING AFFINITY PREDICTED BY RF-SCORE:    0.00 PKD
ROOT
HETATM    1  C   UNL     1     -10.167  12.371  66.462  1.00  0.00    -0.227 C  
HETATM    2  N   UNL     1     -10.557  13.770  66.525  1.00  0.00    -0.277 N  
HETATM    3  C   UNL     1     -10.950  14.350  67.770  1.00  0.00    -0.274 A  
HETATM    4  C   UNL     1     -10.738  15.711  68.092  1.00  0.00    -0.287 A  
HETATM    5  C   UNL     1     -11.218  16.245  69.302  1.00  0.00    -0.312 A  
HETATM    6  C   UNL     1      -9.927  16.606  67.217  1.00  0.00    -0.270 C  
HETATM    7  C   UNL     1     -11.833  15.412  70.231  1.00  0.00    -0.338 A  
HETATM    8  N   UNL     1     -10.138  16.726  65.947  1.00  0.00    -0.484 NA 
HETATM    9  H   UNL     1     -12.135  15.808  63.601  1.00  0.00     0.000 HD 
HETATM   10  O   UNL     1     -10.246  13.926  64.240  1.00  0.00    -0.276 OA 
HETATM   11  C   UNL     1     -12.007  14.062  69.956  1.00  0.00    -0.404 A  
HETATM   12  C   UNL     1     -11.161  15.906  65.324  1.00  0.00    -0.248 C  
HETATM   13  H   UNL     1      -9.595  17.387  65.391  1.00  0.00     0.000 HD 
HETATM   14 CL   UNL     1     -12.345  16.047  71.744  1.00  0.00    -0.517 Cl 
HETATM   15  O   UNL     1     -11.465  16.345  64.008  1.00  0.00    -1.048 OA 
HETATM   16  C   UNL     1     -10.602  14.455  65.299  1.00  0.00    -0.382 C  
HETATM   17  C   UNL     1     -11.578  13.539  68.732  1.00  0.00    -0.362 A  
ENDROOT
BRANCH   6  18
HETATM   18  C   UNL     1      -8.804  17.440  67.784  1.00  0.00    -0.232 A  
HETATM   19  C   UNL     1      -6.646  18.759  69.036  1.00  0.00    -0.306 A  
HETATM   20  C   UNL     1      -7.701  16.723  68.296  1.00  0.00    -0.187 A  
HETATM   21  C   UNL     1      -6.638  17.375  68.924  1.00  0.00    -0.218 A  
HETATM   22  C   UNL     1      -7.722  19.487  68.531  1.00  0.00    -0.389 A  
HETATM   23  C   UNL     1      -8.810  18.838  67.926  1.00  0.00    -0.296 A  
HETATM   24 CL   UNL     1     -10.136  19.860  67.491  1.00  0.00    -0.538 Cl 
ENDBRANCH   6  18
TORSDOF 1
ENDMDL
MODEL        2
REMARK 921   NORMALIZED FREE ENERGY PREDICTED BY IDOCK:   -7.35 KCAL/MOL
REMARK 922        TOTAL FREE ENERGY PREDICTED BY IDOCK:   -8.43 KCAL/MOL
REMARK 923 INTER-LIGAND FREE ENERGY PREDICTED BY IDOCK:   -7.75 KCAL/MOL
REMARK 924 INTRA-LIGAND FREE ENERGY PREDICTED BY IDOCK:   -0.67 KCAL/MOL
REMARK 927      BINDING AFFINITY PREDICTED BY RF-SCORE:    0.00 PKD
ROOT
HETATM    1  C   UNL     1     -11.133  11.182  66.838  1.00  0.00    -0.247 C  
HETATM    2  N   UNL     1     -11.447  12.585  66.627  1.00  0.00    -0.338 N  
HETATM    3  C   UNL     1     -11.541  13.475  67.741  1.00  0.00    -0.339 A  
HETATM    4  C   UNL     1     -11.215  14.849  67.665  1.00  0.00    -0.330 A  
HETATM    5  C   UNL     1     -11.402  15.694  68.774  1.00  0.00    -0.351 A  
HETATM    6  C   UNL     1     -10.578  15.437  66.450  1.00  0.00    -0.307 C  
HETATM    7  C   UNL     1     -11.833  15.161  69.985  1.00  0.00    -0.325 A  
HETATM    8  N   UNL     1     -11.053  15.273  65.259  1.00  0.00    -0.371 NA 
HETATM    9  H   UNL     1     -13.540  14.009  63.663  1.00  0.00     0.000 HD 
HETATM   10  O   UNL     1     -11.630  12.171  64.360  1.00  0.00    -0.332 OA 
HETATM   11  C   UNL     1     -12.112  13.804  70.095  1.00  0.00    -0.429 A  
HETATM   12  C   UNL     1     -12.216  14.423  65.077  1.00  0.00    -0.414 C  
HETATM   13  H   UNL     1     -10.618  15.733  64.460  1.00  0.00     0.000 HD 
HETATM   14 CL   UNL     1     -11.984  16.177  71.363  1.00  0.00    -0.489 Cl 
HETATM   15  O   UNL     1     -12.780  14.565  63.782  1.00  0.00    -0.780 OA 
HETATM   16  C   UNL     1     -11.729  12.963  65.304  1.00  0.00    -0.364 C  
HETATM   17  C   UNL     1     -11.977  12.972  68.979  1.00  0.00    -0.312 A  
ENDROOT
BRANCH   6  18
HETATM   18  C   UNL     1      -9.328  16.277  66.557  1.00  0.00    -0.298 A  
HETATM   19  C   UNL     1      -6.889  17.639  66.960  1.00  0.00    -0.202 A  
HETATM   20  C   UNL     1      -8.141  15.582  66.868  1.00  0.00    -0.284 A  
HETATM   21  C   UNL     1      -6.936  16.256  67.078  1.00  0.00    -0.250 A  
HETATM   22  C   UNL     1      -8.050  18.345  66.646  1.00  0.00    -0.282 A  
HETATM   23  C   UNL     1      -9.272  17.679  66.466  1.00  0.00    -0.269 A  
HETATM   24 CL   UNL     1     -10.648  18.701  66.235  1.00  0.00    -0.438 Cl 
ENDBRANCH   6  18
TORSDOF 1
ENDMDL
MODEL        3
REMARK 921   NORMALIZED FREE ENERGY PREDICTED BY IDOCK:   -7.34 KCAL/MOL
REMARK 922        TOTAL FREE ENERGY PREDICTED BY IDOCK:   -8.41 KCAL/MOL
REMARK 923 INTER-LIGAND FREE ENERGY PREDICTED BY IDOCK:   -7.76 KCAL/MOL
REMARK 924 INTRA-LIGAND FREE ENERGY PREDICTED BY IDOCK:   -0.65 KCAL/MOL
REMARK 927      BINDING AFFINITY PREDICTED BY RF-SCORE:    0.00 PKD
ROOT
HETATM    1  C   UNL     1      -9.770  11.650  66.156  1.00  0.00    -0.229 C  
HETATM    2  N   UNL     1     -10.586  12.844  66.014  1.00  0.00    -0.267 N  
HETATM    3  C   UNL     1     -11.011  13.564  67.173  1.00  0.00    -0.291 A  
HETATM    4  C   UNL     1     -11.222  14.963  67.182  1.00  0.00    -0.345 A  
HETATM    5  C   UNL     1     -11.718  15.606  68.331  1.00  0.00    -0.301 A  
HETATM    6  C   UNL     1     -10.846  15.820  66.020  1.00  0.00    -0.255 C  
HETATM    7  C   UNL     1     -11.924  14.877  69.498  1.00  0.00    -0.310 A  
HETATM    8  N   UNL     1     -11.220  15.563  64.809  1.00  0.00    -0.556 NA 
HETATM    9  H   UNL     1     -13.045  13.563  63.078  1.00  0.00     0.000 HD 
HETATM   10  O   UNL     1     -10.589  12.532  63.725  1.00  0.00    -0.414 OA 
HETATM   11  C   UNL     1     -11.676  13.511  69.525  1.00  0.00    -0.382 A  
HETATM   12  C   UNL     1     -11.979  14.354  64.548  1.00  0.00    -0.472 C  
HETATM   13  H   UNL     1     -10.985  16.201  64.048  1.00  0.00     0.000 HD 
HETATM   14 CL   UNL     1     -12.451  15.678  70.925  1.00  0.00    -0.478 Cl 
HETATM   15  O   UNL     1     -12.549  14.354  63.248  1.00  0.00    -0.655 OA 
HETATM   16  C   UNL     1     -10.983  13.170  64.707  1.00  0.00    -0.336 C  
HETATM   17  C   UNL     1     -11.233  12.860  68.369  1.00  0.00    -0.305 A  
ENDROOT
BRANCH   6  18
HETATM   18  C   UNL     1     -10.003  17.057  66.207  1.00  0.00    -0.324 A  
HETATM   19  C   UNL     1      -8.604  19.505  66.341  1.00  0.00    -0.384 A  
HETATM   20  C   UNL     1     -10.650  18.288  65.966  1.00  0.00    -0.318 A  
HETATM   21  C   UNL     1      -9.956  19.498  66.022  1.00  0.00    -0.477 A  
HETATM   22  C   UNL     1      -7.947  18.300  66.589  1.00  0.00    -0.273 A  
HETATM   23  C   UNL     1      -8.629  17.076  66.504  1.00  0.00    -0.270 A  
HETATM   24 CL   UNL     1      -7.646  15.665  66.686  1.00  0.00    -0.120 Cl 
ENDBRANCH   6  18
TORSDOF 1
ENDMDL
MODEL        4
REMARK 921   NORMALIZED FREE ENERGY PREDICTED BY IDOCK:   -7.29 KCAL/MOL
REMARK 922        TOTAL FREE ENERGY PREDICTED BY IDOCK:   -8.36 KCAL/MOL
REMARK 923 INTER-LIGAND FREE ENERGY PREDICTED BY IDOCK:   -7.70 KCAL/MOL
REMARK 924 INTRA-LIGAND FREE ENERGY PREDICTED BY IDOCK:   -0.66 KCAL/MOL
REMARK 927      BINDING AFFINITY PREDICTED BY RF-SCORE:    0.00 PKD
ROOT
HETATM    1  C   UNL     1     -10.742  11.234  68.476  1.00  0.00    -0.201 C  
HETATM    2  N   UNL     1     -11.369  12.514  68.190  1.00  0.00    -0.272 N  
HETATM    3  C   UNL     1     -11.811  13.351  69.260  1.00  0.00    -0.334 A  
HETATM    4  C   UNL     1     -11.830  14.763  69.182  1.00  0.00    -0.340 A  
HETATM    5  C   UNL     1     -12.350  15.533  70.237  1.00  0.00    -0.431 A  
HETATM    6  C   UNL     1     -11.222  15.492  68.030  1.00  0.00    -0.332 C  
HETATM    7  C   UNL     1     -12.773  14.909  71.407  1.00  0.00    -0.335 A  
HETATM    8  N   UNL     1     -11.499  15.214  66.798  1.00  0.00    -0.258 NA 
HETATM    9  H   UNL     1     -13.390  13.368  64.969  1.00  0.00     0.000 HD 
HETATM   10  O   UNL     1     -11.176  12.067  65.931  1.00  0.00    -0.317 OA 
HETATM   11  C   UNL     1     -12.717  13.526  71.524  1.00  0.00    -0.412 A  
HETATM   12  C   UNL     1     -12.384  14.100  66.511  1.00  0.00    -0.372 C  
HETATM   13  H   UNL     1     -11.102  15.769  66.040  1.00  0.00     0.000 HD 
HETATM   14 CL   UNL     1     -13.332  15.856  72.728  1.00  0.00    -0.593 Cl 
HETATM   15  O   UNL     1     -12.811  14.097  65.156  1.00  0.00    -0.686 OA 
HETATM   16  C   UNL     1     -11.580  12.809  66.833  1.00  0.00    -0.366 C  
HETATM   17  C   UNL     1     -12.250  12.755  70.455  1.00  0.00    -0.389 A  
ENDROOT
BRANCH   6  18
HETATM   18  C   UNL     1     -10.243  16.619  68.253  1.00  0.00    -0.281 A  
HETATM   19  C   UNL     1      -8.527  18.854  68.412  1.00  0.00    -0.385 A  
HETATM   20  C   UNL     1     -10.641  17.887  67.780  1.00  0.00    -0.399 A  
HETATM   21  C   UNL     1      -9.789  18.991  67.850  1.00  0.00    -0.400 A  
HETATM   22  C   UNL     1      -8.116  17.611  68.892  1.00  0.00    -0.162 A  
HETATM   23  C   UNL     1      -8.953  16.489  68.797  1.00  0.00    -0.250 A  
HETATM   24 CL   UNL     1      -8.245  14.990  69.292  1.00  0.00    -0.183 Cl 
ENDBRANCH   6  18
TORSDOF 1
ENDMDL
MODEL        5
REMARK 921   NORMALIZED FREE ENERGY PREDICTED BY IDOCK:   -7.21 KCAL/MOL
REMARK 922        TOTAL FREE ENERGY PREDICTED BY IDOCK:   -8.28 KCAL/MOL
REMARK 923 INTER-LIGAND FREE ENERGY PREDICTED BY IDOCK:   -8.01 KCAL/MOL
REMARK 924 INTRA-LIGAND FREE ENERGY PREDICTED BY IDOCK:   -0.27 KCAL/MOL
REMARK 927      BINDING AFFINITY PREDICTED BY RF-SCORE:    0.00 PKD
ROOT
HETATM    1  C   UNL     1      -8.316  12.270  67.484  1.00  0.00    -0.170 C  
HETATM    2  N   UNL     1      -9.742  12.390  67.740  1.00  0.00    -0.195 N  
HETATM    3  C   UNL     1     -10.354  11.611  68.770  1.00  0.00    -0.195 A  
HETATM    4  C   UNL     1     -11.476  12.050  69.510  1.00  0.00    -0.351 A  
HETATM    5  C   UNL     1     -12.086  11.208  70.457  1.00  0.00    -0.474 A  
HETATM    6  C   UNL     1     -11.999  13.443  69.388  1.00  0.00    -0.315 C  
HETATM    7  C   UNL     1     -11.533   9.961  70.732  1.00  0.00    -0.354 A  
HETATM    8  N   UNL     1     -12.276  13.991  68.251  1.00  0.00    -0.540 NA 
HETATM    9  H   UNL     1     -12.434  13.377  65.100  1.00  0.00     0.000 HD 
HETATM   10  O   UNL     1      -9.896  13.898  65.996  1.00  0.00    -0.299 OA 
HETATM   11  C   UNL     1     -10.401   9.529  70.051  1.00  0.00    -0.284 A  
HETATM   12  C   UNL     1     -12.004  13.255  67.030  1.00  0.00    -0.365 C  
HETATM   13  H   UNL     1     -12.680  14.927  68.212  1.00  0.00     0.000 HD 
HETATM   14 CL   UNL     1     -12.228   8.965  71.948  1.00  0.00    -0.416 Cl 
HETATM   15  O   UNL     1     -12.612  13.859  65.898  1.00  0.00    -0.478 OA 
HETATM   16  C   UNL     1     -10.457  13.230  66.871  1.00  0.00    -0.261 C  
HETATM   17  C   UNL     1      -9.825  10.344  69.071  1.00  0.00    -0.222 A  
ENDROOT
BRANCH   6  18
HETATM   18  C   UNL     1     -12.244  14.291  70.612  1.00  0.00    -0.427 A  
HETATM   19  C   UNL     1     -13.005  15.836  72.848  1.00  0.00    -0.600 A  
HETATM   20  C   UNL     1     -13.424  14.011  71.332  1.00  0.00    -0.360 A  
HETATM   21  C   UNL     1     -13.806  14.781  72.433  1.00  0.00    -0.578 A  
HETATM   22  C   UNL     1     -11.831  16.126  72.155  1.00  0.00    -0.626 A  
HETATM   23  C   UNL     1     -11.455  15.377  71.028  1.00  0.00    -0.364 A  
HETATM   24 CL   UNL     1     -10.059  15.954  70.186  1.00  0.00    -0.137 Cl 
ENDBRANCH   6  18
TORSDOF 1
ENDMDL
MODEL        6
REMARK 921   NORMALIZED FREE ENERGY PREDICTED BY IDOCK:   -6.96 KCAL/MOL
REMARK 922        TOTAL FREE ENERGY PREDICTED BY IDOCK:   -8.02 KCAL/MOL
REMARK 923 INTER-LIGAND FREE ENERGY PREDICTED BY IDOCK:   -7.36 KCAL/MOL
REMARK 924 INTRA-LIGAND FREE ENERGY PREDICTED BY IDOCK:   -0.66 KCAL/MOL
REMARK 927      BINDING AFFINITY PREDICTED BY RF-SCORE:    0.00 PKD
ROOT
HETATM    1  C   UNL     1     -11.113  16.463  64.928  1.00  0.00    -0.239 C  
HETATM    2  N   UNL     1     -10.894  15.100  65.384  1.00  0.00    -0.357 N  
HETATM    3  C   UNL     1      -9.841  14.812  66.306  1.00  0.00    -0.296 A  
HETATM    4  C   UNL     1      -9.909  13.769  67.259  1.00  0.00    -0.241 A  
HETATM    5  C   UNL     1      -8.809  13.481  68.087  1.00  0.00    -0.179 A  
HETATM    6  C   UNL     1     -11.165  12.997  67.488  1.00  0.00    -0.284 C  
HETATM    7  C   UNL     1      -7.672  14.281  68.032  1.00  0.00    -0.141 A  
HETATM    8  N   UNL     1     -11.834  12.444  66.529  1.00  0.00    -0.563 NA 
HETATM    9  H   UNL     1     -11.755  11.879  63.367  1.00  0.00     0.000 HD 
HETATM   10  O   UNL     1     -12.618  14.399  64.014  1.00  0.00    -0.764 OA 
HETATM   11  C   UNL     1      -7.604  15.342  67.138  1.00  0.00    -0.238 A  
HETATM   12  C   UNL     1     -11.391  12.636  65.161  1.00  0.00    -0.308 C  
HETATM   13  H   UNL     1     -12.661  11.882  66.732  1.00  0.00     0.000 HD 
HETATM   14 CL   UNL     1      -6.361  13.981  69.101  1.00  0.00    -0.102 Cl 
HETATM   15  O   UNL     1     -12.045  11.753  64.262  1.00  0.00    -0.263 OA 
HETATM   16  C   UNL     1     -11.709  14.115  64.801  1.00  0.00    -0.410 C  
HETATM   17  C   UNL     1      -8.676  15.598  66.276  1.00  0.00    -0.325 A  
ENDROOT
BRANCH   6  18
HETATM   18  C   UNL     1     -11.722  12.813  68.879  1.00  0.00    -0.370 A  
HETATM   19  C   UNL     1     -12.889  12.205  71.375  1.00  0.00    -0.378 A  
HETATM   20  C   UNL     1     -11.907  11.479  69.298  1.00  0.00    -0.414 A  
HETATM   21  C   UNL     1     -12.493  11.177  70.529  1.00  0.00    -0.414 A  
HETATM   22  C   UNL     1     -12.709  13.531  70.983  1.00  0.00    -0.399 A  
HETATM   23  C   UNL     1     -12.150  13.843  69.734  1.00  0.00    -0.345 A  
HETATM   24 CL   UNL     1     -12.135  15.524  69.327  1.00  0.00    -0.331 Cl 
ENDBRANCH   6  18
TORSDOF 1
ENDMDL
MODEL        7
REMARK 921   NORMALIZED FREE ENERGY PREDICTED BY IDOCK:   -6.95 KCAL/MOL
REMARK 922        TOTAL FREE ENERGY PREDICTED BY IDOCK:   -8.01 KCAL/MOL
REMARK 923 INTER-LIGAND FREE ENERGY PREDICTED BY IDOCK:   -7.35 KCAL/MOL
REMARK 924 INTRA-LIGAND FREE ENERGY PREDICTED BY IDOCK:   -0.66 KCAL/MOL
REMARK 927      BINDING AFFINITY PREDICTED BY RF-SCORE:    0.00 PKD
ROOT
HETATM    1  C   UNL     1     -11.013  16.690  64.730  1.00  0.00    -0.109 C  
HETATM    2  N   UNL     1     -10.971  15.406  65.409  1.00  0.00    -0.362 N  
HETATM    3  C   UNL     1      -9.957  15.140  66.380  1.00  0.00    -0.272 A  
HETATM    4  C   UNL     1     -10.152  14.288  67.492  1.00  0.00    -0.236 A  
HETATM    5  C   UNL     1      -9.092  14.001  68.371  1.00  0.00    -0.191 A  
HETATM    6  C   UNL     1     -11.497  13.736  67.829  1.00  0.00    -0.322 C  
HETATM    7  C   UNL     1      -7.861  14.626  68.198  1.00  0.00    -0.128 A  
HETATM    8  N   UNL     1     -12.241  13.123  66.967  1.00  0.00    -0.320 NA 
HETATM    9  H   UNL     1     -12.263  12.034  63.943  1.00  0.00     0.000 HD 
HETATM   10  O   UNL     1     -12.784  14.717  64.152  1.00  0.00    -0.758 OA 
HETATM   11  C   UNL     1      -7.662  15.505  67.142  1.00  0.00    -0.257 A  
HETATM   12  C   UNL     1     -11.788  13.025  65.591  1.00  0.00    -0.399 C  
HETATM   13  H   UNL     1     -13.132  12.715  67.249  1.00  0.00     0.000 HD 
HETATM   14 CL   UNL     1      -6.591  14.339  69.321  1.00  0.00    -0.113 Cl 
HETATM   15  O   UNL     1     -12.560  12.098  64.843  1.00  0.00    -0.500 OA 
HETATM   16  C   UNL     1     -11.913  14.453  64.987  1.00  0.00    -0.412 C  
HETATM   17  C   UNL     1      -8.699  15.751  66.235  1.00  0.00    -0.358 A  
ENDROOT
BRANCH   6  18
HETATM   18  C   UNL     1     -12.061  13.860  69.224  1.00  0.00    -0.383 A  
HETATM   19  C   UNL     1     -12.988  14.374  71.839  1.00  0.00    -0.426 A  
HETATM   20  C   UNL     1     -12.384  15.167  69.645  1.00  0.00    -0.242 A  
HETATM   21  C   UNL     1     -12.834  15.423  70.942  1.00  0.00    -0.536 A  
HETATM   22  C   UNL     1     -12.680  13.074  71.441  1.00  0.00    -0.375 A  
HETATM   23  C   UNL     1     -12.197  12.811  70.149  1.00  0.00    -0.249 A  
HETATM   24 CL   UNL     1     -11.714  11.176  69.856  1.00  0.00    -0.397 Cl 
ENDBRANCH   6  18
TORSDOF 1
ENDMDL
MODEL        8
REMARK 921   NORMALIZED FREE ENERGY PREDICTED BY IDOCK:   -6.91 KCAL/MOL
REMARK 922        TOTAL FREE ENERGY PREDICTED BY IDOCK:   -7.96 KCAL/MOL
REMARK 923 INTER-LIGAND FREE ENERGY PREDICTED BY IDOCK:   -7.30 KCAL/MOL
REMARK 924 INTRA-LIGAND FREE ENERGY PREDICTED BY IDOCK:   -0.66 KCAL/MOL
REMARK 927      BINDING AFFINITY PREDICTED BY RF-SCORE:    0.00 PKD
ROOT
HETATM    1  C   UNL     1     -10.904  18.626  67.483  1.00  0.00    -0.317 C  
HETATM    2  N   UNL     1     -10.164  17.375  67.443  1.00  0.00    -0.316 N  
HETATM    3  C   UNL     1     -10.658  16.227  68.135  1.00  0.00    -0.307 A  
HETATM    4  C   UNL     1     -10.433  14.901  67.696  1.00  0.00    -0.249 A  
HETATM    5  C   UNL     1     -10.876  13.807  68.460  1.00  0.00    -0.280 A  
HETATM    6  C   UNL     1      -9.805  14.610  66.374  1.00  0.00    -0.285 C  
HETATM    7  C   UNL     1     -11.617  14.026  69.617  1.00  0.00    -0.289 A  
HETATM    8  N   UNL     1      -8.692  15.145  65.992  1.00  0.00    -0.374 NA 
HETATM    9  H   UNL     1      -6.306  17.049  66.998  1.00  0.00     0.000 HD 
HETATM   10  O   UNL     1      -8.535  18.417  66.177  1.00  0.00    -0.445 OA 
HETATM   11  C   UNL     1     -11.892  15.320  70.041  1.00  0.00    -0.365 A  
HETATM   12  C   UNL     1      -8.053  16.127  66.849  1.00  0.00    -0.240 C  
HETATM   13  H   UNL     1      -8.269  14.882  65.102  1.00  0.00     0.000 HD 
HETATM   14 CL   UNL     1     -12.229  12.689  70.507  1.00  0.00    -0.433 Cl 
HETATM   15  O   UNL     1      -6.724  16.407  66.437  1.00  0.00    -0.186 OA 
HETATM   16  C   UNL     1      -8.930  17.409  66.774  1.00  0.00    -0.254 C  
HETATM   17  C   UNL     1     -11.407  16.410  69.310  1.00  0.00    -0.225 A  
ENDROOT
BRANCH   6  18
HETATM   18  C   UNL     1     -10.448  13.650  65.402  1.00  0.00    -0.333 A  
HETATM   19  C   UNL     1     -11.914  12.009  63.636  1.00  0.00    -0.612 A  
HETATM   20  C   UNL     1     -11.544  14.153  64.670  1.00  0.00    -0.414 A  
HETATM   21  C   UNL     1     -12.276  13.339  63.803  1.00  0.00    -0.508 A  
HETATM   22  C   UNL     1     -10.830  11.493  64.345  1.00  0.00    -0.405 A  
HETATM   23  C   UNL     1     -10.109  12.295  65.242  1.00  0.00    -0.271 A  
HETATM   24 CL   UNL     1      -8.894  11.475  66.160  1.00  0.00    -0.192 Cl 
ENDBRANCH   6  18
TORSDOF 1
ENDMDL
MODEL        9
REMARK 921   NORMALIZED FREE ENERGY PREDICTED BY IDOCK:   -6.87 KCAL/MOL
REMARK 922        TOTAL FREE ENERGY PREDICTED BY IDOCK:   -7.92 KCAL/MOL
REMARK 923 INTER-LIGAND FREE ENERGY PREDICTED BY IDOCK:   -7.34 KCAL/MOL
REMARK 924 INTRA-LIGAND FREE ENERGY PREDICTED BY IDOCK:   -0.58 KCAL/MOL
REMARK 927      BINDING AFFINITY PREDICTED BY RF-SCORE:    0.00 PKD
ROOT
HETATM    1  C   UNL     1     -10.743  18.611  67.550  1.00  0.00    -0.394 C  
HETATM    2  N   UNL     1     -10.063  17.327  67.523  1.00  0.00    -0.304 N  
HETATM    3  C   UNL     1     -10.618  16.206  68.214  1.00  0.00    -0.288 A  
HETATM    4  C   UNL     1     -10.452  14.869  67.782  1.00  0.00    -0.255 A  
HETATM    5  C   UNL     1     -10.955  13.801  68.547  1.00  0.00    -0.283 A  
HETATM    6  C   UNL     1      -9.825  14.543  66.468  1.00  0.00    -0.285 C  
HETATM    7  C   UNL     1     -11.696  14.060  69.695  1.00  0.00    -0.311 A  
HETATM    8  N   UNL     1      -8.684  15.022  66.096  1.00  0.00    -0.436 NA 
HETATM    9  H   UNL     1      -6.220  16.815  67.120  1.00  0.00     0.000 HD 
HETATM   10  O   UNL     1      -8.373  18.284  66.270  1.00  0.00    -0.371 OA 
HETATM   11  C   UNL     1     -11.914  15.367  70.110  1.00  0.00    -0.378 A  
HETATM   12  C   UNL     1      -8.008  15.976  66.956  1.00  0.00    -0.227 C  
HETATM   13  H   UNL     1      -8.265  14.735  65.211  1.00  0.00     0.000 HD 
HETATM   14 CL   UNL     1     -12.381  12.757  70.583  1.00  0.00    -0.426 Cl 
HETATM   15  O   UNL     1      -6.662  16.191  66.557  1.00  0.00    -0.195 OA 
HETATM   16  C   UNL     1      -8.821  17.299  66.867  1.00  0.00    -0.240 C  
HETATM   17  C   UNL     1     -11.370  16.430  69.381  1.00  0.00    -0.213 A  
ENDROOT
BRANCH   6  18
HETATM   18  C   UNL     1     -10.503  13.610  65.494  1.00  0.00    -0.314 A  
HETATM   19  C   UNL     1     -11.498  11.719  63.650  1.00  0.00    -0.524 A  
HETATM   20  C   UNL     1      -9.997  12.294  65.445  1.00  0.00    -0.264 A  
HETATM   21  C   UNL     1     -10.482  11.361  64.526  1.00  0.00    -0.381 A  
HETATM   22  C   UNL     1     -12.017  13.013  63.686  1.00  0.00    -0.608 A  
HETATM   23  C   UNL     1     -11.514  13.967  64.585  1.00  0.00    -0.377 A  
HETATM   24 CL   UNL     1     -12.149  15.565  64.404  1.00  0.00    -0.271 Cl 
ENDBRANCH   6  18
TORSDOF 1
ENDMDL
MODEL       10
REMARK 921   NORMALIZED FREE ENERGY PREDICTED BY IDOCK:   -6.83 KCAL/MOL
REMARK 922        TOTAL FREE ENERGY PREDICTED BY IDOCK:   -7.88 KCAL/MOL
REMARK 923 INTER-LIGAND FREE ENERGY PREDICTED BY IDOCK:   -7.22 KCAL/MOL
REMARK 924 INTRA-LIGAND FREE ENERGY PREDICTED BY IDOCK:   -0.66 KCAL/MOL
REMARK 927      BINDING AFFINITY PREDICTED BY RF-SCORE:    0.00 PKD
ROOT
HETATM    1  C   UNL     1     -10.754  17.608  65.363  1.00  0.00     0.042 C  
HETATM    2  N   UNL     1     -10.649  16.159  65.431  1.00  0.00    -0.398 N  
HETATM    3  C   UNL     1      -9.597  15.551  66.182  1.00  0.00    -0.330 A  
HETATM    4  C   UNL     1      -9.729  14.300  66.829  1.00  0.00    -0.282 A  
HETATM    5  C   UNL     1      -8.634  13.713  67.488  1.00  0.00    -0.197 A  
HETATM    6  C   UNL     1     -11.044  13.600  66.919  1.00  0.00    -0.304 C  
HETATM    7  C   UNL     1      -7.430  14.405  67.580  1.00  0.00    -0.175 A  
HETATM    8  N   UNL     1     -11.794  13.380  65.889  1.00  0.00    -0.357 NA 
HETATM    9  H   UNL     1     -11.874  13.675  62.689  1.00  0.00     0.000 HD 
HETATM   10  O   UNL     1     -12.476  15.992  64.026  1.00  0.00    -0.703 OA 
HETATM   11  C   UNL     1      -7.293  15.657  66.995  1.00  0.00    -0.203 A  
HETATM   12  C   UNL     1     -11.381  13.894  64.596  1.00  0.00    -0.375 C  
HETATM   13  H   UNL     1     -12.662  12.853  65.983  1.00  0.00     0.000 HD 
HETATM   14 CL   UNL     1      -6.117  13.724  68.456  1.00  0.00    -0.085 Cl 
HETATM   15  O   UNL     1     -12.145  13.339  63.535  1.00  0.00    -0.547 OA 
HETATM   16  C   UNL     1     -11.571  15.436  64.657  1.00  0.00    -0.311 C  
HETATM   17  C   UNL     1      -8.365  16.219  66.293  1.00  0.00    -0.343 A  
ENDROOT
BRANCH   6  18
HETATM   18  C   UNL     1     -11.568  13.097  68.242  1.00  0.00    -0.370 A  
HETATM   19  C   UNL     1     -12.427  12.412  70.841  1.00  0.00    -0.367 A  
HETATM   20  C   UNL     1     -11.908  14.087  69.188  1.00  0.00    -0.391 A  
HETATM   21  C   UNL     1     -12.324  13.748  70.478  1.00  0.00    -0.429 A  
HETATM   22  C   UNL     1     -12.102  11.418  69.919  1.00  0.00    -0.404 A  
HETATM   23  C   UNL     1     -11.653  11.749  68.631  1.00  0.00    -0.309 A  
HETATM   24 CL   UNL     1     -11.143  10.414  67.657  1.00  0.00    -0.379 Cl 
ENDBRANCH   6  18
TORSDOF 1
ENDMDL
MODEL       11
REMARK 921   NORMALIZED FREE ENERGY PREDICTED BY IDOCK:   -6.83 KCAL/MOL
REMARK 922        TOTAL FREE ENERGY PREDICTED BY IDOCK:   -7.88 KCAL/MOL
REMARK 923 INTER-LIGAND FREE ENERGY PREDICTED BY IDOCK:   -7.24 KCAL/MOL
REMARK 924 INTRA-LIGAND FREE ENERGY PREDICTED BY IDOCK:   -0.63 KCAL/MOL
REMARK 927      BINDING AFFINITY PREDICTED BY RF-SCORE:    0.00 PKD
ROOT
HETATM    1  C   UNL     1      -8.885  19.912  67.642  1.00  0.00    -0.334 C  
HETATM    2  N   UNL     1      -9.101  18.485  67.471  1.00  0.00    -0.277 N  
HETATM    3  C   UNL     1      -8.359  17.548  68.254  1.00  0.00    -0.265 A  
HETATM    4  C   UNL     1      -8.869  16.288  68.645  1.00  0.00    -0.226 A  
HETATM    5  C   UNL     1      -8.064  15.374  69.348  1.00  0.00    -0.249 A  
HETATM    6  C   UNL     1     -10.295  15.915  68.412  1.00  0.00    -0.240 C  
HETATM    7  C   UNL     1      -6.780  15.741  69.739  1.00  0.00    -0.140 A  
HETATM    8  N   UNL     1     -10.870  16.020  67.259  1.00  0.00    -0.293 NA 
HETATM    9  H   UNL     1     -10.291  16.759  64.185  1.00  0.00     0.000 HD 
HETATM   10  O   UNL     1     -10.629  18.949  65.800  1.00  0.00    -0.532 OA 
HETATM   11  C   UNL     1      -6.276  16.993  69.408  1.00  0.00    -0.232 A  
HETATM   12  C   UNL     1     -10.125  16.593  66.152  1.00  0.00    -0.345 C  
HETATM   13  H   UNL     1     -11.832  15.707  67.129  1.00  0.00     0.000 HD 
HETATM   14 CL   UNL     1      -5.826  14.656  70.669  1.00  0.00    -0.163 Cl 
HETATM   15  O   UNL     1     -10.778  16.385  64.909  1.00  0.00    -0.675 OA 
HETATM   16  C   UNL     1      -9.995  18.113  66.453  1.00  0.00    -0.376 C  
HETATM   17  C   UNL     1      -7.056  17.883  68.663  1.00  0.00    -0.266 A  
ENDROOT
BRANCH   6  18
HETATM   18  C   UNL     1     -11.150  15.375  69.533  1.00  0.00    -0.284 A  
HETATM   19  C   UNL     1     -12.590  14.554  71.817  1.00  0.00    -0.417 A  
HETATM   20  C   UNL     1     -11.387  16.257  70.608  1.00  0.00    -0.321 A  
HETATM   21  C   UNL     1     -12.091  15.848  71.743  1.00  0.00    -0.567 A  
HETATM   22  C   UNL     1     -12.373  13.669  70.763  1.00  0.00    -0.446 A  
HETATM   23  C   UNL     1     -11.639  14.061  69.632  1.00  0.00    -0.289 A  
HETATM   24 CL   UNL     1     -11.322  12.808  68.482  1.00  0.00    -0.303 Cl 
ENDBRANCH   6  18
TORSDOF 1
ENDMDL
MODEL       12
REMARK 921   NORMALIZED FREE ENERGY PREDICTED BY IDOCK:   -6.75 KCAL/MOL
REMARK 922        TOTAL FREE ENERGY PREDICTED BY IDOCK:   -7.80 KCAL/MOL
REMARK 923 INTER-LIGAND FREE ENERGY PREDICTED BY IDOCK:   -7.14 KCAL/MOL
REMARK 924 INTRA-LIGAND FREE ENERGY PREDICTED BY IDOCK:   -0.66 KCAL/MOL
REMARK 927      BINDING AFFINITY PREDICTED BY RF-SCORE:    0.00 PKD
ROOT
HETATM    1  C   UNL     1     -11.525  12.191  66.085  1.00  0.00    -0.371 C  
HETATM    2  N   UNL     1     -11.405  13.635  66.193  1.00  0.00    -0.307 N  
HETATM    3  C   UNL     1     -11.400  14.260  67.478  1.00  0.00    -0.326 A  
HETATM    4  C   UNL     1     -10.697  15.456  67.756  1.00  0.00    -0.289 A  
HETATM    5  C   UNL     1     -10.794  16.069  69.018  1.00  0.00    -0.283 A  
HETATM    6  C   UNL     1      -9.761  16.062  66.765  1.00  0.00    -0.239 C  
HETATM    7  C   UNL     1     -11.518  15.452  70.033  1.00  0.00    -0.316 A  
HETATM    8  N   UNL     1     -10.094  16.300  65.539  1.00  0.00    -0.536 NA 
HETATM    9  H   UNL     1     -12.589  16.207  63.515  1.00  0.00     0.000 HD 
HETATM   10  O   UNL     1     -11.381  13.775  63.887  1.00  0.00    -0.240 OA 
HETATM   11  C   UNL     1     -12.176  14.252  69.797  1.00  0.00    -0.390 A  
HETATM   12  C   UNL     1     -11.410  15.898  65.077  1.00  0.00    -0.193 C  
HETATM   13  H   UNL     1      -9.442  16.762  64.905  1.00  0.00     0.000 HD 
HETATM   14 CL   UNL     1     -11.569  16.158  71.600  1.00  0.00    -0.529 Cl 
HETATM   15  O   UNL     1     -11.728  16.470  63.817  1.00  0.00    -1.086 OA 
HETATM   16  C   UNL     1     -11.385  14.346  64.982  1.00  0.00    -0.373 C  
HETATM   17  C   UNL     1     -12.126  13.668  68.527  1.00  0.00    -0.321 A  
ENDROOT
BRANCH   6  18
HETATM   18  C   UNL     1      -8.354  16.444  67.157  1.00  0.00    -0.214 A  
HETATM   19  C   UNL     1      -5.757  17.404  67.704  1.00  0.00    -0.144 A  
HETATM   20  C   UNL     1      -8.064  17.825  67.148  1.00  0.00    -0.229 A  
HETATM   21  C   UNL     1      -6.776  18.300  67.409  1.00  0.00    -0.204 A  
HETATM   22  C   UNL     1      -6.024  16.036  67.724  1.00  0.00    -0.162 A  
HETATM   23  C   UNL     1      -7.307  15.548  67.432  1.00  0.00    -0.210 A  
HETATM   24 CL   UNL     1      -7.444  13.825  67.345  1.00  0.00    -0.175 Cl 
ENDBRANCH   6  18
TORSDOF 1
ENDMDL
MODEL       13
REMARK 921   NORMALIZED FREE ENERGY PREDICTED BY IDOCK:   -6.71 KCAL/MOL
REMARK 922        TOTAL FREE ENERGY PREDICTED BY IDOCK:   -7.75 KCAL/MOL
REMARK 923 INTER-LIGAND FREE ENERGY PREDICTED BY IDOCK:   -7.74 KCAL/MOL
REMARK 924 INTRA-LIGAND FREE ENERGY PREDICTED BY IDOCK:   -0.01 KCAL/MOL
REMARK 927      BINDING AFFINITY PREDICTED BY RF-SCORE:    0.00 PKD
ROOT
HETATM    1  C   UNL     1     -12.411  15.031  64.471  1.00  0.00    -0.262 C  
HETATM    2  N   UNL     1     -11.789  14.267  65.540  1.00  0.00    -0.353 N  
HETATM    3  C   UNL     1     -10.844  14.891  66.412  1.00  0.00    -0.325 A  
HETATM    4  C   UNL     1     -10.671  14.513  67.764  1.00  0.00    -0.256 A  
HETATM    5  C   UNL     1      -9.670  15.108  68.553  1.00  0.00    -0.214 A  
HETATM    6  C   UNL     1     -11.589  13.544  68.431  1.00  0.00    -0.343 C  
HETATM    7  C   UNL     1      -8.897  16.139  68.028  1.00  0.00    -0.181 A  
HETATM    8  N   UNL     1     -11.875  12.387  67.929  1.00  0.00    -0.411 NA 
HETATM    9  H   UNL     1     -11.151  10.422  65.491  1.00  0.00     0.000 HD 
HETATM   10  O   UNL     1     -12.937  12.393  64.825  1.00  0.00    -0.786 OA 
HETATM   11  C   UNL     1      -9.085  16.560  66.718  1.00  0.00    -0.262 A  
HETATM   12  C   UNL     1     -11.339  12.034  66.627  1.00  0.00    -0.340 C  
HETATM   13  H   UNL     1     -12.467  11.733  68.440  1.00  0.00     0.000 HD 
HETATM   14 CL   UNL     1      -7.731  16.924  69.018  1.00  0.00    -0.231 Cl 
HETATM   15  O   UNL     1     -11.502  10.653  66.342  1.00  0.00     0.042 OA 
HETATM   16  C   UNL     1     -12.108  12.900  65.589  1.00  0.00    -0.458 C  
HETATM   17  C   UNL     1     -10.043  15.933  65.915  1.00  0.00    -0.376 A  
ENDROOT
BRANCH   6  18
HETATM   18  C   UNL     1     -12.236  13.871  69.755  1.00  0.00    -0.388 A  
HETATM   19  C   UNL     1     -13.299  14.756  72.215  1.00  0.00    -0.488 A  
HETATM   20  C   UNL     1     -12.500  15.236  69.993  1.00  0.00    -0.330 A  
HETATM   21  C   UNL     1     -13.017  15.676  71.213  1.00  0.00    -0.556 A  
HETATM   22  C   UNL     1     -13.051  13.402  71.998  1.00  0.00    -0.473 A  
HETATM   23  C   UNL     1     -12.502  12.954  70.786  1.00  0.00    -0.286 A  
HETATM   24 CL   UNL     1     -12.109  11.271  70.727  1.00  0.00    -0.462 Cl 
ENDBRANCH   6  18
TORSDOF 1
ENDMDL
MODEL       14
REMARK 921   NORMALIZED FREE ENERGY PREDICTED BY IDOCK:   -6.65 KCAL/MOL
REMARK 922        TOTAL FREE ENERGY PREDICTED BY IDOCK:   -7.69 KCAL/MOL
REMARK 923 INTER-LIGAND FREE ENERGY PREDICTED BY IDOCK:   -7.09 KCAL/MOL
REMARK 924 INTRA-LIGAND FREE ENERGY PREDICTED BY IDOCK:   -0.61 KCAL/MOL
REMARK 927      BINDING AFFINITY PREDICTED BY RF-SCORE:    0.00 PKD
ROOT
HETATM    1  C   UNL     1      -9.424  16.791  67.550  1.00  0.00    -0.237 C  
HETATM    2  N   UNL     1     -10.518  15.898  67.894  1.00  0.00    -0.279 N  
HETATM    3  C   UNL     1     -10.973  14.925  66.950  1.00  0.00    -0.327 A  
HETATM    4  C   UNL     1     -11.519  13.676  67.328  1.00  0.00    -0.370 A  
HETATM    5  C   UNL     1     -12.024  12.791  66.358  1.00  0.00    -0.443 A  
HETATM    6  C   UNL     1     -11.498  13.208  68.744  1.00  0.00    -0.307 C  
HETATM    7  C   UNL     1     -11.912  13.107  65.008  1.00  0.00    -0.383 A  
HETATM    8  N   UNL     1     -11.931  13.926  69.728  1.00  0.00    -0.319 NA 
HETATM    9  H   UNL     1     -13.394  16.709  70.395  1.00  0.00     0.000 HD 
HETATM   10  O   UNL     1     -10.703  16.961  69.937  1.00  0.00    -0.257 OA 
HETATM   11  C   UNL     1     -11.335  14.307  64.613  1.00  0.00    -0.375 A  
HETATM   12  C   UNL     1     -12.395  15.276  69.461  1.00  0.00    -0.175 C  
HETATM   13  H   UNL     1     -11.947  13.551  70.676  1.00  0.00     0.000 HD 
HETATM   14 CL   UNL     1     -12.454  11.989  63.820  1.00  0.00    -0.606 Cl 
HETATM   15  O   UNL     1     -13.091  15.827  70.570  1.00  0.00    -0.461 OA 
HETATM   16  C   UNL     1     -11.127  16.118  69.139  1.00  0.00    -0.329 C  
HETATM   17  C   UNL     1     -10.880  15.212  65.577  1.00  0.00    -0.373 A  
ENDROOT
BRANCH   6  18
HETATM   18  C   UNL     1     -10.968  11.841  69.104  1.00  0.00    -0.261 A  
HETATM   19  C   UNL     1     -10.135   9.313  70.041  1.00  0.00    -0.240 A  
HETATM   20  C   UNL     1     -11.790  11.061  69.943  1.00  0.00    -0.431 A  
HETATM   21  C   UNL     1     -11.375   9.814  70.416  1.00  0.00    -0.362 A  
HETATM   22  C   UNL     1      -9.309  10.065  69.207  1.00  0.00    -0.224 A  
HETATM   23  C   UNL     1      -9.705  11.333  68.753  1.00  0.00    -0.174 A  
HETATM   24 CL   UNL     1      -8.512  12.206  67.856  1.00  0.00    -0.153 Cl 
ENDBRANCH   6  18
TORSDOF 1
ENDMDL
MODEL       15
REMARK 921   NORMALIZED FREE ENERGY PREDICTED BY IDOCK:   -6.53 KCAL/MOL
REMARK 922        TOTAL FREE ENERGY PREDICTED BY IDOCK:   -7.56 KCAL/MOL
REMARK 923 INTER-LIGAND FREE ENERGY PREDICTED BY IDOCK:   -7.37 KCAL/MOL
REMARK 924 INTRA-LIGAND FREE ENERGY PREDICTED BY IDOCK:   -0.20 KCAL/MOL
REMARK 927      BINDING AFFINITY PREDICTED BY RF-SCORE:    0.00 PKD
ROOT
HETATM    1  C   UNL     1      -7.289  15.296  67.532  1.00  0.00    -0.196 C  
HETATM    2  N   UNL     1      -8.663  15.759  67.645  1.00  0.00    -0.169 N  
HETATM    3  C   UNL     1      -9.719  15.029  67.017  1.00  0.00    -0.236 A  
HETATM    4  C   UNL     1     -11.036  14.976  67.531  1.00  0.00    -0.307 A  
HETATM    5  C   UNL     1     -12.054  14.307  66.827  1.00  0.00    -0.446 A  
HETATM    6  C   UNL     1     -11.378  15.540  68.869  1.00  0.00    -0.324 C  
HETATM    7  C   UNL     1     -11.750  13.618  65.658  1.00  0.00    -0.342 A  
HETATM    8  N   UNL     1     -11.068  16.744  69.224  1.00  0.00    -0.300 NA 
HETATM    9  H   UNL     1      -9.765  19.467  68.120  1.00  0.00     0.000 HD 
HETATM   10  O   UNL     1      -7.917  17.580  68.856  1.00  0.00    -0.257 OA 
HETATM   11  C   UNL     1     -10.452  13.616  65.161  1.00  0.00    -0.388 A  
HETATM   12  C   UNL     1     -10.291  17.566  68.315  1.00  0.00    -0.379 C  
HETATM   13  H   UNL     1     -11.364  17.110  70.129  1.00  0.00     0.000 HD 
HETATM   14 CL   UNL     1     -12.976  12.732  64.842  1.00  0.00    -0.374 Cl 
HETATM   15  O   UNL     1     -10.273  18.929  68.715  1.00  0.00    -0.377 OA 
HETATM   16  C   UNL     1      -8.851  16.978  68.315  1.00  0.00    -0.242 C  
HETATM   17  C   UNL     1      -9.449  14.325  65.831  1.00  0.00    -0.159 A  
ENDROOT
BRANCH   6  18
HETATM   18  C   UNL     1     -12.127  14.719  69.891  1.00  0.00    -0.381 A  
HETATM   19  C   UNL     1     -13.511  13.431  71.986  1.00  0.00    -0.584 A  
HETATM   20  C   UNL     1     -12.948  15.441  70.782  1.00  0.00    -0.510 A  
HETATM   21  C   UNL     1     -13.625  14.806  71.825  1.00  0.00    -0.485 A  
HETATM   22  C   UNL     1     -12.710  12.697  71.112  1.00  0.00    -0.347 A  
HETATM   23  C   UNL     1     -12.001  13.332  70.080  1.00  0.00    -0.318 A  
HETATM   24 CL   UNL     1     -10.932  12.313  69.179  1.00  0.00    -0.250 Cl 
ENDBRANCH   6  18
TORSDOF 1
ENDMDL
MODEL       16
REMARK 921   NORMALIZED FREE ENERGY PREDICTED BY IDOCK:   -6.47 KCAL/MOL
REMARK 922        TOTAL FREE ENERGY PREDICTED BY IDOCK:   -7.49 KCAL/MOL
REMARK 923 INTER-LIGAND FREE ENERGY PREDICTED BY IDOCK:   -6.84 KCAL/MOL
REMARK 924 INTRA-LIGAND FREE ENERGY PREDICTED BY IDOCK:   -0.65 KCAL/MOL
REMARK 927      BINDING AFFINITY PREDICTED BY RF-SCORE:    0.00 PKD
ROOT
HETATM    1  C   UNL     1     -13.140  15.461  70.710  1.00  0.00    -0.424 C  
HETATM    2  N   UNL     1     -11.962  14.812  70.159  1.00  0.00    -0.292 N  
HETATM    3  C   UNL     1     -11.875  13.386  70.132  1.00  0.00    -0.272 A  
HETATM    4  C   UNL     1     -11.173  12.671  69.133  1.00  0.00    -0.300 A  
HETATM    5  C   UNL     1     -11.054  11.271  69.202  1.00  0.00    -0.312 A  
HETATM    6  C   UNL     1     -10.612  13.353  67.930  1.00  0.00    -0.245 C  
HETATM    7  C   UNL     1     -11.704  10.571  70.213  1.00  0.00    -0.332 A  
HETATM    8  N   UNL     1      -9.857  14.399  68.003  1.00  0.00    -0.216 NA 
HETATM    9  H   UNL     1      -8.369  16.321  70.106  1.00  0.00     0.000 HD 
HETATM   10  O   UNL     1     -11.030  16.893  69.782  1.00  0.00    -0.231 OA 
HETATM   11  C   UNL     1     -12.441  11.249  71.176  1.00  0.00    -0.479 A  
HETATM   12  C   UNL     1      -9.594  14.986  69.305  1.00  0.00    -0.180 C  
HETATM   13  H   UNL     1      -9.452  14.806  67.160  1.00  0.00     0.000 HD 
HETATM   14 CL   UNL     1     -11.628   8.854  70.250  1.00  0.00    -0.122 Cl 
HETATM   15  O   UNL     1      -8.541  15.938  69.255  1.00  0.00    -0.246 OA 
HETATM   16  C   UNL     1     -10.920  15.663  69.755  1.00  0.00    -0.304 C  
HETATM   17  C   UNL     1     -12.516  12.645  71.140  1.00  0.00    -0.326 A  
ENDROOT
BRANCH   6  18
HETATM   18  C   UNL     1     -10.899  12.837  66.540  1.00  0.00    -0.280 A  
HETATM   19  C   UNL     1     -11.733  11.868  64.024  1.00  0.00    -0.469 A  
HETATM   20  C   UNL     1     -12.158  13.177  66.003  1.00  0.00    -0.495 A  
HETATM   21  C   UNL     1     -12.575  12.690  64.762  1.00  0.00    -0.530 A  
HETATM   22  C   UNL     1     -10.482  11.525  64.535  1.00  0.00    -0.369 A  
HETATM   23  C   UNL     1     -10.067  11.984  65.795  1.00  0.00    -0.238 A  
HETATM   24 CL   UNL     1      -8.559  11.349  66.356  1.00  0.00    -0.178 Cl 
ENDBRANCH   6  18
TORSDOF 1
ENDMDL
MODEL       17
REMARK 921   NORMALIZED FREE ENERGY PREDICTED BY IDOCK:   -6.46 KCAL/MOL
REMARK 922        TOTAL FREE ENERGY PREDICTED BY IDOCK:   -7.49 KCAL/MOL
REMARK 923 INTER-LIGAND FREE ENERGY PREDICTED BY IDOCK:   -6.83 KCAL/MOL
REMARK 924 INTRA-LIGAND FREE ENERGY PREDICTED BY IDOCK:   -0.67 KCAL/MOL
REMARK 927      BINDING AFFINITY PREDICTED BY RF-SCORE:    0.00 PKD
ROOT
HETATM    1  C   UNL     1      -9.243  10.066  64.844  1.00  0.00    -0.239 C  
HETATM    2  N   UNL     1     -10.227  11.043  65.279  1.00  0.00    -0.270 N  
HETATM    3  C   UNL     1     -10.659  11.069  66.641  1.00  0.00    -0.262 A  
HETATM    4  C   UNL     1     -11.063  12.251  67.304  1.00  0.00    -0.326 A  
HETATM    5  C   UNL     1     -11.554  12.203  68.621  1.00  0.00    -0.372 A  
HETATM    6  C   UNL     1     -10.900  13.595  66.676  1.00  0.00    -0.283 C  
HETATM    7  C   UNL     1     -11.566  10.996  69.312  1.00  0.00    -0.314 A  
HETATM    8  N   UNL     1     -11.326  13.871  65.487  1.00  0.00    -0.304 NA 
HETATM    9  H   UNL     1     -12.980  12.633  63.025  1.00  0.00     0.000 HD 
HETATM   10  O   UNL     1     -10.362  11.827  63.109  1.00  0.00    -0.386 OA 
HETATM   11  C   UNL     1     -11.127   9.831  68.697  1.00  0.00    -0.140 A  
HETATM   12  C   UNL     1     -11.926  12.814  64.693  1.00  0.00    -0.396 C  
HETATM   13  H   UNL     1     -11.242  14.816  65.113  1.00  0.00     0.000 HD 
HETATM   14 CL   UNL     1     -12.088  10.952  70.949  1.00  0.00    -0.451 Cl 
HETATM   15  O   UNL     1     -12.588  13.324  63.545  1.00  0.00    -0.728 OA 
HETATM   16  C   UNL     1     -10.764  11.868  64.277  1.00  0.00    -0.338 C  
HETATM   17  C   UNL     1     -10.688   9.866  67.369  1.00  0.00    -0.323 A  
ENDROOT
BRANCH   6  18
HETATM   18  C   UNL     1     -10.227  14.724  67.419  1.00  0.00    -0.236 A  
HETATM   19  C   UNL     1      -9.153  17.026  68.649  1.00  0.00    -0.271 A  
HETATM   20  C   UNL     1     -11.013  15.874  67.640  1.00  0.00    -0.298 A  
HETATM   21  C   UNL     1     -10.480  17.017  68.240  1.00  0.00    -0.363 A  
HETATM   22  C   UNL     1      -8.360  15.897  68.446  1.00  0.00    -0.174 A  
HETATM   23  C   UNL     1      -8.879  14.755  67.815  1.00  0.00    -0.175 A  
HETATM   24 CL   UNL     1      -7.734  13.499  67.496  1.00  0.00    -0.177 Cl 
ENDBRANCH   6  18
TORSDOF 1
ENDMDL
MODEL       18
REMARK 921   NORMALIZED FREE ENERGY PREDICTED BY IDOCK:   -6.44 KCAL/MOL
REMARK 922        TOTAL FREE ENERGY PREDICTED BY IDOCK:   -7.46 KCAL/MOL
REMARK 923 INTER-LIGAND FREE ENERGY PREDICTED BY IDOCK:   -6.88 KCAL/MOL
REMARK 924 INTRA-LIGAND FREE ENERGY PREDICTED BY IDOCK:   -0.58 KCAL/MOL
REMARK 927      BINDING AFFINITY PREDICTED BY RF-SCORE:    0.00 PKD
ROOT
HETATM    1  C   UNL     1      -9.575  16.966  66.924  1.00  0.00    -0.254 C  
HETATM    2  N   UNL     1     -10.509  15.975  67.436  1.00  0.00    -0.303 N  
HETATM    3  C   UNL     1     -11.024  14.962  66.570  1.00  0.00    -0.327 A  
HETATM    4  C   UNL     1     -11.380  13.668  67.019  1.00  0.00    -0.344 A  
HETATM    5  C   UNL     1     -11.957  12.737  66.137  1.00  0.00    -0.476 A  
HETATM    6  C   UNL     1     -11.078  13.209  68.406  1.00  0.00    -0.268 C  
HETATM    7  C   UNL     1     -12.103  13.056  64.791  1.00  0.00    -0.415 A  
HETATM    8  N   UNL     1     -11.404  13.887  69.457  1.00  0.00    -0.351 NA 
HETATM    9  H   UNL     1     -12.985  16.524  70.394  1.00  0.00     0.000 HD 
HETATM   10  O   UNL     1     -10.445  17.025  69.494  1.00  0.00    -0.295 OA 
HETATM   11  C   UNL     1     -11.715  14.304  64.319  1.00  0.00    -0.348 A  
HETATM   12  C   UNL     1     -12.029  15.187  69.289  1.00  0.00    -0.292 C  
HETATM   13  H   UNL     1     -11.225  13.516  70.390  1.00  0.00     0.000 HD 
HETATM   14 CL   UNL     1     -12.732  11.889  63.697  1.00  0.00    -0.595 Cl 
HETATM   15  O   UNL     1     -12.576  15.674  70.505  1.00  0.00    -0.432 OA 
HETATM   16  C   UNL     1     -10.917  16.142  68.769  1.00  0.00    -0.330 C  
HETATM   17  C   UNL     1     -11.190  15.251  65.205  1.00  0.00    -0.374 A  
ENDROOT
BRANCH   6  18
HETATM   18  C   UNL     1     -10.371  11.899  68.655  1.00  0.00    -0.218 A  
HETATM   19  C   UNL     1      -8.909   9.492  68.846  1.00  0.00    -0.137 A  
HETATM   20  C   UNL     1      -9.092  11.767  68.074  1.00  0.00    -0.180 A  
HETATM   21  C   UNL     1      -8.372  10.573  68.160  1.00  0.00    -0.119 A  
HETATM   22  C   UNL     1     -10.169   9.603  69.433  1.00  0.00    -0.220 A  
HETATM   23  C   UNL     1     -10.912  10.788  69.324  1.00  0.00    -0.241 A  
HETATM   24 CL   UNL     1     -12.516  10.720  69.970  1.00  0.00    -0.363 Cl 
ENDBRANCH   6  18
TORSDOF 1
ENDMDL
MODEL       19
REMARK 921   NORMALIZED FREE ENERGY PREDICTED BY IDOCK:   -6.33 KCAL/MOL
REMARK 922        TOTAL FREE ENERGY PREDICTED BY IDOCK:   -7.35 KCAL/MOL
REMARK 923 INTER-LIGAND FREE ENERGY PREDICTED BY IDOCK:   -6.69 KCAL/MOL
REMARK 924 INTRA-LIGAND FREE ENERGY PREDICTED BY IDOCK:   -0.66 KCAL/MOL
REMARK 927      BINDING AFFINITY PREDICTED BY RF-SCORE:    0.00 PKD
ROOT
HETATM    1  C   UNL     1     -10.596   9.995  67.253  1.00  0.00    -0.257 C  
HETATM    2  N   UNL     1     -10.837  11.347  66.778  1.00  0.00    -0.275 N  
HETATM    3  C   UNL     1     -11.176  12.383  67.702  1.00  0.00    -0.288 A  
HETATM    4  C   UNL     1     -10.825  13.740  67.509  1.00  0.00    -0.274 A  
HETATM    5  C   UNL     1     -11.255  14.728  68.413  1.00  0.00    -0.298 A  
HETATM    6  C   UNL     1      -9.918  14.164  66.403  1.00  0.00    -0.293 C  
HETATM    7  C   UNL     1     -11.960  14.362  69.555  1.00  0.00    -0.330 A  
HETATM    8  N   UNL     1     -10.106  13.823  65.170  1.00  0.00    -0.538 NA 
HETATM    9  H   UNL     1     -12.171  12.293  63.240  1.00  0.00     0.000 HD 
HETATM   10  O   UNL     1     -10.495  10.613  64.614  1.00  0.00    -0.336 OA 
HETATM   11  C   UNL     1     -12.273  13.029  69.790  1.00  0.00    -0.242 A  
HETATM   12  C   UNL     1     -11.205  12.931  64.848  1.00  0.00    -0.300 C  
HETATM   13  H   UNL     1      -9.493  14.175  64.436  1.00  0.00     0.000 HD 
HETATM   14 CL   UNL     1     -12.414  15.559  70.702  1.00  0.00    -0.458 Cl 
HETATM   15  O   UNL     1     -11.452  12.876  63.451  1.00  0.00    -0.475 OA 
HETATM   16  C   UNL     1     -10.801  11.528  65.386  1.00  0.00    -0.259 C  
HETATM   17  C   UNL     1     -11.893  12.050  68.865  1.00  0.00    -0.356 A  
ENDROOT
BRANCH   6  18
HETATM   18  C   UNL     1      -8.717  15.038  66.674  1.00  0.00    -0.289 A  
HETATM   19  C   UNL     1      -6.532  16.808  66.909  1.00  0.00    -0.243 A  
HETATM   20  C   UNL     1      -8.755  16.331  66.112  1.00  0.00    -0.353 A  
HETATM   21  C   UNL     1      -7.670  17.204  66.219  1.00  0.00    -0.350 A  
HETATM   22  C   UNL     1      -6.476  15.537  67.478  1.00  0.00    -0.186 A  
HETATM   23  C   UNL     1      -7.550  14.641  67.348  1.00  0.00    -0.192 A  
HETATM   24 CL   UNL     1      -7.270  13.053  67.972  1.00  0.00    -0.103 Cl 
ENDBRANCH   6  18
TORSDOF 1
ENDMDL
MODEL       20
REMARK 921   NORMALIZED FREE ENERGY PREDICTED BY IDOCK:   -6.32 KCAL/MOL
REMARK 922        TOTAL FREE ENERGY PREDICTED BY IDOCK:   -7.34 KCAL/MOL
REMARK 923 INTER-LIGAND FREE ENERGY PREDICTED BY IDOCK:   -6.71 KCAL/MOL
REMARK 924 INTRA-LIGAND FREE ENERGY PREDICTED BY IDOCK:   -0.63 KCAL/MOL
REMARK 927      BINDING AFFINITY PREDICTED BY RF-SCORE:    0.00 PKD
ROOT
HETATM    1  C   UNL     1     -11.772  12.716  68.333  1.00  0.00    -0.333 C  
HETATM    2  N   UNL     1     -11.135  13.834  69.009  1.00  0.00    -0.256 N  
HETATM    3  C   UNL     1      -9.783  14.182  68.703  1.00  0.00    -0.196 A  
HETATM    4  C   UNL     1      -9.289  15.505  68.773  1.00  0.00    -0.209 A  
HETATM    5  C   UNL     1      -7.929  15.777  68.538  1.00  0.00    -0.141 A  
HETATM    6  C   UNL     1     -10.194  16.668  69.007  1.00  0.00    -0.301 C  
HETATM    7  C   UNL     1      -7.075  14.749  68.148  1.00  0.00    -0.121 A  
HETATM    8  N   UNL     1     -11.042  16.714  69.982  1.00  0.00    -0.435 NA 
HETATM    9  H   UNL     1     -12.011  15.103  72.588  1.00  0.00     0.000 HD 
HETATM   10  O   UNL     1     -13.063  14.143  70.246  1.00  0.00    -0.154 OA 
HETATM   11  C   UNL     1      -7.551  13.450  68.025  1.00  0.00    -0.143 A  
HETATM   12  C   UNL     1     -11.176  15.559  70.851  1.00  0.00    -0.371 C  
HETATM   13  H   UNL     1     -11.607  17.548  70.138  1.00  0.00     0.000 HD 
HETATM   14 CL   UNL     1      -5.432  15.094  67.780  1.00  0.00    -0.122 Cl 
HETATM   15  O   UNL     1     -11.924  15.859  72.020  1.00  0.00    -0.420 OA 
HETATM   16  C   UNL     1     -11.892  14.462  70.012  1.00  0.00    -0.315 C  
HETATM   17  C   UNL     1      -8.891  13.169  68.311  1.00  0.00    -0.175 A  
ENDROOT
BRANCH   6  18
HETATM   18  C   UNL     1     -10.156  17.877  68.103  1.00  0.00    -0.368 A  
HETATM   19  C   UNL     1     -10.211  20.294  66.648  1.00  0.00    -0.491 A  
HETATM   20  C   UNL     1     -10.023  19.125  68.747  1.00  0.00    -0.493 A  
HETATM   21  C   UNL     1     -10.060  20.322  68.028  1.00  0.00    -0.451 A  
HETATM   22  C   UNL     1     -10.337  19.071  65.991  1.00  0.00    -0.512 A  
HETATM   23  C   UNL     1     -10.333  17.864  66.709  1.00  0.00    -0.355 A  
HETATM   24 CL   UNL     1     -10.654  16.445  65.775  1.00  0.00    -0.349 Cl 
ENDBRANCH   6  18
TORSDOF 1
ENDMDL
MODEL       21
REMARK 921   NORMALIZED FREE ENERGY PREDICTED BY IDOCK:   -6.28 KCAL/MOL
REMARK 922        TOTAL FREE ENERGY PREDICTED BY IDOCK:   -7.30 KCAL/MOL
REMARK 923 INTER-LIGAND FREE ENERGY PREDICTED BY IDOCK:   -7.64 KCAL/MOL
REMARK 924 INTRA-LIGAND FREE ENERGY PREDICTED BY IDOCK:    0.34 KCAL/MOL
REMARK 927      BINDING AFFINITY PREDICTED BY RF-SCORE:    0.00 PKD
ROOT
HETATM    1  C   UNL     1     -11.004  14.181  64.813  1.00  0.00    -0.400 C  
HETATM    2  N   UNL     1     -10.305  14.403  66.068  1.00  0.00    -0.297 N  
HETATM    3  C   UNL     1     -10.323  15.694  66.681  1.00  0.00    -0.289 A  
HETATM    4  C   UNL     1     -10.263  15.888  68.081  1.00  0.00    -0.232 A  
HETATM    5  C   UNL     1     -10.204  17.184  68.623  1.00  0.00    -0.336 A  
HETATM    6  C   UNL     1     -10.352  14.744  69.035  1.00  0.00    -0.243 C  
HETATM    7  C   UNL     1     -10.291  18.290  67.784  1.00  0.00    -0.401 A  
HETATM    8  N   UNL     1      -9.607  13.692  68.941  1.00  0.00    -0.413 NA 
HETATM    9  H   UNL     1      -7.155  12.450  67.274  1.00  0.00     0.000 HD 
HETATM   10  O   UNL     1      -9.579  12.210  66.015  1.00  0.00    -0.238 OA 
HETATM   11  C   UNL     1     -10.400  18.122  66.410  1.00  0.00    -0.404 A  
HETATM   12  C   UNL     1      -8.689  13.578  67.822  1.00  0.00    -0.189 C  
HETATM   13  H   UNL     1      -9.662  12.954  69.643  1.00  0.00     0.000 HD 
HETATM   14 CL   UNL     1     -10.302  19.874  68.453  1.00  0.00    -0.560 Cl 
HETATM   15  O   UNL     1      -7.756  12.524  68.006  1.00  0.00    -0.117 OA 
HETATM   16  C   UNL     1      -9.565  13.317  66.564  1.00  0.00    -0.264 C  
HETATM   17  C   UNL     1     -10.405  16.835  65.864  1.00  0.00    -0.341 A  
ENDROOT
BRANCH   6  18
HETATM   18  C   UNL     1     -11.330  14.765  70.184  1.00  0.00    -0.291 A  
HETATM   19  C   UNL     1     -12.959  14.992  72.478  1.00  0.00    -0.464 A  
HETATM   20  C   UNL     1     -11.342  15.941  70.964  1.00  0.00    -0.434 A  
HETATM   21  C   UNL     1     -12.141  16.050  72.105  1.00  0.00    -0.611 A  
HETATM   22  C   UNL     1     -12.968  13.823  71.718  1.00  0.00    -0.441 A  
HETATM   23  C   UNL     1     -12.145  13.693  70.588  1.00  0.00    -0.323 A  
HETATM   24 CL   UNL     1     -12.151  12.132  69.842  1.00  0.00    -0.353 Cl 
ENDBRANCH   6  18
TORSDOF 1
ENDMDL
MODEL       22
REMARK 921   NORMALIZED FREE ENERGY PREDICTED BY IDOCK:   -6.21 KCAL/MOL
REMARK 922        TOTAL FREE ENERGY PREDICTED BY IDOCK:   -7.22 KCAL/MOL
REMARK 923 INTER-LIGAND FREE ENERGY PREDICTED BY IDOCK:   -6.60 KCAL/MOL
REMARK 924 INTRA-LIGAND FREE ENERGY PREDICTED BY IDOCK:   -0.63 KCAL/MOL
REMARK 927      BINDING AFFINITY PREDICTED BY RF-SCORE:    0.00 PKD
ROOT
HETATM    1  C   UNL     1     -11.035  17.330  68.332  1.00  0.00    -0.171 C  
HETATM    2  N   UNL     1     -10.235  16.128  68.163  1.00  0.00    -0.241 N  
HETATM    3  C   UNL     1     -10.724  14.869  68.632  1.00  0.00    -0.250 A  
HETATM    4  C   UNL     1     -10.404  13.636  68.016  1.00  0.00    -0.250 A  
HETATM    5  C   UNL     1     -10.849  12.422  68.569  1.00  0.00    -0.270 A  
HETATM    6  C   UNL     1      -9.669  13.575  66.719  1.00  0.00    -0.271 C  
HETATM    7  C   UNL     1     -11.682  12.433  69.684  1.00  0.00    -0.307 A  
HETATM    8  N   UNL     1      -8.558  14.202  66.512  1.00  0.00    -0.426 NA 
HETATM    9  H   UNL     1      -6.344  16.012  67.981  1.00  0.00     0.000 HD 
HETATM   10  O   UNL     1      -8.570  17.410  67.202  1.00  0.00    -0.211 OA 
HETATM   11  C   UNL     1     -12.049  13.635  70.274  1.00  0.00    -0.427 A  
HETATM   12  C   UNL     1      -8.030  15.062  67.556  1.00  0.00    -0.178 C  
HETATM   13  H   UNL     1      -8.059  14.095  65.629  1.00  0.00     0.000 HD 
HETATM   14 CL   UNL     1     -12.293  10.953  70.310  1.00  0.00    -0.400 Cl 
HETATM   15  O   UNL     1      -6.689  15.450  67.297  1.00  0.00    -0.232 OA 
HETATM   16  C   UNL     1      -8.959  16.308  67.606  1.00  0.00    -0.192 C  
HETATM   17  C   UNL     1     -11.564  14.841  69.758  1.00  0.00    -0.338 A  
ENDROOT
BRANCH   6  18
HETATM   18  C   UNL     1     -10.193  12.754  65.566  1.00  0.00    -0.293 A  
HETATM   19  C   UNL     1     -10.881  11.124  63.367  1.00  0.00    -0.211 A  
HETATM   20  C   UNL     1      -9.484  11.569  65.280  1.00  0.00    -0.206 A  
HETATM   21  C   UNL     1      -9.817  10.767  64.186  1.00  0.00    -0.384 A  
HETATM   22  C   UNL     1     -11.600  12.288  63.637  1.00  0.00    -0.581 A  
HETATM   23  C   UNL     1     -11.251  13.116  64.715  1.00  0.00    -0.324 A  
HETATM   24 CL   UNL     1     -12.135  14.599  64.828  1.00  0.00    -0.435 Cl 
ENDBRANCH   6  18
TORSDOF 1
ENDMDL
MODEL       23
REMARK 921   NORMALIZED FREE ENERGY PREDICTED BY IDOCK:   -6.21 KCAL/MOL
REMARK 922        TOTAL FREE ENERGY PREDICTED BY IDOCK:   -7.22 KCAL/MOL
REMARK 923 INTER-LIGAND FREE ENERGY PREDICTED BY IDOCK:   -6.79 KCAL/MOL
REMARK 924 INTRA-LIGAND FREE ENERGY PREDICTED BY IDOCK:   -0.43 KCAL/MOL
REMARK 927      BINDING AFFINITY PREDICTED BY RF-SCORE:    0.00 PKD
ROOT
HETATM    1  C   UNL     1     -13.222  14.989  70.456  1.00  0.00    -0.215 C  
HETATM    2  N   UNL     1     -12.001  14.420  69.909  1.00  0.00    -0.314 N  
HETATM    3  C   UNL     1     -11.815  13.003  69.893  1.00  0.00    -0.307 A  
HETATM    4  C   UNL     1     -11.064  12.331  68.900  1.00  0.00    -0.291 A  
HETATM    5  C   UNL     1     -10.848  10.944  68.980  1.00  0.00    -0.275 A  
HETATM    6  C   UNL     1     -10.553  13.041  67.691  1.00  0.00    -0.224 C  
HETATM    7  C   UNL     1     -11.447  10.207  69.997  1.00  0.00    -0.277 A  
HETATM    8  N   UNL     1      -9.873  14.138  67.756  1.00  0.00    -0.227 NA 
HETATM    9  H   UNL     1      -8.524  16.177  69.842  1.00  0.00     0.000 HD 
HETATM   10  O   UNL     1     -11.219  16.558  69.515  1.00  0.00    -0.283 OA 
HETATM   11  C   UNL     1     -12.229  10.840  70.955  1.00  0.00    -0.485 A  
HETATM   12  C   UNL     1      -9.652  14.753  69.052  1.00  0.00    -0.178 C  
HETATM   13  H   UNL     1      -9.498  14.566  66.909  1.00  0.00     0.000 HD 
HETATM   14 CL   UNL     1     -11.250   8.500  70.048  1.00  0.00    -0.154 Cl 
HETATM   15  O   UNL     1      -8.668  15.775  68.994  1.00  0.00    -0.202 OA 
HETATM   16  C   UNL     1     -11.022  15.338  69.498  1.00  0.00    -0.277 C  
HETATM   17  C   UNL     1     -12.402  12.227  70.908  1.00  0.00    -0.363 A  
ENDROOT
BRANCH   6  18
HETATM   18  C   UNL     1     -10.803  12.495  66.306  1.00  0.00    -0.299 A  
HETATM   19  C   UNL     1     -10.961  11.451  63.689  1.00  0.00    -0.443 A  
HETATM   20  C   UNL     1      -9.838  11.590  65.816  1.00  0.00    -0.266 A  
HETATM   21  C   UNL     1      -9.910  11.081  64.517  1.00  0.00    -0.343 A  
HETATM   22  C   UNL     1     -11.929  12.339  64.156  1.00  0.00    -0.518 A  
HETATM   23  C   UNL     1     -11.847  12.880  65.448  1.00  0.00    -0.403 A  
HETATM   24 CL   UNL     1     -13.032  14.082  65.826  1.00  0.00    -0.448 Cl 
ENDBRANCH   6  18
TORSDOF 1
ENDMDL
MODEL       24
REMARK 921   NORMALIZED FREE ENERGY PREDICTED BY IDOCK:   -6.16 KCAL/MOL
REMARK 922        TOTAL FREE ENERGY PREDICTED BY IDOCK:   -7.18 KCAL/MOL
REMARK 923 INTER-LIGAND FREE ENERGY PREDICTED BY IDOCK:   -6.50 KCAL/MOL
REMARK 924 INTRA-LIGAND FREE ENERGY PREDICTED BY IDOCK:   -0.67 KCAL/MOL
REMARK 927      BINDING AFFINITY PREDICTED BY RF-SCORE:    0.00 PKD
ROOT
HETATM    1  C   UNL     1     -12.311  14.588  64.331  1.00  0.00    -0.413 C  
HETATM    2  N   UNL     1     -11.284  13.648  64.749  1.00  0.00    -0.344 N  
HETATM    3  C   UNL     1     -10.319  14.030  65.731  1.00  0.00    -0.319 A  
HETATM    4  C   UNL     1      -9.731  13.115  66.636  1.00  0.00    -0.261 A  
HETATM    5  C   UNL     1      -8.727  13.533  67.528  1.00  0.00    -0.208 A  
HETATM    6  C   UNL     1     -10.209  11.706  66.747  1.00  0.00    -0.217 C  
HETATM    7  C   UNL     1      -8.365  14.876  67.583  1.00  0.00    -0.167 A  
HETATM    8  N   UNL     1     -10.340  10.927  65.724  1.00  0.00    -0.251 NA 
HETATM    9  H   UNL     1      -9.824  10.777  62.555  1.00  0.00     0.000 HD 
HETATM   10  O   UNL     1     -12.118  12.114  63.236  1.00  0.00    -0.475 OA 
HETATM   11  C   UNL     1      -8.965  15.800  66.737  1.00  0.00    -0.289 A  
HETATM   12  C   UNL     1     -10.082  11.458  64.398  1.00  0.00    -0.291 C  
HETATM   13  H   UNL     1     -10.621   9.954  65.846  1.00  0.00     0.000 HD 
HETATM   14 CL   UNL     1      -7.198  15.401  68.730  1.00  0.00    -0.121 Cl 
HETATM   15  O   UNL     1      -9.993  10.430  63.422  1.00  0.00    -0.267 OA 
HETATM   16  C   UNL     1     -11.262  12.417  64.074  1.00  0.00    -0.396 C  
HETATM   17  C   UNL     1      -9.926  15.377  65.813  1.00  0.00    -0.393 A  
ENDROOT
BRANCH   6  18
HETATM   18  C   UNL     1     -10.559  11.107  68.087  1.00  0.00    -0.227 A  
HETATM   19  C   UNL     1     -11.353  10.257  70.659  1.00  0.00    -0.431 A  
HETATM   20  C   UNL     1     -11.745  11.583  68.685  1.00  0.00    -0.389 A  
HETATM   21  C   UNL     1     -12.133  11.171  69.962  1.00  0.00    -0.437 A  
HETATM   22  C   UNL     1     -10.181   9.769  70.083  1.00  0.00    -0.328 A  
HETATM   23  C   UNL     1      -9.767  10.202  68.814  1.00  0.00    -0.172 A  
HETATM   24 CL   UNL     1      -8.218   9.627  68.303  1.00  0.00    -0.105 Cl 
ENDBRANCH   6  18
TORSDOF 1
ENDMDL
MODEL       25
REMARK 921   NORMALIZED FREE ENERGY PREDICTED BY IDOCK:   -6.16 KCAL/MOL
REMARK 922        TOTAL FREE ENERGY PREDICTED BY IDOCK:   -7.17 KCAL/MOL
REMARK 923 INTER-LIGAND FREE ENERGY PREDICTED BY IDOCK:   -6.53 KCAL/MOL
REMARK 924 INTRA-LIGAND FREE ENERGY PREDICTED BY IDOCK:   -0.64 KCAL/MOL
REMARK 927      BINDING AFFINITY PREDICTED BY RF-SCORE:    0.00 PKD
ROOT
HETATM    1  C   UNL     1      -9.278  19.516  68.502  1.00  0.00    -0.356 C  
HETATM    2  N   UNL     1      -9.303  18.173  67.945  1.00  0.00    -0.267 N  
HETATM    3  C   UNL     1      -8.431  17.166  68.461  1.00  0.00    -0.262 A  
HETATM    4  C   UNL     1      -8.762  15.791  68.482  1.00  0.00    -0.184 A  
HETATM    5  C   UNL     1      -7.831  14.836  68.929  1.00  0.00    -0.152 A  
HETATM    6  C   UNL     1     -10.128  15.309  68.124  1.00  0.00    -0.229 C  
HETATM    7  C   UNL     1      -6.603  15.250  69.435  1.00  0.00    -0.152 A  
HETATM    8  N   UNL     1     -10.728  15.647  67.030  1.00  0.00    -0.316 NA 
HETATM    9  H   UNL     1     -10.296  17.266  64.287  1.00  0.00     0.000 HD 
HETATM   10  O   UNL     1     -10.902  18.868  66.428  1.00  0.00    -0.325 OA 
HETATM   11  C   UNL     1      -6.276  16.599  69.468  1.00  0.00    -0.220 A  
HETATM   12  C   UNL     1     -10.082  16.593  66.138  1.00  0.00    -0.345 C  
HETATM   13  H   UNL     1     -11.640  15.256  66.798  1.00  0.00     0.000 HD 
HETATM   14 CL   UNL     1      -5.498  14.089  70.057  1.00  0.00    -0.099 Cl 
HETATM   15  O   UNL     1     -10.719  16.647  64.871  1.00  0.00    -0.710 OA 
HETATM   16  C   UNL     1     -10.153  17.977  66.844  1.00  0.00    -0.348 C  
HETATM   17  C   UNL     1      -7.179  17.547  68.976  1.00  0.00    -0.215 A  
ENDROOT
BRANCH   6  18
HETATM   18  C   UNL     1     -10.887  14.375  69.036  1.00  0.00    -0.267 A  
HETATM   19  C   UNL     1     -12.397  12.482  70.485  1.00  0.00    -0.345 A  
HETATM   20  C   UNL     1     -11.057  13.056  68.566  1.00  0.00    -0.298 A  
HETATM   21  C   UNL     1     -11.812  12.121  69.278  1.00  0.00    -0.370 A  
HETATM   22  C   UNL     1     -12.236  13.779  70.970  1.00  0.00    -0.401 A  
HETATM   23  C   UNL     1     -11.505  14.734  70.246  1.00  0.00    -0.260 A  
HETATM   24 CL   UNL     1     -11.524  16.335  70.900  1.00  0.00    -0.409 Cl 
ENDBRANCH   6  18
TORSDOF 1
ENDMDL
MODEL       26
REMARK 921   NORMALIZED FREE ENERGY PREDICTED BY IDOCK:   -6.14 KCAL/MOL
REMARK 922        TOTAL FREE ENERGY PREDICTED BY IDOCK:   -7.15 KCAL/MOL
REMARK 923 INTER-LIGAND FREE ENERGY PREDICTED BY IDOCK:   -7.04 KCAL/MOL
REMARK 924 INTRA-LIGAND FREE ENERGY PREDICTED BY IDOCK:   -0.11 KCAL/MOL
REMARK 927      BINDING AFFINITY PREDICTED BY RF-SCORE:    0.00 PKD
ROOT
HETATM    1  C   UNL     1     -11.270  16.430  64.673  1.00  0.00    -0.192 C  
HETATM    2  N   UNL     1     -11.016  15.347  65.610  1.00  0.00    -0.337 N  
HETATM    3  C   UNL     1      -9.875  15.395  66.469  1.00  0.00    -0.272 A  
HETATM    4  C   UNL     1      -9.851  14.815  67.759  1.00  0.00    -0.214 A  
HETATM    5  C   UNL     1      -8.674  14.824  68.528  1.00  0.00    -0.174 A  
HETATM    6  C   UNL     1     -11.083  14.256  68.389  1.00  0.00    -0.256 C  
HETATM    7  C   UNL     1      -7.543  15.483  68.056  1.00  0.00    -0.125 A  
HETATM    8  N   UNL     1     -11.851  13.404  67.794  1.00  0.00    -0.358 NA 
HETATM    9  H   UNL     1     -12.104  11.637  65.121  1.00  0.00     0.000 HD 
HETATM   10  O   UNL     1     -12.877  14.247  64.794  1.00  0.00    -0.671 OA 
HETATM   11  C   UNL     1      -7.560  16.103  66.813  1.00  0.00    -0.268 A  
HETATM   12  C   UNL     1     -11.550  13.021  66.427  1.00  0.00    -0.363 C  
HETATM   13  H   UNL     1     -12.657  13.007  68.278  1.00  0.00     0.000 HD 
HETATM   14 CL   UNL     1      -6.130  15.566  69.031  1.00  0.00    -0.103 Cl 
HETATM   15  O   UNL     1     -12.301  11.888  66.015  1.00  0.00    -0.339 OA 
HETATM   16  C   UNL     1     -11.893  14.253  65.542  1.00  0.00    -0.363 C  
HETATM   17  C   UNL     1      -8.713  16.049  66.023  1.00  0.00    -0.267 A  
ENDROOT
BRANCH   6  18
HETATM   18  C   UNL     1     -11.494  14.661  69.784  1.00  0.00    -0.325 A  
HETATM   19  C   UNL     1     -12.511  15.234  72.354  1.00  0.00    -0.443 A  
HETATM   20  C   UNL     1     -12.243  13.709  70.507  1.00  0.00    -0.438 A  
HETATM   21  C   UNL     1     -12.755  13.996  71.775  1.00  0.00    -0.406 A  
HETATM   22  C   UNL     1     -11.767  16.187  71.659  1.00  0.00    -0.558 A  
HETATM   23  C   UNL     1     -11.276  15.919  70.371  1.00  0.00    -0.378 A  
HETATM   24 CL   UNL     1     -10.508  17.250  69.578  1.00  0.00    -0.192 Cl 
ENDBRANCH   6  18
TORSDOF 1
ENDMDL
MODEL       27
REMARK 921   NORMALIZED FREE ENERGY PREDICTED BY IDOCK:   -6.12 KCAL/MOL
REMARK 922        TOTAL FREE ENERGY PREDICTED BY IDOCK:   -7.12 KCAL/MOL
REMARK 923 INTER-LIGAND FREE ENERGY PREDICTED BY IDOCK:   -6.46 KCAL/MOL
REMARK 924 INTRA-LIGAND FREE ENERGY PREDICTED BY IDOCK:   -0.66 KCAL/MOL
REMARK 927      BINDING AFFINITY PREDICTED BY RF-SCORE:    0.00 PKD
ROOT
HETATM    1  C   UNL     1     -11.831  15.651  69.141  1.00  0.00    -0.362 C  
HETATM    2  N   UNL     1     -11.889  14.204  69.012  1.00  0.00    -0.329 N  
HETATM    3  C   UNL     1     -11.854  13.597  67.719  1.00  0.00    -0.368 A  
HETATM    4  C   UNL     1     -11.290  12.322  67.477  1.00  0.00    -0.388 A  
HETATM    5  C   UNL     1     -11.355  11.741  66.198  1.00  0.00    -0.342 A  
HETATM    6  C   UNL     1     -10.530  11.588  68.531  1.00  0.00    -0.208 C  
HETATM    7  C   UNL     1     -11.902  12.457  65.138  1.00  0.00    -0.388 A  
HETATM    8  N   UNL     1     -10.997  11.384  69.719  1.00  0.00    -0.467 NA 
HETATM    9  H   UNL     1     -13.627  11.782  71.524  1.00  0.00     0.000 HD 
HETATM   10  O   UNL     1     -12.085  14.039  71.309  1.00  0.00    -0.336 OA 
HETATM   11  C   UNL     1     -12.417  13.731  65.344  1.00  0.00    -0.532 A  
HETATM   12  C   UNL     1     -12.286  11.950  70.075  1.00  0.00    -0.217 C  
HETATM   13  H   UNL     1     -10.468  10.834  70.396  1.00  0.00     0.000 HD 
HETATM   14 CL   UNL     1     -11.906  11.780  63.558  1.00  0.00    -0.546 Cl 
HETATM   15  O   UNL     1     -12.784  11.412  71.291  1.00  0.00    -0.405 OA 
HETATM   16  C   UNL     1     -12.068  13.484  70.205  1.00  0.00    -0.355 C  
HETATM   17  C   UNL     1     -12.402  14.290  66.626  1.00  0.00    -0.320 A  
ENDROOT
BRANCH   6  18
HETATM   18  C   UNL     1      -9.156  11.030  68.252  1.00  0.00    -0.158 A  
HETATM   19  C   UNL     1      -6.516  10.263  67.613  1.00  0.00    -0.058 A  
HETATM   20  C   UNL     1      -8.096  11.960  68.268  1.00  0.00    -0.154 A  
HETATM   21  C   UNL     1      -6.791  11.584  67.942  1.00  0.00    -0.073 A  
HETATM   22  C   UNL     1      -7.548   9.325  67.598  1.00  0.00    -0.088 A  
HETATM   23  C   UNL     1      -8.868   9.702  67.893  1.00  0.00    -0.119 A  
HETATM   24 CL   UNL     1     -10.058   8.464  67.682  1.00  0.00    -0.249 Cl 
ENDBRANCH   6  18
TORSDOF 1
ENDMDL
MODEL       28
REMARK 921   NORMALIZED FREE ENERGY PREDICTED BY IDOCK:   -6.10 KCAL/MOL
REMARK 922        TOTAL FREE ENERGY PREDICTED BY IDOCK:   -7.11 KCAL/MOL
REMARK 923 INTER-LIGAND FREE ENERGY PREDICTED BY IDOCK:   -6.53 KCAL/MOL
REMARK 924 INTRA-LIGAND FREE ENERGY PREDICTED BY IDOCK:   -0.58 KCAL/MOL
REMARK 927      BINDING AFFINITY PREDICTED BY RF-SCORE:    0.00 PKD
ROOT
HETATM    1  C   UNL     1      -8.688  19.147  67.271  1.00  0.00    -0.286 C  
HETATM    2  N   UNL     1      -9.053  17.835  66.763  1.00  0.00    -0.255 N  
HETATM    3  C   UNL     1      -8.265  16.691  67.099  1.00  0.00    -0.179 A  
HETATM    4  C   UNL     1      -8.804  15.389  67.224  1.00  0.00    -0.212 A  
HETATM    5  C   UNL     1      -7.967  14.287  67.479  1.00  0.00    -0.203 A  
HETATM    6  C   UNL     1     -10.275  15.142  67.182  1.00  0.00    -0.247 C  
HETATM    7  C   UNL     1      -6.607  14.487  67.696  1.00  0.00    -0.153 A  
HETATM    8  N   UNL     1     -11.035  15.590  66.238  1.00  0.00    -0.287 NA 
HETATM    9  H   UNL     1     -10.955  17.153  63.430  1.00  0.00     0.000 HD 
HETATM   10  O   UNL     1     -10.809  18.803  65.615  1.00  0.00    -0.424 OA 
HETATM   11  C   UNL     1      -6.065  15.764  67.627  1.00  0.00    -0.179 A  
HETATM   12  C   UNL     1     -10.454  16.429  65.205  1.00  0.00    -0.261 C  
HETATM   13  H   UNL     1     -12.028  15.357  66.218  1.00  0.00     0.000 HD 
HETATM   14 CL   UNL     1      -5.598  13.152  68.089  1.00  0.00    -0.087 Cl 
HETATM   15  O   UNL     1     -11.335  16.604  64.106  1.00  0.00    -1.141 OA 
HETATM   16  C   UNL     1     -10.143  17.796  65.878  1.00  0.00    -0.174 C  
HETATM   17  C   UNL     1      -6.886  16.854  67.321  1.00  0.00    -0.198 A  
ENDROOT
BRANCH   6  18
HETATM   18  C   UNL     1     -10.958  14.334  68.258  1.00  0.00    -0.261 A  
HETATM   19  C   UNL     1     -12.123  13.028  70.473  1.00  0.00    -0.373 A  
HETATM   20  C   UNL     1     -11.378  15.052  69.398  1.00  0.00    -0.314 A  
HETATM   21  C   UNL     1     -11.945  14.405  70.498  1.00  0.00    -0.395 A  
HETATM   22  C   UNL     1     -11.722  12.300  69.353  1.00  0.00    -0.392 A  
HETATM   23  C   UNL     1     -11.121  12.938  68.256  1.00  0.00    -0.264 A  
HETATM   24 CL   UNL     1     -10.538  11.885  67.014  1.00  0.00    -0.249 Cl 
ENDBRANCH   6  18
TORSDOF 1
ENDMDL
MODEL       29
REMARK 921   NORMALIZED FREE ENERGY PREDICTED BY IDOCK:   -6.02 KCAL/MOL
REMARK 922        TOTAL FREE ENERGY PREDICTED BY IDOCK:   -7.03 KCAL/MOL
REMARK 923 INTER-LIGAND FREE ENERGY PREDICTED BY IDOCK:   -6.36 KCAL/MOL
REMARK 924 INTRA-LIGAND FREE ENERGY PREDICTED BY IDOCK:   -0.67 KCAL/MOL
REMARK 927      BINDING AFFINITY PREDICTED BY RF-SCORE:    0.00 PKD
ROOT
HETATM    1  C   UNL     1     -11.896  15.650  69.241  1.00  0.00    -0.363 C  
HETATM    2  N   UNL     1     -11.945  14.204  69.104  1.00  0.00    -0.343 N  
HETATM    3  C   UNL     1     -11.867  13.603  67.809  1.00  0.00    -0.368 A  
HETATM    4  C   UNL     1     -11.292  12.331  67.579  1.00  0.00    -0.388 A  
HETATM    5  C   UNL     1     -11.314  11.755  66.296  1.00  0.00    -0.350 A  
HETATM    6  C   UNL     1     -10.563  11.595  68.653  1.00  0.00    -0.209 C  
HETATM    7  C   UNL     1     -11.830  12.475  65.223  1.00  0.00    -0.413 A  
HETATM    8  N   UNL     1     -11.066  11.383  69.825  1.00  0.00    -0.455 NA 
HETATM    9  H   UNL     1     -13.753  11.765  71.548  1.00  0.00     0.000 HD 
HETATM   10  O   UNL     1     -12.213  14.028  71.392  1.00  0.00    -0.342 OA 
HETATM   11  C   UNL     1     -12.356  13.746  65.418  1.00  0.00    -0.504 A  
HETATM   12  C   UNL     1     -12.367  11.944  70.143  1.00  0.00    -0.171 C  
HETATM   13  H   UNL     1     -10.557  10.832  70.515  1.00  0.00     0.000 HD 
HETATM   14 CL   UNL     1     -11.783  11.805  63.641  1.00  0.00    -0.550 Cl 
HETATM   15  O   UNL     1     -12.902  11.399  71.340  1.00  0.00    -0.413 OA 
HETATM   16  C   UNL     1     -12.159  13.478  70.287  1.00  0.00    -0.355 C  
HETATM   17  C   UNL     1     -12.383  14.299  66.702  1.00  0.00    -0.320 A  
ENDROOT
BRANCH   6  18
HETATM   18  C   UNL     1      -9.179  11.042  68.415  1.00  0.00    -0.175 A  
HETATM   19  C   UNL     1      -6.668   9.778  68.164  1.00  0.00    -0.061 A  
HETATM   20  C   UNL     1      -9.047   9.641  68.519  1.00  0.00    -0.131 A  
HETATM   21  C   UNL     1      -7.803   9.016  68.405  1.00  0.00    -0.103 A  
HETATM   22  C   UNL     1      -6.777  11.164  68.051  1.00  0.00    -0.062 A  
HETATM   23  C   UNL     1      -8.018  11.803  68.196  1.00  0.00    -0.146 A  
HETATM   24 CL   UNL     1      -7.968  13.532  68.184  1.00  0.00    -0.138 Cl 
ENDBRANCH   6  18
TORSDOF 1
ENDMDL
MODEL       30
REMARK 921   NORMALIZED FREE ENERGY PREDICTED BY IDOCK:   -5.98 KCAL/MOL
REMARK 922        TOTAL FREE ENERGY PREDICTED BY IDOCK:   -6.98 KCAL/MOL
REMARK 923 INTER-LIGAND FREE ENERGY PREDICTED BY IDOCK:   -6.32 KCAL/MOL
REMARK 924 INTRA-LIGAND FREE ENERGY PREDICTED BY IDOCK:   -0.66 KCAL/MOL
REMARK 927      BINDING AFFINITY PREDICTED BY RF-SCORE:    0.00 PKD
ROOT
HETATM    1  C   UNL     1      -8.591   8.405  69.402  1.00  0.00    -0.129 C  
HETATM    2  N   UNL     1      -9.387   9.615  69.280  1.00  0.00    -0.169 N  
HETATM    3  C   UNL     1      -8.774  10.837  68.863  1.00  0.00    -0.152 A  
HETATM    4  C   UNL     1      -9.458  11.836  68.130  1.00  0.00    -0.193 A  
HETATM    5  C   UNL     1      -8.827  13.053  67.815  1.00  0.00    -0.188 A  
HETATM    6  C   UNL     1     -10.828  11.608  67.585  1.00  0.00    -0.225 C  
HETATM    7  C   UNL     1      -7.492  13.248  68.152  1.00  0.00    -0.128 A  
HETATM    8  N   UNL     1     -11.809  11.177  68.310  1.00  0.00    -0.591 NA 
HETATM    9  H   UNL     1     -12.600  10.421  71.332  1.00  0.00     0.000 HD 
HETATM   10  O   UNL     1     -11.232   8.439  70.022  1.00  0.00    -0.206 OA 
HETATM   11  C   UNL     1      -6.787  12.261  68.828  1.00  0.00    -0.092 A  
HETATM   12  C   UNL     1     -11.559  10.830  69.697  1.00  0.00    -0.316 C  
HETATM   13  H   UNL     1     -12.744  11.082  67.913  1.00  0.00     0.000 HD 
HETATM   14 CL   UNL     1      -6.697  14.702  67.695  1.00  0.00    -0.197 Cl 
HETATM   15  O   UNL     1     -12.764  10.648  70.424  1.00  0.00    -0.333 OA 
HETATM   16  C   UNL     1     -10.730   9.514  69.675  1.00  0.00    -0.238 C  
HETATM   17  C   UNL     1      -7.427  11.070  69.189  1.00  0.00    -0.121 A  
ENDROOT
BRANCH   6  18
HETATM   18  C   UNL     1     -11.145  11.884  66.136  1.00  0.00    -0.374 A  
HETATM   19  C   UNL     1     -12.019  12.488  63.521  1.00  0.00    -0.629 A  
HETATM   20  C   UNL     1     -12.090  12.903  65.893  1.00  0.00    -0.503 A  
HETATM   21  C   UNL     1     -12.530  13.196  64.601  1.00  0.00    -0.433 A  
HETATM   22  C   UNL     1     -11.079  11.481  63.738  1.00  0.00    -0.471 A  
HETATM   23  C   UNL     1     -10.655  11.159  65.036  1.00  0.00    -0.273 A  
HETATM   24 CL   UNL     1      -9.607   9.788  65.156  1.00  0.00    -0.356 Cl 
ENDBRANCH   6  18
TORSDOF 1
ENDMDL
MODEL       31
REMARK 921   NORMALIZED FREE ENERGY PREDICTED BY IDOCK:   -5.95 KCAL/MOL
REMARK 922        TOTAL FREE ENERGY PREDICTED BY IDOCK:   -6.95 KCAL/MOL
REMARK 923 INTER-LIGAND FREE ENERGY PREDICTED BY IDOCK:   -6.47 KCAL/MOL
REMARK 924 INTRA-LIGAND FREE ENERGY PREDICTED BY IDOCK:   -0.48 KCAL/MOL
REMARK 927      BINDING AFFINITY PREDICTED BY RF-SCORE:    0.00 PKD
ROOT
HETATM    1  C   UNL     1     -13.016  10.442  70.919  1.00  0.00    -0.387 C  
HETATM    2  N   UNL     1     -12.203  11.555  70.456  1.00  0.00    -0.377 N  
HETATM    3  C   UNL     1     -11.022  11.310  69.689  1.00  0.00    -0.151 A  
HETATM    4  C   UNL     1     -10.540  12.204  68.704  1.00  0.00    -0.248 A  
HETATM    5  C   UNL     1      -9.328  11.949  68.036  1.00  0.00    -0.193 A  
HETATM    6  C   UNL     1     -11.330  13.393  68.270  1.00  0.00    -0.295 C  
HETATM    7  C   UNL     1      -8.638  10.767  68.281  1.00  0.00    -0.135 A  
HETATM    8  N   UNL     1     -11.822  14.251  69.103  1.00  0.00    -0.312 NA 
HETATM    9  H   UNL     1     -11.896  15.014  72.224  1.00  0.00     0.000 HD 
HETATM   10  O   UNL     1     -13.635  13.010  71.538  1.00  0.00    -0.200 OA 
HETATM   11  C   UNL     1      -9.120   9.852  69.209  1.00  0.00    -0.196 A  
HETATM   12  C   UNL     1     -11.664  14.019  70.527  1.00  0.00    -0.192 C  
HETATM   13  H   UNL     1     -12.313  15.078  68.764  1.00  0.00     0.000 HD 
HETATM   14 CL   UNL     1      -7.201  10.417  67.405  1.00  0.00    -0.090 Cl 
HETATM   15  O   UNL     1     -12.000  15.166  71.293  1.00  0.00    -0.293 OA 
HETATM   16  C   UNL     1     -12.603  12.831  70.883  1.00  0.00    -0.255 C  
HETATM   17  C   UNL     1     -10.296  10.128  69.913  1.00  0.00    -0.308 A  
ENDROOT
BRANCH   6  18
HETATM   18  C   UNL     1     -11.591  13.662  66.808  1.00  0.00    -0.393 A  
HETATM   19  C   UNL     1     -12.030  13.862  64.027  1.00  0.00    -0.425 A  
HETATM   20  C   UNL     1     -12.144  12.593  66.073  1.00  0.00    -0.429 A  
HETATM   21  C   UNL     1     -12.353  12.688  64.695  1.00  0.00    -0.546 A  
HETATM   22  C   UNL     1     -11.488  14.933  64.736  1.00  0.00    -0.410 A  
HETATM   23  C   UNL     1     -11.245  14.835  66.116  1.00  0.00    -0.337 A  
HETATM   24 CL   UNL     1     -10.428  16.186  66.823  1.00  0.00    -0.298 Cl 
ENDBRANCH   6  18
TORSDOF 1
ENDMDL
MODEL       32
REMARK 921   NORMALIZED FREE ENERGY PREDICTED BY IDOCK:   -5.93 KCAL/MOL
REMARK 922        TOTAL FREE ENERGY PREDICTED BY IDOCK:   -6.92 KCAL/MOL
REMARK 923 INTER-LIGAND FREE ENERGY PREDICTED BY IDOCK:   -6.59 KCAL/MOL
REMARK 924 INTRA-LIGAND FREE ENERGY PREDICTED BY IDOCK:   -0.34 KCAL/MOL
REMARK 927      BINDING AFFINITY PREDICTED BY RF-SCORE:    0.00 PKD
ROOT
HETATM    1  C   UNL     1     -12.606  12.835  65.131  1.00  0.00    -0.444 C  
HETATM    2  N   UNL     1     -11.550  12.591  66.100  1.00  0.00    -0.375 N  
HETATM    3  C   UNL     1     -11.513  13.330  67.323  1.00  0.00    -0.338 A  
HETATM    4  C   UNL     1     -10.998  12.804  68.531  1.00  0.00    -0.288 A  
HETATM    5  C   UNL     1     -10.915  13.605  69.684  1.00  0.00     0.016 A  
HETATM    6  C   UNL     1     -10.613  11.368  68.659  1.00  0.00    -0.199 C  
HETATM    7  C   UNL     1     -11.419  14.901  69.665  1.00  0.00    -0.294 A  
HETATM    8  N   UNL     1      -9.823  10.776  67.824  1.00  0.00    -0.164 NA 
HETATM    9  H   UNL     1      -7.964  11.317  65.258  1.00  0.00     0.000 HD 
HETATM   10  O   UNL     1     -10.624  11.045  64.654  1.00  0.00    -0.333 OA 
HETATM   11  C   UNL     1     -11.974  15.421  68.502  1.00  0.00    -0.205 A  
HETATM   12  C   UNL     1      -9.341  11.513  66.669  1.00  0.00    -0.189 C  
HETATM   13  H   UNL     1      -9.543   9.807  67.974  1.00  0.00     0.000 HD 
HETATM   14 CL   UNL     1     -11.392  15.852  71.096  1.00  0.00    -0.433 Cl 
HETATM   15  O   UNL     1      -8.280  10.835  66.013  1.00  0.00    -0.158 OA 
HETATM   16  C   UNL     1     -10.558  11.674  65.715  1.00  0.00    -0.271 C  
HETATM   17  C   UNL     1     -12.010  14.645  67.339  1.00  0.00    -0.309 A  
ENDROOT
BRANCH   6  18
HETATM   18  C   UNL     1     -11.130  10.523  69.797  1.00  0.00    -0.354 A  
HETATM   19  C   UNL     1     -12.306   9.165  71.974  1.00  0.00    -0.448 A  
HETATM   20  C   UNL     1     -12.504  10.652  70.088  1.00  0.00    -0.342 A  
HETATM   21  C   UNL     1     -13.085   9.988  71.171  1.00  0.00    -0.472 A  
HETATM   22  C   UNL     1     -10.947   9.019  71.700  1.00  0.00    -0.435 A  
HETATM   23  C   UNL     1     -10.348   9.707  70.633  1.00  0.00    -0.297 A  
HETATM   24 CL   UNL     1      -8.630   9.545  70.516  1.00  0.00    -0.255 Cl 
ENDBRANCH   6  18
TORSDOF 1
ENDMDL
MODEL       33
REMARK 921   NORMALIZED FREE ENERGY PREDICTED BY IDOCK:   -5.90 KCAL/MOL
REMARK 922        TOTAL FREE ENERGY PREDICTED BY IDOCK:   -6.90 KCAL/MOL
REMARK 923 INTER-LIGAND FREE ENERGY PREDICTED BY IDOCK:   -6.23 KCAL/MOL
REMARK 924 INTRA-LIGAND FREE ENERGY PREDICTED BY IDOCK:   -0.67 KCAL/MOL
REMARK 927      BINDING AFFINITY PREDICTED BY RF-SCORE:    0.00 PKD
ROOT
HETATM    1  C   UNL     1     -10.559  17.659  66.151  1.00  0.00    -0.220 C  
HETATM    2  N   UNL     1      -9.780  16.608  66.786  1.00  0.00    -0.250 N  
HETATM    3  C   UNL     1     -10.396  15.731  67.731  1.00  0.00    -0.275 A  
HETATM    4  C   UNL     1      -9.995  14.387  67.917  1.00  0.00    -0.228 A  
HETATM    5  C   UNL     1     -10.584  13.595  68.918  1.00  0.00    -0.211 A  
HETATM    6  C   UNL     1      -9.008  13.732  67.009  1.00  0.00    -0.238 C  
HETATM    7  C   UNL     1     -11.629  14.106  69.680  1.00  0.00    -0.292 A  
HETATM    8  N   UNL     1      -7.858  14.252  66.729  1.00  0.00    -0.253 NA 
HETATM    9  H   UNL     1      -5.942  16.730  67.450  1.00  0.00     0.000 HD 
HETATM   10  O   UNL     1      -7.912  17.349  65.646  1.00  0.00    -0.477 OA 
HETATM   11  C   UNL     1     -12.072  15.407  69.481  1.00  0.00    -0.332 A  
HETATM   12  C   UNL     1      -7.533  15.564  67.258  1.00  0.00    -0.223 C  
HETATM   13  H   UNL     1      -7.191  13.749  66.144  1.00  0.00     0.000 HD 
HETATM   14 CL   UNL     1     -12.404  13.110  70.848  1.00  0.00    -0.443 Cl 
HETATM   15  O   UNL     1      -6.155  15.872  67.103  1.00  0.00    -0.315 OA 
HETATM   16  C   UNL     1      -8.411  16.581  66.476  1.00  0.00    -0.292 C  
HETATM   17  C   UNL     1     -11.452  16.215  68.522  1.00  0.00    -0.324 A  
ENDROOT
BRANCH   6  18
HETATM   18  C   UNL     1      -9.307  12.398  66.369  1.00  0.00    -0.219 A  
HETATM   19  C   UNL     1      -9.561   9.846  65.190  1.00  0.00    -0.367 A  
HETATM   20  C   UNL     1      -8.432  11.343  66.703  1.00  0.00    -0.171 A  
HETATM   21  C   UNL     1      -8.551  10.083  66.112  1.00  0.00    -0.142 A  
HETATM   22  C   UNL     1     -10.441  10.873  64.850  1.00  0.00    -0.352 A  
HETATM   23  C   UNL     1     -10.309  12.152  65.415  1.00  0.00    -0.269 A  
HETATM   24 CL   UNL     1     -11.375  13.357  64.781  1.00  0.00    -0.337 Cl 
ENDBRANCH   6  18
TORSDOF 1
ENDMDL
MODEL       34
REMARK 921   NORMALIZED FREE ENERGY PREDICTED BY IDOCK:   -5.80 KCAL/MOL
REMARK 922        TOTAL FREE ENERGY PREDICTED BY IDOCK:   -6.79 KCAL/MOL
REMARK 923 INTER-LIGAND FREE ENERGY PREDICTED BY IDOCK:   -6.66 KCAL/MOL
REMARK 924 INTRA-LIGAND FREE ENERGY PREDICTED BY IDOCK:   -0.13 KCAL/MOL
REMARK 927      BINDING AFFINITY PREDICTED BY RF-SCORE:    0.00 PKD
ROOT
HETATM    1  C   UNL     1      -9.916  15.982  69.817  1.00  0.00    -0.172 C  
HETATM    2  N   UNL     1     -10.949  14.959  69.825  1.00  0.00    -0.265 N  
HETATM    3  C   UNL     1     -11.289  14.273  68.618  1.00  0.00    -0.275 A  
HETATM    4  C   UNL     1     -11.747  12.935  68.591  1.00  0.00    -0.359 A  
HETATM    5  C   UNL     1     -12.142  12.336  67.381  1.00  0.00    -0.021 A  
HETATM    6  C   UNL     1     -11.744  12.080  69.814  1.00  0.00    -0.319 C  
HETATM    7  C   UNL     1     -12.002  13.034  66.185  1.00  0.00    -0.427 A  
HETATM    8  N   UNL     1     -12.272  12.455  70.934  1.00  0.00    -0.432 NA 
HETATM    9  H   UNL     1     -13.976  14.826  72.276  1.00  0.00     0.000 HD 
HETATM   10  O   UNL     1     -11.298  15.374  72.071  1.00  0.00    -0.432 OA 
HETATM   11  C   UNL     1     -11.508  14.332  66.184  1.00  0.00    -0.357 A  
HETATM   12  C   UNL     1     -12.830  13.791  71.035  1.00  0.00    -0.305 C  
HETATM   13  H   UNL     1     -12.295  11.822  71.733  1.00  0.00     0.000 HD 
HETATM   14 CL   UNL     1     -12.407  12.274  64.698  1.00  0.00    -0.481 Cl 
HETATM   15  O   UNL     1     -13.611  13.952  72.210  1.00  0.00    -0.446 OA 
HETATM   16  C   UNL     1     -11.622  14.770  71.043  1.00  0.00    -0.265 C  
HETATM   17  C   UNL     1     -11.164  14.948  67.392  1.00  0.00    -0.343 A  
ENDROOT
BRANCH   6  18
HETATM   18  C   UNL     1     -11.122  10.705  69.801  1.00  0.00    -0.358 A  
HETATM   19  C   UNL     1      -9.860   8.200  69.489  1.00  0.00    -0.181 A  
HETATM   20  C   UNL     1      -9.966  10.558  69.006  1.00  0.00    -0.223 A  
HETATM   21  C   UNL     1      -9.347   9.317  68.843  1.00  0.00    -0.150 A  
HETATM   22  C   UNL     1     -10.998   8.324  70.285  1.00  0.00    -0.233 A  
HETATM   23  C   UNL     1     -11.646   9.562  70.428  1.00  0.00    -0.212 A  
HETATM   24 CL   UNL     1     -13.128   9.525  71.318  1.00  0.00    -0.409 Cl 
ENDBRANCH   6  18
TORSDOF 1
ENDMDL
MODEL       35
REMARK 921   NORMALIZED FREE ENERGY PREDICTED BY IDOCK:   -5.80 KCAL/MOL
REMARK 922        TOTAL FREE ENERGY PREDICTED BY IDOCK:   -6.79 KCAL/MOL
REMARK 923 INTER-LIGAND FREE ENERGY PREDICTED BY IDOCK:   -6.12 KCAL/MOL
REMARK 924 INTRA-LIGAND FREE ENERGY PREDICTED BY IDOCK:   -0.67 KCAL/MOL
REMARK 927      BINDING AFFINITY PREDICTED BY RF-SCORE:    0.00 PKD
ROOT
HETATM    1  C   UNL     1      -8.748   8.049  69.526  1.00  0.00    -0.136 C  
HETATM    2  N   UNL     1      -9.493   9.291  69.408  1.00  0.00    -0.162 N  
HETATM    3  C   UNL     1      -8.822  10.498  69.038  1.00  0.00    -0.169 A  
HETATM    4  C   UNL     1      -9.444  11.538  68.308  1.00  0.00    -0.189 A  
HETATM    5  C   UNL     1      -8.758  12.736  68.041  1.00  0.00    -0.194 A  
HETATM    6  C   UNL     1     -10.804  11.375  67.717  1.00  0.00    -0.231 C  
HETATM    7  C   UNL     1      -7.427  12.872  68.422  1.00  0.00    -0.124 A  
HETATM    8  N   UNL     1     -11.823  10.967  68.401  1.00  0.00    -0.705 NA 
HETATM    9  H   UNL     1     -12.737  10.176  71.379  1.00  0.00     0.000 HD 
HETATM   10  O   UNL     1     -11.404   8.172  70.066  1.00  0.00    -0.153 OA 
HETATM   11  C   UNL     1      -6.782  11.843  69.097  1.00  0.00    -0.105 A  
HETATM   12  C   UNL     1     -11.630  10.580  69.786  1.00  0.00    -0.294 C  
HETATM   13  H   UNL     1     -12.748  10.917  67.973  1.00  0.00     0.000 HD 
HETATM   14 CL   UNL     1      -6.564  14.304  68.023  1.00  0.00    -0.136 Cl 
HETATM   15  O   UNL     1     -12.863  10.429  70.472  1.00  0.00    -0.341 OA 
HETATM   16  C   UNL     1     -10.852   9.233  69.760  1.00  0.00    -0.224 C  
HETATM   17  C   UNL     1      -7.478  10.671  69.410  1.00  0.00    -0.135 A  
ENDROOT
BRANCH   6  18
HETATM   18  C   UNL     1     -11.065  11.695  66.265  1.00  0.00    -0.345 A  
HETATM   19  C   UNL     1     -11.280  12.156  63.489  1.00  0.00    -0.536 A  
HETATM   20  C   UNL     1     -10.506  10.803  65.326  1.00  0.00    -0.282 A  
HETATM   21  C   UNL     1     -10.604  11.036  63.952  1.00  0.00    -0.382 A  
HETATM   22  C   UNL     1     -11.846  13.048  64.400  1.00  0.00    -0.443 A  
HETATM   23  C   UNL     1     -11.725  12.838  65.783  1.00  0.00    -0.402 A  
HETATM   24 CL   UNL     1     -12.342  14.108  66.782  1.00  0.00    -0.428 Cl 
ENDBRANCH   6  18
TORSDOF 1
ENDMDL
MODEL       36
REMARK 921   NORMALIZED FREE ENERGY PREDICTED BY IDOCK:   -5.79 KCAL/MOL
REMARK 922        TOTAL FREE ENERGY PREDICTED BY IDOCK:   -6.78 KCAL/MOL
REMARK 923 INTER-LIGAND FREE ENERGY PREDICTED BY IDOCK:   -6.40 KCAL/MOL
REMARK 924 INTRA-LIGAND FREE ENERGY PREDICTED BY IDOCK:   -0.39 KCAL/MOL
REMARK 927      BINDING AFFINITY PREDICTED BY RF-SCORE:    0.00 PKD
ROOT
HETATM    1  C   UNL     1     -10.892  15.720  67.685  1.00  0.00    -0.310 C  
HETATM    2  N   UNL     1     -10.787  14.303  67.375  1.00  0.00    -0.282 N  
HETATM    3  C   UNL     1      -9.661  13.551  67.830  1.00  0.00    -0.219 A  
HETATM    4  C   UNL     1      -9.727  12.175  68.152  1.00  0.00    -0.208 A  
HETATM    5  C   UNL     1      -8.568  11.467  68.518  1.00  0.00    -0.140 A  
HETATM    6  C   UNL     1     -11.027  11.445  68.207  1.00  0.00    -0.216 C  
HETATM    7  C   UNL     1      -7.358  12.141  68.647  1.00  0.00    -0.109 A  
HETATM    8  N   UNL     1     -11.889  11.472  67.244  1.00  0.00    -0.604 NA 
HETATM    9  H   UNL     1     -12.327  12.557  64.250  1.00  0.00     0.000 HD 
HETATM   10  O   UNL     1     -12.761  14.452  66.183  1.00  0.00    -0.334 OA 
HETATM   11  C   UNL     1      -7.280  13.502  68.384  1.00  0.00    -0.109 A  
HETATM   12  C   UNL     1     -11.621  12.303  66.084  1.00  0.00    -0.390 C  
HETATM   13  H   UNL     1     -12.744  10.919  67.298  1.00  0.00     0.000 HD 
HETATM   14 CL   UNL     1      -5.958  11.293  69.174  1.00  0.00    -0.046 Cl 
HETATM   15  O   UNL     1     -12.503  12.014  65.009  1.00  0.00    -0.414 OA 
HETATM   16  C   UNL     1     -11.795  13.776  66.551  1.00  0.00    -0.407 C  
HETATM   17  C   UNL     1      -8.420  14.198  67.968  1.00  0.00    -0.171 A  
ENDROOT
BRANCH   6  18
HETATM   18  C   UNL     1     -11.403  10.615  69.411  1.00  0.00    -0.348 A  
HETATM   19  C   UNL     1     -12.112   9.329  71.821  1.00  0.00    -0.457 A  
HETATM   20  C   UNL     1     -12.202  11.258  70.379  1.00  0.00    -0.453 A  
HETATM   21  C   UNL     1     -12.545  10.626  71.577  1.00  0.00    -0.517 A  
HETATM   22  C   UNL     1     -11.327   8.673  70.874  1.00  0.00    -0.314 A  
HETATM   23  C   UNL     1     -10.951   9.312  69.682  1.00  0.00    -0.175 A  
HETATM   24 CL   UNL     1      -9.851   8.429  68.681  1.00  0.00    -0.172 Cl 
ENDBRANCH   6  18
TORSDOF 1
ENDMDL
MODEL       37
REMARK 921   NORMALIZED FREE ENERGY PREDICTED BY IDOCK:   -5.68 KCAL/MOL
REMARK 922        TOTAL FREE ENERGY PREDICTED BY IDOCK:   -6.66 KCAL/MOL
REMARK 923 INTER-LIGAND FREE ENERGY PREDICTED BY IDOCK:   -6.03 KCAL/MOL
REMARK 924 INTRA-LIGAND FREE ENERGY PREDICTED BY IDOCK:   -0.64 KCAL/MOL
REMARK 927      BINDING AFFINITY PREDICTED BY RF-SCORE:    0.00 PKD
ROOT
HETATM    1  C   UNL     1      -7.722  12.104  67.233  1.00  0.00    -0.168 C  
HETATM    2  N   UNL     1      -9.030  11.692  67.715  1.00  0.00    -0.164 N  
HETATM    3  C   UNL     1      -9.482  10.353  67.505  1.00  0.00    -0.149 A  
HETATM    4  C   UNL     1     -10.350   9.680  68.397  1.00  0.00    -0.233 A  
HETATM    5  C   UNL     1     -10.825   8.390  68.099  1.00  0.00     0.010 A  
HETATM    6  C   UNL     1     -10.720  10.263  69.720  1.00  0.00    -0.285 C  
HETATM    7  C   UNL     1     -10.375   7.732  66.959  1.00  0.00    -0.334 A  
HETATM    8  N   UNL     1     -11.179  11.464  69.854  1.00  0.00    -0.462 NA 
HETATM    9  H   UNL     1     -12.111  14.036  68.166  1.00  0.00     0.000 HD 
HETATM   10  O   UNL     1      -9.393  13.844  68.473  1.00  0.00    -0.203 OA 
HETATM   11  C   UNL     1      -9.484   8.356  66.095  1.00  0.00    -0.263 A  
HETATM   12  C   UNL     1     -11.276  12.314  68.682  1.00  0.00    -0.259 C  
HETATM   13  H   UNL     1     -11.468  11.809  70.769  1.00  0.00     0.000 HD 
HETATM   14 CL   UNL     1     -10.892   6.125  66.638  1.00  0.00    -0.340 Cl 
HETATM   15  O   UNL     1     -12.047  13.480  68.933  1.00  0.00    -0.341 OA 
HETATM   16  C   UNL     1      -9.818  12.697  68.298  1.00  0.00    -0.227 C  
HETATM   17  C   UNL     1      -9.051   9.659  66.361  1.00  0.00    -0.191 A  
ENDROOT
BRANCH   6  18
HETATM   18  C   UNL     1     -10.582   9.459  70.990  1.00  0.00    -0.400 A  
HETATM   19  C   UNL     1     -10.074   7.827  73.236  1.00  0.00    -0.374 A  
HETATM   20  C   UNL     1      -9.269   9.088  71.347  1.00  0.00    -0.293 A  
HETATM   21  C   UNL     1      -9.017   8.273  72.453  1.00  0.00    -0.297 A  
HETATM   22  C   UNL     1     -11.380   8.187  72.904  1.00  0.00    -0.301 A  
HETATM   23  C   UNL     1     -11.644   8.980  71.777  1.00  0.00    -0.374 A  
HETATM   24 CL   UNL     1     -13.318   9.212  71.409  1.00  0.00    -0.378 Cl 
ENDBRANCH   6  18
TORSDOF 1
ENDMDL
MODEL       38
REMARK 921   NORMALIZED FREE ENERGY PREDICTED BY IDOCK:   -5.67 KCAL/MOL
REMARK 922        TOTAL FREE ENERGY PREDICTED BY IDOCK:   -6.65 KCAL/MOL
REMARK 923 INTER-LIGAND FREE ENERGY PREDICTED BY IDOCK:   -7.12 KCAL/MOL
REMARK 924 INTRA-LIGAND FREE ENERGY PREDICTED BY IDOCK:    0.46 KCAL/MOL
REMARK 927      BINDING AFFINITY PREDICTED BY RF-SCORE:    0.00 PKD
ROOT
HETATM    1  C   UNL     1      -9.405  10.154  65.063  1.00  0.00    -0.243 C  
HETATM    2  N   UNL     1     -10.331  11.244  65.327  1.00  0.00    -0.268 N  
HETATM    3  C   UNL     1     -10.795  11.483  66.658  1.00  0.00    -0.287 A  
HETATM    4  C   UNL     1     -11.134  12.769  67.140  1.00  0.00    -0.315 A  
HETATM    5  C   UNL     1     -11.661  12.934  68.434  1.00  0.00    -0.369 A  
HETATM    6  C   UNL     1     -10.864  14.001  66.343  1.00  0.00    -0.299 C  
HETATM    7  C   UNL     1     -11.772  11.836  69.281  1.00  0.00    -0.335 A  
HETATM    8  N   UNL     1     -11.239  14.138  65.113  1.00  0.00    -0.322 NA 
HETATM    9  H   UNL     1     -12.911  12.682  62.785  1.00  0.00     0.000 HD 
HETATM   10  O   UNL     1     -10.356  11.729  63.068  1.00  0.00    -0.342 OA 
HETATM   11  C   UNL     1     -11.399  10.572  68.844  1.00  0.00    -0.313 A  
HETATM   12  C   UNL     1     -11.889  13.023  64.448  1.00  0.00    -0.386 C  
HETATM   13  H   UNL     1     -11.081  15.015  64.617  1.00  0.00     0.000 HD 
HETATM   14 CL   UNL     1     -12.339  12.050  70.890  1.00  0.00    -0.446 Cl 
HETATM   15  O   UNL     1     -12.485  13.411  63.220  1.00  0.00    -0.739 OA 
HETATM   16  C   UNL     1     -10.784  11.955  64.205  1.00  0.00    -0.338 C  
HETATM   17  C   UNL     1     -10.924  10.397  67.540  1.00  0.00    -0.358 A  
ENDROOT
BRANCH   6  18
HETATM   18  C   UNL     1     -10.134  15.175  66.949  1.00  0.00    -0.256 A  
HETATM   19  C   UNL     1      -8.843  17.252  68.358  1.00  0.00    -0.269 A  
HETATM   20  C   UNL     1      -9.540  14.950  68.208  1.00  0.00    -0.214 A  
HETATM   21  C   UNL     1      -8.909  15.979  68.910  1.00  0.00    -0.233 A  
HETATM   22  C   UNL     1      -9.419  17.495  67.112  1.00  0.00    -0.259 A  
HETATM   23  C   UNL     1     -10.082  16.474  66.413  1.00  0.00    -0.312 A  
HETATM   24 CL   UNL     1     -10.876  16.966  64.957  1.00  0.00    -0.212 Cl 
ENDBRANCH   6  18
TORSDOF 1
ENDMDL
MODEL       39
REMARK 921   NORMALIZED FREE ENERGY PREDICTED BY IDOCK:   -5.66 KCAL/MOL
REMARK 922        TOTAL FREE ENERGY PREDICTED BY IDOCK:   -6.65 KCAL/MOL
REMARK 923 INTER-LIGAND FREE ENERGY PREDICTED BY IDOCK:   -5.97 KCAL/MOL
REMARK 924 INTRA-LIGAND FREE ENERGY PREDICTED BY IDOCK:   -0.67 KCAL/MOL
REMARK 927      BINDING AFFINITY PREDICTED BY RF-SCORE:    0.00 PKD
ROOT
HETATM    1  C   UNL     1     -10.218   9.340  67.066  1.00  0.00    -0.262 C  
HETATM    2  N   UNL     1      -9.721  10.700  67.200  1.00  0.00    -0.168 N  
HETATM    3  C   UNL     1     -10.370  11.772  66.513  1.00  0.00    -0.223 A  
HETATM    4  C   UNL     1     -10.418  13.095  67.011  1.00  0.00    -0.248 A  
HETATM    5  C   UNL     1     -11.002  14.126  66.254  1.00  0.00    -0.303 A  
HETATM    6  C   UNL     1      -9.940  13.433  68.384  1.00  0.00    -0.231 C  
HETATM    7  C   UNL     1     -11.615  13.832  65.041  1.00  0.00    -0.341 A  
HETATM    8  N   UNL     1      -8.774  13.089  68.826  1.00  0.00    -0.377 NA 
HETATM    9  H   UNL     1      -6.023  11.690  67.929  1.00  0.00     0.000 HD 
HETATM   10  O   UNL     1      -8.015   9.910  68.544  1.00  0.00    -0.084 OA 
HETATM   11  C   UNL     1     -11.624  12.530  64.556  1.00  0.00    -0.406 A  
HETATM   12  C   UNL     1      -7.915  12.277  67.984  1.00  0.00    -0.150 C  
HETATM   13  H   UNL     1      -8.464  13.383  69.752  1.00  0.00     0.000 HD 
HETATM   14 CL   UNL     1     -12.402  15.077  64.154  1.00  0.00    -0.362 Cl 
HETATM   15  O   UNL     1      -6.585  12.221  68.480  1.00  0.00    -0.062 OA 
HETATM   16  C   UNL     1      -8.547  10.857  67.954  1.00  0.00    -0.130 C  
HETATM   17  C   UNL     1     -10.997  11.512  65.282  1.00  0.00    -0.291 A  
ENDROOT
BRANCH   6  18
HETATM   18  C   UNL     1     -10.807  14.218  69.338  1.00  0.00    -0.197 A  
HETATM   19  C   UNL     1     -12.663  15.504  71.031  1.00  0.00    -0.526 A  
HETATM   20  C   UNL     1     -11.900  13.521  69.895  1.00  0.00    -0.386 A  
HETATM   21  C   UNL     1     -12.824  14.159  70.724  1.00  0.00    -0.378 A  
HETATM   22  C   UNL     1     -11.586  16.210  70.497  1.00  0.00    -0.322 A  
HETATM   23  C   UNL     1     -10.670  15.584  69.637  1.00  0.00    -0.271 A  
HETATM   24 CL   UNL     1      -9.481  16.626  68.934  1.00  0.00    -0.253 Cl 
ENDBRANCH   6  18
TORSDOF 1
ENDMDL
MODEL       40
REMARK 921   NORMALIZED FREE ENERGY PREDICTED BY IDOCK:   -5.65 KCAL/MOL
REMARK 922        TOTAL FREE ENERGY PREDICTED BY IDOCK:   -6.63 KCAL/MOL
REMARK 923 INTER-LIGAND FREE ENERGY PREDICTED BY IDOCK:   -6.02 KCAL/MOL
REMARK 924 INTRA-LIGAND FREE ENERGY PREDICTED BY IDOCK:   -0.61 KCAL/MOL
REMARK 927      BINDING AFFINITY PREDICTED BY RF-SCORE:    0.00 PKD
ROOT
HETATM    1  C   UNL     1     -10.916   5.776  70.226  1.00  0.00    -0.276 C  
HETATM    2  N   UNL     1     -10.919   7.187  70.576  1.00  0.00    -0.253 N  
HETATM    3  C   UNL     1      -9.734   7.969  70.417  1.00  0.00    -0.178 A  
HETATM    4  C   UNL     1      -9.752   9.350  70.112  1.00  0.00    -0.274 A  
HETATM    5  C   UNL     1      -8.555  10.086  70.045  1.00  0.00    -0.122 A  
HETATM    6  C   UNL     1     -11.018  10.058  69.762  1.00  0.00    -0.276 C  
HETATM    7  C   UNL     1      -7.334   9.436  70.196  1.00  0.00    -0.110 A  
HETATM    8  N   UNL     1     -12.083   9.995  70.492  1.00  0.00    -0.380 NA 
HETATM    9  H   UNL     1     -13.196   8.836  73.276  1.00  0.00     0.000 HD 
HETATM   10  O   UNL     1     -13.116   6.978  71.262  1.00  0.00    -0.369 OA 
HETATM   11  C   UNL     1      -7.291   8.071  70.447  1.00  0.00    -0.063 A  
HETATM   12  C   UNL     1     -12.080   9.144  71.667  1.00  0.00    -0.362 C  
HETATM   13  H   UNL     1     -12.913  10.534  70.245  1.00  0.00     0.000 HD 
HETATM   14 CL   UNL     1      -5.869  10.320  70.032  1.00  0.00    -0.050 Cl 
HETATM   15  O   UNL     1     -13.198   9.393  72.506  1.00  0.00    -0.426 OA 
HETATM   16  C   UNL     1     -12.105   7.679  71.146  1.00  0.00    -0.298 C  
HETATM   17  C   UNL     1      -8.482   7.347  70.566  1.00  0.00    -0.137 A  
ENDROOT
BRANCH   6  18
HETATM   18  C   UNL     1     -11.115  10.908  68.518  1.00  0.00    -0.311 A  
HETATM   19  C   UNL     1     -11.541  12.633  66.326  1.00  0.00    -0.440 A  
HETATM   20  C   UNL     1     -11.658  12.199  68.693  1.00  0.00    -0.372 A  
HETATM   21  C   UNL     1     -11.878  13.049  67.607  1.00  0.00    -0.401 A  
HETATM   22  C   UNL     1     -10.996  11.364  66.132  1.00  0.00    -0.294 A  
HETATM   23  C   UNL     1     -10.801  10.491  67.213  1.00  0.00    -0.279 A  
HETATM   24 CL   UNL     1     -10.264   8.901  66.795  1.00  0.00    -0.348 Cl 
ENDBRANCH   6  18
TORSDOF 1
ENDMDL
MODEL       41
REMARK 921   NORMALIZED FREE ENERGY PREDICTED BY IDOCK:   -5.64 KCAL/MOL
REMARK 922        TOTAL FREE ENERGY PREDICTED BY IDOCK:   -6.61 KCAL/MOL
REMARK 923 INTER-LIGAND FREE ENERGY PREDICTED BY IDOCK:   -5.98 KCAL/MOL
REMARK 924 INTRA-LIGAND FREE ENERGY PREDICTED BY IDOCK:   -0.63 KCAL/MOL
REMARK 927      BINDING AFFINITY PREDICTED BY RF-SCORE:    0.00 PKD
ROOT
HETATM    1  C   UNL     1     -12.420   6.755  71.934  1.00  0.00    -0.312 C  
HETATM    2  N   UNL     1     -11.935   8.097  71.657  1.00  0.00    -0.286 N  
HETATM    3  C   UNL     1     -10.537   8.333  71.482  1.00  0.00    -0.235 A  
HETATM    4  C   UNL     1     -10.021   9.345  70.640  1.00  0.00    -0.349 A  
HETATM    5  C   UNL     1      -8.636   9.583  70.568  1.00  0.00    -0.231 A  
HETATM    6  C   UNL     1     -10.904  10.134  69.732  1.00  0.00    -0.279 C  
HETATM    7  C   UNL     1      -7.756   8.762  71.265  1.00  0.00    -0.120 A  
HETATM    8  N   UNL     1     -11.976  10.732  70.140  1.00  0.00    -0.319 NA 
HETATM    9  H   UNL     1     -13.664  11.401  72.791  1.00  0.00     0.000 HD 
HETATM   10  O   UNL     1     -14.104   8.879  71.812  1.00  0.00    -0.394 OA 
HETATM   11  C   UNL     1      -8.239   7.730  72.059  1.00  0.00    -0.134 A  
HETATM   12  C   UNL     1     -12.383  10.577  71.524  1.00  0.00    -0.341 C  
HETATM   13  H   UNL     1     -12.526  11.304  69.499  1.00  0.00     0.000 HD 
HETATM   14 CL   UNL     1      -6.061   8.999  71.112  1.00  0.00    -0.052 Cl 
HETATM   15  O   UNL     1     -13.398  11.502  71.886  1.00  0.00    -0.443 OA 
HETATM   16  C   UNL     1     -12.901   9.117  71.666  1.00  0.00    -0.363 C  
HETATM   17  C   UNL     1      -9.617   7.525  72.174  1.00  0.00    -0.190 A  
ENDROOT
BRANCH   6  18
HETATM   18  C   UNL     1     -10.578  10.283  68.266  1.00  0.00    -0.255 A  
HETATM   19  C   UNL     1     -10.142  10.818  65.529  1.00  0.00    -0.335 A  
HETATM   20  C   UNL     1     -10.553  11.604  67.770  1.00  0.00    -0.227 A  
HETATM   21  C   UNL     1     -10.348  11.869  66.414  1.00  0.00    -0.252 A  
HETATM   22  C   UNL     1     -10.156   9.506  66.000  1.00  0.00    -0.319 A  
HETATM   23  C   UNL     1     -10.394   9.229  67.355  1.00  0.00    -0.263 A  
HETATM   24 CL   UNL     1     -10.534   7.552  67.756  1.00  0.00    -0.283 Cl 
ENDBRANCH   6  18
TORSDOF 1
ENDMDL
MODEL       42
REMARK 921   NORMALIZED FREE ENERGY PREDICTED BY IDOCK:   -5.59 KCAL/MOL
REMARK 922        TOTAL FREE ENERGY PREDICTED BY IDOCK:   -6.56 KCAL/MOL
REMARK 923 INTER-LIGAND FREE ENERGY PREDICTED BY IDOCK:   -5.89 KCAL/MOL
REMARK 924 INTRA-LIGAND FREE ENERGY PREDICTED BY IDOCK:   -0.67 KCAL/MOL
REMARK 927      BINDING AFFINITY PREDICTED BY RF-SCORE:    0.00 PKD
ROOT
HETATM    1  C   UNL     1     -11.904  14.956  67.725  1.00  0.00    -0.251 C  
HETATM    2  N   UNL     1     -11.208  14.082  66.794  1.00  0.00    -0.307 N  
HETATM    3  C   UNL     1      -9.853  13.703  67.043  1.00  0.00    -0.251 A  
HETATM    4  C   UNL     1      -9.308  12.463  66.635  1.00  0.00    -0.227 A  
HETATM    5  C   UNL     1      -7.946  12.176  66.837  1.00  0.00    -0.089 A  
HETATM    6  C   UNL     1     -10.164  11.381  66.063  1.00  0.00    -0.245 C  
HETATM    7  C   UNL     1      -7.142  13.083  67.520  1.00  0.00    -0.154 A  
HETATM    8  N   UNL     1     -10.983  11.579  65.083  1.00  0.00    -0.267 NA 
HETATM    9  H   UNL     1     -11.941  13.809  62.976  1.00  0.00     0.000 HD 
HETATM   10  O   UNL     1     -13.089  14.067  65.452  1.00  0.00    -0.763 OA 
HETATM   11  C   UNL     1      -7.668  14.285  67.973  1.00  0.00    -0.141 A  
HETATM   12  C   UNL     1     -11.137  12.922  64.555  1.00  0.00    -0.342 C  
HETATM   13  H   UNL     1     -11.513  10.803  64.687  1.00  0.00     0.000 HD 
HETATM   14 CL   UNL     1      -5.498  12.697  67.839  1.00  0.00    -0.088 Cl 
HETATM   15  O   UNL     1     -11.841  12.930  63.322  1.00  0.00    -0.537 OA 
HETATM   16  C   UNL     1     -11.914  13.729  65.633  1.00  0.00    -0.388 C  
HETATM   17  C   UNL     1      -9.010  14.596  67.726  1.00  0.00    -0.181 A  
ENDROOT
BRANCH   6  18
HETATM   18  C   UNL     1     -10.105   9.975  66.607  1.00  0.00    -0.289 A  
HETATM   19  C   UNL     1      -9.989   7.472  67.906  1.00  0.00    -0.203 A  
HETATM   20  C   UNL     1     -10.678   9.781  67.882  1.00  0.00    -0.312 A  
HETATM   21  C   UNL     1     -10.612   8.545  68.529  1.00  0.00    -0.154 A  
HETATM   22  C   UNL     1      -9.422   7.640  66.644  1.00  0.00    -0.255 A  
HETATM   23  C   UNL     1      -9.456   8.887  65.999  1.00  0.00    -0.252 A  
HETATM   24 CL   UNL     1      -8.577   8.977  64.512  1.00  0.00    -0.193 Cl 
ENDBRANCH   6  18
TORSDOF 1
ENDMDL
MODEL       43
REMARK 921   NORMALIZED FREE ENERGY PREDICTED BY IDOCK:   -5.58 KCAL/MOL
REMARK 922        TOTAL FREE ENERGY PREDICTED BY IDOCK:   -6.56 KCAL/MOL
REMARK 923 INTER-LIGAND FREE ENERGY PREDICTED BY IDOCK:   -5.98 KCAL/MOL
REMARK 924 INTRA-LIGAND FREE ENERGY PREDICTED BY IDOCK:   -0.58 KCAL/MOL
REMARK 927      BINDING AFFINITY PREDICTED BY RF-SCORE:    0.00 PKD
ROOT
HETATM    1  C   UNL     1     -10.095  10.967  63.326  1.00  0.00    -0.312 C  
HETATM    2  N   UNL     1     -10.676  11.604  64.497  1.00  0.00    -0.304 N  
HETATM    3  C   UNL     1     -10.368  11.118  65.805  1.00  0.00    -0.260 A  
HETATM    4  C   UNL     1     -10.322  11.948  66.949  1.00  0.00    -0.238 A  
HETATM    5  C   UNL     1     -10.093  11.400  68.224  1.00  0.00    -0.204 A  
HETATM    6  C   UNL     1     -10.422  13.433  66.844  1.00  0.00    -0.273 C  
HETATM    7  C   UNL     1      -9.824  10.042  68.356  1.00  0.00    -0.154 A  
HETATM    8  N   UNL     1     -11.369  14.029  66.195  1.00  0.00    -0.315 NA 
HETATM    9  H   UNL     1     -14.095  13.471  64.588  1.00  0.00     0.000 HD 
HETATM   10  O   UNL     1     -11.832  13.039  63.102  1.00  0.00    -0.494 OA 
HETATM   11  C   UNL     1      -9.815   9.217  67.239  1.00  0.00    -0.244 A  
HETATM   12  C   UNL     1     -12.341  13.227  65.476  1.00  0.00    -0.480 C  
HETATM   13  H   UNL     1     -11.431  15.047  66.189  1.00  0.00     0.000 HD 
HETATM   14 CL   UNL     1      -9.462   9.387  69.903  1.00  0.00    -0.212 Cl 
HETATM   15  O   UNL     1     -13.459  13.996  65.058  1.00  0.00    -0.381 OA 
HETATM   16  C   UNL     1     -11.595  12.635  64.246  1.00  0.00    -0.374 C  
HETATM   17  C   UNL     1     -10.095   9.749  65.976  1.00  0.00    -0.322 A  
ENDROOT
BRANCH   6  18
HETATM   18  C   UNL     1      -9.408  14.330  67.511  1.00  0.00    -0.199 A  
HETATM   19  C   UNL     1      -7.307  15.776  68.721  1.00  0.00    -0.141 A  
HETATM   20  C   UNL     1      -8.066  14.143  67.118  1.00  0.00    -0.139 A  
HETATM   21  C   UNL     1      -7.025  14.851  67.723  1.00  0.00    -0.193 A  
HETATM   22  C   UNL     1      -8.628  15.980  69.119  1.00  0.00    -0.247 A  
HETATM   23  C   UNL     1      -9.677  15.250  68.539  1.00  0.00    -0.211 A  
HETATM   24 CL   UNL     1     -11.235  15.502  69.245  1.00  0.00    -0.287 Cl 
ENDBRANCH   6  18
TORSDOF 1
ENDMDL
MODEL       44
REMARK 921   NORMALIZED FREE ENERGY PREDICTED BY IDOCK:   -5.52 KCAL/MOL
REMARK 922        TOTAL FREE ENERGY PREDICTED BY IDOCK:   -6.50 KCAL/MOL
REMARK 923 INTER-LIGAND FREE ENERGY PREDICTED BY IDOCK:   -5.85 KCAL/MOL
REMARK 924 INTRA-LIGAND FREE ENERGY PREDICTED BY IDOCK:   -0.65 KCAL/MOL
REMARK 927      BINDING AFFINITY PREDICTED BY RF-SCORE:    0.00 PKD
ROOT
HETATM    1  C   UNL     1     -12.009  14.652  67.659  1.00  0.00    -0.274 C  
HETATM    2  N   UNL     1     -11.200  13.849  66.757  1.00  0.00    -0.310 N  
HETATM    3  C   UNL     1      -9.837  13.562  67.079  1.00  0.00    -0.251 A  
HETATM    4  C   UNL     1      -9.182  12.372  66.684  1.00  0.00    -0.218 A  
HETATM    5  C   UNL     1      -7.817  12.179  66.961  1.00  0.00    -0.123 A  
HETATM    6  C   UNL     1      -9.923  11.244  66.046  1.00  0.00    -0.231 C  
HETATM    7  C   UNL     1      -7.121  13.126  67.704  1.00  0.00    -0.160 A  
HETATM    8  N   UNL     1     -10.697  11.402  65.023  1.00  0.00    -0.291 NA 
HETATM    9  H   UNL     1     -11.691  13.600  62.899  1.00  0.00     0.000 HD 
HETATM   10  O   UNL     1     -12.995  13.726  65.307  1.00  0.00    -0.731 OA 
HETATM   11  C   UNL     1      -7.758  14.280  68.145  1.00  0.00    -0.141 A  
HETATM   12  C   UNL     1     -10.916  12.741  64.507  1.00  0.00    -0.341 C  
HETATM   13  H   UNL     1     -11.146  10.598  64.584  1.00  0.00     0.000 HD 
HETATM   14 CL   UNL     1      -5.474  12.852  68.114  1.00  0.00    -0.076 Cl 
HETATM   15  O   UNL     1     -11.547  12.724  63.236  1.00  0.00    -0.498 OA 
HETATM   16  C   UNL     1     -11.811  13.470  65.551  1.00  0.00    -0.363 C  
HETATM   17  C   UNL     1      -9.101  14.499  67.825  1.00  0.00    -0.190 A  
ENDROOT
BRANCH   6  18
HETATM   18  C   UNL     1      -9.795   9.834  66.571  1.00  0.00    -0.286 A  
HETATM   19  C   UNL     1      -9.553   7.107  67.254  1.00  0.00    -0.179 A  
HETATM   20  C   UNL     1      -9.112   8.925  65.736  1.00  0.00    -0.276 A  
HETATM   21  C   UNL     1      -9.001   7.573  66.069  1.00  0.00    -0.164 A  
HETATM   22  C   UNL     1     -10.227   7.990  68.097  1.00  0.00    -0.251 A  
HETATM   23  C   UNL     1     -10.371   9.344  67.755  1.00  0.00    -0.238 A  
HETATM   24 CL   UNL     1     -11.361  10.278  68.822  1.00  0.00    -0.259 Cl 
ENDBRANCH   6  18
TORSDOF 1
ENDMDL
MODEL       45
REMARK 921   NORMALIZED FREE ENERGY PREDICTED BY IDOCK:   -5.50 KCAL/MOL
REMARK 922        TOTAL FREE ENERGY PREDICTED BY IDOCK:   -6.48 KCAL/MOL
REMARK 923 INTER-LIGAND FREE ENERGY PREDICTED BY IDOCK:   -6.21 KCAL/MOL
REMARK 924 INTRA-LIGAND FREE ENERGY PREDICTED BY IDOCK:   -0.26 KCAL/MOL
REMARK 927      BINDING AFFINITY PREDICTED BY RF-SCORE:    0.00 PKD
ROOT
HETATM    1  C   UNL     1     -12.119   6.548  71.707  1.00  0.00    -0.342 C  
HETATM    2  N   UNL     1     -11.804   7.942  71.439  1.00  0.00    -0.292 N  
HETATM    3  C   UNL     1     -10.455   8.336  71.180  1.00  0.00    -0.209 A  
HETATM    4  C   UNL     1     -10.113   9.418  70.336  1.00  0.00    -0.310 A  
HETATM    5  C   UNL     1      -8.771   9.810  70.180  1.00  0.00    -0.215 A  
HETATM    6  C   UNL     1     -11.137  10.123  69.511  1.00  0.00    -0.250 C  
HETATM    7  C   UNL     1      -7.760   9.076  70.793  1.00  0.00    -0.128 A  
HETATM    8  N   UNL     1     -12.237  10.589  70.006  1.00  0.00    -0.447 NA 
HETATM    9  H   UNL     1     -13.803  11.006  72.782  1.00  0.00     0.000 HD 
HETATM   10  O   UNL     1     -14.030   8.473  71.759  1.00  0.00    -0.393 OA 
HETATM   11  C   UNL     1      -8.071   7.980  71.587  1.00  0.00    -0.134 A  
HETATM   12  C   UNL     1     -12.530  10.359  71.409  1.00  0.00    -0.415 C  
HETATM   13  H   UNL     1     -12.889  11.110  69.420  1.00  0.00     0.000 HD 
HETATM   14 CL   UNL     1      -6.115   9.505  70.537  1.00  0.00    -0.057 Cl 
HETATM   15  O   UNL     1     -13.612  11.157  71.864  1.00  0.00    -0.239 OA 
HETATM   16  C   UNL     1     -12.873   8.848  71.542  1.00  0.00    -0.334 C  
HETATM   17  C   UNL     1      -9.408   7.620  71.786  1.00  0.00    -0.176 A  
ENDROOT
BRANCH   6  18
HETATM   18  C   UNL     1     -10.930  10.340  68.032  1.00  0.00    -0.345 A  
HETATM   19  C   UNL     1     -10.307  10.546  65.287  1.00  0.00    -0.300 A  
HETATM   20  C   UNL     1     -10.382   9.253  67.319  1.00  0.00    -0.332 A  
HETATM   21  C   UNL     1     -10.064   9.358  65.963  1.00  0.00    -0.302 A  
HETATM   22  C   UNL     1     -10.855  11.631  65.971  1.00  0.00    -0.339 A  
HETATM   23  C   UNL     1     -11.148  11.545  67.342  1.00  0.00    -0.282 A  
HETATM   24 CL   UNL     1     -11.675  13.017  68.081  1.00  0.00    -0.370 Cl 
ENDBRANCH   6  18
TORSDOF 1
ENDMDL
MODEL       46
REMARK 921   NORMALIZED FREE ENERGY PREDICTED BY IDOCK:   -5.49 KCAL/MOL
REMARK 922        TOTAL FREE ENERGY PREDICTED BY IDOCK:   -6.46 KCAL/MOL
REMARK 923 INTER-LIGAND FREE ENERGY PREDICTED BY IDOCK:   -5.81 KCAL/MOL
REMARK 924 INTRA-LIGAND FREE ENERGY PREDICTED BY IDOCK:   -0.66 KCAL/MOL
REMARK 927      BINDING AFFINITY PREDICTED BY RF-SCORE:    0.00 PKD
ROOT
HETATM    1  C   UNL     1     -10.552   6.989  73.439  1.00  0.00    -0.364 C  
HETATM    2  N   UNL     1      -9.738   7.539  72.367  1.00  0.00    -0.154 N  
HETATM    3  C   UNL     1     -10.035   7.220  71.006  1.00  0.00    -0.187 A  
HETATM    4  C   UNL     1      -9.785   8.106  69.931  1.00  0.00    -0.176 A  
HETATM    5  C   UNL     1     -10.024   7.708  68.604  1.00  0.00    -0.181 A  
HETATM    6  C   UNL     1      -9.351   9.514  70.161  1.00  0.00    -0.247 C  
HETATM    7  C   UNL     1     -10.591   6.464  68.345  1.00  0.00    -0.257 A  
HETATM    8  N   UNL     1      -8.351   9.826  70.921  1.00  0.00    -0.360 NA 
HETATM    9  H   UNL     1      -5.982   8.534  72.667  1.00  0.00     0.000 HD 
HETATM   10  O   UNL     1      -8.405   8.567  73.950  1.00  0.00    -0.351 OA 
HETATM   11  C   UNL     1     -10.890   5.598  69.389  1.00  0.00    -0.334 A  
HETATM   12  C   UNL     1      -7.660   8.772  71.640  1.00  0.00    -0.070 C  
HETATM   13  H   UNL     1      -8.053  10.797  71.012  1.00  0.00     0.000 HD 
HETATM   14 CL   UNL     1     -10.960   6.010  66.729  1.00  0.00    -0.366 Cl 
HETATM   15  O   UNL     1      -6.434   9.224  72.196  1.00  0.00    -0.286 OA 
HETATM   16  C   UNL     1      -8.628   8.302  72.763  1.00  0.00    -0.203 C  
HETATM   17  C   UNL     1     -10.604   5.970  70.707  1.00  0.00    -0.316 A  
ENDROOT
BRANCH   6  18
HETATM   18  C   UNL     1     -10.065  10.667  69.498  1.00  0.00    -0.164 A  
HETATM   19  C   UNL     1     -11.122  12.953  68.225  1.00  0.00    -0.294 A  
HETATM   20  C   UNL     1      -9.323  11.379  68.532  1.00  0.00    -0.180 A  
HETATM   21  C   UNL     1      -9.842  12.517  67.910  1.00  0.00    -0.207 A  
HETATM   22  C   UNL     1     -11.874  12.260  69.173  1.00  0.00    -0.355 A  
HETATM   23  C   UNL     1     -11.349  11.134  69.826  1.00  0.00    -0.278 A  
HETATM   24 CL   UNL     1     -12.339  10.477  71.083  1.00  0.00    -0.478 Cl 
ENDBRANCH   6  18
TORSDOF 1
ENDMDL
MODEL       47
REMARK 921   NORMALIZED FREE ENERGY PREDICTED BY IDOCK:   -5.49 KCAL/MOL
REMARK 922        TOTAL FREE ENERGY PREDICTED BY IDOCK:   -6.46 KCAL/MOL
REMARK 923 INTER-LIGAND FREE ENERGY PREDICTED BY IDOCK:   -5.95 KCAL/MOL
REMARK 924 INTRA-LIGAND FREE ENERGY PREDICTED BY IDOCK:   -0.51 KCAL/MOL
REMARK 927      BINDING AFFINITY PREDICTED BY RF-SCORE:    0.00 PKD
ROOT
HETATM    1  C   UNL     1      -7.784   6.973  67.594  1.00  0.00    -0.112 C  
HETATM    2  N   UNL     1      -8.211   8.045  68.479  1.00  0.00    -0.125 N  
HETATM    3  C   UNL     1      -9.155   9.017  68.024  1.00  0.00    -0.136 A  
HETATM    4  C   UNL     1     -10.078   9.661  68.882  1.00  0.00    -0.198 A  
HETATM    5  C   UNL     1     -10.929  10.668  68.393  1.00  0.00    -0.303 A  
HETATM    6  C   UNL     1     -10.251   9.241  70.303  1.00  0.00    -0.227 C  
HETATM    7  C   UNL     1     -10.927  10.978  67.037  1.00  0.00    -0.272 A  
HETATM    8  N   UNL     1      -9.260   9.117  71.124  1.00  0.00    -0.252 NA 
HETATM    9  H   UNL     1      -6.087   9.566  71.371  1.00  0.00     0.000 HD 
HETATM   10  O   UNL     1      -6.775   7.237  70.098  1.00  0.00    -0.052 OA 
HETATM   11  C   UNL     1     -10.063  10.323  66.168  1.00  0.00    -0.307 A  
HETATM   12  C   UNL     1      -7.910   9.324  70.633  1.00  0.00    -0.158 C  
HETATM   13  H   UNL     1      -9.424   8.877  72.102  1.00  0.00     0.000 HD 
HETATM   14 CL   UNL     1     -12.025  12.150  66.425  1.00  0.00    -0.324 Cl 
HETATM   15  O   UNL     1      -6.970   9.430  71.692  1.00  0.00    -0.316 OA 
HETATM   16  C   UNL     1      -7.580   8.099  69.732  1.00  0.00    -0.090 C  
HETATM   17  C   UNL     1      -9.178   9.359  66.661  1.00  0.00    -0.193 A  
ENDROOT
BRANCH   6  18
HETATM   18  C   UNL     1     -11.620   8.945  70.865  1.00  0.00    -0.331 A  
HETATM   19  C   UNL     1     -14.116   8.599  72.136  1.00  0.00    -0.511 A  
HETATM   20  C   UNL     1     -12.249  10.005  71.551  1.00  0.00    -0.496 A  
HETATM   21  C   UNL     1     -13.479   9.831  72.189  1.00  0.00    -0.491 A  
HETATM   22  C   UNL     1     -13.515   7.539  71.458  1.00  0.00    -0.426 A  
HETATM   23  C   UNL     1     -12.264   7.696  70.841  1.00  0.00    -0.168 A  
HETATM   24 CL   UNL     1     -11.580   6.253  70.175  1.00  0.00    -0.460 Cl 
ENDBRANCH   6  18
TORSDOF 1
ENDMDL
MODEL       48
REMARK 921   NORMALIZED FREE ENERGY PREDICTED BY IDOCK:   -5.43 KCAL/MOL
REMARK 922        TOTAL FREE ENERGY PREDICTED BY IDOCK:   -6.40 KCAL/MOL
REMARK 923 INTER-LIGAND FREE ENERGY PREDICTED BY IDOCK:   -5.78 KCAL/MOL
REMARK 924 INTRA-LIGAND FREE ENERGY PREDICTED BY IDOCK:   -0.62 KCAL/MOL
REMARK 927      BINDING AFFINITY PREDICTED BY RF-SCORE:    0.00 PKD
ROOT
HETATM    1  C   UNL     1      -6.108  10.672  66.790  1.00  0.00    -0.074 C  
HETATM    2  N   UNL     1      -7.428  10.536  66.196  1.00  0.00    -0.131 N  
HETATM    3  C   UNL     1      -8.597  10.707  67.000  1.00  0.00    -0.128 A  
HETATM    4  C   UNL     1      -9.817  11.213  66.494  1.00  0.00    -0.242 A  
HETATM    5  C   UNL     1     -10.959  11.285  67.313  1.00  0.00    -0.342 A  
HETATM    6  C   UNL     1      -9.922  11.772  65.115  1.00  0.00    -0.253 C  
HETATM    7  C   UNL     1     -10.870  10.935  68.657  1.00  0.00    -0.217 A  
HETATM    8  N   UNL     1      -9.513  11.136  64.066  1.00  0.00    -0.286 NA 
HETATM    9  H   UNL     1      -8.298   8.318  63.113  1.00  0.00     0.000 HD 
HETATM   10  O   UNL     1      -6.430  10.019  64.177  1.00  0.00    -0.122 OA 
HETATM   11  C   UNL     1      -9.668  10.482  69.186  1.00  0.00    -0.226 A  
HETATM   12  C   UNL     1      -8.859   9.851  64.234  1.00  0.00    -0.225 C  
HETATM   13  H   UNL     1      -9.649  11.530  63.135  1.00  0.00     0.000 HD 
HETATM   14 CL   UNL     1     -12.243  11.101  69.677  1.00  0.00    -0.376 Cl 
HETATM   15  O   UNL     1      -8.725   9.158  63.002  1.00  0.00    -0.213 OA 
HETATM   16  C   UNL     1      -7.461  10.150  64.847  1.00  0.00    -0.137 C  
HETATM   17  C   UNL     1      -8.545  10.360  68.361  1.00  0.00    -0.128 A  
ENDROOT
BRANCH   6  18
HETATM   18  C   UNL     1     -10.531  13.132  64.871  1.00  0.00    -0.369 A  
HETATM   19  C   UNL     1     -11.551  15.757  64.689  1.00  0.00    -0.218 A  
HETATM   20  C   UNL     1      -9.858  14.224  65.457  1.00  0.00    -0.284 A  
HETATM   21  C   UNL     1     -10.367  15.522  65.376  1.00  0.00    -0.422 A  
HETATM   22  C   UNL     1     -12.229  14.692  64.097  1.00  0.00    -0.343 A  
HETATM   23  C   UNL     1     -11.741  13.380  64.200  1.00  0.00    -0.419 A  
HETATM   24 CL   UNL     1     -12.770  12.152  63.548  1.00  0.00    -0.623 Cl 
ENDBRANCH   6  18
TORSDOF 1
ENDMDL
MODEL       49
REMARK 921   NORMALIZED FREE ENERGY PREDICTED BY IDOCK:   -5.42 KCAL/MOL
REMARK 922        TOTAL FREE ENERGY PREDICTED BY IDOCK:   -6.39 KCAL/MOL
REMARK 923 INTER-LIGAND FREE ENERGY PREDICTED BY IDOCK:   -5.72 KCAL/MOL
REMARK 924 INTRA-LIGAND FREE ENERGY PREDICTED BY IDOCK:   -0.67 KCAL/MOL
REMARK 927      BINDING AFFINITY PREDICTED BY RF-SCORE:    0.00 PKD
ROOT
HETATM    1  C   UNL     1     -10.891   5.650  71.883  1.00  0.00    -0.242 C  
HETATM    2  N   UNL     1     -11.057   6.562  70.764  1.00  0.00    -0.280 N  
HETATM    3  C   UNL     1     -11.534   7.891  70.985  1.00  0.00    -0.280 A  
HETATM    4  C   UNL     1     -11.158   8.993  70.182  1.00  0.00    -0.228 A  
HETATM    5  C   UNL     1     -11.720  10.264  70.398  1.00  0.00    -0.404 A  
HETATM    6  C   UNL     1     -10.093   8.878  69.143  1.00  0.00    -0.197 C  
HETATM    7  C   UNL     1     -12.591  10.463  71.465  1.00  0.00    -0.439 A  
HETATM    8  N   UNL     1     -10.091   7.954  68.239  1.00  0.00    -0.188 NA 
HETATM    9  H   UNL     1     -11.837   5.511  67.093  1.00  0.00     0.000 HD 
HETATM   10  O   UNL     1     -10.389   4.875  69.332  1.00  0.00    -0.207 OA 
HETATM   11  C   UNL     1     -12.936   9.405  72.297  1.00  0.00    -0.479 A  
HETATM   12  C   UNL     1     -11.128   6.938  68.270  1.00  0.00    -0.074 C  
HETATM   13  H   UNL     1      -9.373   7.939  67.514  1.00  0.00     0.000 HD 
HETATM   14 CL   UNL     1     -13.215  12.033  71.779  1.00  0.00    -0.510 Cl 
HETATM   15  O   UNL     1     -11.159   6.175  67.072  1.00  0.00    -0.335 OA 
HETATM   16  C   UNL     1     -10.810   6.027  69.489  1.00  0.00    -0.369 C  
HETATM   17  C   UNL     1     -12.419   8.129  72.051  1.00  0.00    -0.375 A  
ENDROOT
BRANCH   6  18
HETATM   18  C   UNL     1      -8.948   9.860  69.091  1.00  0.00    -0.170 A  
HETATM   19  C   UNL     1      -6.783  11.659  69.301  1.00  0.00    -0.115 A  
HETATM   20  C   UNL     1      -7.949   9.696  70.073  1.00  0.00    -0.182 A  
HETATM   21  C   UNL     1      -6.883  10.592  70.184  1.00  0.00    -0.145 A  
HETATM   22  C   UNL     1      -7.757  11.835  68.318  1.00  0.00    -0.130 A  
HETATM   23  C   UNL     1      -8.849  10.958  68.220  1.00  0.00    -0.140 A  
HETATM   24 CL   UNL     1     -10.049  11.396  67.055  1.00  0.00    -0.230 Cl 
ENDBRANCH   6  18
TORSDOF 1
ENDMDL
MODEL       50
REMARK 921   NORMALIZED FREE ENERGY PREDICTED BY IDOCK:   -5.42 KCAL/MOL
REMARK 922        TOTAL FREE ENERGY PREDICTED BY IDOCK:   -6.39 KCAL/MOL
REMARK 923 INTER-LIGAND FREE ENERGY PREDICTED BY IDOCK:   -5.79 KCAL/MOL
REMARK 924 INTRA-LIGAND FREE ENERGY PREDICTED BY IDOCK:   -0.60 KCAL/MOL
REMARK 927      BINDING AFFINITY PREDICTED BY RF-SCORE:    0.00 PKD
ROOT
HETATM    1  C   UNL     1     -12.091  14.026  70.665  1.00  0.00    -0.354 C  
HETATM    2  N   UNL     1     -12.150  12.622  70.293  1.00  0.00    -0.341 N  
HETATM    3  C   UNL     1     -11.787  12.214  68.972  1.00  0.00    -0.306 A  
HETATM    4  C   UNL     1     -11.211  10.955  68.681  1.00  0.00    -0.326 A  
HETATM    5  C   UNL     1     -10.947  10.577  67.352  1.00  0.00    -0.352 A  
HETATM    6  C   UNL     1     -10.777  10.023  69.763  1.00  0.00    -0.271 C  
HETATM    7  C   UNL     1     -11.175  11.479  66.318  1.00  0.00    -0.222 A  
HETATM    8  N   UNL     1     -11.548   9.675  70.740  1.00  0.00    -0.299 NA 
HETATM    9  H   UNL     1     -14.552   9.974  71.844  1.00  0.00     0.000 HD 
HETATM   10  O   UNL     1     -12.953  12.129  72.403  1.00  0.00    -0.214 OA 
HETATM   11  C   UNL     1     -11.694  12.739  66.586  1.00  0.00    -0.459 A  
HETATM   12  C   UNL     1     -12.870  10.266  70.838  1.00  0.00    -0.374 C  
HETATM   13  H   UNL     1     -11.232   8.996  71.433  1.00  0.00     0.000 HD 
HETATM   14 CL   UNL     1     -10.776  11.047  64.702  1.00  0.00    -0.367 Cl 
HETATM   15  O   UNL     1     -13.687   9.587  71.780  1.00  0.00    -0.363 OA 
HETATM   16  C   UNL     1     -12.657  11.746  71.266  1.00  0.00    -0.296 C  
HETATM   17  C   UNL     1     -12.007  13.098  67.901  1.00  0.00    -0.347 A  
ENDROOT
BRANCH   6  18
HETATM   18  C   UNL     1      -9.393   9.421  69.762  1.00  0.00    -0.217 A  
HETATM   19  C   UNL     1      -6.710   8.558  69.622  1.00  0.00    -0.040 A  
HETATM   20  C   UNL     1      -8.321  10.337  69.824  1.00  0.00    -0.099 A  
HETATM   21  C   UNL     1      -6.994   9.911  69.745  1.00  0.00    -0.095 A  
HETATM   22  C   UNL     1      -7.753   7.635  69.565  1.00  0.00    -0.103 A  
HETATM   23  C   UNL     1      -9.091   8.057  69.612  1.00  0.00    -0.152 A  
HETATM   24 CL   UNL     1     -10.270   6.814  69.375  1.00  0.00    -0.192 Cl 
ENDBRANCH   6  18
TORSDOF 1
ENDMDL
MODEL       51
REMARK 921   NORMALIZED FREE ENERGY PREDICTED BY IDOCK:   -5.40 KCAL/MOL
REMARK 922        TOTAL FREE ENERGY PREDICTED BY IDOCK:   -6.37 KCAL/MOL
REMARK 923 INTER-LIGAND FREE ENERGY PREDICTED BY IDOCK:   -5.72 KCAL/MOL
REMARK 924 INTRA-LIGAND FREE ENERGY PREDICTED BY IDOCK:   -0.65 KCAL/MOL
REMARK 927      BINDING AFFINITY PREDICTED BY RF-SCORE:    0.00 PKD
ROOT
HETATM    1  C   UNL     1     -11.785  15.665  67.189  1.00  0.00     0.239 C  
HETATM    2  N   UNL     1     -11.232  14.447  66.619  1.00  0.00    -0.329 N  
HETATM    3  C   UNL     1      -9.891  14.058  66.923  1.00  0.00    -0.267 A  
HETATM    4  C   UNL     1      -9.470  12.709  66.982  1.00  0.00    -0.220 A  
HETATM    5  C   UNL     1      -8.120  12.387  67.208  1.00  0.00    -0.182 A  
HETATM    6  C   UNL     1     -10.444  11.580  66.900  1.00  0.00    -0.235 C  
HETATM    7  C   UNL     1      -7.200  13.400  67.461  1.00  0.00    -0.153 A  
HETATM    8  N   UNL     1     -11.325  11.480  65.959  1.00  0.00    -0.242 NA 
HETATM    9  H   UNL     1     -12.294  12.859  63.222  1.00  0.00     0.000 HD 
HETATM   10  O   UNL     1     -13.213  14.119  65.477  1.00  0.00    -0.688 OA 
HETATM   11  C   UNL     1      -7.601  14.730  67.457  1.00  0.00    -0.215 A  
HETATM   12  C   UNL     1     -11.427  12.543  64.975  1.00  0.00    -0.326 C  
HETATM   13  H   UNL     1     -11.939  10.668  65.909  1.00  0.00     0.000 HD 
HETATM   14 CL   UNL     1      -5.566  13.003  67.819  1.00  0.00    -0.125 Cl 
HETATM   15  O   UNL     1     -12.228  12.164  63.866  1.00  0.00    -0.450 OA 
HETATM   16  C   UNL     1     -12.054  13.761  65.711  1.00  0.00    -0.429 C  
HETATM   17  C   UNL     1      -8.933  15.055  67.180  1.00  0.00    -0.235 A  
ENDROOT
BRANCH   6  18
HETATM   18  C   UNL     1     -10.440  10.474  67.927  1.00  0.00    -0.247 A  
HETATM   19  C   UNL     1     -10.491   8.211  69.612  1.00  0.00    -0.224 A  
HETATM   20  C   UNL     1     -10.036   9.204  67.464  1.00  0.00    -0.284 A  
HETATM   21  C   UNL     1     -10.071   8.082  68.295  1.00  0.00    -0.227 A  
HETATM   22  C   UNL     1     -10.888   9.459  70.091  1.00  0.00    -0.287 A  
HETATM   23  C   UNL     1     -10.886  10.586  69.254  1.00  0.00    -0.243 A  
HETATM   24 CL   UNL     1     -11.550  12.025  69.947  1.00  0.00    -0.348 Cl 
ENDBRANCH   6  18
TORSDOF 1
ENDMDL
MODEL       52
REMARK 921   NORMALIZED FREE ENERGY PREDICTED BY IDOCK:   -5.37 KCAL/MOL
REMARK 922        TOTAL FREE ENERGY PREDICTED BY IDOCK:   -6.34 KCAL/MOL
REMARK 923 INTER-LIGAND FREE ENERGY PREDICTED BY IDOCK:   -5.71 KCAL/MOL
REMARK 924 INTRA-LIGAND FREE ENERGY PREDICTED BY IDOCK:   -0.63 KCAL/MOL
REMARK 927      BINDING AFFINITY PREDICTED BY RF-SCORE:    0.00 PKD
ROOT
HETATM    1  C   UNL     1     -10.469  12.339  68.430  1.00  0.00    -0.233 C  
HETATM    2  N   UNL     1     -11.088  11.264  69.188  1.00  0.00    -0.235 N  
HETATM    3  C   UNL     1     -10.883   9.904  68.802  1.00  0.00    -0.208 A  
HETATM    4  C   UNL     1     -10.867   8.831  69.724  1.00  0.00    -0.196 A  
HETATM    5  C   UNL     1     -10.741   7.503  69.278  1.00  0.00    -0.185 A  
HETATM    6  C   UNL     1     -10.891   9.064  71.198  1.00  0.00    -0.294 C  
HETATM    7  C   UNL     1     -10.544   7.243  67.925  1.00  0.00    -0.202 A  
HETATM    8  N   UNL     1     -11.768   9.818  71.776  1.00  0.00    -0.314 NA 
HETATM    9  H   UNL     1     -14.416  11.545  71.197  1.00  0.00     0.000 HD 
HETATM   10  O   UNL     1     -12.091  12.843  70.546  1.00  0.00    -0.356 OA 
HETATM   11  C   UNL     1     -10.507   8.286  67.009  1.00  0.00    -0.384 A  
HETATM   12  C   UNL     1     -12.732  10.530  70.956  1.00  0.00    -0.408 C  
HETATM   13  H   UNL     1     -11.782   9.912  72.791  1.00  0.00     0.000 HD 
HETATM   14 CL   UNL     1     -10.306   5.627  67.390  1.00  0.00    -0.249 Cl 
HETATM   15  O   UNL     1     -13.785  11.080  71.733  1.00  0.00    -0.067 OA 
HETATM   16  C   UNL     1     -11.942  11.657  70.232  1.00  0.00    -0.358 C  
HETATM   17  C   UNL     1     -10.685   9.603  67.443  1.00  0.00    -0.308 A  
ENDROOT
BRANCH   6  18
HETATM   18  C   UNL     1      -9.877   8.409  72.105  1.00  0.00    -0.372 A  
HETATM   19  C   UNL     1      -8.185   7.229  74.031  1.00  0.00    -0.183 A  
HETATM   20  C   UNL     1     -10.400   7.714  73.216  1.00  0.00    -0.405 A  
HETATM   21  C   UNL     1      -9.564   7.139  74.174  1.00  0.00    -0.272 A  
HETATM   22  C   UNL     1      -7.648   7.905  72.937  1.00  0.00    -0.150 A  
HETATM   23  C   UNL     1      -8.481   8.514  71.986  1.00  0.00    -0.165 A  
HETATM   24 CL   UNL     1      -7.669   9.445  70.775  1.00  0.00    -0.164 Cl 
ENDBRANCH   6  18
TORSDOF 1
ENDMDL
MODEL       53
REMARK 921   NORMALIZED FREE ENERGY PREDICTED BY IDOCK:   -5.30 KCAL/MOL
REMARK 922        TOTAL FREE ENERGY PREDICTED BY IDOCK:   -6.26 KCAL/MOL
REMARK 923 INTER-LIGAND FREE ENERGY PREDICTED BY IDOCK:   -7.01 KCAL/MOL
REMARK 924 INTRA-LIGAND FREE ENERGY PREDICTED BY IDOCK:    0.75 KCAL/MOL
REMARK 927      BINDING AFFINITY PREDICTED BY RF-SCORE:    0.00 PKD
ROOT
HETATM    1  C   UNL     1     -12.038  13.119  63.463  1.00  0.00    -0.514 C  
HETATM    2  N   UNL     1     -11.127  13.067  64.595  1.00  0.00    -0.316 N  
HETATM    3  C   UNL     1     -10.912  14.230  65.396  1.00  0.00    -0.333 A  
HETATM    4  C   UNL     1     -10.608  14.174  66.777  1.00  0.00    -0.277 A  
HETATM    5  C   UNL     1     -10.328  15.349  67.498  1.00  0.00    -0.264 A  
HETATM    6  C   UNL     1     -10.660  12.893  67.539  1.00  0.00    -0.226 C  
HETATM    7  C   UNL     1     -10.433  16.587  66.872  1.00  0.00    -0.282 A  
HETATM    8  N   UNL     1     -10.052  11.820  67.151  1.00  0.00    -0.202 NA 
HETATM    9  H   UNL     1      -8.044  10.703  64.904  1.00  0.00     0.000 HD 
HETATM   10  O   UNL     1     -10.650  10.868  64.069  1.00  0.00    -0.372 OA 
HETATM   11  C   UNL     1     -10.779  16.668  65.529  1.00  0.00    -0.234 A  
HETATM   12  C   UNL     1      -9.344  11.832  65.884  1.00  0.00    -0.202 C  
HETATM   13  H   UNL     1     -10.070  10.978  67.726  1.00  0.00     0.000 HD 
HETATM   14 CL   UNL     1     -10.172  18.027  67.774  1.00  0.00    -0.363 Cl 
HETATM   15  O   UNL     1      -8.507  10.695  65.732  1.00  0.00    -0.169 OA 
HETATM   16  C   UNL     1     -10.434  11.859  64.775  1.00  0.00    -0.289 C  
HETATM   17  C   UNL     1     -11.006  15.498  64.797  1.00  0.00    -0.416 A  
ENDROOT
BRANCH   6  18
HETATM   18  C   UNL     1     -11.432  12.788  68.832  1.00  0.00    -0.352 A  
HETATM   19  C   UNL     1     -12.746  12.862  71.328  1.00  0.00    -0.371 A  
HETATM   20  C   UNL     1     -11.790  14.011  69.438  1.00  0.00    -0.381 A  
HETATM   21  C   UNL     1     -12.431  14.048  70.678  1.00  0.00    -0.435 A  
HETATM   22  C   UNL     1     -12.407  11.643  70.743  1.00  0.00    -0.454 A  
HETATM   23  C   UNL     1     -11.735  11.596  69.512  1.00  0.00    -0.344 A  
HETATM   24 CL   UNL     1     -11.247  10.020  68.992  1.00  0.00    -0.215 Cl 
ENDBRANCH   6  18
TORSDOF 1
ENDMDL
MODEL       54
REMARK 921   NORMALIZED FREE ENERGY PREDICTED BY IDOCK:   -5.29 KCAL/MOL
REMARK 922        TOTAL FREE ENERGY PREDICTED BY IDOCK:   -6.25 KCAL/MOL
REMARK 923 INTER-LIGAND FREE ENERGY PREDICTED BY IDOCK:   -5.92 KCAL/MOL
REMARK 924 INTRA-LIGAND FREE ENERGY PREDICTED BY IDOCK:   -0.33 KCAL/MOL
REMARK 927      BINDING AFFINITY PREDICTED BY RF-SCORE:    0.00 PKD
ROOT
HETATM    1  C   UNL     1      -8.015   7.975  66.173  1.00  0.00    -0.103 C  
HETATM    2  N   UNL     1      -8.260   9.192  66.929  1.00  0.00    -0.115 N  
HETATM    3  C   UNL     1      -9.330  10.064  66.557  1.00  0.00    -0.162 A  
HETATM    4  C   UNL     1     -10.043  10.856  67.487  1.00  0.00    -0.214 A  
HETATM    5  C   UNL     1     -11.033  11.756  67.053  1.00  0.00    -0.333 A  
HETATM    6  C   UNL     1      -9.843  10.708  68.958  1.00  0.00    -0.205 C  
HETATM    7  C   UNL     1     -11.377  11.810  65.706  1.00  0.00    -0.250 A  
HETATM    8  N   UNL     1      -8.677  10.737  69.515  1.00  0.00    -0.388 NA 
HETATM    9  H   UNL     1      -5.564  11.221  68.878  1.00  0.00     0.000 HD 
HETATM   10  O   UNL     1      -6.436   8.697  68.258  1.00  0.00    -0.057 OA 
HETATM   11  C   UNL     1     -10.724  11.004  64.782  1.00  0.00    -0.304 A  
HETATM   12  C   UNL     1      -7.499  10.848  68.674  1.00  0.00    -0.105 C  
HETATM   13  H   UNL     1      -8.585  10.682  70.530  1.00  0.00     0.000 HD 
HETATM   14 CL   UNL     1     -12.644  12.849  65.187  1.00  0.00    -0.566 Cl 
HETATM   15  O   UNL     1      -6.334  11.148  69.429  1.00  0.00    -0.066 OA 
HETATM   16  C   UNL     1      -7.345   9.478  67.955  1.00  0.00    -0.083 C  
HETATM   17  C   UNL     1      -9.702  10.147  65.204  1.00  0.00    -0.370 A  
ENDROOT
BRANCH   6  18
HETATM   18  C   UNL     1     -11.018  10.522  69.888  1.00  0.00    -0.359 A  
HETATM   19  C   UNL     1     -13.151  10.457  71.735  1.00  0.00    -0.567 A  
HETATM   20  C   UNL     1     -11.695  11.699  70.270  1.00  0.00    -0.355 A  
HETATM   21  C   UNL     1     -12.743  11.669  71.192  1.00  0.00    -0.426 A  
HETATM   22  C   UNL     1     -12.500   9.281  71.365  1.00  0.00    -0.418 A  
HETATM   23  C   UNL     1     -11.424   9.306  70.464  1.00  0.00    -0.248 A  
HETATM   24 CL   UNL     1     -10.622   7.792  70.224  1.00  0.00    -0.226 Cl 
ENDBRANCH   6  18
TORSDOF 1
ENDMDL
MODEL       55
REMARK 921   NORMALIZED FREE ENERGY PREDICTED BY IDOCK:   -5.27 KCAL/MOL
REMARK 922        TOTAL FREE ENERGY PREDICTED BY IDOCK:   -6.23 KCAL/MOL
REMARK 923 INTER-LIGAND FREE ENERGY PREDICTED BY IDOCK:   -5.57 KCAL/MOL
REMARK 924 INTRA-LIGAND FREE ENERGY PREDICTED BY IDOCK:   -0.65 KCAL/MOL
REMARK 927      BINDING AFFINITY PREDICTED BY RF-SCORE:    0.00 PKD
ROOT
HETATM    1  C   UNL     1      -8.669   4.590  73.055  1.00  0.00    -0.112 C  
HETATM    2  N   UNL     1      -8.598   5.858  72.347  1.00  0.00    -0.121 N  
HETATM    3  C   UNL     1      -9.206   5.996  71.061  1.00  0.00    -0.157 A  
HETATM    4  C   UNL     1      -9.745   7.215  70.587  1.00  0.00    -0.175 A  
HETATM    5  C   UNL     1     -10.260   7.312  69.281  1.00  0.00    -0.193 A  
HETATM    6  C   UNL     1      -9.875   8.411  71.470  1.00  0.00    -0.208 C  
HETATM    7  C   UNL     1     -10.318   6.180  68.475  1.00  0.00    -0.207 A  
HETATM    8  N   UNL     1      -8.892   8.879  72.167  1.00  0.00    -0.380 NA 
HETATM    9  H   UNL     1      -5.749   8.491  72.715  1.00  0.00     0.000 HD 
HETATM   10  O   UNL     1      -7.332   6.717  74.079  1.00  0.00    -0.087 OA 
HETATM   11  C   UNL     1      -9.839   4.961  68.939  1.00  0.00    -0.241 A  
HETATM   12  C   UNL     1      -7.622   8.176  72.152  1.00  0.00    -0.115 C  
HETATM   13  H   UNL     1      -9.007   9.729  72.719  1.00  0.00     0.000 HD 
HETATM   14 CL   UNL     1     -11.022   6.279  66.910  1.00  0.00    -0.437 Cl 
HETATM   15  O   UNL     1      -6.580   8.951  72.726  1.00  0.00    -0.288 OA 
HETATM   16  C   UNL     1      -7.838   6.866  72.961  1.00  0.00    -0.099 C  
HETATM   17  C   UNL     1      -9.279   4.874  70.217  1.00  0.00    -0.192 A  
ENDROOT
BRANCH   6  18
HETATM   18  C   UNL     1     -11.185   9.152  71.587  1.00  0.00    -0.447 A  
HETATM   19  C   UNL     1     -13.765  10.263  71.858  1.00  0.00    -0.164 A  
HETATM   20  C   UNL     1     -12.149   8.573  72.438  1.00  0.00    -0.436 A  
HETATM   21  C   UNL     1     -13.429   9.116  72.565  1.00  0.00    -0.490 A  
HETATM   22  C   UNL     1     -12.824  10.856  71.016  1.00  0.00    -0.472 A  
HETATM   23  C   UNL     1     -11.546  10.298  70.858  1.00  0.00    -0.365 A  
HETATM   24 CL   UNL     1     -10.548  11.056  69.665  1.00  0.00    -0.189 Cl 
ENDBRANCH   6  18
TORSDOF 1
ENDMDL
MODEL       56
REMARK 921   NORMALIZED FREE ENERGY PREDICTED BY IDOCK:   -5.26 KCAL/MOL
REMARK 922        TOTAL FREE ENERGY PREDICTED BY IDOCK:   -6.21 KCAL/MOL
REMARK 923 INTER-LIGAND FREE ENERGY PREDICTED BY IDOCK:   -5.54 KCAL/MOL
REMARK 924 INTRA-LIGAND FREE ENERGY PREDICTED BY IDOCK:   -0.67 KCAL/MOL
REMARK 927      BINDING AFFINITY PREDICTED BY RF-SCORE:    0.00 PKD
ROOT
HETATM    1  C   UNL     1     -10.546   7.121  73.425  1.00  0.00    -0.382 C  
HETATM    2  N   UNL     1      -9.734   7.617  72.326  1.00  0.00    -0.166 N  
HETATM    3  C   UNL     1     -10.035   7.236  70.982  1.00  0.00    -0.187 A  
HETATM    4  C   UNL     1      -9.785   8.069  69.867  1.00  0.00    -0.180 A  
HETATM    5  C   UNL     1     -10.028   7.610  68.560  1.00  0.00    -0.190 A  
HETATM    6  C   UNL     1      -9.346   9.486  70.029  1.00  0.00    -0.234 C  
HETATM    7  C   UNL     1     -10.598   6.357  68.361  1.00  0.00    -0.257 A  
HETATM    8  N   UNL     1      -8.344   9.830  70.771  1.00  0.00    -0.383 NA 
HETATM    9  H   UNL     1      -5.975   8.616  72.571  1.00  0.00     0.000 HD 
HETATM   10  O   UNL     1      -8.394   8.715  73.856  1.00  0.00    -0.349 OA 
HETATM   11  C   UNL     1     -10.897   5.542  69.446  1.00  0.00    -0.236 A  
HETATM   12  C   UNL     1      -7.654   8.809  71.538  1.00  0.00    -0.096 C  
HETATM   13  H   UNL     1      -8.044  10.804  70.816  1.00  0.00     0.000 HD 
HETATM   14 CL   UNL     1     -10.971   5.829  66.769  1.00  0.00    -0.323 Cl 
HETATM   15  O   UNL     1      -6.426   9.284  72.069  1.00  0.00    -0.278 OA 
HETATM   16  C   UNL     1      -8.621   8.396  72.684  1.00  0.00    -0.171 C  
HETATM   17  C   UNL     1     -10.608   5.975  70.744  1.00  0.00    -0.316 A  
ENDROOT
BRANCH   6  18
HETATM   18  C   UNL     1     -10.059  10.608  69.314  1.00  0.00    -0.227 A  
HETATM   19  C   UNL     1     -11.656  12.570  68.064  1.00  0.00    -0.395 A  
HETATM   20  C   UNL     1     -11.322  10.966  69.830  1.00  0.00    -0.381 A  
HETATM   21  C   UNL     1     -12.117  11.929  69.206  1.00  0.00    -0.270 A  
HETATM   22  C   UNL     1     -10.408  12.237  67.541  1.00  0.00    -0.214 A  
HETATM   23  C   UNL     1      -9.615  11.247  68.143  1.00  0.00    -0.186 A  
HETATM   24 CL   UNL     1      -8.167  10.836  67.292  1.00  0.00    -0.120 Cl 
ENDBRANCH   6  18
TORSDOF 1
ENDMDL
MODEL       57
REMARK 921   NORMALIZED FREE ENERGY PREDICTED BY IDOCK:   -5.25 KCAL/MOL
REMARK 922        TOTAL FREE ENERGY PREDICTED BY IDOCK:   -6.21 KCAL/MOL
REMARK 923 INTER-LIGAND FREE ENERGY PREDICTED BY IDOCK:   -6.62 KCAL/MOL
REMARK 924 INTRA-LIGAND FREE ENERGY PREDICTED BY IDOCK:    0.42 KCAL/MOL
REMARK 927      BINDING AFFINITY PREDICTED BY RF-SCORE:    0.00 PKD
ROOT
HETATM    1  C   UNL     1     -13.765  13.655  71.490  1.00  0.00    -0.156 C  
HETATM    2  N   UNL     1     -12.589  13.809  70.649  1.00  0.00    -0.331 N  
HETATM    3  C   UNL     1     -11.988  12.664  70.041  1.00  0.00    -0.306 A  
HETATM    4  C   UNL     1     -11.318  12.710  68.796  1.00  0.00    -0.333 A  
HETATM    5  C   UNL     1     -10.675  11.568  68.285  1.00  0.00    -0.247 A  
HETATM    6  C   UNL     1     -11.342  13.930  67.938  1.00  0.00    -0.292 C  
HETATM    7  C   UNL     1     -10.768  10.358  68.965  1.00  0.00    -0.228 A  
HETATM    8  N   UNL     1     -11.034  15.105  68.380  1.00  0.00    -0.260 NA 
HETATM    9  H   UNL     1      -9.930  16.638  70.980  1.00  0.00     0.000 HD 
HETATM   10  O   UNL     1     -12.611  16.078  71.087  1.00  0.00    -0.412 OA 
HETATM   11  C   UNL     1     -11.463  10.279  70.166  1.00  0.00    -0.383 A  
HETATM   12  C   UNL     1     -10.719  15.267  69.787  1.00  0.00    -0.283 C  
HETATM   13  H   UNL     1     -11.014  15.907  67.749  1.00  0.00     0.000 HD 
HETATM   14 CL   UNL     1     -10.053   8.944  68.299  1.00  0.00    -0.205 Cl 
HETATM   15  O   UNL     1     -10.136  16.533  70.059  1.00  0.00    -0.004 OA 
HETATM   16  C   UNL     1     -12.060  15.107  70.557  1.00  0.00    -0.343 C  
HETATM   17  C   UNL     1     -12.058  11.426  70.703  1.00  0.00    -0.469 A  
ENDROOT
BRANCH   6  18
HETATM   18  C   UNL     1     -11.725  13.848  66.480  1.00  0.00    -0.414 A  
HETATM   19  C   UNL     1     -12.391  13.389  63.776  1.00  0.00    -0.418 A  
HETATM   20  C   UNL     1     -12.312  12.635  66.063  1.00  0.00    -0.177 A  
HETATM   21  C   UNL     1     -12.633  12.403  64.724  1.00  0.00    -0.419 A  
HETATM   22  C   UNL     1     -11.818  14.598  64.168  1.00  0.00    -0.263 A  
HETATM   23  C   UNL     1     -11.463  14.827  65.507  1.00  0.00    -0.329 A  
HETATM   24 CL   UNL     1     -10.623  16.308  65.809  1.00  0.00    -0.351 Cl 
ENDBRANCH   6  18
TORSDOF 1
ENDMDL
MODEL       58
REMARK 921   NORMALIZED FREE ENERGY PREDICTED BY IDOCK:   -5.22 KCAL/MOL
REMARK 922        TOTAL FREE ENERGY PREDICTED BY IDOCK:   -6.18 KCAL/MOL
REMARK 923 INTER-LIGAND FREE ENERGY PREDICTED BY IDOCK:   -5.55 KCAL/MOL
REMARK 924 INTRA-LIGAND FREE ENERGY PREDICTED BY IDOCK:   -0.62 KCAL/MOL
REMARK 927      BINDING AFFINITY PREDICTED BY RF-SCORE:    0.00 PKD
ROOT
HETATM    1  C   UNL     1     -10.368   9.982  69.870  1.00  0.00    -0.272 C  
HETATM    2  N   UNL     1     -10.467   9.568  68.480  1.00  0.00    -0.211 N  
HETATM    3  C   UNL     1     -10.716  10.537  67.459  1.00  0.00    -0.276 A  
HETATM    4  C   UNL     1     -10.230  10.411  66.137  1.00  0.00    -0.288 A  
HETATM    5  C   UNL     1     -10.574  11.356  65.153  1.00  0.00    -0.352 A  
HETATM    6  C   UNL     1      -9.269   9.336  65.754  1.00  0.00    -0.224 C  
HETATM    7  C   UNL     1     -11.329  12.472  65.500  1.00  0.00    -0.331 A  
HETATM    8  N   UNL     1      -9.472   8.086  66.018  1.00  0.00    -0.413 NA 
HETATM    9  H   UNL     1     -11.648   6.065  67.246  1.00  0.00     0.000 HD 
HETATM   10  O   UNL     1     -10.166   7.375  69.144  1.00  0.00    -0.185 OA 
HETATM   11  C   UNL     1     -11.775  12.641  66.804  1.00  0.00    -0.460 A  
HETATM   12  C   UNL     1     -10.648   7.711  66.781  1.00  0.00    -0.186 C  
HETATM   13  H   UNL     1      -8.816   7.376  65.695  1.00  0.00     0.000 HD 
HETATM   14 CL   UNL     1     -11.680  13.669  64.317  1.00  0.00    -0.428 Cl 
HETATM   15  O   UNL     1     -10.879   6.310  66.747  1.00  0.00    -0.326 OA 
HETATM   16  C   UNL     1     -10.392   8.186  68.240  1.00  0.00    -0.197 C  
HETATM   17  C   UNL     1     -11.479  11.675  67.772  1.00  0.00    -0.373 A  
ENDROOT
BRANCH   6  18
HETATM   18  C   UNL     1      -7.993   9.660  65.017  1.00  0.00    -0.122 A  
HETATM   19  C   UNL     1      -5.545  10.466  63.867  1.00  0.00    -0.147 A  
HETATM   20  C   UNL     1      -6.904  10.069  65.816  1.00  0.00    -0.111 A  
HETATM   21  C   UNL     1      -5.696  10.477  65.247  1.00  0.00    -0.141 A  
HETATM   22  C   UNL     1      -6.605  10.060  63.059  1.00  0.00    -0.130 A  
HETATM   23  C   UNL     1      -7.834   9.678  63.620  1.00  0.00    -0.138 A  
HETATM   24 CL   UNL     1      -9.098   9.350  62.486  1.00  0.00    -0.243 Cl 
ENDBRANCH   6  18
TORSDOF 1
ENDMDL
MODEL       59
REMARK 921   NORMALIZED FREE ENERGY PREDICTED BY IDOCK:   -5.21 KCAL/MOL
REMARK 922        TOTAL FREE ENERGY PREDICTED BY IDOCK:   -6.16 KCAL/MOL
REMARK 923 INTER-LIGAND FREE ENERGY PREDICTED BY IDOCK:   -6.12 KCAL/MOL
REMARK 924 INTRA-LIGAND FREE ENERGY PREDICTED BY IDOCK:   -0.04 KCAL/MOL
REMARK 927      BINDING AFFINITY PREDICTED BY RF-SCORE:    0.00 PKD
ROOT
HETATM    1  C   UNL     1      -7.485  15.111  67.229  1.00  0.00    -0.194 C  
HETATM    2  N   UNL     1      -8.870  15.190  67.662  1.00  0.00    -0.169 N  
HETATM    3  C   UNL     1      -9.886  14.483  66.947  1.00  0.00    -0.262 A  
HETATM    4  C   UNL     1     -11.053  13.971  67.562  1.00  0.00    -0.313 A  
HETATM    5  C   UNL     1     -12.057  13.354  66.795  1.00  0.00    -0.419 A  
HETATM    6  C   UNL     1     -11.225  13.981  69.045  1.00  0.00    -0.276 C  
HETATM    7  C   UNL     1     -11.867  13.167  65.429  1.00  0.00    -0.372 A  
HETATM    8  N   UNL     1     -11.063  15.043  69.764  1.00  0.00    -0.265 NA 
HETATM    9  H   UNL     1     -10.478  18.196  69.550  1.00  0.00     0.000 HD 
HETATM   10  O   UNL     1      -8.229  16.642  69.342  1.00  0.00    -0.113 OA 
HETATM   11  C   UNL     1     -10.707  13.618  64.813  1.00  0.00    -0.420 A  
HETATM   12  C   UNL     1     -10.625  16.268  69.119  1.00  0.00    -0.292 C  
HETATM   13  H   UNL     1     -11.240  15.021  70.768  1.00  0.00     0.000 HD 
HETATM   14 CL   UNL     1     -13.057  12.339  64.506  1.00  0.00    -0.164 Cl 
HETATM   15  O   UNL     1     -10.764  17.395  69.972  1.00  0.00     0.142 OA 
HETATM   16  C   UNL     1      -9.133  16.052  68.739  1.00  0.00    -0.222 C  
HETATM   17  C   UNL     1      -9.731  14.279  65.565  1.00  0.00    -0.189 A  
ENDROOT
BRANCH   6  18
HETATM   18  C   UNL     1     -11.615  12.727  69.790  1.00  0.00    -0.288 A  
HETATM   19  C   UNL     1     -12.332  10.238  70.910  1.00  0.00    -0.471 A  
HETATM   20  C   UNL     1     -11.147  11.514  69.244  1.00  0.00    -0.305 A  
HETATM   21  C   UNL     1     -11.509  10.281  69.792  1.00  0.00    -0.320 A  
HETATM   22  C   UNL     1     -12.800  11.427  71.469  1.00  0.00    -0.508 A  
HETATM   23  C   UNL     1     -12.467  12.668  70.906  1.00  0.00    -0.278 A  
HETATM   24 CL   UNL     1     -13.248  14.039  71.616  1.00  0.00    -0.419 Cl 
ENDBRANCH   6  18
TORSDOF 1
ENDMDL
MODEL       60
REMARK 921   NORMALIZED FREE ENERGY PREDICTED BY IDOCK:   -5.17 KCAL/MOL
REMARK 922        TOTAL FREE ENERGY PREDICTED BY IDOCK:   -6.13 KCAL/MOL
REMARK 923 INTER-LIGAND FREE ENERGY PREDICTED BY IDOCK:   -5.46 KCAL/MOL
REMARK 924 INTRA-LIGAND FREE ENERGY PREDICTED BY IDOCK:   -0.67 KCAL/MOL
REMARK 927      BINDING AFFINITY PREDICTED BY RF-SCORE:    0.00 PKD
ROOT
HETATM    1  C   UNL     1      -7.063  10.819  69.794  1.00  0.00    -0.124 C  
HETATM    2  N   UNL     1      -7.261  10.482  68.393  1.00  0.00    -0.078 N  
HETATM    3  C   UNL     1      -8.224   9.494  68.022  1.00  0.00    -0.114 A  
HETATM    4  C   UNL     1      -8.935   9.525  66.800  1.00  0.00    -0.157 A  
HETATM    5  C   UNL     1      -9.812   8.482  66.453  1.00  0.00    -0.327 A  
HETATM    6  C   UNL     1      -8.856  10.696  65.878  1.00  0.00    -0.174 C  
HETATM    7  C   UNL     1     -10.052   7.450  67.355  1.00  0.00    -0.211 A  
HETATM    8  N   UNL     1      -7.736  11.200  65.477  1.00  0.00    -0.356 NA 
HETATM    9  H   UNL     1      -4.555  10.755  65.602  1.00  0.00     0.000 HD 
HETATM   10  O   UNL     1      -5.586  11.972  67.832  1.00  0.00    -0.048 OA 
HETATM   11  C   UNL     1      -9.401   7.426  68.582  1.00  0.00    -0.139 A  
HETATM   12  C   UNL     1      -6.494  10.656  65.996  1.00  0.00    -0.129 C  
HETATM   13  H   UNL     1      -7.724  11.969  64.806  1.00  0.00     0.000 HD 
HETATM   14 CL   UNL     1     -11.186   6.219  66.965  1.00  0.00    -0.363 Cl 
HETATM   15  O   UNL     1      -5.367  11.111  65.263  1.00  0.00    -0.216 OA 
HETATM   16  C   UNL     1      -6.402  11.114  67.479  1.00  0.00    -0.065 C  
HETATM   17  C   UNL     1      -8.488   8.434  68.907  1.00  0.00    -0.124 A  
ENDROOT
BRANCH   6  18
HETATM   18  C   UNL     1     -10.108  11.356  65.351  1.00  0.00    -0.308 A  
HETATM   19  C   UNL     1     -12.285  12.653  64.108  1.00  0.00    -0.532 A  
HETATM   20  C   UNL     1     -10.271  11.338  63.949  1.00  0.00    -0.420 A  
HETATM   21  C   UNL     1     -11.343  11.989  63.333  1.00  0.00    -0.484 A  
HETATM   22  C   UNL     1     -12.145  12.677  65.495  1.00  0.00    -0.515 A  
HETATM   23  C   UNL     1     -11.054  12.053  66.121  1.00  0.00    -0.322 A  
HETATM   24 CL   UNL     1     -10.937  12.301  67.828  1.00  0.00    -0.256 Cl 
ENDBRANCH   6  18
TORSDOF 1
ENDMDL
MODEL       61
REMARK 921   NORMALIZED FREE ENERGY PREDICTED BY IDOCK:   -5.17 KCAL/MOL
REMARK 922        TOTAL FREE ENERGY PREDICTED BY IDOCK:   -6.13 KCAL/MOL
REMARK 923 INTER-LIGAND FREE ENERGY PREDICTED BY IDOCK:   -5.48 KCAL/MOL
REMARK 924 INTRA-LIGAND FREE ENERGY PREDICTED BY IDOCK:   -0.65 KCAL/MOL
REMARK 927      BINDING AFFINITY PREDICTED BY RF-SCORE:    0.00 PKD
ROOT
HETATM    1  C   UNL     1     -11.723  12.848  67.393  1.00  0.00    -0.372 C  
HETATM    2  N   UNL     1     -10.773  12.009  68.106  1.00  0.00    -0.207 N  
HETATM    3  C   UNL     1     -11.209  11.205  69.204  1.00  0.00    -0.264 A  
HETATM    4  C   UNL     1     -10.617   9.965  69.540  1.00  0.00    -0.264 A  
HETATM    5  C   UNL     1     -11.036   9.256  70.680  1.00  0.00    -0.336 A  
HETATM    6  C   UNL     1      -9.600   9.319  68.660  1.00  0.00    -0.147 C  
HETATM    7  C   UNL     1     -12.099   9.731  71.439  1.00  0.00    -0.400 A  
HETATM    8  N   UNL     1      -8.550   9.938  68.228  1.00  0.00    -0.114 NA 
HETATM    9  H   UNL     1      -6.959  12.721  68.466  1.00  0.00     0.000 HD 
HETATM   10  O   UNL     1      -9.089  12.813  66.743  1.00  0.00    -0.217 OA 
HETATM   11  C   UNL     1     -12.728  10.922  71.099  1.00  0.00    -0.530 A  
HETATM   12  C   UNL     1      -8.381  11.344  68.550  1.00  0.00    -0.153 C  
HETATM   13  H   UNL     1      -7.851   9.447  67.670  1.00  0.00     0.000 HD 
HETATM   14 CL   UNL     1     -12.665   8.822  72.784  1.00  0.00    -0.299 Cl 
HETATM   15  O   UNL     1      -7.069  11.802  68.255  1.00  0.00    -0.069 OA 
HETATM   16  C   UNL     1      -9.432  12.116  67.704  1.00  0.00    -0.187 C  
HETATM   17  C   UNL     1     -12.279  11.657  69.997  1.00  0.00    -0.338 A  
ENDROOT
BRANCH   6  18
HETATM   18  C   UNL     1      -9.745   7.880  68.230  1.00  0.00    -0.172 A  
HETATM   19  C   UNL     1     -10.304   5.262  67.336  1.00  0.00    -0.237 A  
HETATM   20  C   UNL     1     -10.620   7.643  67.149  1.00  0.00    -0.410 A  
HETATM   21  C   UNL     1     -10.905   6.347  66.713  1.00  0.00    -0.361 A  
HETATM   22  C   UNL     1      -9.431   5.473  68.402  1.00  0.00    -0.144 A  
HETATM   23  C   UNL     1      -9.164   6.770  68.868  1.00  0.00    -0.131 A  
HETATM   24 CL   UNL     1      -8.185   6.861  70.291  1.00  0.00    -0.127 Cl 
ENDBRANCH   6  18
TORSDOF 1
ENDMDL
MODEL       62
REMARK 921   NORMALIZED FREE ENERGY PREDICTED BY IDOCK:   -5.13 KCAL/MOL
REMARK 922        TOTAL FREE ENERGY PREDICTED BY IDOCK:   -6.08 KCAL/MOL
REMARK 923 INTER-LIGAND FREE ENERGY PREDICTED BY IDOCK:   -5.41 KCAL/MOL
REMARK 924 INTRA-LIGAND FREE ENERGY PREDICTED BY IDOCK:   -0.67 KCAL/MOL
REMARK 927      BINDING AFFINITY PREDICTED BY RF-SCORE:    0.00 PKD
ROOT
HETATM    1  C   UNL     1      -7.173   9.739  65.862  1.00  0.00    -0.103 C  
HETATM    2  N   UNL     1      -7.814  10.962  66.315  1.00  0.00    -0.159 N  
HETATM    3  C   UNL     1      -9.123  11.300  65.852  1.00  0.00    -0.204 A  
HETATM    4  C   UNL     1     -10.055  12.030  66.626  1.00  0.00    -0.220 A  
HETATM    5  C   UNL     1     -11.300  12.403  66.088  1.00  0.00    -0.398 A  
HETATM    6  C   UNL     1      -9.798  12.354  68.060  1.00  0.00    -0.205 C  
HETATM    7  C   UNL     1     -11.658  11.978  64.813  1.00  0.00    -0.281 A  
HETATM    8  N   UNL     1      -8.707  12.914  68.469  1.00  0.00    -0.347 NA 
HETATM    9  H   UNL     1      -5.961  14.210  67.415  1.00  0.00     0.000 HD 
HETATM   10  O   UNL     1      -5.915  11.471  67.529  1.00  0.00    -0.055 OA 
HETATM   11  C   UNL     1     -10.778  11.217  64.053  1.00  0.00    -0.444 A  
HETATM   12  C   UNL     1      -7.650  13.179  67.510  1.00  0.00    -0.163 C  
HETATM   13  H   UNL     1      -8.590  13.166  69.451  1.00  0.00     0.000 HD 
HETATM   14 CL   UNL     1     -13.212  12.362  64.187  1.00  0.00    -0.151 Cl 
HETATM   15  O   UNL     1      -6.652  14.036  68.043  1.00  0.00    -0.113 OA 
HETATM   16  C   UNL     1      -7.041  11.797  67.138  1.00  0.00    -0.146 C  
HETATM   17  C   UNL     1      -9.518  10.891  64.566  1.00  0.00    -0.284 A  
ENDROOT
BRANCH   6  18
HETATM   18  C   UNL     1     -10.825  12.046  69.123  1.00  0.00    -0.175 A  
HETATM   19  C   UNL     1     -12.791  11.201  70.962  1.00  0.00    -0.424 A  
HETATM   20  C   UNL     1     -11.008  10.681  69.428  1.00  0.00    -0.304 A  
HETATM   21  C   UNL     1     -11.988  10.262  70.330  1.00  0.00    -0.391 A  
HETATM   22  C   UNL     1     -12.623  12.556  70.680  1.00  0.00    -0.237 A  
HETATM   23  C   UNL     1     -11.662  12.985  69.750  1.00  0.00    -0.276 A  
HETATM   24 CL   UNL     1     -11.678  14.677  69.393  1.00  0.00    -0.330 Cl 
ENDBRANCH   6  18
TORSDOF 1
ENDMDL
MODEL       63
REMARK 921   NORMALIZED FREE ENERGY PREDICTED BY IDOCK:   -5.09 KCAL/MOL
REMARK 922        TOTAL FREE ENERGY PREDICTED BY IDOCK:   -6.04 KCAL/MOL
REMARK 923 INTER-LIGAND FREE ENERGY PREDICTED BY IDOCK:   -5.68 KCAL/MOL
REMARK 924 INTRA-LIGAND FREE ENERGY PREDICTED BY IDOCK:   -0.36 KCAL/MOL
REMARK 927      BINDING AFFINITY PREDICTED BY RF-SCORE:    0.00 PKD
ROOT
HETATM    1  C   UNL     1     -11.107  11.351  63.626  1.00  0.00    -0.325 C  
HETATM    2  N   UNL     1     -10.254  11.157  64.787  1.00  0.00    -0.285 N  
HETATM    3  C   UNL     1     -10.701  11.564  66.081  1.00  0.00    -0.274 A  
HETATM    4  C   UNL     1     -10.315  10.911  67.275  1.00  0.00    -0.255 A  
HETATM    5  C   UNL     1     -10.723  11.405  68.527  1.00  0.00    -0.235 A  
HETATM    6  C   UNL     1      -9.546   9.632  67.255  1.00  0.00    -0.164 C  
HETATM    7  C   UNL     1     -11.583  12.496  68.594  1.00  0.00    -0.314 A  
HETATM    8  N   UNL     1      -8.457   9.479  66.576  1.00  0.00    -0.125 NA 
HETATM    9  H   UNL     1      -6.358  11.073  64.737  1.00  0.00     0.000 HD 
HETATM   10  O   UNL     1      -8.620  10.290  63.401  1.00  0.00    -0.169 OA 
HETATM   11  C   UNL     1     -12.014  13.123  67.432  1.00  0.00    -0.379 A  
HETATM   12  C   UNL     1      -7.992  10.568  65.737  1.00  0.00    -0.158 C  
HETATM   13  H   UNL     1      -7.933   8.605  66.628  1.00  0.00     0.000 HD 
HETATM   14 CL   UNL     1     -12.147  13.049  70.121  1.00  0.00    -0.408 Cl 
HETATM   15  O   UNL     1      -6.662  10.360  65.285  1.00  0.00    -0.129 OA 
HETATM   16  C   UNL     1      -8.973  10.641  64.532  1.00  0.00    -0.196 C  
HETATM   17  C   UNL     1     -11.568  12.666  66.188  1.00  0.00    -0.445 A  
ENDROOT
BRANCH   6  18
HETATM   18  C   UNL     1     -10.007   8.435  68.051  1.00  0.00    -0.221 A  
HETATM   19  C   UNL     1     -11.112   6.186  69.349  1.00  0.00    -0.479 A  
HETATM   20  C   UNL     1     -10.770   7.481  67.346  1.00  0.00    -0.331 A  
HETATM   21  C   UNL     1     -11.326   6.373  67.989  1.00  0.00    -0.086 A  
HETATM   22  C   UNL     1     -10.355   7.113  70.063  1.00  0.00    -0.219 A  
HETATM   23  C   UNL     1      -9.820   8.247  69.431  1.00  0.00    -0.185 A  
HETATM   24 CL   UNL     1      -9.038   9.380  70.478  1.00  0.00    -0.299 Cl 
ENDBRANCH   6  18
TORSDOF 1
ENDMDL
MODEL       64
REMARK 921   NORMALIZED FREE ENERGY PREDICTED BY IDOCK:   -5.09 KCAL/MOL
REMARK 922        TOTAL FREE ENERGY PREDICTED BY IDOCK:   -6.03 KCAL/MOL
REMARK 923 INTER-LIGAND FREE ENERGY PREDICTED BY IDOCK:   -5.40 KCAL/MOL
REMARK 924 INTRA-LIGAND FREE ENERGY PREDICTED BY IDOCK:   -0.64 KCAL/MOL
REMARK 927      BINDING AFFINITY PREDICTED BY RF-SCORE:    0.00 PKD
ROOT
HETATM    1  C   UNL     1      -6.727   9.379  69.407  1.00  0.00    -0.048 C  
HETATM    2  N   UNL     1      -7.978   9.394  68.666  1.00  0.00    -0.092 N  
HETATM    3  C   UNL     1      -9.211   9.637  69.347  1.00  0.00    -0.189 A  
HETATM    4  C   UNL     1     -10.317  10.278  68.741  1.00  0.00    -0.211 A  
HETATM    5  C   UNL     1     -11.533  10.418  69.434  1.00  0.00    -0.292 A  
HETATM    6  C   UNL     1     -10.215  10.907  67.392  1.00  0.00    -0.201 C  
HETATM    7  C   UNL     1     -11.628  10.001  70.758  1.00  0.00    -0.360 A  
HETATM    8  N   UNL     1      -9.748  10.284  66.360  1.00  0.00    -0.191 NA 
HETATM    9  H   UNL     1      -8.686   7.411  65.387  1.00  0.00     0.000 HD 
HETATM   10  O   UNL     1      -6.808   8.880  66.741  1.00  0.00    -0.074 OA 
HETATM   11  C   UNL     1     -10.538   9.413  71.388  1.00  0.00    -0.381 A  
HETATM   12  C   UNL     1      -9.233   8.937  66.526  1.00  0.00    -0.183 C  
HETATM   13  H   UNL     1      -9.742  10.732  65.443  1.00  0.00     0.000 HD 
HETATM   14 CL   UNL     1     -13.087  10.247  71.631  1.00  0.00    -0.528 Cl 
HETATM   15  O   UNL     1      -9.022   8.292  65.278  1.00  0.00    -0.095 OA 
HETATM   16  C   UNL     1      -7.892   9.075  67.302  1.00  0.00    -0.099 C  
HETATM   17  C   UNL     1      -9.344   9.224  70.684  1.00  0.00    -0.329 A  
ENDROOT
BRANCH   6  18
HETATM   18  C   UNL     1     -10.671  12.328  67.160  1.00  0.00    -0.265 A  
HETATM   19  C   UNL     1     -11.642  14.883  66.459  1.00  0.00    -0.254 A  
HETATM   20  C   UNL     1     -11.841  12.482  66.387  1.00  0.00    -0.445 A  
HETATM   21  C   UNL     1     -12.316  13.746  66.031  1.00  0.00    -0.499 A  
HETATM   22  C   UNL     1     -10.488  14.752  67.230  1.00  0.00    -0.264 A  
HETATM   23  C   UNL     1      -9.985  13.485  67.565  1.00  0.00    -0.230 A  
HETATM   24 CL   UNL     1      -8.465  13.485  68.391  1.00  0.00    -0.163 Cl 
ENDBRANCH   6  18
TORSDOF 1
ENDMDL
MODEL       65
REMARK 921   NORMALIZED FREE ENERGY PREDICTED BY IDOCK:   -5.03 KCAL/MOL
REMARK 922        TOTAL FREE ENERGY PREDICTED BY IDOCK:   -5.97 KCAL/MOL
REMARK 923 INTER-LIGAND FREE ENERGY PREDICTED BY IDOCK:   -5.30 KCAL/MOL
REMARK 924 INTRA-LIGAND FREE ENERGY PREDICTED BY IDOCK:   -0.67 KCAL/MOL
REMARK 927      BINDING AFFINITY PREDICTED BY RF-SCORE:    0.00 PKD
ROOT
HETATM    1  C   UNL     1     -12.406   6.790  70.965  1.00  0.00    -0.315 C  
HETATM    2  N   UNL     1     -11.156   7.472  70.672  1.00  0.00    -0.261 N  
HETATM    3  C   UNL     1     -10.604   7.423  69.354  1.00  0.00    -0.226 A  
HETATM    4  C   UNL     1      -9.832   8.469  68.798  1.00  0.00    -0.180 A  
HETATM    5  C   UNL     1      -9.247   8.331  67.527  1.00  0.00    -0.155 A  
HETATM    6  C   UNL     1      -9.682   9.784  69.488  1.00  0.00    -0.212 C  
HETATM    7  C   UNL     1      -9.497   7.192  66.769  1.00  0.00    -0.169 A  
HETATM    8  N   UNL     1      -9.314   9.891  70.723  1.00  0.00    -0.308 NA 
HETATM    9  H   UNL     1      -8.305   8.162  73.237  1.00  0.00     0.000 HD 
HETATM   10  O   UNL     1     -11.024   8.115  72.887  1.00  0.00    -0.364 OA 
HETATM   11  C   UNL     1     -10.294   6.173  67.276  1.00  0.00    -0.272 A  
HETATM   12  C   UNL     1      -9.105   8.684  71.501  1.00  0.00    -0.239 C  
HETATM   13  H   UNL     1      -9.174  10.810  71.144  1.00  0.00     0.000 HD 
HETATM   14 CL   UNL     1      -8.851   7.059  65.182  1.00  0.00     0.132 Cl 
HETATM   15  O   UNL     1      -8.443   8.952  72.729  1.00  0.00    -0.380 OA 
HETATM   16  C   UNL     1     -10.515   8.082  71.762  1.00  0.00    -0.229 C  
HETATM   17  C   UNL     1     -10.833   6.284  68.562  1.00  0.00    -0.394 A  
ENDROOT
BRANCH   6  18
HETATM   18  C   UNL     1      -9.948  11.079  68.759  1.00  0.00    -0.215 A  
HETATM   19  C   UNL     1     -10.685  13.356  67.264  1.00  0.00    -0.265 A  
HETATM   20  C   UNL     1     -11.294  11.332  68.421  1.00  0.00    -0.348 A  
HETATM   21  C   UNL     1     -11.658  12.453  67.673  1.00  0.00    -0.421 A  
HETATM   22  C   UNL     1      -9.350  13.128  67.592  1.00  0.00    -0.205 A  
HETATM   23  C   UNL     1      -8.971  11.987  68.317  1.00  0.00    -0.186 A  
HETATM   24 CL   UNL     1      -7.267  11.764  68.513  1.00  0.00    -0.089 Cl 
ENDBRANCH   6  18
TORSDOF 1
ENDMDL
MODEL       66
REMARK 921   NORMALIZED FREE ENERGY PREDICTED BY IDOCK:   -5.01 KCAL/MOL
REMARK 922        TOTAL FREE ENERGY PREDICTED BY IDOCK:   -5.95 KCAL/MOL
REMARK 923 INTER-LIGAND FREE ENERGY PREDICTED BY IDOCK:   -5.34 KCAL/MOL
REMARK 924 INTRA-LIGAND FREE ENERGY PREDICTED BY IDOCK:   -0.61 KCAL/MOL
REMARK 927      BINDING AFFINITY PREDICTED BY RF-SCORE:    0.00 PKD
ROOT
HETATM    1  C   UNL     1     -12.064  14.179  66.732  1.00  0.00    -0.442 C  
HETATM    2  N   UNL     1     -10.794  13.661  67.214  1.00  0.00    -0.282 N  
HETATM    3  C   UNL     1     -10.765  12.519  68.072  1.00  0.00    -0.221 A  
HETATM    4  C   UNL     1      -9.700  11.588  68.087  1.00  0.00    -0.192 A  
HETATM    5  C   UNL     1      -9.687  10.527  69.009  1.00  0.00    -0.221 A  
HETATM    6  C   UNL     1      -8.602  11.638  67.077  1.00  0.00    -0.169 C  
HETATM    7  C   UNL     1     -10.772  10.336  69.860  1.00  0.00    -0.294 A  
HETATM    8  N   UNL     1      -7.932  12.713  66.821  1.00  0.00    -0.401 NA 
HETATM    9  H   UNL     1      -7.559  15.765  67.759  1.00  0.00     0.000 HD 
HETATM   10  O   UNL     1      -9.711  15.375  66.106  1.00  0.00    -0.271 OA 
HETATM   11  C   UNL     1     -11.851  11.209  69.828  1.00  0.00    -0.422 A  
HETATM   12  C   UNL     1      -8.302  13.948  67.487  1.00  0.00    -0.196 C  
HETATM   13  H   UNL     1      -7.155  12.694  66.160  1.00  0.00     0.000 HD 
HETATM   14 CL   UNL     1     -10.795   8.991  70.929  1.00  0.00    -0.296 Cl 
HETATM   15  O   UNL     1      -7.317  14.957  67.323  1.00  0.00    -0.199 OA 
HETATM   16  C   UNL     1      -9.652  14.397  66.858  1.00  0.00    -0.256 C  
HETATM   17  C   UNL     1     -11.842  12.297  68.948  1.00  0.00    -0.355 A  
ENDROOT
BRANCH   6  18
HETATM   18  C   UNL     1      -8.206  10.407  66.298  1.00  0.00    -0.144 A  
HETATM   19  C   UNL     1      -7.173   8.183  64.901  1.00  0.00    -0.081 A  
HETATM   20  C   UNL     1      -6.998   9.792  66.687  1.00  0.00    -0.085 A  
HETATM   21  C   UNL     1      -6.481   8.697  65.990  1.00  0.00    -0.057 A  
HETATM   22  C   UNL     1      -8.373   8.773  64.504  1.00  0.00    -0.171 A  
HETATM   23  C   UNL     1      -8.883   9.892  65.179  1.00  0.00    -0.180 A  
HETATM   24 CL   UNL     1     -10.294  10.603  64.475  1.00  0.00    -0.409 Cl 
ENDBRANCH   6  18
TORSDOF 1
ENDMDL
MODEL       67
REMARK 921   NORMALIZED FREE ENERGY PREDICTED BY IDOCK:   -5.01 KCAL/MOL
REMARK 922        TOTAL FREE ENERGY PREDICTED BY IDOCK:   -5.95 KCAL/MOL
REMARK 923 INTER-LIGAND FREE ENERGY PREDICTED BY IDOCK:   -5.28 KCAL/MOL
REMARK 924 INTRA-LIGAND FREE ENERGY PREDICTED BY IDOCK:   -0.67 KCAL/MOL
REMARK 927      BINDING AFFINITY PREDICTED BY RF-SCORE:    0.00 PKD
ROOT
HETATM    1  C   UNL     1     -10.566  10.743  68.914  1.00  0.00    -0.216 C  
HETATM    2  N   UNL     1     -11.109   9.656  69.712  1.00  0.00    -0.236 N  
HETATM    3  C   UNL     1     -10.768   8.303  69.407  1.00  0.00    -0.151 A  
HETATM    4  C   UNL     1     -10.685   7.285  70.386  1.00  0.00    -0.253 A  
HETATM    5  C   UNL     1     -10.423   5.953  70.016  1.00  0.00    -0.334 A  
HETATM    6  C   UNL     1     -10.780   7.591  71.843  1.00  0.00    -0.217 C  
HETATM    7  C   UNL     1     -10.158   5.643  68.686  1.00  0.00    -0.183 A  
HETATM    8  N   UNL     1     -11.741   8.289  72.353  1.00  0.00    -0.387 NA 
HETATM    9  H   UNL     1     -14.515   9.730  71.605  1.00  0.00     0.000 HD 
HETATM   10  O   UNL     1     -12.297  11.203  70.952  1.00  0.00    -0.360 OA 
HETATM   11  C   UNL     1     -10.185   6.636  67.715  1.00  0.00    -0.207 A  
HETATM   12  C   UNL     1     -12.737   8.865  71.469  1.00  0.00    -0.335 C  
HETATM   13  H   UNL     1     -11.797   8.434  73.362  1.00  0.00     0.000 HD 
HETATM   14 CL   UNL     1      -9.756   4.031  68.247  1.00  0.00    -0.177 Cl 
HETATM   15  O   UNL     1     -13.862   9.354  72.184  1.00  0.00    -0.414 OA 
HETATM   16  C   UNL     1     -12.030  10.021  70.707  1.00  0.00    -0.335 C  
HETATM   17  C   UNL     1     -10.498   7.952  68.072  1.00  0.00    -0.245 A  
ENDROOT
BRANCH   6  18
HETATM   18  C   UNL     1      -9.742   7.081  72.813  1.00  0.00    -0.178 A  
HETATM   19  C   UNL     1      -7.588   6.221  74.422  1.00  0.00    -0.092 A  
HETATM   20  C   UNL     1      -8.496   7.743  72.790  1.00  0.00    -0.196 A  
HETATM   21  C   UNL     1      -7.427   7.312  73.578  1.00  0.00    -0.103 A  
HETATM   22  C   UNL     1      -8.813   5.556  74.465  1.00  0.00    -0.117 A  
HETATM   23  C   UNL     1      -9.883   5.963  73.653  1.00  0.00    -0.174 A  
HETATM   24 CL   UNL     1     -11.282   4.947  73.705  1.00  0.00    -0.370 Cl 
ENDBRANCH   6  18
TORSDOF 1
ENDMDL
MODEL       68
REMARK 921   NORMALIZED FREE ENERGY PREDICTED BY IDOCK:   -5.00 KCAL/MOL
REMARK 922        TOTAL FREE ENERGY PREDICTED BY IDOCK:   -5.94 KCAL/MOL
REMARK 923 INTER-LIGAND FREE ENERGY PREDICTED BY IDOCK:   -5.27 KCAL/MOL
REMARK 924 INTRA-LIGAND FREE ENERGY PREDICTED BY IDOCK:   -0.67 KCAL/MOL
REMARK 927      BINDING AFFINITY PREDICTED BY RF-SCORE:    0.00 PKD
ROOT
HETATM    1  C   UNL     1     -10.495  10.842  66.802  1.00  0.00    -0.251 C  
HETATM    2  N   UNL     1     -10.846  10.170  68.043  1.00  0.00    -0.258 N  
HETATM    3  C   UNL     1     -10.593   8.772  68.198  1.00  0.00    -0.147 A  
HETATM    4  C   UNL     1     -10.292   8.173  69.444  1.00  0.00    -0.219 A  
HETATM    5  C   UNL     1     -10.131   6.780  69.549  1.00  0.00    -0.192 A  
HETATM    6  C   UNL     1     -10.045   8.991  70.667  1.00  0.00    -0.229 C  
HETATM    7  C   UNL     1     -10.182   5.988  68.406  1.00  0.00    -0.181 A  
HETATM    8  N   UNL     1     -10.858   9.911  71.073  1.00  0.00    -0.299 NA 
HETATM    9  H   UNL     1     -13.721  11.233  70.450  1.00  0.00     0.000 HD 
HETATM   10  O   UNL     1     -11.705  12.161  68.841  1.00  0.00    -0.288 OA 
HETATM   11  C   UNL     1     -10.427   6.562  67.165  1.00  0.00    -0.354 A  
HETATM   12  C   UNL     1     -12.029  10.217  70.271  1.00  0.00    -0.264 C  
HETATM   13  H   UNL     1     -10.679  10.413  71.942  1.00  0.00     0.000 HD 
HETATM   14 CL   UNL     1      -9.902   4.296  68.523  1.00  0.00    -0.166 Cl 
HETATM   15  O   UNL     1     -12.955  11.032  70.974  1.00  0.00    -0.347 OA 
HETATM   16  C   UNL     1     -11.509  10.952  69.002  1.00  0.00    -0.302 C  
HETATM   17  C   UNL     1     -10.641   7.941  67.065  1.00  0.00    -0.381 A  
ENDROOT
BRANCH   6  18
HETATM   18  C   UNL     1      -8.814   8.772  71.513  1.00  0.00    -0.295 A  
HETATM   19  C   UNL     1      -6.357   8.327  72.829  1.00  0.00    -0.089 A  
HETATM   20  C   UNL     1      -7.588   9.155  70.930  1.00  0.00    -0.146 A  
HETATM   21  C   UNL     1      -6.371   8.925  71.576  1.00  0.00    -0.075 A  
HETATM   22  C   UNL     1      -7.559   7.946  73.426  1.00  0.00    -0.184 A  
HETATM   23  C   UNL     1      -8.784   8.144  72.770  1.00  0.00    -0.217 A  
HETATM   24 CL   UNL     1     -10.168   7.482  73.568  1.00  0.00    -0.392 Cl 
ENDBRANCH   6  18
TORSDOF 1
ENDMDL
MODEL       69
REMARK 921   NORMALIZED FREE ENERGY PREDICTED BY IDOCK:   -4.98 KCAL/MOL
REMARK 922        TOTAL FREE ENERGY PREDICTED BY IDOCK:   -5.93 KCAL/MOL
REMARK 923 INTER-LIGAND FREE ENERGY PREDICTED BY IDOCK:   -5.26 KCAL/MOL
REMARK 924 INTRA-LIGAND FREE ENERGY PREDICTED BY IDOCK:   -0.66 KCAL/MOL
REMARK 927      BINDING AFFINITY PREDICTED BY RF-SCORE:    0.00 PKD
ROOT
HETATM    1  C   UNL     1      -6.683   5.964  72.275  1.00  0.00    -0.072 C  
HETATM    2  N   UNL     1      -7.153   7.073  71.460  1.00  0.00    -0.072 N  
HETATM    3  C   UNL     1      -8.044   6.834  70.369  1.00  0.00    -0.116 A  
HETATM    4  C   UNL     1      -9.014   7.771  69.942  1.00  0.00    -0.146 A  
HETATM    5  C   UNL     1      -9.810   7.515  68.811  1.00  0.00    -0.166 A  
HETATM    6  C   UNL     1      -9.295   9.015  70.716  1.00  0.00    -0.249 C  
HETATM    7  C   UNL     1      -9.705   6.293  68.153  1.00  0.00    -0.122 A  
HETATM    8  N   UNL     1      -8.368   9.835  71.089  1.00  0.00    -0.231 NA 
HETATM    9  H   UNL     1      -5.213  10.395  70.837  1.00  0.00     0.000 HD 
HETATM   10  O   UNL     1      -5.850   8.507  72.720  1.00  0.00    -0.063 OA 
HETATM   11  C   UNL     1      -8.794   5.339  68.586  1.00  0.00    -0.103 A  
HETATM   12  C   UNL     1      -6.982   9.504  70.809  1.00  0.00    -0.102 C  
HETATM   13  H   UNL     1      -8.606  10.701  71.573  1.00  0.00     0.000 HD 
HETATM   14 CL   UNL     1     -10.736   5.946  66.822  1.00  0.00    -0.376 Cl 
HETATM   15  O   UNL     1      -6.119  10.611  71.020  1.00  0.00    -0.325 OA 
HETATM   16  C   UNL     1      -6.612   8.333  71.762  1.00  0.00    -0.064 C  
HETATM   17  C   UNL     1      -7.963   5.612  69.678  1.00  0.00    -0.095 A  
ENDROOT
BRANCH   6  18
HETATM   18  C   UNL     1     -10.706   9.389  71.100  1.00  0.00    -0.417 A  
HETATM   19  C   UNL     1     -13.258  10.384  71.783  1.00  0.00    -0.529 A  
HETATM   20  C   UNL     1     -11.200  10.588  70.545  1.00  0.00    -0.348 A  
HETATM   21  C   UNL     1     -12.459  11.086  70.890  1.00  0.00    -0.509 A  
HETATM   22  C   UNL     1     -12.791   9.193  72.338  1.00  0.00    -0.438 A  
HETATM   23  C   UNL     1     -11.515   8.701  72.021  1.00  0.00    -0.367 A  
HETATM   24 CL   UNL     1     -11.019   7.300  72.905  1.00  0.00    -0.351 Cl 
ENDBRANCH   6  18
TORSDOF 1
ENDMDL
MODEL       70
REMARK 921   NORMALIZED FREE ENERGY PREDICTED BY IDOCK:   -4.97 KCAL/MOL
REMARK 922        TOTAL FREE ENERGY PREDICTED BY IDOCK:   -5.91 KCAL/MOL
REMARK 923 INTER-LIGAND FREE ENERGY PREDICTED BY IDOCK:   -5.23 KCAL/MOL
REMARK 924 INTRA-LIGAND FREE ENERGY PREDICTED BY IDOCK:   -0.67 KCAL/MOL
REMARK 927      BINDING AFFINITY PREDICTED BY RF-SCORE:    0.00 PKD
ROOT
HETATM    1  C   UNL     1      -5.417  17.163  66.088  1.00  0.00     0.088 C  
HETATM    2  N   UNL     1      -6.471  16.740  66.995  1.00  0.00    -0.178 N  
HETATM    3  C   UNL     1      -7.680  17.496  67.093  1.00  0.00    -0.205 A  
HETATM    4  C   UNL     1      -8.934  16.916  67.396  1.00  0.00    -0.215 A  
HETATM    5  C   UNL     1     -10.076  17.721  67.557  1.00  0.00    -0.340 A  
HETATM    6  C   UNL     1      -9.117  15.437  67.465  1.00  0.00    -0.194 C  
HETATM    7  C   UNL     1      -9.995  19.092  67.334  1.00  0.00    -0.342 A  
HETATM    8  N   UNL     1      -8.358  14.668  68.176  1.00  0.00    -0.137 NA 
HETATM    9  H   UNL     1      -5.940  14.731  70.293  1.00  0.00     0.000 HD 
HETATM   10  O   UNL     1      -5.130  14.989  67.686  1.00  0.00    -0.291 OA 
HETATM   11  C   UNL     1      -8.783  19.675  66.987  1.00  0.00    -0.369 A  
HETATM   12  C   UNL     1      -7.233  15.252  68.885  1.00  0.00    -0.137 C  
HETATM   13  H   UNL     1      -8.547  13.668  68.238  1.00  0.00     0.000 HD 
HETATM   14 CL   UNL     1     -11.407  20.064  67.450  1.00  0.00     0.198 Cl 
HETATM   15  O   UNL     1      -6.676  14.350  69.829  1.00  0.00    -0.145 OA 
HETATM   16  C   UNL     1      -6.182  15.627  67.802  1.00  0.00    -0.158 C  
HETATM   17  C   UNL     1      -7.634  18.885  66.878  1.00  0.00    -0.240 A  
ENDROOT
BRANCH   6  18
HETATM   18  C   UNL     1     -10.225  14.754  66.702  1.00  0.00    -0.271 A  
HETATM   19  C   UNL     1     -12.218  13.654  65.032  1.00  0.00    -0.450 A  
HETATM   20  C   UNL     1     -10.038  14.644  65.308  1.00  0.00    -0.393 A  
HETATM   21  C   UNL     1     -11.028  14.110  64.480  1.00  0.00    -0.340 A  
HETATM   22  C   UNL     1     -12.420  13.747  66.409  1.00  0.00    -0.404 A  
HETATM   23  C   UNL     1     -11.444  14.312  67.244  1.00  0.00    -0.352 A  
HETATM   24 CL   UNL     1     -11.903  14.498  68.901  1.00  0.00    -0.359 Cl 
ENDBRANCH   6  18
TORSDOF 1
ENDMDL
MODEL       71
REMARK 921   NORMALIZED FREE ENERGY PREDICTED BY IDOCK:   -4.96 KCAL/MOL
REMARK 922        TOTAL FREE ENERGY PREDICTED BY IDOCK:   -5.90 KCAL/MOL
REMARK 923 INTER-LIGAND FREE ENERGY PREDICTED BY IDOCK:   -5.33 KCAL/MOL
REMARK 924 INTRA-LIGAND FREE ENERGY PREDICTED BY IDOCK:   -0.56 KCAL/MOL
REMARK 927      BINDING AFFINITY PREDICTED BY RF-SCORE:    0.00 PKD
ROOT
HETATM    1  C   UNL     1     -12.161  14.218  68.391  1.00  0.00    -0.262 C  
HETATM    2  N   UNL     1     -11.691  12.844  68.464  1.00  0.00    -0.320 N  
HETATM    3  C   UNL     1     -11.145  12.210  67.305  1.00  0.00    -0.287 A  
HETATM    4  C   UNL     1     -10.141  11.216  67.367  1.00  0.00    -0.213 A  
HETATM    5  C   UNL     1      -9.698  10.570  66.199  1.00  0.00    -0.259 A  
HETATM    6  C   UNL     1      -9.451  10.878  68.646  1.00  0.00    -0.190 C  
HETATM    7  C   UNL     1     -10.189  10.968  64.959  1.00  0.00    -0.299 A  
HETATM    8  N   UNL     1     -10.088  10.594  69.734  1.00  0.00    -0.442 NA 
HETATM    9  H   UNL     1     -13.045  10.122  70.903  1.00  0.00     0.000 HD 
HETATM   10  O   UNL     1     -12.359  12.767  70.675  1.00  0.00    -0.360 OA 
HETATM   11  C   UNL     1     -11.139  11.977  64.872  1.00  0.00    -0.368 A  
HETATM   12  C   UNL     1     -11.537  10.673  69.741  1.00  0.00    -0.309 C  
HETATM   13  H   UNL     1      -9.580  10.319  70.575  1.00  0.00     0.000 HD 
HETATM   14 CL   UNL     1      -9.587  10.236  63.525  1.00  0.00    -0.345 Cl 
HETATM   15  O   UNL     1     -12.096  10.070  70.899  1.00  0.00    -0.307 OA 
HETATM   16  C   UNL     1     -11.892  12.186  69.688  1.00  0.00    -0.322 C  
HETATM   17  C   UNL     1     -11.620  12.584  66.036  1.00  0.00    -0.456 A  
ENDROOT
BRANCH   6  18
HETATM   18  C   UNL     1      -7.944  10.841  68.730  1.00  0.00    -0.136 A  
HETATM   19  C   UNL     1      -5.163  10.619  69.153  1.00  0.00    -0.041 A  
HETATM   20  C   UNL     1      -7.390   9.735  69.408  1.00  0.00    -0.087 A  
HETATM   21  C   UNL     1      -6.015   9.630  69.627  1.00  0.00    -0.036 A  
HETATM   22  C   UNL     1      -5.689  11.717  68.474  1.00  0.00    -0.045 A  
HETATM   23  C   UNL     1      -7.073  11.847  68.278  1.00  0.00    -0.081 A  
HETATM   24 CL   UNL     1      -7.583  13.334  67.557  1.00  0.00    -0.165 Cl 
ENDBRANCH   6  18
TORSDOF 1
ENDMDL
MODEL       72
REMARK 921   NORMALIZED FREE ENERGY PREDICTED BY IDOCK:   -4.94 KCAL/MOL
REMARK 922        TOTAL FREE ENERGY PREDICTED BY IDOCK:   -5.88 KCAL/MOL
REMARK 923 INTER-LIGAND FREE ENERGY PREDICTED BY IDOCK:   -5.23 KCAL/MOL
REMARK 924 INTRA-LIGAND FREE ENERGY PREDICTED BY IDOCK:   -0.66 KCAL/MOL
REMARK 927      BINDING AFFINITY PREDICTED BY RF-SCORE:    0.00 PKD
ROOT
HETATM    1  C   UNL     1      -8.863   8.513  69.430  1.00  0.00    -0.141 C  
HETATM    2  N   UNL     1      -8.417   9.779  68.873  1.00  0.00    -0.123 N  
HETATM    3  C   UNL     1      -8.903  10.215  67.601  1.00  0.00    -0.125 A  
HETATM    4  C   UNL     1      -9.068  11.578  67.260  1.00  0.00    -0.164 A  
HETATM    5  C   UNL     1      -9.474  11.950  65.966  1.00  0.00    -0.241 A  
HETATM    6  C   UNL     1      -8.909  12.663  68.272  1.00  0.00    -0.172 C  
HETATM    7  C   UNL     1      -9.801  10.969  65.035  1.00  0.00    -0.269 A  
HETATM    8  N   UNL     1      -7.869  12.766  69.034  1.00  0.00    -0.324 NA 
HETATM    9  H   UNL     1      -4.979  11.472  69.585  1.00  0.00     0.000 HD 
HETATM   10  O   UNL     1      -7.048  10.069  70.712  1.00  0.00    -0.324 OA 
HETATM   11  C   UNL     1      -9.693   9.624  65.365  1.00  0.00    -0.365 A  
HETATM   12  C   UNL     1      -6.839  11.747  68.959  1.00  0.00    -0.106 C  
HETATM   13  H   UNL     1      -7.775  13.552  69.678  1.00  0.00     0.000 HD 
HETATM   14 CL   UNL     1     -10.377  11.423  63.480  1.00  0.00    -0.434 Cl 
HETATM   15  O   UNL     1      -5.653  12.139  69.635  1.00  0.00    -0.075 OA 
HETATM   16  C   UNL     1      -7.440  10.469  69.610  1.00  0.00    -0.141 C  
HETATM   17  C   UNL     1      -9.238   9.252  66.634  1.00  0.00    -0.190 A  
ENDROOT
BRANCH   6  18
HETATM   18  C   UNL     1      -9.971  13.720  68.452  1.00  0.00    -0.229 A  
HETATM   19  C   UNL     1     -11.726  15.898  68.835  1.00  0.00    -0.376 A  
HETATM   20  C   UNL     1      -9.603  15.033  68.090  1.00  0.00    -0.207 A  
HETATM   21  C   UNL     1     -10.467  16.113  68.288  1.00  0.00    -0.276 A  
HETATM   22  C   UNL     1     -12.112  14.607  69.193  1.00  0.00    -0.283 A  
HETATM   23  C   UNL     1     -11.238  13.521  69.027  1.00  0.00    -0.269 A  
HETATM   24 CL   UNL     1     -11.800  12.012  69.659  1.00  0.00    -0.393 Cl 
ENDBRANCH   6  18
TORSDOF 1
ENDMDL
MODEL       73
REMARK 921   NORMALIZED FREE ENERGY PREDICTED BY IDOCK:   -4.94 KCAL/MOL
REMARK 922        TOTAL FREE ENERGY PREDICTED BY IDOCK:   -5.88 KCAL/MOL
REMARK 923 INTER-LIGAND FREE ENERGY PREDICTED BY IDOCK:   -5.27 KCAL/MOL
REMARK 924 INTRA-LIGAND FREE ENERGY PREDICTED BY IDOCK:   -0.61 KCAL/MOL
REMARK 927      BINDING AFFINITY PREDICTED BY RF-SCORE:    0.00 PKD
ROOT
HETATM    1  C   UNL     1      -6.755  15.913  67.884  1.00  0.00    -0.146 C  
HETATM    2  N   UNL     1      -7.486  14.657  67.931  1.00  0.00    -0.131 N  
HETATM    3  C   UNL     1      -8.816  14.621  68.452  1.00  0.00    -0.181 A  
HETATM    4  C   UNL     1      -9.800  13.710  68.002  1.00  0.00    -0.244 A  
HETATM    5  C   UNL     1     -11.069  13.666  68.607  1.00  0.00    -0.299 A  
HETATM    6  C   UNL     1      -9.570  12.830  66.819  1.00  0.00    -0.244 C  
HETATM    7  C   UNL     1     -11.393  14.583  69.602  1.00  0.00    -0.273 A  
HETATM    8  N   UNL     1      -8.524  12.080  66.694  1.00  0.00    -0.318 NA 
HETATM    9  H   UNL     1      -5.880  11.121  68.250  1.00  0.00     0.000 HD 
HETATM   10  O   UNL     1      -5.631  13.582  67.069  1.00  0.00    -0.113 OA 
HETATM   11  C   UNL     1     -10.458  15.519  70.026  1.00  0.00    -0.322 A  
HETATM   12  C   UNL     1      -7.488  12.144  67.710  1.00  0.00    -0.122 C  
HETATM   13  H   UNL     1      -8.427  11.454  65.894  1.00  0.00     0.000 HD 
HETATM   14 CL   UNL     1     -12.970  14.584  70.285  1.00  0.00    -0.255 Cl 
HETATM   15  O   UNL     1      -6.557  11.079  67.586  1.00  0.00    -0.062 OA 
HETATM   16  C   UNL     1      -6.778  13.515  67.524  1.00  0.00    -0.131 C  
HETATM   17  C   UNL     1      -9.178  15.530  69.462  1.00  0.00    -0.265 A  
ENDROOT
BRANCH   6  18
HETATM   18  C   UNL     1     -10.573  12.763  65.692  1.00  0.00    -0.297 A  
HETATM   19  C   UNL     1     -12.317  12.368  63.509  1.00  0.00    -0.648 A  
HETATM   20  C   UNL     1     -10.957  11.469  65.284  1.00  0.00    -0.291 A  
HETATM   21  C   UNL     1     -11.812  11.272  64.197  1.00  0.00     0.293 A  
HETATM   22  C   UNL     1     -11.955  13.656  63.901  1.00  0.00    -0.455 A  
HETATM   23  C   UNL     1     -11.071  13.862  64.972  1.00  0.00    -0.353 A  
HETATM   24 CL   UNL     1     -10.597  15.504  65.238  1.00  0.00    -0.418 Cl 
ENDBRANCH   6  18
TORSDOF 1
ENDMDL
MODEL       74
REMARK 921   NORMALIZED FREE ENERGY PREDICTED BY IDOCK:   -4.86 KCAL/MOL
REMARK 922        TOTAL FREE ENERGY PREDICTED BY IDOCK:   -5.80 KCAL/MOL
REMARK 923 INTER-LIGAND FREE ENERGY PREDICTED BY IDOCK:   -5.20 KCAL/MOL
REMARK 924 INTRA-LIGAND FREE ENERGY PREDICTED BY IDOCK:   -0.60 KCAL/MOL
REMARK 927      BINDING AFFINITY PREDICTED BY RF-SCORE:    0.00 PKD
ROOT
HETATM    1  C   UNL     1      -5.922   9.646  66.827  1.00  0.00    -0.059 C  
HETATM    2  N   UNL     1      -7.155  10.211  67.350  1.00  0.00    -0.083 N  
HETATM    3  C   UNL     1      -7.337  11.628  67.383  1.00  0.00    -0.128 A  
HETATM    4  C   UNL     1      -8.602  12.250  67.253  1.00  0.00    -0.183 A  
HETATM    5  C   UNL     1      -8.731  13.645  67.373  1.00  0.00    -0.214 A  
HETATM    6  C   UNL     1      -9.824  11.472  66.896  1.00  0.00    -0.197 C  
HETATM    7  C   UNL     1      -7.596  14.434  67.535  1.00  0.00    -0.193 A  
HETATM    8  N   UNL     1     -10.185  10.402  67.527  1.00  0.00    -0.198 NA 
HETATM    9  H   UNL     1      -9.430   8.558  70.048  1.00  0.00     0.000 HD 
HETATM   10  O   UNL     1      -7.893   8.075  67.830  1.00  0.00    -0.121 OA 
HETATM   11  C   UNL     1      -6.339  13.848  67.616  1.00  0.00    -0.140 A  
HETATM   12  C   UNL     1      -9.332   9.888  68.583  1.00  0.00    -0.149 C  
HETATM   13  H   UNL     1     -11.055   9.927  67.286  1.00  0.00     0.000 HD 
HETATM   14 CL   UNL     1      -7.745  16.145  67.599  1.00  0.00    -0.151 Cl 
HETATM   15  O   UNL     1      -9.987   8.894  69.357  1.00  0.00    -0.182 OA 
HETATM   16  C   UNL     1      -8.077   9.295  67.883  1.00  0.00    -0.104 C  
HETATM   17  C   UNL     1      -6.214  12.456  67.550  1.00  0.00    -0.148 A  
ENDROOT
BRANCH   6  18
HETATM   18  C   UNL     1     -10.722  11.911  65.765  1.00  0.00    -0.327 A  
HETATM   19  C   UNL     1     -12.150  12.718  63.469  1.00  0.00    -0.642 A  
HETATM   20  C   UNL     1     -10.356  11.465  64.478  1.00  0.00    -0.369 A  
HETATM   21  C   UNL     1     -11.057  11.872  63.340  1.00  0.00    -0.463 A  
HETATM   22  C   UNL     1     -12.533  13.165  64.733  1.00  0.00    -0.460 A  
HETATM   23  C   UNL     1     -11.815  12.786  65.878  1.00  0.00    -0.437 A  
HETATM   24 CL   UNL     1     -12.316  13.544  67.351  1.00  0.00    -0.248 Cl 
ENDBRANCH   6  18
TORSDOF 1
ENDMDL
MODEL       75
REMARK 921   NORMALIZED FREE ENERGY PREDICTED BY IDOCK:   -4.83 KCAL/MOL
REMARK 922        TOTAL FREE ENERGY PREDICTED BY IDOCK:   -5.76 KCAL/MOL
REMARK 923 INTER-LIGAND FREE ENERGY PREDICTED BY IDOCK:   -5.17 KCAL/MOL
REMARK 924 INTRA-LIGAND FREE ENERGY PREDICTED BY IDOCK:   -0.60 KCAL/MOL
REMARK 927      BINDING AFFINITY PREDICTED BY RF-SCORE:    0.00 PKD
ROOT
HETATM    1  C   UNL     1     -10.851  11.723  66.935  1.00  0.00    -0.271 C  
HETATM    2  N   UNL     1     -10.179  11.074  68.049  1.00  0.00    -0.174 N  
HETATM    3  C   UNL     1     -10.937  10.581  69.156  1.00  0.00    -0.240 A  
HETATM    4  C   UNL     1     -10.550   9.456  69.920  1.00  0.00    -0.258 A  
HETATM    5  C   UNL     1     -11.294   9.064  71.048  1.00  0.00    -0.362 A  
HETATM    6  C   UNL     1      -9.403   8.591  69.516  1.00  0.00    -0.161 C  
HETATM    7  C   UNL     1     -12.469   9.735  71.369  1.00  0.00    -0.387 A  
HETATM    8  N   UNL     1      -8.232   9.062  69.236  1.00  0.00    -0.115 NA 
HETATM    9  H   UNL     1      -6.526  11.786  69.205  1.00  0.00     0.000 HD 
HETATM   10  O   UNL     1      -8.151  11.478  67.019  1.00  0.00    -0.148 OA 
HETATM   11  C   UNL     1     -12.894  10.813  70.602  1.00  0.00    -0.377 A  
HETATM   12  C   UNL     1      -8.033  10.500  69.245  1.00  0.00    -0.154 C  
HETATM   13  H   UNL     1      -7.461   8.434  69.013  1.00  0.00     0.000 HD 
HETATM   14 CL   UNL     1     -13.422   9.205  72.698  1.00  0.00    -0.475 Cl 
HETATM   15  O   UNL     1      -6.657  10.846  69.199  1.00  0.00    -0.055 OA 
HETATM   16  C   UNL     1      -8.776  11.052  67.995  1.00  0.00    -0.138 C  
HETATM   17  C   UNL     1     -12.128  11.237  69.512  1.00  0.00    -0.386 A  
ENDROOT
BRANCH   6  18
HETATM   18  C   UNL     1      -9.556   7.092  69.420  1.00  0.00    -0.153 A  
HETATM   19  C   UNL     1      -9.574   4.270  69.399  1.00  0.00    -0.267 A  
HETATM   20  C   UNL     1      -8.986   6.345  70.473  1.00  0.00    -0.151 A  
HETATM   21  C   UNL     1      -8.986   4.949  70.458  1.00  0.00    -0.159 A  
HETATM   22  C   UNL     1     -10.149   4.989  68.351  1.00  0.00    -0.176 A  
HETATM   23  C   UNL     1     -10.125   6.392  68.343  1.00  0.00    -0.157 A  
HETATM   24 CL   UNL     1     -10.738   7.136  66.906  1.00  0.00    -0.402 Cl 
ENDBRANCH   6  18
TORSDOF 1
ENDMDL
MODEL       76
REMARK 921   NORMALIZED FREE ENERGY PREDICTED BY IDOCK:   -4.78 KCAL/MOL
REMARK 922        TOTAL FREE ENERGY PREDICTED BY IDOCK:   -5.71 KCAL/MOL
REMARK 923 INTER-LIGAND FREE ENERGY PREDICTED BY IDOCK:   -5.08 KCAL/MOL
REMARK 924 INTRA-LIGAND FREE ENERGY PREDICTED BY IDOCK:   -0.63 KCAL/MOL
REMARK 927      BINDING AFFINITY PREDICTED BY RF-SCORE:    0.00 PKD
ROOT
HETATM    1  C   UNL     1     -12.100  14.876  68.521  1.00  0.00    -0.158 C  
HETATM    2  N   UNL     1     -10.873  14.109  68.382  1.00  0.00    -0.247 N  
HETATM    3  C   UNL     1     -10.871  12.704  68.643  1.00  0.00    -0.249 A  
HETATM    4  C   UNL     1     -10.014  11.794  67.982  1.00  0.00    -0.191 A  
HETATM    5  C   UNL     1     -10.001  10.433  68.337  1.00  0.00    -0.177 A  
HETATM    6  C   UNL     1      -9.163  12.215  66.831  1.00  0.00    -0.203 C  
HETATM    7  C   UNL     1     -10.898   9.957  69.288  1.00  0.00    -0.227 A  
HETATM    8  N   UNL     1      -8.378  13.241  66.876  1.00  0.00    -0.403 NA 
HETATM    9  H   UNL     1      -7.268  15.511  68.863  1.00  0.00     0.000 HD 
HETATM   10  O   UNL     1      -9.753  16.058  67.844  1.00  0.00    -0.219 OA 
HETATM   11  C   UNL     1     -11.783  10.825  69.914  1.00  0.00    -0.412 A  
HETATM   12  C   UNL     1      -8.369  14.068  68.070  1.00  0.00    -0.163 C  
HETATM   13  H   UNL     1      -7.774  13.467  66.086  1.00  0.00     0.000 HD 
HETATM   14 CL   UNL     1     -10.940   8.280  69.662  1.00  0.00    -0.154 Cl 
HETATM   15  O   UNL     1      -7.274  14.971  68.082  1.00  0.00    -0.102 OA 
HETATM   16  C   UNL     1      -9.717  14.844  68.073  1.00  0.00    -0.212 C  
HETATM   17  C   UNL     1     -11.762  12.188  69.601  1.00  0.00    -0.396 A  
ENDROOT
BRANCH   6  18
HETATM   18  C   UNL     1      -9.170  11.441  65.535  1.00  0.00    -0.193 A  
HETATM   19  C   UNL     1      -9.493  10.030  63.112  1.00  0.00    -0.229 A  
HETATM   20  C   UNL     1     -10.214  11.750  64.637  1.00  0.00    -0.326 A  
HETATM   21  C   UNL     1     -10.380  11.045  63.443  1.00  0.00    -0.373 A  
HETATM   22  C   UNL     1      -8.450   9.713  63.982  1.00  0.00    -0.190 A  
HETATM   23  C   UNL     1      -8.295  10.395  65.199  1.00  0.00    -0.165 A  
HETATM   24 CL   UNL     1      -7.053   9.785  66.238  1.00  0.00    -0.092 Cl 
ENDBRANCH   6  18
TORSDOF 1
ENDMDL
MODEL       77
REMARK 921   NORMALIZED FREE ENERGY PREDICTED BY IDOCK:   -4.77 KCAL/MOL
REMARK 922        TOTAL FREE ENERGY PREDICTED BY IDOCK:   -5.70 KCAL/MOL
REMARK 923 INTER-LIGAND FREE ENERGY PREDICTED BY IDOCK:   -5.28 KCAL/MOL
REMARK 924 INTRA-LIGAND FREE ENERGY PREDICTED BY IDOCK:   -0.42 KCAL/MOL
REMARK 927      BINDING AFFINITY PREDICTED BY RF-SCORE:    0.00 PKD
ROOT
HETATM    1  C   UNL     1      -5.547  11.672  67.353  1.00  0.00    -0.086 C  
HETATM    2  N   UNL     1      -6.940  11.908  67.696  1.00  0.00    -0.101 N  
HETATM    3  C   UNL     1      -7.521  13.197  67.490  1.00  0.00    -0.160 A  
HETATM    4  C   UNL     1      -8.888  13.390  67.180  1.00  0.00    -0.225 A  
HETATM    5  C   UNL     1      -9.422  14.686  67.067  1.00  0.00    -0.249 A  
HETATM    6  C   UNL     1      -9.791  12.243  66.872  1.00  0.00    -0.209 C  
HETATM    7  C   UNL     1      -8.584  15.792  67.177  1.00  0.00    -0.201 A  
HETATM    8  N   UNL     1      -9.899  11.208  67.640  1.00  0.00    -0.172 NA 
HETATM    9  H   UNL     1      -8.931  10.025  70.467  1.00  0.00     0.000 HD 
HETATM   10  O   UNL     1      -7.087   9.732  68.461  1.00  0.00    -0.067 OA 
HETATM   11  C   UNL     1      -7.230  15.623  67.432  1.00  0.00    -0.241 A  
HETATM   12  C   UNL     1      -9.057  11.117  68.819  1.00  0.00    -0.139 C  
HETATM   13  H   UNL     1     -10.565  10.468  67.420  1.00  0.00     0.000 HD 
HETATM   14 CL   UNL     1      -9.221  17.373  66.956  1.00  0.00    -0.243 Cl 
HETATM   15  O   UNL     1      -9.482  10.084  69.696  1.00  0.00    -0.214 OA 
HETATM   16  C   UNL     1      -7.616  10.838  68.306  1.00  0.00    -0.098 C  
HETATM   17  C   UNL     1      -6.706  14.337  67.598  1.00  0.00    -0.188 A  
ENDROOT
BRANCH   6  18
HETATM   18  C   UNL     1     -10.647  12.239  65.629  1.00  0.00    -0.295 A  
HETATM   19  C   UNL     1     -12.492  12.227  63.493  1.00  0.00    -0.642 A  
HETATM   20  C   UNL     1     -11.916  12.842  65.751  1.00  0.00    -0.496 A  
HETATM   21  C   UNL     1     -12.834  12.828  64.698  1.00  0.00    -0.355 A  
HETATM   22  C   UNL     1     -11.240  11.631  63.349  1.00  0.00    -0.401 A  
HETATM   23  C   UNL     1     -10.324  11.613  64.413  1.00  0.00    -0.313 A  
HETATM   24 CL   UNL     1      -8.880  10.704  64.132  1.00  0.00    -0.185 Cl 
ENDBRANCH   6  18
TORSDOF 1
ENDMDL
MODEL       78
REMARK 921   NORMALIZED FREE ENERGY PREDICTED BY IDOCK:   -4.75 KCAL/MOL
REMARK 922        TOTAL FREE ENERGY PREDICTED BY IDOCK:   -5.68 KCAL/MOL
REMARK 923 INTER-LIGAND FREE ENERGY PREDICTED BY IDOCK:   -5.15 KCAL/MOL
REMARK 924 INTRA-LIGAND FREE ENERGY PREDICTED BY IDOCK:   -0.53 KCAL/MOL
REMARK 927      BINDING AFFINITY PREDICTED BY RF-SCORE:    0.00 PKD
ROOT
HETATM    1  C   UNL     1     -11.825  14.793  71.433  1.00  0.00    -0.335 C  
HETATM    2  N   UNL     1     -11.478  14.316  70.104  1.00  0.00    -0.230 N  
HETATM    3  C   UNL     1     -10.913  15.213  69.146  1.00  0.00    -0.259 A  
HETATM    4  C   UNL     1     -10.001  14.803  68.145  1.00  0.00    -0.221 A  
HETATM    5  C   UNL     1      -9.539  15.714  67.178  1.00  0.00    -0.224 A  
HETATM    6  C   UNL     1      -9.426  13.426  68.125  1.00  0.00    -0.218 C  
HETATM    7  C   UNL     1      -9.912  17.052  67.254  1.00  0.00    -0.275 A  
HETATM    8  N   UNL     1     -10.154  12.360  68.189  1.00  0.00    -0.218 NA 
HETATM    9  H   UNL     1     -13.210  11.364  68.240  1.00  0.00     0.000 HD 
HETATM   10  O   UNL     1     -12.292  12.230  70.674  1.00  0.00    -0.354 OA 
HETATM   11  C   UNL     1     -10.768  17.487  68.259  1.00  0.00    -0.309 A  
HETATM   12  C   UNL     1     -11.589  12.498  68.358  1.00  0.00    -0.322 C  
HETATM   13  H   UNL     1      -9.727  11.436  68.122  1.00  0.00     0.000 HD 
HETATM   14 CL   UNL     1      -9.282  18.183  66.123  1.00  0.00    -0.202 Cl 
HETATM   15  O   UNL     1     -12.271  11.273  68.130  1.00  0.00    -0.622 OA 
HETATM   16  C   UNL     1     -11.812  12.982  69.819  1.00  0.00    -0.311 C  
HETATM   17  C   UNL     1     -11.271  16.572  69.189  1.00  0.00    -0.221 A  
ENDROOT
BRANCH   6  18
HETATM   18  C   UNL     1      -7.936  13.208  68.018  1.00  0.00    -0.156 A  
HETATM   19  C   UNL     1      -5.216  12.501  67.759  1.00  0.00    -0.101 A  
HETATM   20  C   UNL     1      -7.524  12.174  67.151  1.00  0.00    -0.129 A  
HETATM   21  C   UNL     1      -6.179  11.818  67.030  1.00  0.00    -0.152 A  
HETATM   22  C   UNL     1      -5.601  13.530  68.618  1.00  0.00    -0.086 A  
HETATM   23  C   UNL     1      -6.953  13.874  68.770  1.00  0.00    -0.108 A  
HETATM   24 CL   UNL     1      -7.285  15.062  69.983  1.00  0.00    -0.101 Cl 
ENDBRANCH   6  18
TORSDOF 1
ENDMDL
MODEL       79
REMARK 921   NORMALIZED FREE ENERGY PREDICTED BY IDOCK:   -4.70 KCAL/MOL
REMARK 922        TOTAL FREE ENERGY PREDICTED BY IDOCK:   -5.63 KCAL/MOL
REMARK 923 INTER-LIGAND FREE ENERGY PREDICTED BY IDOCK:   -4.97 KCAL/MOL
REMARK 924 INTRA-LIGAND FREE ENERGY PREDICTED BY IDOCK:   -0.66 KCAL/MOL
REMARK 927      BINDING AFFINITY PREDICTED BY RF-SCORE:    0.00 PKD
ROOT
HETATM    1  C   UNL     1      -8.781   7.064  66.077  1.00  0.00    -0.144 C  
HETATM    2  N   UNL     1      -9.197   7.447  67.416  1.00  0.00    -0.130 N  
HETATM    3  C   UNL     1      -8.370   8.303  68.207  1.00  0.00    -0.132 A  
HETATM    4  C   UNL     1      -8.885   9.209  69.164  1.00  0.00    -0.146 A  
HETATM    5  C   UNL     1      -8.019   9.969  69.970  1.00  0.00    -0.166 A  
HETATM    6  C   UNL     1     -10.349   9.462  69.295  1.00  0.00    -0.208 C  
HETATM    7  C   UNL     1      -6.644   9.896  69.769  1.00  0.00    -0.066 A  
HETATM    8  N   UNL     1     -11.217   8.513  69.423  1.00  0.00    -0.431 NA 
HETATM    9  H   UNL     1     -11.474   5.327  69.764  1.00  0.00     0.000 HD 
HETATM   10  O   UNL     1     -11.080   6.130  67.173  1.00  0.00    -0.333 OA 
HETATM   11  C   UNL     1      -6.119   9.050  68.801  1.00  0.00    -0.045 A  
HETATM   12  C   UNL     1     -10.765   7.135  69.368  1.00  0.00    -0.231 C  
HETATM   13  H   UNL     1     -12.205   8.729  69.561  1.00  0.00     0.000 HD 
HETATM   14 CL   UNL     1      -5.590  10.887  70.698  1.00  0.00    -0.116 Cl 
HETATM   15  O   UNL     1     -11.770   6.229  69.800  1.00  0.00    -0.403 OA 
HETATM   16  C   UNL     1     -10.383   6.859  67.886  1.00  0.00    -0.195 C  
HETATM   17  C   UNL     1      -6.976   8.253  68.035  1.00  0.00    -0.081 A  
ENDROOT
BRANCH   6  18
HETATM   18  C   UNL     1     -10.898  10.868  69.293  1.00  0.00    -0.286 A  
HETATM   19  C   UNL     1     -12.159  13.388  69.461  1.00  0.00    -0.334 A  
HETATM   20  C   UNL     1     -11.661  11.235  70.422  1.00  0.00    -0.398 A  
HETATM   21  C   UNL     1     -12.294  12.477  70.501  1.00  0.00    -0.345 A  
HETATM   22  C   UNL     1     -11.404  13.048  68.339  1.00  0.00    -0.326 A  
HETATM   23  C   UNL     1     -10.791  11.789  68.237  1.00  0.00    -0.220 A  
HETATM   24 CL   UNL     1     -10.020  11.460  66.724  1.00  0.00    -0.231 Cl 
ENDBRANCH   6  18
TORSDOF 1
ENDMDL
MODEL       80
REMARK 921   NORMALIZED FREE ENERGY PREDICTED BY IDOCK:   -4.69 KCAL/MOL
REMARK 922        TOTAL FREE ENERGY PREDICTED BY IDOCK:   -5.61 KCAL/MOL
REMARK 923 INTER-LIGAND FREE ENERGY PREDICTED BY IDOCK:   -4.94 KCAL/MOL
REMARK 924 INTRA-LIGAND FREE ENERGY PREDICTED BY IDOCK:   -0.67 KCAL/MOL
REMARK 927      BINDING AFFINITY PREDICTED BY RF-SCORE:    0.00 PKD
ROOT
HETATM    1  C   UNL     1     -12.749  10.419  70.210  1.00  0.00    -0.155 C  
HETATM    2  N   UNL     1     -11.459  10.258  69.559  1.00  0.00    -0.233 N  
HETATM    3  C   UNL     1     -10.479   9.380  70.116  1.00  0.00    -0.240 A  
HETATM    4  C   UNL     1      -9.534   8.676  69.333  1.00  0.00    -0.161 A  
HETATM    5  C   UNL     1      -8.542   7.888  69.942  1.00  0.00    -0.139 A  
HETATM    6  C   UNL     1      -9.605   8.666  67.842  1.00  0.00    -0.149 C  
HETATM    7  C   UNL     1      -8.538   7.726  71.324  1.00  0.00    -0.120 A  
HETATM    8  N   UNL     1      -9.694   9.746  67.136  1.00  0.00    -0.169 NA 
HETATM    9  H   UNL     1      -9.681  12.951  67.374  1.00  0.00     0.000 HD 
HETATM   10  O   UNL     1     -12.101  11.812  67.974  1.00  0.00    -0.572 OA 
HETATM   11  C   UNL     1      -9.487   8.368  72.108  1.00  0.00    -0.360 A  
HETATM   12  C   UNL     1      -9.803  11.024  67.816  1.00  0.00    -0.173 C  
HETATM   13  H   UNL     1      -9.689   9.701  66.117  1.00  0.00     0.000 HD 
HETATM   14 CL   UNL     1      -7.376   6.696  72.062  1.00  0.00    -0.088 Cl 
HETATM   15  O   UNL     1      -9.610  12.116  66.929  1.00  0.00    -0.197 OA 
HETATM   16  C   UNL     1     -11.229  11.069  68.436  1.00  0.00    -0.274 C  
HETATM   17  C   UNL     1     -10.442   9.196  71.509  1.00  0.00    -0.422 A  
ENDROOT
BRANCH   6  18
HETATM   18  C   UNL     1      -9.564   7.370  67.070  1.00  0.00    -0.221 A  
HETATM   19  C   UNL     1      -9.677   4.830  65.845  1.00  0.00    -0.203 A  
HETATM   20  C   UNL     1     -10.714   6.557  67.167  1.00  0.00    -0.438 A  
HETATM   21  C   UNL     1     -10.766   5.296  66.569  1.00  0.00    -0.290 A  
HETATM   22  C   UNL     1      -8.534   5.620  65.731  1.00  0.00    -0.140 A  
HETATM   23  C   UNL     1      -8.460   6.875  66.355  1.00  0.00    -0.130 A  
HETATM   24 CL   UNL     1      -6.925   7.666  66.253  1.00  0.00    -0.064 Cl 
ENDBRANCH   6  18
TORSDOF 1
ENDMDL
MODEL       81
REMARK 921   NORMALIZED FREE ENERGY PREDICTED BY IDOCK:   -4.68 KCAL/MOL
REMARK 922        TOTAL FREE ENERGY PREDICTED BY IDOCK:   -5.61 KCAL/MOL
REMARK 923 INTER-LIGAND FREE ENERGY PREDICTED BY IDOCK:   -5.01 KCAL/MOL
REMARK 924 INTRA-LIGAND FREE ENERGY PREDICTED BY IDOCK:   -0.60 KCAL/MOL
REMARK 927      BINDING AFFINITY PREDICTED BY RF-SCORE:    0.00 PKD
ROOT
HETATM    1  C   UNL     1      -5.867  11.360  68.953  1.00  0.00    -0.047 C  
HETATM    2  N   UNL     1      -7.255  11.387  68.522  1.00  0.00    -0.086 N  
HETATM    3  C   UNL     1      -7.877  10.197  68.032  1.00  0.00    -0.096 A  
HETATM    4  C   UNL     1      -9.257   9.925  68.185  1.00  0.00    -0.131 A  
HETATM    5  C   UNL     1      -9.829   8.775  67.612  1.00  0.00    -0.228 A  
HETATM    6  C   UNL     1     -10.137  10.787  69.027  1.00  0.00    -0.211 C  
HETATM    7  C   UNL     1      -9.019   7.850  66.961  1.00  0.00    -0.128 A  
HETATM    8  N   UNL     1     -10.194  12.072  68.896  1.00  0.00    -0.407 NA 
HETATM    9  H   UNL     1      -9.113  14.497  67.085  1.00  0.00     0.000 HD 
HETATM   10  O   UNL     1      -7.320  13.651  68.978  1.00  0.00    -0.095 OA 
HETATM   11  C   UNL     1      -7.653   8.073  66.842  1.00  0.00    -0.095 A  
HETATM   12  C   UNL     1      -9.316  12.721  67.940  1.00  0.00    -0.208 C  
HETATM   13  H   UNL     1     -10.846  12.621  69.457  1.00  0.00     0.000 HD 
HETATM   14 CL   UNL     1      -9.705   6.404  66.333  1.00  0.00    -0.175 Cl 
HETATM   15  O   UNL     1      -9.687  14.072  67.711  1.00  0.00    -0.218 OA 
HETATM   16  C   UNL     1      -7.883  12.643  68.539  1.00  0.00    -0.104 C  
HETATM   17  C   UNL     1      -7.090   9.242  67.365  1.00  0.00    -0.079 A  
ENDROOT
BRANCH   6  18
HETATM   18  C   UNL     1     -11.028  10.187  70.087  1.00  0.00    -0.376 A  
HETATM   19  C   UNL     1     -12.856   9.329  72.059  1.00  0.00    -0.495 A  
HETATM   20  C   UNL     1     -12.371  10.620  70.083  1.00  0.00    -0.370 A  
HETATM   21  C   UNL     1     -13.273  10.204  71.065  1.00  0.00    -0.412 A  
HETATM   22  C   UNL     1     -11.535   8.884  72.078  1.00  0.00    -0.431 A  
HETATM   23  C   UNL     1     -10.613   9.322  71.114  1.00  0.00    -0.332 A  
HETATM   24 CL   UNL     1      -8.981   8.805  71.360  1.00  0.00    -0.282 Cl 
ENDBRANCH   6  18
TORSDOF 1
ENDMDL
MODEL       82
REMARK 921   NORMALIZED FREE ENERGY PREDICTED BY IDOCK:   -4.67 KCAL/MOL
REMARK 922        TOTAL FREE ENERGY PREDICTED BY IDOCK:   -5.60 KCAL/MOL
REMARK 923 INTER-LIGAND FREE ENERGY PREDICTED BY IDOCK:   -5.14 KCAL/MOL
REMARK 924 INTRA-LIGAND FREE ENERGY PREDICTED BY IDOCK:   -0.46 KCAL/MOL
REMARK 927      BINDING AFFINITY PREDICTED BY RF-SCORE:    0.00 PKD
ROOT
HETATM    1  C   UNL     1     -10.747   9.404  68.252  1.00  0.00    -0.171 C  
HETATM    2  N   UNL     1     -10.673  10.795  68.666  1.00  0.00    -0.193 N  
HETATM    3  C   UNL     1      -9.470  11.540  68.467  1.00  0.00    -0.174 A  
HETATM    4  C   UNL     1      -9.453  12.934  68.228  1.00  0.00    -0.206 A  
HETATM    5  C   UNL     1      -8.235  13.628  68.118  1.00  0.00    -0.158 A  
HETATM    6  C   UNL     1     -10.709  13.705  67.993  1.00  0.00    -0.247 C  
HETATM    7  C   UNL     1      -7.033  12.928  68.159  1.00  0.00    -0.102 A  
HETATM    8  N   UNL     1     -11.728  13.645  68.786  1.00  0.00    -0.325 NA 
HETATM    9  H   UNL     1     -12.709  12.394  71.580  1.00  0.00     0.000 HD 
HETATM   10  O   UNL     1     -12.829  10.634  69.482  1.00  0.00    -0.170 OA 
HETATM   11  C   UNL     1      -7.029  11.552  68.343  1.00  0.00    -0.077 A  
HETATM   12  C   UNL     1     -11.685  12.738  69.919  1.00  0.00    -0.251 C  
HETATM   13  H   UNL     1     -12.550  14.225  68.619  1.00  0.00     0.000 HD 
HETATM   14 CL   UNL     1      -5.547  13.765  67.942  1.00  0.00    -0.119 Cl 
HETATM   15  O   UNL     1     -12.738  12.987  70.839  1.00  0.00    -0.299 OA 
HETATM   16  C   UNL     1     -11.800  11.302  69.334  1.00  0.00    -0.355 C  
HETATM   17  C   UNL     1      -8.237  10.867  68.506  1.00  0.00    -0.140 A  
ENDROOT
BRANCH   6  18
HETATM   18  C   UNL     1     -10.850  14.617  66.799  1.00  0.00    -0.312 A  
HETATM   19  C   UNL     1     -11.160  16.553  64.768  1.00  0.00    -0.197 A  
HETATM   20  C   UNL     1     -10.464  15.959  66.998  1.00  0.00    -0.306 A  
HETATM   21  C   UNL     1     -10.626  16.919  65.997  1.00  0.00    -0.221 A  
HETATM   22  C   UNL     1     -11.542  15.230  64.548  1.00  0.00    -0.312 A  
HETATM   23  C   UNL     1     -11.412  14.265  65.559  1.00  0.00    -0.329 A  
HETATM   24 CL   UNL     1     -12.071  12.709  65.189  1.00  0.00    -0.475 Cl 
ENDBRANCH   6  18
TORSDOF 1
ENDMDL
MODEL       83
REMARK 921   NORMALIZED FREE ENERGY PREDICTED BY IDOCK:   -4.67 KCAL/MOL
REMARK 922        TOTAL FREE ENERGY PREDICTED BY IDOCK:   -5.59 KCAL/MOL
REMARK 923 INTER-LIGAND FREE ENERGY PREDICTED BY IDOCK:   -4.94 KCAL/MOL
REMARK 924 INTRA-LIGAND FREE ENERGY PREDICTED BY IDOCK:   -0.66 KCAL/MOL
REMARK 927      BINDING AFFINITY PREDICTED BY RF-SCORE:    0.00 PKD
ROOT
HETATM    1  C   UNL     1     -10.525  14.414  65.704  1.00  0.00    -0.334 C  
HETATM    2  N   UNL     1     -10.619  13.021  66.107  1.00  0.00    -0.273 N  
HETATM    3  C   UNL     1     -10.128  11.990  65.248  1.00  0.00    -0.260 A  
HETATM    4  C   UNL     1      -9.595  10.771  65.727  1.00  0.00    -0.254 A  
HETATM    5  C   UNL     1      -9.200   9.760  64.832  1.00  0.00    -0.314 A  
HETATM    6  C   UNL     1      -9.346  10.542  67.180  1.00  0.00    -0.154 C  
HETATM    7  C   UNL     1      -9.253   9.990  63.461  1.00  0.00    -0.277 A  
HETATM    8  N   UNL     1     -10.245  10.743  68.087  1.00  0.00    -0.166 NA 
HETATM    9  H   UNL     1     -13.335  11.536  68.476  1.00  0.00     0.000 HD 
HETATM   10  O   UNL     1     -11.692  13.687  68.043  1.00  0.00    -0.312 OA 
HETATM   11  C   UNL     1      -9.727  11.199  62.970  1.00  0.00    -0.384 A  
HETATM   12  C   UNL     1     -11.533  11.283  67.692  1.00  0.00    -0.264 C  
HETATM   13  H   UNL     1     -10.051  10.526  69.065  1.00  0.00     0.000 HD 
HETATM   14 CL   UNL     1      -8.692   8.786  62.369  1.00  0.00    -0.191 Cl 
HETATM   15  O   UNL     1     -12.492  11.183  68.734  1.00  0.00    -0.468 OA 
HETATM   16  C   UNL     1     -11.287  12.772  67.318  1.00  0.00    -0.314 C  
HETATM   17  C   UNL     1     -10.170  12.186  63.856  1.00  0.00    -0.426 A  
ENDROOT
BRANCH   6  18
HETATM   18  C   UNL     1      -8.007  10.044  67.670  1.00  0.00    -0.105 A  
HETATM   19  C   UNL     1      -5.378   9.339  68.415  1.00  0.00    -0.037 A  
HETATM   20  C   UNL     1      -6.985  11.012  67.764  1.00  0.00    -0.080 A  
HETATM   21  C   UNL     1      -5.682  10.662  68.123  1.00  0.00    -0.042 A  
HETATM   22  C   UNL     1      -6.375   8.368  68.335  1.00  0.00    -0.055 A  
HETATM   23  C   UNL     1      -7.680   8.705  67.944  1.00  0.00    -0.102 A  
HETATM   24 CL   UNL     1      -8.763   7.371  67.742  1.00  0.00    -0.126 Cl 
ENDBRANCH   6  18
TORSDOF 1
ENDMDL
MODEL       84
REMARK 921   NORMALIZED FREE ENERGY PREDICTED BY IDOCK:   -4.65 KCAL/MOL
REMARK 922        TOTAL FREE ENERGY PREDICTED BY IDOCK:   -5.57 KCAL/MOL
REMARK 923 INTER-LIGAND FREE ENERGY PREDICTED BY IDOCK:   -4.92 KCAL/MOL
REMARK 924 INTRA-LIGAND FREE ENERGY PREDICTED BY IDOCK:   -0.65 KCAL/MOL
REMARK 927      BINDING AFFINITY PREDICTED BY RF-SCORE:    0.00 PKD
ROOT
HETATM    1  C   UNL     1     -11.738  12.564  67.274  1.00  0.00    -0.362 C  
HETATM    2  N   UNL     1     -10.563  12.087  67.986  1.00  0.00    -0.201 N  
HETATM    3  C   UNL     1     -10.708  11.182  69.083  1.00  0.00    -0.221 A  
HETATM    4  C   UNL     1      -9.737  10.209  69.417  1.00  0.00    -0.247 A  
HETATM    5  C   UNL     1      -9.896   9.398  70.556  1.00  0.00    -0.331 A  
HETATM    6  C   UNL     1      -8.562   9.940  68.537  1.00  0.00    -0.117 C  
HETATM    7  C   UNL     1     -11.058   9.492  71.315  1.00  0.00    -0.379 A  
HETATM    8  N   UNL     1      -7.778  10.874  68.108  1.00  0.00    -0.100 NA 
HETATM    9  H   UNL     1      -7.203  14.027  68.352  1.00  0.00     0.000 HD 
HETATM   10  O   UNL     1      -9.242  13.409  66.627  1.00  0.00    -0.251 OA 
HETATM   11  C   UNL     1     -12.046  10.406  70.976  1.00  0.00    -0.488 A  
HETATM   12  C   UNL     1      -8.086  12.255  68.433  1.00  0.00    -0.151 C  
HETATM   13  H   UNL     1      -6.955  10.644  67.550  1.00  0.00     0.000 HD 
HETATM   14 CL   UNL     1     -11.289   8.444  72.658  1.00  0.00    -0.419 Cl 
HETATM   15  O   UNL     1      -7.002  13.124  68.139  1.00  0.00    -0.083 OA 
HETATM   16  C   UNL     1      -9.334  12.635  67.586  1.00  0.00    -0.190 C  
HETATM   17  C   UNL     1     -11.867  11.251  69.875  1.00  0.00    -0.436 A  
ENDROOT
BRANCH   6  18
HETATM   18  C   UNL     1      -8.220   8.535  68.105  1.00  0.00    -0.120 A  
HETATM   19  C   UNL     1      -7.289   6.007  67.262  1.00  0.00    -0.077 A  
HETATM   20  C   UNL     1      -6.903   8.108  68.378  1.00  0.00    -0.068 A  
HETATM   21  C   UNL     1      -6.439   6.862  67.952  1.00  0.00    -0.050 A  
HETATM   22  C   UNL     1      -8.596   6.407  66.988  1.00  0.00    -0.112 A  
HETATM   23  C   UNL     1      -9.061   7.671  67.384  1.00  0.00    -0.126 A  
HETATM   24 CL   UNL     1     -10.650   8.081  66.837  1.00  0.00    -0.394 Cl 
ENDBRANCH   6  18
TORSDOF 1
ENDMDL
MODEL       85
REMARK 921   NORMALIZED FREE ENERGY PREDICTED BY IDOCK:   -4.63 KCAL/MOL
REMARK 922        TOTAL FREE ENERGY PREDICTED BY IDOCK:   -5.55 KCAL/MOL
REMARK 923 INTER-LIGAND FREE ENERGY PREDICTED BY IDOCK:   -5.08 KCAL/MOL
REMARK 924 INTRA-LIGAND FREE ENERGY PREDICTED BY IDOCK:   -0.47 KCAL/MOL
REMARK 927      BINDING AFFINITY PREDICTED BY RF-SCORE:    0.00 PKD
ROOT
HETATM    1  C   UNL     1     -11.533  16.025  70.597  1.00  0.00    -0.402 C  
HETATM    2  N   UNL     1     -11.094  15.468  69.328  1.00  0.00    -0.264 N  
HETATM    3  C   UNL     1     -10.166  16.186  68.512  1.00  0.00    -0.241 A  
HETATM    4  C   UNL     1      -9.230  15.552  67.663  1.00  0.00    -0.190 A  
HETATM    5  C   UNL     1      -8.394  16.310  66.823  1.00  0.00    -0.289 A  
HETATM    6  C   UNL     1      -9.024  14.074  67.688  1.00  0.00    -0.194 C  
HETATM    7  C   UNL     1      -8.426  17.699  66.886  1.00  0.00    -0.241 A  
HETATM    8  N   UNL     1      -9.997  13.228  67.588  1.00  0.00    -0.225 NA 
HETATM    9  H   UNL     1     -13.167  13.042  67.090  1.00  0.00     0.000 HD 
HETATM   10  O   UNL     1     -12.492  13.661  69.674  1.00  0.00    -0.251 OA 
HETATM   11  C   UNL     1      -9.304  18.343  67.749  1.00  0.00    -0.283 A  
HETATM   12  C   UNL     1     -11.359  13.728  67.520  1.00  0.00    -0.309 C  
HETATM   13  H   UNL     1      -9.811  12.226  67.558  1.00  0.00     0.000 HD 
HETATM   14 CL   UNL     1      -7.348  18.626  65.920  1.00  0.00    -0.280 Cl 
HETATM   15  O   UNL     1     -12.277  12.716  67.135  1.00  0.00    -0.445 OA 
HETATM   16  C   UNL     1     -11.700  14.261  68.941  1.00  0.00    -0.328 C  
HETATM   17  C   UNL     1     -10.173  17.591  68.547  1.00  0.00    -0.378 A  
ENDROOT
BRANCH   6  18
HETATM   18  C   UNL     1      -7.642  13.483  67.823  1.00  0.00    -0.163 A  
HETATM   19  C   UNL     1      -5.187  12.104  68.010  1.00  0.00    -0.060 A  
HETATM   20  C   UNL     1      -7.382  12.336  67.043  1.00  0.00    -0.052 A  
HETATM   21  C   UNL     1      -6.171  11.647  67.143  1.00  0.00    -0.133 A  
HETATM   22  C   UNL     1      -5.421  13.239  68.785  1.00  0.00    -0.074 A  
HETATM   23  C   UNL     1      -6.647  13.919  68.714  1.00  0.00    -0.098 A  
HETATM   24 CL   UNL     1      -6.844  15.213  69.845  1.00  0.00    -0.177 Cl 
ENDBRANCH   6  18
TORSDOF 1
ENDMDL
MODEL       86
REMARK 921   NORMALIZED FREE ENERGY PREDICTED BY IDOCK:   -4.62 KCAL/MOL
REMARK 922        TOTAL FREE ENERGY PREDICTED BY IDOCK:   -5.54 KCAL/MOL
REMARK 923 INTER-LIGAND FREE ENERGY PREDICTED BY IDOCK:   -6.02 KCAL/MOL
REMARK 924 INTRA-LIGAND FREE ENERGY PREDICTED BY IDOCK:    0.48 KCAL/MOL
REMARK 927      BINDING AFFINITY PREDICTED BY RF-SCORE:    0.00 PKD
ROOT
HETATM    1  C   UNL     1     -13.019  11.432  70.849  1.00  0.00    -0.121 C  
HETATM    2  N   UNL     1     -11.927  11.931  70.030  1.00  0.00    -0.339 N  
HETATM    3  C   UNL     1     -10.948  11.028  69.511  1.00  0.00    -0.243 A  
HETATM    4  C   UNL     1     -10.277  11.235  68.283  1.00  0.00    -0.198 A  
HETATM    5  C   UNL     1      -9.265  10.354  67.861  1.00  0.00    -0.143 A  
HETATM    6  C   UNL     1     -10.671  12.331  67.350  1.00  0.00    -0.230 C  
HETATM    7  C   UNL     1      -8.977   9.219  68.613  1.00  0.00    -0.132 A  
HETATM    8  N   UNL     1     -10.796  13.562  67.726  1.00  0.00    -0.249 NA 
HETATM    9  H   UNL     1     -10.390  15.506  70.253  1.00  0.00     0.000 HD 
HETATM   10  O   UNL     1     -12.729  14.078  70.325  1.00  0.00    -0.318 OA 
HETATM   11  C   UNL     1      -9.659   8.971  69.798  1.00  0.00    -0.182 A  
HETATM   12  C   UNL     1     -10.618  13.891  69.128  1.00  0.00    -0.100 C  
HETATM   13  H   UNL     1     -11.017  14.290  67.047  1.00  0.00     0.000 HD 
HETATM   14 CL   UNL     1      -7.799   8.099  68.056  1.00  0.00    -0.120 Cl 
HETATM   15  O   UNL     1     -10.508  15.291  69.335  1.00  0.00    -0.226 OA 
HETATM   16  C   UNL     1     -11.861  13.325  69.871  1.00  0.00    -0.310 C  
HETATM   17  C   UNL     1     -10.628   9.874  70.247  1.00  0.00    -0.359 A  
ENDROOT
BRANCH   6  18
HETATM   18  C   UNL     1     -10.937  12.051  65.891  1.00  0.00    -0.342 A  
HETATM   19  C   UNL     1     -11.130  11.483  63.133  1.00  0.00    -0.151 A  
HETATM   20  C   UNL     1     -10.045  11.159  65.260  1.00  0.00    -0.329 A  
HETATM   21  C   UNL     1     -10.134  10.885  63.894  1.00  0.00    -0.422 A  
HETATM   22  C   UNL     1     -12.026  12.363  63.738  1.00  0.00    -0.600 A  
HETATM   23  C   UNL     1     -11.925  12.669  65.105  1.00  0.00    -0.428 A  
HETATM   24 CL   UNL     1     -13.007  13.892  65.674  1.00  0.00    -0.479 Cl 
ENDBRANCH   6  18
TORSDOF 1
ENDMDL
MODEL       87
REMARK 921   NORMALIZED FREE ENERGY PREDICTED BY IDOCK:   -4.61 KCAL/MOL
REMARK 922        TOTAL FREE ENERGY PREDICTED BY IDOCK:   -5.53 KCAL/MOL
REMARK 923 INTER-LIGAND FREE ENERGY PREDICTED BY IDOCK:   -4.87 KCAL/MOL
REMARK 924 INTRA-LIGAND FREE ENERGY PREDICTED BY IDOCK:   -0.66 KCAL/MOL
REMARK 927      BINDING AFFINITY PREDICTED BY RF-SCORE:    0.00 PKD
ROOT
HETATM    1  C   UNL     1     -10.780   6.829  71.595  1.00  0.00    -0.225 C  
HETATM    2  N   UNL     1     -10.829   7.449  70.281  1.00  0.00    -0.242 N  
HETATM    3  C   UNL     1     -11.089   8.849  70.158  1.00  0.00    -0.201 A  
HETATM    4  C   UNL     1     -10.566   9.645  69.112  1.00  0.00    -0.237 A  
HETATM    5  C   UNL     1     -10.920  11.002  68.997  1.00  0.00    -0.284 A  
HETATM    6  C   UNL     1      -9.556   9.112  68.151  1.00  0.00    -0.144 C  
HETATM    7  C   UNL     1     -11.724  11.592  69.966  1.00  0.00    -0.332 A  
HETATM    8  N   UNL     1      -9.718   8.004  67.505  1.00  0.00    -0.152 NA 
HETATM    9  H   UNL     1     -11.848   5.656  66.974  1.00  0.00     0.000 HD 
HETATM   10  O   UNL     1     -10.464   5.378  69.324  1.00  0.00    -0.256 OA 
HETATM   11  C   UNL     1     -12.209  10.840  71.029  1.00  0.00    -0.485 A  
HETATM   12  C   UNL     1     -10.899   7.202  67.771  1.00  0.00    -0.178 C  
HETATM   13  H   UNL     1      -9.028   7.699  66.819  1.00  0.00     0.000 HD 
HETATM   14 CL   UNL     1     -12.089  13.269  69.871  1.00  0.00    -0.390 Cl 
HETATM   15  O   UNL     1     -11.076   6.180  66.800  1.00  0.00    -0.322 OA 
HETATM   16  C   UNL     1     -10.697   6.583  69.183  1.00  0.00    -0.275 C  
HETATM   17  C   UNL     1     -11.901   9.479  71.117  1.00  0.00    -0.436 A  
ENDROOT
BRANCH   6  18
HETATM   18  C   UNL     1      -8.274   9.860  67.875  1.00  0.00    -0.113 A  
HETATM   19  C   UNL     1      -5.883  11.130  67.077  1.00  0.00    -0.079 A  
HETATM   20  C   UNL     1      -8.046  10.218  66.530  1.00  0.00    -0.121 A  
HETATM   21  C   UNL     1      -6.859  10.837  66.133  1.00  0.00    -0.126 A  
HETATM   22  C   UNL     1      -6.092  10.790  68.413  1.00  0.00    -0.046 A  
HETATM   23  C   UNL     1      -7.269  10.139  68.816  1.00  0.00    -0.081 A  
HETATM   24 CL   UNL     1      -7.314   9.646  70.474  1.00  0.00    -0.147 Cl 
ENDBRANCH   6  18
TORSDOF 1
ENDMDL
MODEL       88
REMARK 921   NORMALIZED FREE ENERGY PREDICTED BY IDOCK:   -4.60 KCAL/MOL
REMARK 922        TOTAL FREE ENERGY PREDICTED BY IDOCK:   -5.52 KCAL/MOL
REMARK 923 INTER-LIGAND FREE ENERGY PREDICTED BY IDOCK:   -4.85 KCAL/MOL
REMARK 924 INTRA-LIGAND FREE ENERGY PREDICTED BY IDOCK:   -0.66 KCAL/MOL
REMARK 927      BINDING AFFINITY PREDICTED BY RF-SCORE:    0.00 PKD
ROOT
HETATM    1  C   UNL     1      -7.514  18.958  70.055  1.00  0.00     0.796 C  
HETATM    2  N   UNL     1      -7.437  18.304  68.758  1.00  0.00    -0.295 N  
HETATM    3  C   UNL     1      -7.019  16.941  68.667  1.00  0.00    -0.191 A  
HETATM    4  C   UNL     1      -7.480  16.054  67.665  1.00  0.00    -0.171 A  
HETATM    5  C   UNL     1      -6.973  14.746  67.576  1.00  0.00    -0.198 A  
HETATM    6  C   UNL     1      -8.578  16.434  66.729  1.00  0.00    -0.235 C  
HETATM    7  C   UNL     1      -6.071  14.286  68.531  1.00  0.00    -0.091 A  
HETATM    8  N   UNL     1      -8.570  17.530  66.045  1.00  0.00    -0.527 NA 
HETATM    9  H   UNL     1      -6.753  20.092  65.364  1.00  0.00     0.000 HD 
HETATM   10  O   UNL     1      -8.078  20.285  67.757  1.00  0.00    -0.294 OA 
HETATM   11  C   UNL     1      -5.642  15.124  69.552  1.00  0.00    -0.096 A  
HETATM   12  C   UNL     1      -7.485  18.474  66.241  1.00  0.00    -0.257 C  
HETATM   13  H   UNL     1      -9.315  17.730  65.377  1.00  0.00     0.000 HD 
HETATM   14 CL   UNL     1      -5.514  12.661  68.470  1.00  0.00    -0.055 Cl 
HETATM   15  O   UNL     1      -7.463  19.476  65.236  1.00  0.00    -0.382 OA 
HETATM   16  C   UNL     1      -7.709  19.111  67.642  1.00  0.00    -0.243 C  
HETATM   17  C   UNL     1      -6.105  16.443  69.612  1.00  0.00    -0.205 A  
ENDROOT
BRANCH   6  18
HETATM   18  C   UNL     1      -9.772  15.532  66.524  1.00  0.00    -0.290 A  
HETATM   19  C   UNL     1     -12.004  13.944  65.847  1.00  0.00    -0.429 A  
HETATM   20  C   UNL     1      -9.934  15.009  65.224  1.00  0.00    -0.325 A  
HETATM   21  C   UNL     1     -11.044  14.232  64.885  1.00  0.00    -0.396 A  
HETATM   22  C   UNL     1     -11.859  14.445  67.140  1.00  0.00    -0.437 A  
HETATM   23  C   UNL     1     -10.763  15.254  67.480  1.00  0.00    -0.285 A  
HETATM   24 CL   UNL     1     -10.803  15.925  69.074  1.00  0.00    -0.247 Cl 
ENDBRANCH   6  18
TORSDOF 1
ENDMDL
MODEL       89
REMARK 921   NORMALIZED FREE ENERGY PREDICTED BY IDOCK:   -4.59 KCAL/MOL
REMARK 922        TOTAL FREE ENERGY PREDICTED BY IDOCK:   -5.51 KCAL/MOL
REMARK 923 INTER-LIGAND FREE ENERGY PREDICTED BY IDOCK:   -4.84 KCAL/MOL
REMARK 924 INTRA-LIGAND FREE ENERGY PREDICTED BY IDOCK:   -0.67 KCAL/MOL
REMARK 927      BINDING AFFINITY PREDICTED BY RF-SCORE:    0.00 PKD
ROOT
HETATM    1  C   UNL     1     -12.139  11.488  69.576  1.00  0.00    -0.284 C  
HETATM    2  N   UNL     1     -10.925  10.696  69.684  1.00  0.00    -0.261 N  
HETATM    3  C   UNL     1     -10.907   9.517  70.491  1.00  0.00    -0.292 A  
HETATM    4  C   UNL     1     -10.097   8.393  70.203  1.00  0.00    -0.193 A  
HETATM    5  C   UNL     1     -10.061   7.292  71.077  1.00  0.00    -0.195 A  
HETATM    6  C   UNL     1      -9.328   8.288  68.929  1.00  0.00    -0.147 C  
HETATM    7  C   UNL     1     -10.891   7.267  72.194  1.00  0.00    -0.229 A  
HETATM    8  N   UNL     1      -8.540   9.222  68.505  1.00  0.00    -0.127 NA 
HETATM    9  H   UNL     1      -7.295  12.069  69.327  1.00  0.00     0.000 HD 
HETATM   10  O   UNL     1      -9.845  12.228  68.332  1.00  0.00    -0.213 OA 
HETATM   11  C   UNL     1     -11.730   8.339  72.469  1.00  0.00    -0.451 A  
HETATM   12  C   UNL     1      -8.449  10.460  69.258  1.00  0.00    -0.154 C  
HETATM   13  H   UNL     1      -7.992   9.092  67.655  1.00  0.00     0.000 HD 
HETATM   14 CL   UNL     1     -10.908   5.886  73.217  1.00  0.00    -0.288 Cl 
HETATM   15  O   UNL     1      -7.355  11.260  68.835  1.00  0.00    -0.101 OA 
HETATM   16  C   UNL     1      -9.793  11.210  69.031  1.00  0.00    -0.114 C  
HETATM   17  C   UNL     1     -11.729   9.458  71.630  1.00  0.00    -0.468 A  
ENDROOT
BRANCH   6  18
HETATM   18  C   UNL     1      -9.425   7.057  68.061  1.00  0.00    -0.126 A  
HETATM   19  C   UNL     1      -9.909   4.752  66.506  1.00  0.00    -0.235 A  
HETATM   20  C   UNL     1     -10.664   6.851  67.419  1.00  0.00    -0.396 A  
HETATM   21  C   UNL     1     -10.908   5.705  66.658  1.00  0.00    -0.280 A  
HETATM   22  C   UNL     1      -8.675   4.940  67.127  1.00  0.00    -0.103 A  
HETATM   23  C   UNL     1      -8.432   6.072  67.920  1.00  0.00    -0.115 A  
HETATM   24 CL   UNL     1      -6.913   6.087  68.747  1.00  0.00    -0.070 Cl 
ENDBRANCH   6  18
TORSDOF 1
ENDMDL
MODEL       90
REMARK 921   NORMALIZED FREE ENERGY PREDICTED BY IDOCK:   -4.58 KCAL/MOL
REMARK 922        TOTAL FREE ENERGY PREDICTED BY IDOCK:   -5.50 KCAL/MOL
REMARK 923 INTER-LIGAND FREE ENERGY PREDICTED BY IDOCK:   -4.97 KCAL/MOL
REMARK 924 INTRA-LIGAND FREE ENERGY PREDICTED BY IDOCK:   -0.53 KCAL/MOL
REMARK 927      BINDING AFFINITY PREDICTED BY RF-SCORE:    0.00 PKD
ROOT
HETATM    1  C   UNL     1      -9.381   8.858  71.212  1.00  0.00    -0.266 C  
HETATM    2  N   UNL     1      -8.831   8.837  69.866  1.00  0.00    -0.138 N  
HETATM    3  C   UNL     1      -9.388   7.969  68.877  1.00  0.00    -0.150 A  
HETATM    4  C   UNL     1      -9.405   8.277  67.497  1.00  0.00    -0.166 A  
HETATM    5  C   UNL     1      -9.894   7.348  66.560  1.00  0.00    -0.209 A  
HETATM    6  C   UNL     1      -8.995   9.618  66.988  1.00  0.00    -0.134 C  
HETATM    7  C   UNL     1     -10.447   6.149  66.998  1.00  0.00    -0.277 A  
HETATM    8  N   UNL     1      -7.876  10.179  67.310  1.00  0.00    -0.102 NA 
HETATM    9  H   UNL     1      -5.143   9.666  68.921  1.00  0.00     0.000 HD 
HETATM   10  O   UNL     1      -7.247  10.386  70.524  1.00  0.00    -0.276 OA 
HETATM   11  C   UNL     1     -10.485   5.847  68.354  1.00  0.00    -0.294 A  
HETATM   12  C   UNL     1      -7.005   9.515  68.263  1.00  0.00    -0.070 C  
HETATM   13  H   UNL     1      -7.609  11.075  66.902  1.00  0.00     0.000 HD 
HETATM   14 CL   UNL     1     -11.120   5.050  65.861  1.00  0.00    -0.082 Cl 
HETATM   15  O   UNL     1      -5.712  10.101  68.299  1.00  0.00    -0.042 OA 
HETATM   16  C   UNL     1      -7.699   9.638  69.649  1.00  0.00    -0.124 C  
HETATM   17  C   UNL     1      -9.951   6.746  69.283  1.00  0.00    -0.168 A  
ENDROOT
BRANCH   6  18
HETATM   18  C   UNL     1      -9.882  10.397  66.047  1.00  0.00    -0.289 A  
HETATM   19  C   UNL     1     -11.293  11.873  64.098  1.00  0.00    -0.455 A  
HETATM   20  C   UNL     1      -9.571  10.288  64.675  1.00  0.00    -0.374 A  
HETATM   21  C   UNL     1     -10.263  11.026  63.711  1.00  0.00    -0.425 A  
HETATM   22  C   UNL     1     -11.620  11.990  65.449  1.00  0.00    -0.343 A  
HETATM   23  C   UNL     1     -10.910  11.277  66.427  1.00  0.00    -0.251 A  
HETATM   24 CL   UNL     1     -11.329  11.644  68.064  1.00  0.00    -0.334 Cl 
ENDBRANCH   6  18
TORSDOF 1
ENDMDL
MODEL       91
REMARK 921   NORMALIZED FREE ENERGY PREDICTED BY IDOCK:   -4.57 KCAL/MOL
REMARK 922        TOTAL FREE ENERGY PREDICTED BY IDOCK:   -5.49 KCAL/MOL
REMARK 923 INTER-LIGAND FREE ENERGY PREDICTED BY IDOCK:   -5.08 KCAL/MOL
REMARK 924 INTRA-LIGAND FREE ENERGY PREDICTED BY IDOCK:   -0.41 KCAL/MOL
REMARK 927      BINDING AFFINITY PREDICTED BY RF-SCORE:    0.00 PKD
ROOT
HETATM    1  C   UNL     1      -9.282   5.414  67.952  1.00  0.00    -0.110 C  
HETATM    2  N   UNL     1      -9.490   6.771  68.430  1.00  0.00    -0.127 N  
HETATM    3  C   UNL     1      -8.500   7.774  68.193  1.00  0.00    -0.124 A  
HETATM    4  C   UNL     1      -8.811   9.144  68.024  1.00  0.00    -0.129 A  
HETATM    5  C   UNL     1      -7.789  10.098  67.873  1.00  0.00    -0.101 A  
HETATM    6  C   UNL     1     -10.221   9.619  67.907  1.00  0.00    -0.198 C  
HETATM    7  C   UNL     1      -6.462   9.686  67.804  1.00  0.00    -0.058 A  
HETATM    8  N   UNL     1     -11.141   9.303  68.759  1.00  0.00    -0.453 NA 
HETATM    9  H   UNL     1     -11.614   7.767  71.542  1.00  0.00     0.000 HD 
HETATM   10  O   UNL     1     -11.491   6.099  69.370  1.00  0.00    -0.423 OA 
HETATM   11  C   UNL     1      -6.138   8.340  67.918  1.00  0.00    -0.047 A  
HETATM   12  C   UNL     1     -10.815   8.390  69.840  1.00  0.00    -0.207 C  
HETATM   13  H   UNL     1     -12.081   9.689  68.672  1.00  0.00     0.000 HD 
HETATM   14 CL   UNL     1      -5.219  10.843  67.537  1.00  0.00    -0.036 Cl 
HETATM   15  O   UNL     1     -11.828   8.364  70.835  1.00  0.00    -0.283 OA 
HETATM   16  C   UNL     1     -10.650   6.986  69.191  1.00  0.00    -0.219 C  
HETATM   17  C   UNL     1      -7.148   7.395  68.122  1.00  0.00    -0.085 A  
ENDROOT
BRANCH   6  18
HETATM   18  C   UNL     1     -10.647  10.517  66.771  1.00  0.00    -0.284 A  
HETATM   19  C   UNL     1     -11.190  12.100  64.499  1.00  0.00    -0.385 A  
HETATM   20  C   UNL     1     -10.255  10.107  65.480  1.00  0.00    -0.288 A  
HETATM   21  C   UNL     1     -10.514  10.895  64.356  1.00  0.00    -0.403 A  
HETATM   22  C   UNL     1     -11.592  12.520  65.766  1.00  0.00    -0.439 A  
HETATM   23  C   UNL     1     -11.308  11.750  66.904  1.00  0.00    -0.320 A  
HETATM   24 CL   UNL     1     -11.732  12.476  68.416  1.00  0.00    -0.357 Cl 
ENDBRANCH   6  18
TORSDOF 1
ENDMDL
MODEL       92
REMARK 921   NORMALIZED FREE ENERGY PREDICTED BY IDOCK:   -4.53 KCAL/MOL
REMARK 922        TOTAL FREE ENERGY PREDICTED BY IDOCK:   -5.44 KCAL/MOL
REMARK 923 INTER-LIGAND FREE ENERGY PREDICTED BY IDOCK:   -4.87 KCAL/MOL
REMARK 924 INTRA-LIGAND FREE ENERGY PREDICTED BY IDOCK:   -0.57 KCAL/MOL
REMARK 927      BINDING AFFINITY PREDICTED BY RF-SCORE:    0.00 PKD
ROOT
HETATM    1  C   UNL     1     -10.020   7.482  70.126  1.00  0.00    -0.192 C  
HETATM    2  N   UNL     1      -9.168   8.522  69.572  1.00  0.00    -0.150 N  
HETATM    3  C   UNL     1      -9.041   8.666  68.156  1.00  0.00    -0.141 A  
HETATM    4  C   UNL     1      -8.807   9.908  67.521  1.00  0.00    -0.131 A  
HETATM    5  C   UNL     1      -8.611   9.978  66.130  1.00  0.00    -0.142 A  
HETATM    6  C   UNL     1      -8.850  11.194  68.277  1.00  0.00    -0.155 C  
HETATM    7  C   UNL     1      -8.732   8.829  65.356  1.00  0.00    -0.183 A  
HETATM    8  N   UNL     1      -8.182  11.391  69.366  1.00  0.00    -0.341 NA 
HETATM    9  H   UNL     1      -6.017  10.020  71.307  1.00  0.00     0.000 HD 
HETATM   10  O   UNL     1      -8.580   9.139  71.719  1.00  0.00    -0.340 OA 
HETATM   11  C   UNL     1      -9.010   7.606  65.953  1.00  0.00    -0.144 A  
HETATM   12  C   UNL     1      -7.409  10.296  69.925  1.00  0.00    -0.160 C  
HETATM   13  H   UNL     1      -8.197  12.301  69.827  1.00  0.00     0.000 HD 
HETATM   14 CL   UNL     1      -8.574   8.927  63.647  1.00  0.00    -0.149 Cl 
HETATM   15  O   UNL     1      -6.522  10.736  70.942  1.00  0.00    -0.343 OA 
HETATM   16  C   UNL     1      -8.439   9.283  70.500  1.00  0.00    -0.216 C  
HETATM   17  C   UNL     1      -9.152   7.525  67.342  1.00  0.00    -0.135 A  
ENDROOT
BRANCH   6  18
HETATM   18  C   UNL     1      -9.685  12.354  67.792  1.00  0.00    -0.201 A  
HETATM   19  C   UNL     1     -11.433  14.312  66.756  1.00  0.00    -0.380 A  
HETATM   20  C   UNL     1     -11.065  12.102  67.642  1.00  0.00    -0.320 A  
HETATM   21  C   UNL     1     -11.929  13.068  67.120  1.00  0.00    -0.389 A  
HETATM   22  C   UNL     1     -10.073  14.584  66.901  1.00  0.00    -0.257 A  
HETATM   23  C   UNL     1      -9.193  13.609  67.395  1.00  0.00    -0.222 A  
HETATM   24 CL   UNL     1      -7.518  14.042  67.372  1.00  0.00    -0.181 Cl 
ENDBRANCH   6  18
TORSDOF 1
ENDMDL
MODEL       93
REMARK 921   NORMALIZED FREE ENERGY PREDICTED BY IDOCK:   -4.51 KCAL/MOL
REMARK 922        TOTAL FREE ENERGY PREDICTED BY IDOCK:   -5.42 KCAL/MOL
REMARK 923 INTER-LIGAND FREE ENERGY PREDICTED BY IDOCK:   -4.82 KCAL/MOL
REMARK 924 INTRA-LIGAND FREE ENERGY PREDICTED BY IDOCK:   -0.60 KCAL/MOL
REMARK 927      BINDING AFFINITY PREDICTED BY RF-SCORE:    0.00 PKD
ROOT
HETATM    1  C   UNL     1      -7.158  10.881  69.699  1.00  0.00    -0.116 C  
HETATM    2  N   UNL     1      -8.416  10.249  69.334  1.00  0.00    -0.166 N  
HETATM    3  C   UNL     1      -9.004  10.507  68.057  1.00  0.00    -0.135 A  
HETATM    4  C   UNL     1      -9.791   9.560  67.361  1.00  0.00    -0.218 A  
HETATM    5  C   UNL     1     -10.410   9.898  66.144  1.00  0.00    -0.223 A  
HETATM    6  C   UNL     1      -9.921   8.151  67.834  1.00  0.00    -0.182 C  
HETATM    7  C   UNL     1     -10.181  11.146  65.573  1.00  0.00    -0.263 A  
HETATM    8  N   UNL     1     -10.254   7.845  69.045  1.00  0.00    -0.206 NA 
HETATM    9  H   UNL     1     -11.195   9.142  71.831  1.00  0.00     0.000 HD 
HETATM   10  O   UNL     1      -8.487   9.258  71.420  1.00  0.00    -0.325 OA 
HETATM   11  C   UNL     1      -9.371  12.073  66.216  1.00  0.00    -0.228 A  
HETATM   12  C   UNL     1     -10.443   8.910  70.013  1.00  0.00    -0.213 C  
HETATM   13  H   UNL     1     -10.382   6.870  69.316  1.00  0.00     0.000 HD 
HETATM   14 CL   UNL     1     -10.871  11.528  64.046  1.00  0.00    -0.423 Cl 
HETATM   15  O   UNL     1     -11.071   8.445  71.198  1.00  0.00    -0.241 OA 
HETATM   16  C   UNL     1      -9.027   9.469  70.329  1.00  0.00    -0.248 C  
HETATM   17  C   UNL     1      -8.797  11.760  67.452  1.00  0.00    -0.164 A  
ENDROOT
BRANCH   6  18
HETATM   18  C   UNL     1      -9.674   6.991  66.900  1.00  0.00    -0.228 A  
HETATM   19  C   UNL     1      -9.373   4.650  65.353  1.00  0.00    -0.160 A  
HETATM   20  C   UNL     1     -10.662   5.984  66.892  1.00  0.00    -0.407 A  
HETATM   21  C   UNL     1     -10.508   4.820  66.135  1.00  0.00    -0.332 A  
HETATM   22  C   UNL     1      -8.388   5.636  65.341  1.00  0.00    -0.144 A  
HETATM   23  C   UNL     1      -8.519   6.794  66.124  1.00  0.00    -0.135 A  
HETATM   24 CL   UNL     1      -7.148   7.849  66.123  1.00  0.00    -0.062 Cl 
ENDBRANCH   6  18
TORSDOF 1
ENDMDL
MODEL       94
REMARK 921   NORMALIZED FREE ENERGY PREDICTED BY IDOCK:   -4.47 KCAL/MOL
REMARK 922        TOTAL FREE ENERGY PREDICTED BY IDOCK:   -5.38 KCAL/MOL
REMARK 923 INTER-LIGAND FREE ENERGY PREDICTED BY IDOCK:   -4.82 KCAL/MOL
REMARK 924 INTRA-LIGAND FREE ENERGY PREDICTED BY IDOCK:   -0.56 KCAL/MOL
REMARK 927      BINDING AFFINITY PREDICTED BY RF-SCORE:    0.00 PKD
ROOT
HETATM    1  C   UNL     1     -11.556  12.669  64.600  1.00  0.00    -0.342 C  
HETATM    2  N   UNL     1     -10.958  12.919  65.901  1.00  0.00    -0.273 N  
HETATM    3  C   UNL     1      -9.643  12.439  66.190  1.00  0.00    -0.233 A  
HETATM    4  C   UNL     1      -8.754  13.099  67.070  1.00  0.00    -0.193 A  
HETATM    5  C   UNL     1      -7.501  12.538  67.378  1.00  0.00    -0.153 A  
HETATM    6  C   UNL     1      -9.063  14.447  67.631  1.00  0.00    -0.194 C  
HETATM    7  C   UNL     1      -7.094  11.367  66.748  1.00  0.00    -0.132 A  
HETATM    8  N   UNL     1     -10.179  14.722  68.223  1.00  0.00    -0.223 NA 
HETATM    9  H   UNL     1     -12.920  13.384  69.236  1.00  0.00     0.000 HD 
HETATM   10  O   UNL     1     -12.906  13.974  66.559  1.00  0.00    -0.190 OA 
HETATM   11  C   UNL     1      -7.932  10.728  65.843  1.00  0.00    -0.140 A  
HETATM   12  C   UNL     1     -11.211  13.703  68.286  1.00  0.00    -0.273 C  
HETATM   13  H   UNL     1     -10.332  15.641  68.638  1.00  0.00     0.000 HD 
HETATM   14 CL   UNL     1      -5.530  10.725  67.062  1.00  0.00    -0.044 Cl 
HETATM   15  O   UNL     1     -12.245  14.051  69.195  1.00  0.00    -0.346 OA 
HETATM   16  C   UNL     1     -11.776  13.563  66.844  1.00  0.00    -0.384 C  
HETATM   17  C   UNL     1      -9.199  11.256  65.575  1.00  0.00    -0.220 A  
ENDROOT
BRANCH   6  18
HETATM   18  C   UNL     1      -8.063  15.574  67.542  1.00  0.00    -0.185 A  
HETATM   19  C   UNL     1      -6.205  17.645  67.068  1.00  0.00    -0.185 A  
HETATM   20  C   UNL     1      -8.123  16.362  66.374  1.00  0.00    -0.357 A  
HETATM   21  C   UNL     1      -7.198  17.380  66.134  1.00  0.00    -0.327 A  
HETATM   22  C   UNL     1      -6.132  16.882  68.233  1.00  0.00    -0.133 A  
HETATM   23  C   UNL     1      -7.038  15.836  68.468  1.00  0.00    -0.118 A  
HETATM   24 CL   UNL     1      -6.724  14.885  69.878  1.00  0.00    -0.177 Cl 
ENDBRANCH   6  18
TORSDOF 1
ENDMDL
MODEL       95
REMARK 921   NORMALIZED FREE ENERGY PREDICTED BY IDOCK:   -4.45 KCAL/MOL
REMARK 922        TOTAL FREE ENERGY PREDICTED BY IDOCK:   -5.36 KCAL/MOL
REMARK 923 INTER-LIGAND FREE ENERGY PREDICTED BY IDOCK:   -4.75 KCAL/MOL
REMARK 924 INTRA-LIGAND FREE ENERGY PREDICTED BY IDOCK:   -0.62 KCAL/MOL
REMARK 927      BINDING AFFINITY PREDICTED BY RF-SCORE:    0.00 PKD
ROOT
HETATM    1  C   UNL     1      -9.380   6.623  66.743  1.00  0.00    -0.158 C  
HETATM    2  N   UNL     1      -9.386   7.772  67.633  1.00  0.00    -0.141 N  
HETATM    3  C   UNL     1      -8.451   8.835  67.439  1.00  0.00    -0.116 A  
HETATM    4  C   UNL     1      -8.730  10.183  67.767  1.00  0.00    -0.121 A  
HETATM    5  C   UNL     1      -7.742  11.174  67.629  1.00  0.00    -0.113 A  
HETATM    6  C   UNL     1     -10.095  10.621  68.181  1.00  0.00    -0.158 C  
HETATM    7  C   UNL     1      -6.504  10.847  67.084  1.00  0.00    -0.078 A  
HETATM    8  N   UNL     1     -10.765  10.038  69.121  1.00  0.00    -0.210 NA 
HETATM    9  H   UNL     1     -10.542   7.738  71.355  1.00  0.00     0.000 HD 
HETATM   10  O   UNL     1     -11.089   6.785  68.843  1.00  0.00    -0.233 OA 
HETATM   11  C   UNL     1      -6.226   9.539  66.709  1.00  0.00    -0.065 A  
HETATM   12  C   UNL     1     -10.203   8.861  69.758  1.00  0.00    -0.202 C  
HETATM   13  H   UNL     1     -11.674  10.399  69.410  1.00  0.00     0.000 HD 
HETATM   14 CL   UNL     1      -5.326  12.074  66.838  1.00  0.00    -0.094 Cl 
HETATM   15  O   UNL     1     -10.910   8.508  70.938  1.00  0.00    -0.219 OA 
HETATM   16  C   UNL     1     -10.286   7.715  68.709  1.00  0.00    -0.204 C  
HETATM   17  C   UNL     1      -7.188   8.541  66.895  1.00  0.00    -0.075 A  
ENDROOT
BRANCH   6  18
HETATM   18  C   UNL     1     -10.768  11.797  67.517  1.00  0.00    -0.262 A  
HETATM   19  C   UNL     1     -12.208  14.013  66.526  1.00  0.00    -0.485 A  
HETATM   20  C   UNL     1     -11.304  12.773  68.384  1.00  0.00    -0.331 A  
HETATM   21  C   UNL     1     -12.025  13.864  67.895  1.00  0.00    -0.393 A  
HETATM   22  C   UNL     1     -11.681  13.064  65.652  1.00  0.00    -0.418 A  
HETATM   23  C   UNL     1     -10.983  11.947  66.136  1.00  0.00    -0.308 A  
HETATM   24 CL   UNL     1     -10.526  10.782  64.942  1.00  0.00    -0.364 Cl 
ENDBRANCH   6  18
TORSDOF 1
ENDMDL
MODEL       96
REMARK 921   NORMALIZED FREE ENERGY PREDICTED BY IDOCK:   -4.44 KCAL/MOL
REMARK 922        TOTAL FREE ENERGY PREDICTED BY IDOCK:   -5.35 KCAL/MOL
REMARK 923 INTER-LIGAND FREE ENERGY PREDICTED BY IDOCK:   -4.75 KCAL/MOL
REMARK 924 INTRA-LIGAND FREE ENERGY PREDICTED BY IDOCK:   -0.60 KCAL/MOL
REMARK 927      BINDING AFFINITY PREDICTED BY RF-SCORE:    0.00 PKD
ROOT
HETATM    1  C   UNL     1      -6.774   5.546  70.479  1.00  0.00    -0.047 C  
HETATM    2  N   UNL     1      -7.347   6.807  70.923  1.00  0.00    -0.080 N  
HETATM    3  C   UNL     1      -7.898   7.719  69.971  1.00  0.00    -0.103 A  
HETATM    4  C   UNL     1      -8.975   8.588  70.265  1.00  0.00    -0.153 A  
HETATM    5  C   UNL     1      -9.425   9.521  69.314  1.00  0.00    -0.171 A  
HETATM    6  C   UNL     1      -9.732   8.491  71.548  1.00  0.00    -0.234 C  
HETATM    7  C   UNL     1      -8.865   9.535  68.040  1.00  0.00    -0.123 A  
HETATM    8  N   UNL     1      -9.155   8.481  72.705  1.00  0.00    -0.324 NA 
HETATM    9  H   UNL     1      -6.283   8.767  74.119  1.00  0.00     0.000 HD 
HETATM   10  O   UNL     1      -6.762   6.270  73.093  1.00  0.00    -0.072 OA 
HETATM   11  C   UNL     1      -7.839   8.657  67.714  1.00  0.00    -0.103 A  
HETATM   12  C   UNL     1      -7.704   8.492  72.767  1.00  0.00     0.001 C  
HETATM   13  H   UNL     1      -9.710   8.465  73.560  1.00  0.00     0.000 HD 
HETATM   14 CL   UNL     1      -9.470  10.619  66.851  1.00  0.00    -0.184 Cl 
HETATM   15  O   UNL     1      -7.231   8.760  74.078  1.00  0.00    -0.379 OA 
HETATM   16  C   UNL     1      -7.237   7.085  72.295  1.00  0.00    -0.073 C  
HETATM   17  C   UNL     1      -7.354   7.764  68.676  1.00  0.00    -0.087 A  
ENDROOT
BRANCH   6  18
HETATM   18  C   UNL     1     -11.239   8.410  71.557  1.00  0.00    -0.328 A  
HETATM   19  C   UNL     1     -14.051   8.474  71.796  1.00  0.00    -0.515 A  
HETATM   20  C   UNL     1     -11.920   9.592  71.917  1.00  0.00    -0.381 A  
HETATM   21  C   UNL     1     -13.310   9.622  72.045  1.00  0.00    -0.547 A  
HETATM   22  C   UNL     1     -13.398   7.296  71.432  1.00  0.00    -0.399 A  
HETATM   23  C   UNL     1     -11.999   7.249  71.332  1.00  0.00    -0.320 A  
HETATM   24 CL   UNL     1     -11.330   5.684  71.025  1.00  0.00    -0.130 Cl 
ENDBRANCH   6  18
TORSDOF 1
ENDMDL
MODEL       97
REMARK 921   NORMALIZED FREE ENERGY PREDICTED BY IDOCK:   -4.44 KCAL/MOL
REMARK 922        TOTAL FREE ENERGY PREDICTED BY IDOCK:   -5.35 KCAL/MOL
REMARK 923 INTER-LIGAND FREE ENERGY PREDICTED BY IDOCK:   -4.78 KCAL/MOL
REMARK 924 INTRA-LIGAND FREE ENERGY PREDICTED BY IDOCK:   -0.57 KCAL/MOL
REMARK 927      BINDING AFFINITY PREDICTED BY RF-SCORE:    0.00 PKD
ROOT
HETATM    1  C   UNL     1     -11.449  14.424  65.062  1.00  0.00    -0.372 C  
HETATM    2  N   UNL     1     -11.113  13.173  65.721  1.00  0.00    -0.272 N  
HETATM    3  C   UNL     1     -10.246  12.235  65.081  1.00  0.00    -0.279 A  
HETATM    4  C   UNL     1      -9.382  11.369  65.791  1.00  0.00    -0.247 A  
HETATM    5  C   UNL     1      -8.608  10.411  65.111  1.00  0.00    -0.189 A  
HETATM    6  C   UNL     1      -9.186  11.493  67.265  1.00  0.00    -0.167 C  
HETATM    7  C   UNL     1      -8.625  10.368  63.721  1.00  0.00    -0.177 A  
HETATM    8  N   UNL     1     -10.170  11.534  68.103  1.00  0.00    -0.187 NA 
HETATM    9  H   UNL     1     -13.370  11.295  68.285  1.00  0.00     0.000 HD 
HETATM   10  O   UNL     1     -12.494  13.764  67.478  1.00  0.00    -0.178 OA 
HETATM   11  C   UNL     1      -9.429  11.243  63.001  1.00  0.00    -0.385 A  
HETATM   12  C   UNL     1     -11.529  11.531  67.592  1.00  0.00    -0.285 C  
HETATM   13  H   UNL     1      -9.994  11.568  69.107  1.00  0.00     0.000 HD 
HETATM   14 CL   UNL     1      -7.618   9.253  62.886  1.00  0.00    -0.105 Cl 
HETATM   15  O   UNL     1     -12.482  11.297  68.619  1.00  0.00    -0.442 OA 
HETATM   16  C   UNL     1     -11.756  12.928  66.946  1.00  0.00    -0.382 C  
HETATM   17  C   UNL     1     -10.240  12.161  63.677  1.00  0.00    -0.459 A  
ENDROOT
BRANCH   6  18
HETATM   18  C   UNL     1      -7.802  11.568  67.862  1.00  0.00    -0.123 A  
HETATM   19  C   UNL     1      -5.305  11.486  69.175  1.00  0.00    -0.047 A  
HETATM   20  C   UNL     1      -7.309  10.375  68.431  1.00  0.00    -0.085 A  
HETATM   21  C   UNL     1      -6.078  10.336  69.090  1.00  0.00    -0.037 A  
HETATM   22  C   UNL     1      -5.770  12.675  68.614  1.00  0.00    -0.059 A  
HETATM   23  C   UNL     1      -7.021  12.730  67.978  1.00  0.00    -0.107 A  
HETATM   24 CL   UNL     1      -7.526  14.305  67.470  1.00  0.00    -0.195 Cl 
ENDBRANCH   6  18
TORSDOF 1
ENDMDL
MODEL       98
REMARK 921   NORMALIZED FREE ENERGY PREDICTED BY IDOCK:   -4.40 KCAL/MOL
REMARK 922        TOTAL FREE ENERGY PREDICTED BY IDOCK:   -5.31 KCAL/MOL
REMARK 923 INTER-LIGAND FREE ENERGY PREDICTED BY IDOCK:   -4.65 KCAL/MOL
REMARK 924 INTRA-LIGAND FREE ENERGY PREDICTED BY IDOCK:   -0.66 KCAL/MOL
REMARK 927      BINDING AFFINITY PREDICTED BY RF-SCORE:    0.00 PKD
ROOT
HETATM    1  C   UNL     1     -12.666   8.317  71.761  1.00  0.00    -0.336 C  
HETATM    2  N   UNL     1     -11.308   7.948  71.397  1.00  0.00    -0.247 N  
HETATM    3  C   UNL     1     -10.858   6.604  71.576  1.00  0.00    -0.239 A  
HETATM    4  C   UNL     1      -9.890   5.994  70.743  1.00  0.00    -0.221 A  
HETATM    5  C   UNL     1      -9.427   4.694  71.015  1.00  0.00    -0.227 A  
HETATM    6  C   UNL     1      -9.394   6.658  69.503  1.00  0.00    -0.145 C  
HETATM    7  C   UNL     1      -9.983   3.965  72.061  1.00  0.00    -0.170 A  
HETATM    8  N   UNL     1      -8.943   7.869  69.487  1.00  0.00    -0.142 NA 
HETATM    9  H   UNL     1      -8.236  10.347  71.409  1.00  0.00     0.000 HD 
HETATM   10  O   UNL     1     -10.903  10.145  70.806  1.00  0.00    -0.307 OA 
HETATM   11  C   UNL     1     -10.970   4.527  72.861  1.00  0.00    -0.262 A  
HETATM   12  C   UNL     1      -8.984   8.650  70.710  1.00  0.00    -0.175 C  
HETATM   13  H   UNL     1      -8.565   8.271  68.629  1.00  0.00     0.000 HD 
HETATM   14 CL   UNL     1      -9.476   2.347  72.343  1.00  0.00    -0.146 Cl 
HETATM   15  O   UNL     1      -8.210   9.836  70.609  1.00  0.00    -0.246 OA 
HETATM   16  C   UNL     1     -10.480   8.994  70.959  1.00  0.00    -0.269 C  
HETATM   17  C   UNL     1     -11.395   5.839  72.626  1.00  0.00    -0.349 A  
ENDROOT
BRANCH   6  18
HETATM   18  C   UNL     1      -9.384   5.929  68.181  1.00  0.00    -0.117 A  
HETATM   19  C   UNL     1      -9.659   4.487  65.770  1.00  0.00    -0.192 A  
HETATM   20  C   UNL     1     -10.625   5.839  67.516  1.00  0.00    -0.327 A  
HETATM   21  C   UNL     1     -10.764   5.117  66.328  1.00  0.00    -0.272 A  
HETATM   22  C   UNL     1      -8.422   4.569  66.408  1.00  0.00    -0.112 A  
HETATM   23  C   UNL     1      -8.280   5.265  67.618  1.00  0.00    -0.099 A  
HETATM   24 CL   UNL     1      -6.724   5.147  68.364  1.00  0.00    -0.053 Cl 
ENDBRANCH   6  18
TORSDOF 1
ENDMDL
MODEL       99
REMARK 921   NORMALIZED FREE ENERGY PREDICTED BY IDOCK:   -4.37 KCAL/MOL
REMARK 922        TOTAL FREE ENERGY PREDICTED BY IDOCK:   -5.27 KCAL/MOL
REMARK 923 INTER-LIGAND FREE ENERGY PREDICTED BY IDOCK:   -4.79 KCAL/MOL
REMARK 924 INTRA-LIGAND FREE ENERGY PREDICTED BY IDOCK:   -0.48 KCAL/MOL
REMARK 927      BINDING AFFINITY PREDICTED BY RF-SCORE:    0.00 PKD
ROOT
HETATM    1  C   UNL     1     -11.531   6.502  70.019  1.00  0.00    -0.412 C  
HETATM    2  N   UNL     1     -10.392   7.394  69.874  1.00  0.00    -0.212 N  
HETATM    3  C   UNL     1      -9.848   7.658  68.579  1.00  0.00    -0.167 A  
HETATM    4  C   UNL     1      -9.235   8.884  68.232  1.00  0.00    -0.143 A  
HETATM    5  C   UNL     1      -8.646   9.059  66.966  1.00  0.00    -0.120 A  
HETATM    6  C   UNL     1      -9.267  10.063  69.146  1.00  0.00    -0.190 C  
HETATM    7  C   UNL     1      -8.739   8.049  66.014  1.00  0.00    -0.157 A  
HETATM    8  N   UNL     1      -8.909   9.999  70.387  1.00  0.00    -0.328 NA 
HETATM    9  H   UNL     1      -7.648   8.008  72.573  1.00  0.00     0.000 HD 
HETATM   10  O   UNL     1     -10.335   7.643  72.171  1.00  0.00    -0.204 OA 
HETATM   11  C   UNL     1      -9.380   6.855  66.318  1.00  0.00    -0.144 A  
HETATM   12  C   UNL     1      -8.525   8.714  70.942  1.00  0.00    -0.166 C  
HETATM   13  H   UNL     1      -8.897  10.838  70.967  1.00  0.00     0.000 HD 
HETATM   14 CL   UNL     1      -8.091   8.294  64.441  1.00  0.00    -0.153 Cl 
HETATM   15  O   UNL     1      -7.899   8.849  72.210  1.00  0.00    -0.361 OA 
HETATM   16  C   UNL     1      -9.834   7.883  71.067  1.00  0.00    -0.170 C  
HETATM   17  C   UNL     1      -9.920   6.658  67.593  1.00  0.00    -0.161 A  
ENDROOT
BRANCH   6  18
HETATM   18  C   UNL     1      -9.718  11.417  68.654  1.00  0.00    -0.182 A  
HETATM   19  C   UNL     1     -10.286  14.055  67.827  1.00  0.00    -0.240 A  
HETATM   20  C   UNL     1      -8.699  12.280  68.199  1.00  0.00    -0.186 A  
HETATM   21  C   UNL     1      -8.978  13.588  67.799  1.00  0.00    -0.201 A  
HETATM   22  C   UNL     1     -11.309  13.216  68.268  1.00  0.00    -0.333 A  
HETATM   23  C   UNL     1     -11.033  11.910  68.702  1.00  0.00    -0.228 A  
HETATM   24 CL   UNL     1     -12.380  11.048  69.363  1.00  0.00    -0.329 Cl 
ENDBRANCH   6  18
TORSDOF 1
ENDMDL
MODEL      100
REMARK 921   NORMALIZED FREE ENERGY PREDICTED BY IDOCK:   -4.34 KCAL/MOL
REMARK 922        TOTAL FREE ENERGY PREDICTED BY IDOCK:   -5.24 KCAL/MOL
REMARK 923 INTER-LIGAND FREE ENERGY PREDICTED BY IDOCK:   -4.84 KCAL/MOL
REMARK 924 INTRA-LIGAND FREE ENERGY PREDICTED BY IDOCK:   -0.40 KCAL/MOL
REMARK 927      BINDING AFFINITY PREDICTED BY RF-SCORE:    0.00 PKD
ROOT
HETATM    1  C   UNL     1     -11.438  13.165  64.279  1.00  0.00    -0.384 C  
HETATM    2  N   UNL     1     -10.926  12.979  65.627  1.00  0.00    -0.272 N  
HETATM    3  C   UNL     1      -9.777  12.158  65.850  1.00  0.00    -0.239 A  
HETATM    4  C   UNL     1      -8.854  12.387  66.898  1.00  0.00    -0.205 A  
HETATM    5  C   UNL     1      -7.786  11.499  67.119  1.00  0.00    -0.160 A  
HETATM    6  C   UNL     1      -8.919  13.613  67.746  1.00  0.00    -0.196 C  
HETATM    7  C   UNL     1      -7.581  10.432  66.249  1.00  0.00    -0.127 A  
HETATM    8  N   UNL     1     -10.001  14.001  68.337  1.00  0.00    -0.233 NA 
HETATM    9  H   UNL     1     -13.048  13.140  68.891  1.00  0.00     0.000 HD 
HETATM   10  O   UNL     1     -12.656  14.283  66.430  1.00  0.00    -0.396 OA 
HETATM   11  C   UNL     1      -8.447  10.218  65.184  1.00  0.00    -0.173 A  
HETATM   12  C   UNL     1     -11.229  13.258  68.116  1.00  0.00    -0.270 C  
HETATM   13  H   UNL     1      -9.993  14.816  68.950  1.00  0.00     0.000 HD 
HETATM   14 CL   UNL     1      -6.228   9.396  66.470  1.00  0.00    -0.064 Cl 
HETATM   15  O   UNL     1     -12.246  13.627  69.036  1.00  0.00    -0.334 OA 
HETATM   16  C   UNL     1     -11.672  13.571  66.659  1.00  0.00    -0.387 C  
HETATM   17  C   UNL     1      -9.541  11.069  64.994  1.00  0.00    -0.291 A  
ENDROOT
BRANCH   6  18
HETATM   18  C   UNL     1      -7.697  14.471  67.967  1.00  0.00    -0.138 A  
HETATM   19  C   UNL     1      -5.434  15.999  68.679  1.00  0.00    -0.101 A  
HETATM   20  C   UNL     1      -6.859  14.089  69.035  1.00  0.00    -0.111 A  
HETATM   21  C   UNL     1      -5.745  14.850  69.395  1.00  0.00    -0.096 A  
HETATM   22  C   UNL     1      -6.246  16.391  67.615  1.00  0.00    -0.165 A  
HETATM   23  C   UNL     1      -7.385  15.649  67.267  1.00  0.00    -0.220 A  
HETATM   24 CL   UNL     1      -8.374  16.344  66.029  1.00  0.00    -0.280 Cl 
ENDBRANCH   6  18
TORSDOF 1
ENDMDL
MODEL      101
REMARK 921   NORMALIZED FREE ENERGY PREDICTED BY IDOCK:   -4.32 KCAL/MOL
REMARK 922        TOTAL FREE ENERGY PREDICTED BY IDOCK:   -5.23 KCAL/MOL
REMARK 923 INTER-LIGAND FREE ENERGY PREDICTED BY IDOCK:   -4.80 KCAL/MOL
REMARK 924 INTRA-LIGAND FREE ENERGY PREDICTED BY IDOCK:   -0.42 KCAL/MOL
REMARK 927      BINDING AFFINITY PREDICTED BY RF-SCORE:    0.00 PKD
ROOT
HETATM    1  C   UNL     1      -8.815   7.717  73.048  1.00  0.00    -0.192 C  
HETATM    2  N   UNL     1      -9.713   7.736  71.905  1.00  0.00    -0.164 N  
HETATM    3  C   UNL     1      -9.292   8.324  70.672  1.00  0.00    -0.156 A  
HETATM    4  C   UNL     1      -9.744   7.878  69.407  1.00  0.00    -0.170 A  
HETATM    5  C   UNL     1      -9.358   8.546  68.231  1.00  0.00    -0.143 A  
HETATM    6  C   UNL     1     -10.565   6.641  69.260  1.00  0.00    -0.238 C  
HETATM    7  C   UNL     1      -8.455   9.603  68.300  1.00  0.00    -0.118 A  
HETATM    8  N   UNL     1     -11.636   6.423  69.949  1.00  0.00    -0.542 NA 
HETATM    9  H   UNL     1     -13.606   7.787  72.092  1.00  0.00     0.000 HD 
HETATM   10  O   UNL     1     -11.335   6.724  73.202  1.00  0.00    -0.161 OA 
HETATM   11  C   UNL     1      -7.961  10.025  69.528  1.00  0.00    -0.161 A  
HETATM   12  C   UNL     1     -12.028   7.385  70.963  1.00  0.00    -0.306 C  
HETATM   13  H   UNL     1     -12.198   5.588  69.783  1.00  0.00     0.000 HD 
HETATM   14 CL   UNL     1      -7.919  10.366  66.856  1.00  0.00    -0.112 Cl 
HETATM   15  O   UNL     1     -13.350   7.157  71.429  1.00  0.00    -0.381 OA 
HETATM   16  C   UNL     1     -11.006   7.234  72.126  1.00  0.00    -0.239 C  
HETATM   17  C   UNL     1      -8.385   9.397  70.703  1.00  0.00    -0.217 A  
ENDROOT
BRANCH   6  18
HETATM   18  C   UNL     1     -10.180   5.566  68.272  1.00  0.00    -0.237 A  
HETATM   19  C   UNL     1      -9.733   3.615  66.283  1.00  0.00    -0.093 A  
HETATM   20  C   UNL     1     -10.695   5.716  66.966  1.00  0.00    -0.332 A  
HETATM   21  C   UNL     1     -10.482   4.745  65.985  1.00  0.00    -0.332 A  
HETATM   22  C   UNL     1      -9.210   3.451  67.565  1.00  0.00    -0.231 A  
HETATM   23  C   UNL     1      -9.445   4.406  68.567  1.00  0.00    -0.156 A  
HETATM   24 CL   UNL     1      -8.864   3.988  70.141  1.00  0.00    -0.125 Cl 
ENDBRANCH   6  18
TORSDOF 1
ENDMDL
MODEL      102
REMARK 921   NORMALIZED FREE ENERGY PREDICTED BY IDOCK:   -4.29 KCAL/MOL
REMARK 922        TOTAL FREE ENERGY PREDICTED BY IDOCK:   -5.20 KCAL/MOL
REMARK 923 INTER-LIGAND FREE ENERGY PREDICTED BY IDOCK:   -4.56 KCAL/MOL
REMARK 924 INTRA-LIGAND FREE ENERGY PREDICTED BY IDOCK:   -0.64 KCAL/MOL
REMARK 927      BINDING AFFINITY PREDICTED BY RF-SCORE:    0.00 PKD
ROOT
HETATM    1  C   UNL     1     -12.625   9.208  72.158  1.00  0.00    -0.381 C  
HETATM    2  N   UNL     1     -11.520   9.472  71.251  1.00  0.00    -0.348 N  
HETATM    3  C   UNL     1     -10.250   8.853  71.468  1.00  0.00    -0.328 A  
HETATM    4  C   UNL     1      -9.364   8.515  70.419  1.00  0.00    -0.179 A  
HETATM    5  C   UNL     1      -8.093   7.980  70.698  1.00  0.00    -0.104 A  
HETATM    6  C   UNL     1      -9.768   8.623  68.986  1.00  0.00    -0.173 C  
HETATM    7  C   UNL     1      -7.733   7.699  72.012  1.00  0.00    -0.088 A  
HETATM    8  N   UNL     1     -10.284   9.695  68.482  1.00  0.00    -0.185 NA 
HETATM    9  H   UNL     1     -11.021  12.742  69.191  1.00  0.00     0.000 HD 
HETATM   10  O   UNL     1     -12.875  10.926  70.073  1.00  0.00    -0.213 OA 
HETATM   11  C   UNL     1      -8.608   7.978  73.054  1.00  0.00    -0.265 A  
HETATM   12  C   UNL     1     -10.551  10.825  69.354  1.00  0.00    -0.221 C  
HETATM   13  H   UNL     1     -10.500   9.747  67.486  1.00  0.00     0.000 HD 
HETATM   14 CL   UNL     1      -6.213   6.969  72.346  1.00  0.00    -0.045 Cl 
HETATM   15  O   UNL     1     -10.847  12.004  68.620  1.00  0.00    -0.219 OA 
HETATM   16  C   UNL     1     -11.763  10.415  70.239  1.00  0.00    -0.321 C  
HETATM   17  C   UNL     1      -9.851   8.559  72.784  1.00  0.00    -0.213 A  
ENDROOT
BRANCH   6  18
HETATM   18  C   UNL     1      -9.580   7.465  68.036  1.00  0.00    -0.152 A  
HETATM   19  C   UNL     1      -9.230   5.511  66.031  1.00  0.00    -0.168 A  
HETATM   20  C   UNL     1      -8.880   7.751  66.845  1.00  0.00    -0.143 A  
HETATM   21  C   UNL     1      -8.716   6.787  65.848  1.00  0.00    -0.147 A  
HETATM   22  C   UNL     1      -9.919   5.205  67.204  1.00  0.00    -0.221 A  
HETATM   23  C   UNL     1     -10.117   6.177  68.197  1.00  0.00    -0.157 A  
HETATM   24 CL   UNL     1     -11.121   5.692  69.519  1.00  0.00    -0.288 Cl 
ENDBRANCH   6  18
TORSDOF 1
ENDMDL
MODEL      103
REMARK 921   NORMALIZED FREE ENERGY PREDICTED BY IDOCK:   -4.23 KCAL/MOL
REMARK 922        TOTAL FREE ENERGY PREDICTED BY IDOCK:   -5.12 KCAL/MOL
REMARK 923 INTER-LIGAND FREE ENERGY PREDICTED BY IDOCK:   -4.49 KCAL/MOL
REMARK 924 INTRA-LIGAND FREE ENERGY PREDICTED BY IDOCK:   -0.64 KCAL/MOL
REMARK 927      BINDING AFFINITY PREDICTED BY RF-SCORE:    0.00 PKD
ROOT
HETATM    1  C   UNL     1      -9.873   5.868  70.592  1.00  0.00    -0.183 C  
HETATM    2  N   UNL     1     -10.209   6.427  69.293  1.00  0.00    -0.181 N  
HETATM    3  C   UNL     1     -10.525   7.815  69.170  1.00  0.00    -0.211 A  
HETATM    4  C   UNL     1     -10.250   8.573  68.007  1.00  0.00    -0.264 A  
HETATM    5  C   UNL     1     -10.656   9.916  67.913  1.00  0.00    -0.303 A  
HETATM    6  C   UNL     1      -9.447   8.014  66.880  1.00  0.00    -0.191 C  
HETATM    7  C   UNL     1     -11.259  10.535  69.003  1.00  0.00    -0.259 A  
HETATM    8  N   UNL     1      -9.710   6.876  66.327  1.00  0.00    -0.396 NA 
HETATM    9  H   UNL     1     -11.840   4.469  66.344  1.00  0.00     0.000 HD 
HETATM   10  O   UNL     1      -9.994   4.321  68.366  1.00  0.00    -0.083 OA 
HETATM   11  C   UNL     1     -11.493   9.824  70.173  1.00  0.00    -0.272 A  
HETATM   12  C   UNL     1     -10.788   6.066  66.864  1.00  0.00    -0.318 C  
HETATM   13  H   UNL     1      -9.168   6.552  65.525  1.00  0.00     0.000 HD 
HETATM   14 CL   UNL     1     -11.680  12.199  68.918  1.00  0.00    -0.358 Cl 
HETATM   15  O   UNL     1     -11.135   4.999  65.993  1.00  0.00    -0.166 OA 
HETATM   16  C   UNL     1     -10.284   5.515  68.228  1.00  0.00    -0.178 C  
HETATM   17  C   UNL     1     -11.139   8.473  70.250  1.00  0.00    -0.222 A  
ENDROOT
BRANCH   6  18
HETATM   18  C   UNL     1      -8.270   8.771  66.314  1.00  0.00    -0.115 A  
HETATM   19  C   UNL     1      -5.964  10.206  65.547  1.00  0.00    -0.097 A  
HETATM   20  C   UNL     1      -7.056   8.644  67.022  1.00  0.00    -0.075 A  
HETATM   21  C   UNL     1      -5.917   9.362  66.648  1.00  0.00    -0.060 A  
HETATM   22  C   UNL     1      -7.152  10.342  64.830  1.00  0.00    -0.099 A  
HETATM   23  C   UNL     1      -8.310   9.649  65.217  1.00  0.00    -0.134 A  
HETATM   24 CL   UNL     1      -9.740  10.038  64.326  1.00  0.00    -0.321 Cl 
ENDBRANCH   6  18
TORSDOF 1
ENDMDL
MODEL      104
REMARK 921   NORMALIZED FREE ENERGY PREDICTED BY IDOCK:   -4.20 KCAL/MOL
REMARK 922        TOTAL FREE ENERGY PREDICTED BY IDOCK:   -5.10 KCAL/MOL
REMARK 923 INTER-LIGAND FREE ENERGY PREDICTED BY IDOCK:   -4.45 KCAL/MOL
REMARK 924 INTRA-LIGAND FREE ENERGY PREDICTED BY IDOCK:   -0.65 KCAL/MOL
REMARK 927      BINDING AFFINITY PREDICTED BY RF-SCORE:    0.00 PKD
ROOT
HETATM    1  C   UNL     1      -9.316  11.587  68.570  1.00  0.00    -0.170 C  
HETATM    2  N   UNL     1      -9.191  10.496  69.523  1.00  0.00    -0.114 N  
HETATM    3  C   UNL     1     -10.361   9.858  70.039  1.00  0.00    -0.272 A  
HETATM    4  C   UNL     1     -10.396   8.495  70.418  1.00  0.00    -0.222 A  
HETATM    5  C   UNL     1     -11.553   7.940  70.994  1.00  0.00    -0.299 A  
HETATM    6  C   UNL     1      -9.255   7.575  70.141  1.00  0.00    -0.154 C  
HETATM    7  C   UNL     1     -12.704   8.713  71.117  1.00  0.00    -0.123 A  
HETATM    8  N   UNL     1      -8.036   7.849  70.474  1.00  0.00    -0.095 NA 
HETATM    9  H   UNL     1      -6.249  10.018  72.034  1.00  0.00     0.000 HD 
HETATM   10  O   UNL     1      -6.896  10.759  69.475  1.00  0.00    -0.087 OA 
HETATM   11  C   UNL     1     -12.706  10.040  70.706  1.00  0.00    -0.355 A  
HETATM   12  C   UNL     1      -7.744   9.136  71.079  1.00  0.00    -0.100 C  
HETATM   13  H   UNL     1      -7.290   7.172  70.313  1.00  0.00     0.000 HD 
HETATM   14 CL   UNL     1     -14.142   8.012  71.745  1.00  0.00    -0.486 Cl 
HETATM   15  O   UNL     1      -6.440   9.177  71.638  1.00  0.00    -0.154 OA 
HETATM   16  C   UNL     1      -7.888  10.194  69.949  1.00  0.00    -0.151 C  
HETATM   17  C   UNL     1     -11.541  10.609  70.182  1.00  0.00    -0.414 A  
ENDROOT
BRANCH   6  18
HETATM   18  C   UNL     1      -9.474   6.249  69.454  1.00  0.00    -0.148 A  
HETATM   19  C   UNL     1      -9.672   3.653  68.365  1.00  0.00    -0.075 A  
HETATM   20  C   UNL     1      -9.274   5.101  70.249  1.00  0.00    -0.193 A  
HETATM   21  C   UNL     1      -9.362   3.816  69.709  1.00  0.00    -0.245 A  
HETATM   22  C   UNL     1      -9.880   4.774  67.563  1.00  0.00    -0.206 A  
HETATM   23  C   UNL     1      -9.762   6.070  68.090  1.00  0.00    -0.127 A  
HETATM   24 CL   UNL     1      -9.895   7.354  66.940  1.00  0.00    -0.260 Cl 
ENDBRANCH   6  18
TORSDOF 1
ENDMDL
MODEL      105
REMARK 921   NORMALIZED FREE ENERGY PREDICTED BY IDOCK:   -4.19 KCAL/MOL
REMARK 922        TOTAL FREE ENERGY PREDICTED BY IDOCK:   -5.09 KCAL/MOL
REMARK 923 INTER-LIGAND FREE ENERGY PREDICTED BY IDOCK:   -4.45 KCAL/MOL
REMARK 924 INTRA-LIGAND FREE ENERGY PREDICTED BY IDOCK:   -0.63 KCAL/MOL
REMARK 927      BINDING AFFINITY PREDICTED BY RF-SCORE:    0.00 PKD
ROOT
HETATM    1  C   UNL     1      -6.870   8.750  71.161  1.00  0.00    -0.078 C  
HETATM    2  N   UNL     1      -7.726   8.878  69.993  1.00  0.00    -0.072 N  
HETATM    3  C   UNL     1      -9.080   9.312  70.140  1.00  0.00    -0.222 A  
HETATM    4  C   UNL     1      -9.769  10.049  69.149  1.00  0.00    -0.217 A  
HETATM    5  C   UNL     1     -11.125  10.381  69.315  1.00  0.00    -0.303 A  
HETATM    6  C   UNL     1      -9.072  10.580  67.941  1.00  0.00    -0.136 C  
HETATM    7  C   UNL     1     -11.777  10.058  70.501  1.00  0.00    -0.318 A  
HETATM    8  N   UNL     1      -8.336   9.844  67.175  1.00  0.00    -0.121 NA 
HETATM    9  H   UNL     1      -7.389   6.808  66.708  1.00  0.00     0.000 HD 
HETATM   10  O   UNL     1      -5.991   8.108  68.675  1.00  0.00    -0.041 OA 
HETATM   11  C   UNL     1     -11.105   9.377  71.508  1.00  0.00    -0.446 A  
HETATM   12  C   UNL     1      -8.114   8.455  67.536  1.00  0.00    -0.110 C  
HETATM   13  H   UNL     1      -7.917  10.232  66.330  1.00  0.00     0.000 HD 
HETATM   14 CL   UNL     1     -13.411  10.536  70.738  1.00  0.00    -0.226 Cl 
HETATM   15  O   UNL     1      -7.533   7.716  66.472  1.00  0.00    -0.088 OA 
HETATM   16  C   UNL     1      -7.168   8.470  68.770  1.00  0.00    -0.078 C  
HETATM   17  C   UNL     1      -9.771   8.999  71.324  1.00  0.00    -0.371 A  
ENDROOT
BRANCH   6  18
HETATM   18  C   UNL     1      -9.203  12.030  67.542  1.00  0.00    -0.180 A  
HETATM   19  C   UNL     1      -9.459  14.805  67.099  1.00  0.00    -0.233 A  
HETATM   20  C   UNL     1      -8.682  12.971  68.455  1.00  0.00    -0.115 A  
HETATM   21  C   UNL     1      -8.817  14.345  68.241  1.00  0.00    -0.182 A  
HETATM   22  C   UNL     1      -9.975  13.892  66.180  1.00  0.00    -0.322 A  
HETATM   23  C   UNL     1      -9.872  12.510  66.403  1.00  0.00    -0.253 A  
HETATM   24 CL   UNL     1     -10.694  11.510  65.256  1.00  0.00    -0.340 Cl 
ENDBRANCH   6  18
TORSDOF 1
ENDMDL
MODEL      106
REMARK 921   NORMALIZED FREE ENERGY PREDICTED BY IDOCK:   -4.14 KCAL/MOL
REMARK 922        TOTAL FREE ENERGY PREDICTED BY IDOCK:   -5.03 KCAL/MOL
REMARK 923 INTER-LIGAND FREE ENERGY PREDICTED BY IDOCK:   -4.49 KCAL/MOL
REMARK 924 INTRA-LIGAND FREE ENERGY PREDICTED BY IDOCK:   -0.54 KCAL/MOL
REMARK 927      BINDING AFFINITY PREDICTED BY RF-SCORE:    0.00 PKD
ROOT
HETATM    1  C   UNL     1     -10.024   9.252  67.233  1.00  0.00    -0.207 C  
HETATM    2  N   UNL     1     -10.387   8.931  68.604  1.00  0.00    -0.204 N  
HETATM    3  C   UNL     1     -10.209   7.603  69.100  1.00  0.00    -0.203 A  
HETATM    4  C   UNL     1      -9.917   7.315  70.454  1.00  0.00    -0.192 A  
HETATM    5  C   UNL     1      -9.831   5.985  70.903  1.00  0.00    -0.222 A  
HETATM    6  C   UNL     1      -9.601   8.395  71.434  1.00  0.00    -0.194 C  
HETATM    7  C   UNL     1      -9.948   4.939  69.993  1.00  0.00    -0.253 A  
HETATM    8  N   UNL     1     -10.354   9.433  71.603  1.00  0.00    -0.230 NA 
HETATM    9  H   UNL     1     -13.151  10.724  70.686  1.00  0.00     0.000 HD 
HETATM   10  O   UNL     1     -11.119  11.105  68.885  1.00  0.00    -0.199 OA 
HETATM   11  C   UNL     1     -10.186   5.200  68.649  1.00  0.00    -0.192 A  
HETATM   12  C   UNL     1     -11.521   9.599  70.756  1.00  0.00    -0.328 C  
HETATM   13  H   UNL     1     -10.130  10.124  72.318  1.00  0.00     0.000 HD 
HETATM   14 CL   UNL     1      -9.761   3.315  70.526  1.00  0.00    -0.208 Cl 
HETATM   15  O   UNL     1     -12.387  10.615  71.239  1.00  0.00    -0.360 OA 
HETATM   16  C   UNL     1     -10.988   9.964  69.342  1.00  0.00    -0.230 C  
HETATM   17  C   UNL     1     -10.325   6.521  68.210  1.00  0.00    -0.223 A  
ENDROOT
BRANCH   6  18
HETATM   18  C   UNL     1      -8.368   8.322  72.302  1.00  0.00    -0.229 A  
HETATM   19  C   UNL     1      -6.250   8.231  74.165  1.00  0.00    -0.129 A  
HETATM   20  C   UNL     1      -8.563   7.840  73.613  1.00  0.00    -0.295 A  
HETATM   21  C   UNL     1      -7.518   7.805  74.539  1.00  0.00    -0.200 A  
HETATM   22  C   UNL     1      -6.034   8.704  72.871  1.00  0.00    -0.081 A  
HETATM   23  C   UNL     1      -7.086   8.773  71.944  1.00  0.00    -0.030 A  
HETATM   24 CL   UNL     1      -6.697   9.525  70.436  1.00  0.00    -0.080 Cl 
ENDBRANCH   6  18
TORSDOF 1
ENDMDL
MODEL      107
REMARK 921   NORMALIZED FREE ENERGY PREDICTED BY IDOCK:   -4.10 KCAL/MOL
REMARK 922        TOTAL FREE ENERGY PREDICTED BY IDOCK:   -4.99 KCAL/MOL
REMARK 923 INTER-LIGAND FREE ENERGY PREDICTED BY IDOCK:   -4.63 KCAL/MOL
REMARK 924 INTRA-LIGAND FREE ENERGY PREDICTED BY IDOCK:   -0.36 KCAL/MOL
REMARK 927      BINDING AFFINITY PREDICTED BY RF-SCORE:    0.00 PKD
ROOT
HETATM    1  C   UNL     1      -6.569   9.911  66.369  1.00  0.00    -0.073 C  
HETATM    2  N   UNL     1      -7.973  10.219  66.586  1.00  0.00    -0.114 N  
HETATM    3  C   UNL     1      -8.563  10.006  67.870  1.00  0.00    -0.121 A  
HETATM    4  C   UNL     1      -9.625  10.793  68.375  1.00  0.00    -0.177 A  
HETATM    5  C   UNL     1     -10.219  10.486  69.612  1.00  0.00    -0.207 A  
HETATM    6  C   UNL     1     -10.093  12.022  67.670  1.00  0.00    -0.197 C  
HETATM    7  C   UNL     1      -9.707   9.453  70.390  1.00  0.00    -0.261 A  
HETATM    8  N   UNL     1     -10.405  12.036  66.416  1.00  0.00    -0.212 NA 
HETATM    9  H   UNL     1     -10.754  10.120  63.858  1.00  0.00     0.000 HD 
HETATM   10  O   UNL     1      -8.153  10.822  64.363  1.00  0.00    -0.019 OA 
HETATM   11  C   UNL     1      -8.633   8.698  69.935  1.00  0.00    -0.131 A  
HETATM   12  C   UNL     1     -10.229  10.825  65.634  1.00  0.00    -0.257 C  
HETATM   13  H   UNL     1     -10.770  12.884  65.982  1.00  0.00     0.000 HD 
HETATM   14 CL   UNL     1     -10.380   9.131  71.938  1.00  0.00    -0.354 Cl 
HETATM   15  O   UNL     1     -10.869  10.912  64.369  1.00  0.00    -0.299 OA 
HETATM   16  C   UNL     1      -8.696  10.638  65.457  1.00  0.00    -0.188 C  
HETATM   17  C   UNL     1      -8.074   8.967  68.681  1.00  0.00    -0.111 A  
ENDROOT
BRANCH   6  18
HETATM   18  C   UNL     1     -10.236  13.333  68.405  1.00  0.00    -0.249 A  
HETATM   19  C   UNL     1     -10.809  15.757  69.731  1.00  0.00    -0.314 A  
HETATM   20  C   UNL     1     -11.446  13.519  69.105  1.00  0.00    -0.345 A  
HETATM   21  C   UNL     1     -11.735  14.722  69.753  1.00  0.00    -0.354 A  
HETATM   22  C   UNL     1      -9.603  15.591  69.051  1.00  0.00    -0.238 A  
HETATM   23  C   UNL     1      -9.319  14.397  68.370  1.00  0.00    -0.206 A  
HETATM   24 CL   UNL     1      -7.856  14.400  67.446  1.00  0.00    -0.207 Cl 
ENDBRANCH   6  18
TORSDOF 1
ENDMDL
MODEL      108
REMARK 921   NORMALIZED FREE ENERGY PREDICTED BY IDOCK:   -4.08 KCAL/MOL
REMARK 922        TOTAL FREE ENERGY PREDICTED BY IDOCK:   -4.96 KCAL/MOL
REMARK 923 INTER-LIGAND FREE ENERGY PREDICTED BY IDOCK:   -4.37 KCAL/MOL
REMARK 924 INTRA-LIGAND FREE ENERGY PREDICTED BY IDOCK:   -0.60 KCAL/MOL
REMARK 927      BINDING AFFINITY PREDICTED BY RF-SCORE:    0.00 PKD
ROOT
HETATM    1  C   UNL     1      -8.500   8.479  65.184  1.00  0.00    -0.175 C  
HETATM    2  N   UNL     1      -8.564   8.199  66.609  1.00  0.00    -0.130 N  
HETATM    3  C   UNL     1      -7.972   9.103  67.545  1.00  0.00    -0.100 A  
HETATM    4  C   UNL     1      -8.471   9.299  68.854  1.00  0.00    -0.129 A  
HETATM    5  C   UNL     1      -7.801  10.142  69.759  1.00  0.00    -0.175 A  
HETATM    6  C   UNL     1      -9.765   8.701  69.297  1.00  0.00    -0.173 C  
HETATM    7  C   UNL     1      -6.684  10.858  69.340  1.00  0.00    -0.107 A  
HETATM    8  N   UNL     1     -10.042   7.446  69.157  1.00  0.00    -0.184 NA 
HETATM    9  H   UNL     1      -8.776   4.650  68.205  1.00  0.00     0.000 HD 
HETATM   10  O   UNL     1      -9.660   6.220  66.138  1.00  0.00    -0.125 OA 
HETATM   11  C   UNL     1      -6.206  10.718  68.043  1.00  0.00    -0.057 A  
HETATM   12  C   UNL     1      -9.090   6.587  68.477  1.00  0.00    -0.127 C  
HETATM   13  H   UNL     1     -10.917   7.066  69.519  1.00  0.00     0.000 HD 
HETATM   14 CL   UNL     1      -5.914  11.951  70.420  1.00  0.00    -0.158 Cl 
HETATM   15  O   UNL     1      -9.399   5.212  68.649  1.00  0.00    -0.115 OA 
HETATM   16  C   UNL     1      -9.148   6.975  66.972  1.00  0.00    -0.137 C  
HETATM   17  C   UNL     1      -6.839   9.840  67.158  1.00  0.00    -0.083 A  
ENDROOT
BRANCH   6  18
HETATM   18  C   UNL     1     -10.829   9.548  69.952  1.00  0.00    -0.272 A  
HETATM   19  C   UNL     1     -12.714  11.366  71.003  1.00  0.00    -0.447 A  
HETATM   20  C   UNL     1     -11.335  10.613  69.177  1.00  0.00    -0.338 A  
HETATM   21  C   UNL     1     -12.260  11.518  69.700  1.00  0.00    -0.296 A  
HETATM   22  C   UNL     1     -12.232  10.316  71.784  1.00  0.00    -0.282 A  
HETATM   23  C   UNL     1     -11.278   9.420  71.277  1.00  0.00    -0.367 A  
HETATM   24 CL   UNL     1     -10.664   8.269  72.413  1.00  0.00    -0.391 Cl 
ENDBRANCH   6  18
TORSDOF 1
ENDMDL
MODEL      109
REMARK 921   NORMALIZED FREE ENERGY PREDICTED BY IDOCK:   -4.07 KCAL/MOL
REMARK 922        TOTAL FREE ENERGY PREDICTED BY IDOCK:   -4.96 KCAL/MOL
REMARK 923 INTER-LIGAND FREE ENERGY PREDICTED BY IDOCK:   -4.40 KCAL/MOL
REMARK 924 INTRA-LIGAND FREE ENERGY PREDICTED BY IDOCK:   -0.56 KCAL/MOL
REMARK 927      BINDING AFFINITY PREDICTED BY RF-SCORE:    0.00 PKD
ROOT
HETATM    1  C   UNL     1      -6.832   9.400  66.998  1.00  0.00    -0.084 C  
HETATM    2  N   UNL     1      -8.216   8.996  67.183  1.00  0.00    -0.109 N  
HETATM    3  C   UNL     1      -8.597   7.632  66.993  1.00  0.00    -0.122 A  
HETATM    4  C   UNL     1      -9.653   7.016  67.704  1.00  0.00    -0.151 A  
HETATM    5  C   UNL     1     -10.035   5.693  67.418  1.00  0.00    -0.180 A  
HETATM    6  C   UNL     1     -10.339   7.702  68.838  1.00  0.00    -0.212 C  
HETATM    7  C   UNL     1      -9.315   4.950  66.488  1.00  0.00    -0.142 A  
HETATM    8  N   UNL     1     -10.823   8.898  68.745  1.00  0.00    -0.423 NA 
HETATM    9  H   UNL     1     -11.325  11.286  66.653  1.00  0.00     0.000 HD 
HETATM   10  O   UNL     1      -8.765  11.196  67.629  1.00  0.00    -0.127 OA 
HETATM   11  C   UNL     1      -8.243   5.520  65.813  1.00  0.00    -0.124 A  
HETATM   12  C   UNL     1     -10.634   9.639  67.512  1.00  0.00    -0.277 C  
HETATM   13  H   UNL     1     -11.330   9.313  69.527  1.00  0.00     0.000 HD 
HETATM   14 CL   UNL     1      -9.730   3.307  66.199  1.00  0.00    -0.010 Cl 
HETATM   15  O   UNL     1     -11.449  10.801  67.460  1.00  0.00    -0.475 OA 
HETATM   16  C   UNL     1      -9.128  10.027  67.462  1.00  0.00    -0.134 C  
HETATM   17  C   UNL     1      -7.895   6.852  66.057  1.00  0.00    -0.104 A  
ENDROOT
BRANCH   6  18
HETATM   18  C   UNL     1     -10.513   7.017  70.171  1.00  0.00    -0.232 A  
HETATM   19  C   UNL     1     -11.047   5.954  72.731  1.00  0.00    -0.321 A  
HETATM   20  C   UNL     1     -11.787   7.137  70.766  1.00  0.00    -0.367 A  
HETATM   21  C   UNL     1     -12.049   6.621  72.037  1.00  0.00    -0.353 A  
HETATM   22  C   UNL     1      -9.783   5.818  72.158  1.00  0.00    -0.174 A  
HETATM   23  C   UNL     1      -9.502   6.362  70.895  1.00  0.00    -0.175 A  
HETATM   24 CL   UNL     1      -7.852   6.247  70.388  1.00  0.00    -0.104 Cl 
ENDBRANCH   6  18
TORSDOF 1
ENDMDL
MODEL      110
REMARK 921   NORMALIZED FREE ENERGY PREDICTED BY IDOCK:   -4.07 KCAL/MOL
REMARK 922        TOTAL FREE ENERGY PREDICTED BY IDOCK:   -4.96 KCAL/MOL
REMARK 923 INTER-LIGAND FREE ENERGY PREDICTED BY IDOCK:   -4.87 KCAL/MOL
REMARK 924 INTRA-LIGAND FREE ENERGY PREDICTED BY IDOCK:   -0.09 KCAL/MOL
REMARK 927      BINDING AFFINITY PREDICTED BY RF-SCORE:    0.00 PKD
ROOT
HETATM    1  C   UNL     1     -11.875  15.695  68.682  1.00  0.00    -0.291 C  
HETATM    2  N   UNL     1     -10.883  15.222  67.731  1.00  0.00    -0.287 N  
HETATM    3  C   UNL     1      -9.508  15.576  67.892  1.00  0.00    -0.201 A  
HETATM    4  C   UNL     1      -8.440  14.743  67.485  1.00  0.00    -0.204 A  
HETATM    5  C   UNL     1      -7.107  15.178  67.596  1.00  0.00    -0.210 A  
HETATM    6  C   UNL     1      -8.672  13.347  67.010  1.00  0.00    -0.187 C  
HETATM    7  C   UNL     1      -6.827  16.405  68.190  1.00  0.00    -0.132 A  
HETATM    8  N   UNL     1      -9.527  13.053  66.086  1.00  0.00    -0.430 NA 
HETATM    9  H   UNL     1     -11.564  14.383  63.986  1.00  0.00     0.000 HD 
HETATM   10  O   UNL     1     -12.570  14.196  66.530  1.00  0.00    -0.394 OA 
HETATM   11  C   UNL     1      -7.859  17.217  68.643  1.00  0.00    -0.272 A  
HETATM   12  C   UNL     1     -10.352  14.109  65.529  1.00  0.00    -0.351 C  
HETATM   13  H   UNL     1      -9.621  12.093  65.754  1.00  0.00     0.000 HD 
HETATM   14 CL   UNL     1      -5.195  16.900  68.402  1.00  0.00    -0.116 Cl 
HETATM   15  O   UNL     1     -11.025  13.692  64.351  1.00  0.00    -0.386 OA 
HETATM   16  C   UNL     1     -11.375  14.494  66.635  1.00  0.00    -0.356 C  
HETATM   17  C   UNL     1      -9.187  16.810  68.485  1.00  0.00    -0.243 A  
ENDROOT
BRANCH   6  18
HETATM   18  C   UNL     1      -7.898  12.189  67.592  1.00  0.00    -0.153 A  
HETATM   19  C   UNL     1      -6.262  10.049  68.433  1.00  0.00    -0.049 A  
HETATM   20  C   UNL     1      -6.520  12.154  67.290  1.00  0.00    -0.152 A  
HETATM   21  C   UNL     1      -5.712  11.091  67.698  1.00  0.00    -0.043 A  
HETATM   22  C   UNL     1      -7.620  10.067  68.748  1.00  0.00    -0.083 A  
HETATM   23  C   UNL     1      -8.446  11.116  68.315  1.00  0.00    -0.145 A  
HETATM   24 CL   UNL     1     -10.132  10.920  68.650  1.00  0.00    -0.186 Cl 
ENDBRANCH   6  18
TORSDOF 1
ENDMDL
MODEL      111
REMARK 921   NORMALIZED FREE ENERGY PREDICTED BY IDOCK:   -4.07 KCAL/MOL
REMARK 922        TOTAL FREE ENERGY PREDICTED BY IDOCK:   -4.96 KCAL/MOL
REMARK 923 INTER-LIGAND FREE ENERGY PREDICTED BY IDOCK:   -4.33 KCAL/MOL
REMARK 924 INTRA-LIGAND FREE ENERGY PREDICTED BY IDOCK:   -0.63 KCAL/MOL
REMARK 927      BINDING AFFINITY PREDICTED BY RF-SCORE:    0.00 PKD
ROOT
HETATM    1  C   UNL     1     -12.318  13.787  65.602  1.00  0.00    -0.482 C  
HETATM    2  N   UNL     1     -11.493  12.991  66.496  1.00  0.00    -0.323 N  
HETATM    3  C   UNL     1     -10.444  12.176  65.969  1.00  0.00    -0.247 A  
HETATM    4  C   UNL     1      -9.254  11.891  66.678  1.00  0.00    -0.206 A  
HETATM    5  C   UNL     1      -8.290  11.018  66.142  1.00  0.00    -0.163 A  
HETATM    6  C   UNL     1      -8.929  12.568  67.968  1.00  0.00    -0.192 C  
HETATM    7  C   UNL     1      -8.466  10.493  64.865  1.00  0.00    -0.158 A  
HETATM    8  N   UNL     1      -9.753  12.617  68.962  1.00  0.00    -0.368 NA 
HETATM    9  H   UNL     1     -12.627  11.561  69.940  1.00  0.00     0.000 HD 
HETATM   10  O   UNL     1     -12.760  13.738  68.279  1.00  0.00     0.376 OA 
HETATM   11  C   UNL     1      -9.605  10.799  64.131  1.00  0.00    -0.333 A  
HETATM   12  C   UNL     1     -11.081  12.053  68.803  1.00  0.00    -0.249 C  
HETATM   13  H   UNL     1      -9.475  13.045  69.845  1.00  0.00     0.000 HD 
HETATM   14 CL   UNL     1      -7.251   9.492  64.176  1.00  0.00    -0.110 Cl 
HETATM   15  O   UNL     1     -11.759  11.930  70.044  1.00  0.00    -0.317 OA 
HETATM   16  C   UNL     1     -11.853  13.014  67.854  1.00  0.00    -0.343 C  
HETATM   17  C   UNL     1     -10.590  11.625  64.684  1.00  0.00    -0.366 A  
ENDROOT
BRANCH   6  18
HETATM   18  C   UNL     1      -7.591  13.234  68.181  1.00  0.00    -0.141 A  
HETATM   19  C   UNL     1      -5.145  14.636  68.318  1.00  0.00    -0.112 A  
HETATM   20  C   UNL     1      -7.466  14.545  67.674  1.00  0.00    -0.195 A  
HETATM   21  C   UNL     1      -6.253  15.235  67.733  1.00  0.00    -0.178 A  
HETATM   22  C   UNL     1      -5.250  13.344  68.831  1.00  0.00    -0.073 A  
HETATM   23  C   UNL     1      -6.456  12.631  68.748  1.00  0.00    -0.085 A  
HETATM   24 CL   UNL     1      -6.385  10.989  69.287  1.00  0.00    -0.057 Cl 
ENDBRANCH   6  18
TORSDOF 1
ENDMDL
MODEL      112
REMARK 921   NORMALIZED FREE ENERGY PREDICTED BY IDOCK:   -4.06 KCAL/MOL
REMARK 922        TOTAL FREE ENERGY PREDICTED BY IDOCK:   -4.95 KCAL/MOL
REMARK 923 INTER-LIGAND FREE ENERGY PREDICTED BY IDOCK:   -4.28 KCAL/MOL
REMARK 924 INTRA-LIGAND FREE ENERGY PREDICTED BY IDOCK:   -0.67 KCAL/MOL
REMARK 927      BINDING AFFINITY PREDICTED BY RF-SCORE:    0.00 PKD
ROOT
HETATM    1  C   UNL     1      -9.023   4.969  73.782  1.00  0.00    -0.114 C  
HETATM    2  N   UNL     1      -9.566   5.744  72.679  1.00  0.00    -0.153 N  
HETATM    3  C   UNL     1      -8.690   6.446  71.796  1.00  0.00    -0.132 A  
HETATM    4  C   UNL     1      -8.985   6.674  70.431  1.00  0.00    -0.152 A  
HETATM    5  C   UNL     1      -8.121   7.441  69.629  1.00  0.00    -0.128 A  
HETATM    6  C   UNL     1     -10.163   6.042  69.768  1.00  0.00    -0.205 C  
HETATM    7  C   UNL     1      -6.922   7.911  70.155  1.00  0.00    -0.049 A  
HETATM    8  N   UNL     1     -11.361   6.109  70.252  1.00  0.00    -0.373 NA 
HETATM    9  H   UNL     1     -13.077   7.435  72.623  1.00  0.00     0.000 HD 
HETATM   10  O   UNL     1     -11.697   5.192  73.383  1.00  0.00    -0.185 OA 
HETATM   11  C   UNL     1      -6.589   7.656  71.479  1.00  0.00    -0.045 A  
HETATM   12  C   UNL     1     -11.567   6.765  71.530  1.00  0.00    -0.300 C  
HETATM   13  H   UNL     1     -12.148   5.708  69.743  1.00  0.00     0.000 HD 
HETATM   14 CL   UNL     1      -5.828   8.777  69.151  1.00  0.00    -0.038 Cl 
HETATM   15  O   UNL     1     -12.942   7.006  71.787  1.00  0.00    -0.359 OA 
HETATM   16  C   UNL     1     -10.967   5.819  72.609  1.00  0.00    -0.268 C  
HETATM   17  C   UNL     1      -7.471   6.939  72.294  1.00  0.00    -0.087 A  
ENDROOT
BRANCH   6  18
HETATM   18  C   UNL     1     -10.012   5.286  68.470  1.00  0.00    -0.227 A  
HETATM   19  C   UNL     1      -9.486   3.734  66.173  1.00  0.00    -0.184 A  
HETATM   20  C   UNL     1      -9.445   3.998  68.568  1.00  0.00    -0.215 A  
HETATM   21  C   UNL     1      -9.175   3.234  67.431  1.00  0.00    -0.233 A  
HETATM   22  C   UNL     1     -10.053   5.002  66.055  1.00  0.00    -0.234 A  
HETATM   23  C   UNL     1     -10.299   5.790  67.190  1.00  0.00    -0.240 A  
HETATM   24 CL   UNL     1     -10.860   7.395  66.872  1.00  0.00    -0.363 Cl 
ENDBRANCH   6  18
TORSDOF 1
ENDMDL
MODEL      113
REMARK 921   NORMALIZED FREE ENERGY PREDICTED BY IDOCK:   -4.04 KCAL/MOL
REMARK 922        TOTAL FREE ENERGY PREDICTED BY IDOCK:   -4.92 KCAL/MOL
REMARK 923 INTER-LIGAND FREE ENERGY PREDICTED BY IDOCK:   -4.25 KCAL/MOL
REMARK 924 INTRA-LIGAND FREE ENERGY PREDICTED BY IDOCK:   -0.67 KCAL/MOL
REMARK 927      BINDING AFFINITY PREDICTED BY RF-SCORE:    0.00 PKD
ROOT
HETATM    1  C   UNL     1      -8.860  11.623  67.506  1.00  0.00    -0.158 C  
HETATM    2  N   UNL     1      -8.666  10.979  68.794  1.00  0.00    -0.159 N  
HETATM    3  C   UNL     1      -9.791  10.670  69.619  1.00  0.00    -0.013 A  
HETATM    4  C   UNL     1      -9.826   9.564  70.501  1.00  0.00    -0.331 A  
HETATM    5  C   UNL     1     -10.930   9.355  71.346  1.00  0.00    -0.443 A  
HETATM    6  C   UNL     1      -8.748   8.533  70.506  1.00  0.00    -0.152 C  
HETATM    7  C   UNL     1     -12.038  10.192  71.258  1.00  0.00    -0.394 A  
HETATM    8  N   UNL     1      -7.493   8.829  70.597  1.00  0.00    -0.069 NA 
HETATM    9  H   UNL     1      -5.487  11.304  71.025  1.00  0.00     0.000 HD 
HETATM   10  O   UNL     1      -6.382  11.044  68.447  1.00  0.00    -0.052 OA 
HETATM   11  C   UNL     1     -12.045  11.255  70.364  1.00  0.00    -0.474 A  
HETATM   12  C   UNL     1      -7.101  10.227  70.625  1.00  0.00     0.236 C  
HETATM   13  H   UNL     1      -6.789   8.093  70.649  1.00  0.00     0.000 HD 
HETATM   14 CL   UNL     1     -13.420   9.888  72.233  1.00  0.00    -0.478 Cl 
HETATM   15  O   UNL     1      -5.743  10.390  71.007  1.00  0.00    -0.131 OA 
HETATM   16  C   UNL     1      -7.333  10.775  69.188  1.00  0.00    -0.115 C  
HETATM   17  C   UNL     1     -10.927  11.497  69.560  1.00  0.00    -0.186 A  
ENDROOT
BRANCH   6  18
HETATM   18  C   UNL     1      -9.077   7.063  70.413  1.00  0.00    -0.156 A  
HETATM   19  C   UNL     1      -9.899   4.392  70.020  1.00  0.00    -0.294 A  
HETATM   20  C   UNL     1      -9.519   6.607  69.153  1.00  0.00    -0.136 A  
HETATM   21  C   UNL     1      -9.935   5.288  68.960  1.00  0.00    -0.260 A  
HETATM   22  C   UNL     1      -9.460   4.819  71.272  1.00  0.00    -0.216 A  
HETATM   23  C   UNL     1      -9.070   6.151  71.483  1.00  0.00    -0.143 A  
HETATM   24 CL   UNL     1      -8.699   6.566  73.120  1.00  0.00    -0.125 Cl 
ENDBRANCH   6  18
TORSDOF 1
ENDMDL
MODEL      114
REMARK 921   NORMALIZED FREE ENERGY PREDICTED BY IDOCK:   -4.01 KCAL/MOL
REMARK 922        TOTAL FREE ENERGY PREDICTED BY IDOCK:   -4.90 KCAL/MOL
REMARK 923 INTER-LIGAND FREE ENERGY PREDICTED BY IDOCK:   -4.24 KCAL/MOL
REMARK 924 INTRA-LIGAND FREE ENERGY PREDICTED BY IDOCK:   -0.66 KCAL/MOL
REMARK 927      BINDING AFFINITY PREDICTED BY RF-SCORE:    0.00 PKD
ROOT
HETATM    1  C   UNL     1      -9.130   4.195  70.846  1.00  0.00    -0.117 C  
HETATM    2  N   UNL     1      -9.904   5.104  70.017  1.00  0.00    -0.203 N  
HETATM    3  C   UNL     1     -10.724   6.105  70.624  1.00  0.00    -0.275 A  
HETATM    4  C   UNL     1     -10.988   7.359  70.024  1.00  0.00    -0.264 A  
HETATM    5  C   UNL     1     -11.867   8.274  70.630  1.00  0.00    -0.092 A  
HETATM    6  C   UNL     1     -10.283   7.798  68.784  1.00  0.00    -0.201 C  
HETATM    7  C   UNL     1     -12.418   7.983  71.874  1.00  0.00    -0.330 A  
HETATM    8  N   UNL     1     -10.218   7.069  67.718  1.00  0.00    -0.167 NA 
HETATM    9  H   UNL     1     -11.269   4.306  66.455  1.00  0.00     0.000 HD 
HETATM   10  O   UNL     1      -9.127   4.004  68.139  1.00  0.00    -0.117 OA 
HETATM   11  C   UNL     1     -12.133   6.779  72.504  1.00  0.00    -0.016 A  
HETATM   12  C   UNL     1     -10.792   5.736  67.742  1.00  0.00    -0.167 C  
HETATM   13  H   UNL     1      -9.771   7.425  66.873  1.00  0.00     0.000 HD 
HETATM   14 CL   UNL     1     -13.427   9.136  72.654  1.00  0.00    -0.475 Cl 
HETATM   15  O   UNL     1     -10.894   5.178  66.440  1.00  0.00    -0.283 OA 
HETATM   16  C   UNL     1      -9.854   4.873  68.633  1.00  0.00    -0.152 C  
HETATM   17  C   UNL     1     -11.301   5.845  71.879  1.00  0.00    -0.307 A  
ENDROOT
BRANCH   6  18
HETATM   18  C   UNL     1      -9.606   9.145  68.709  1.00  0.00    -0.161 A  
HETATM   19  C   UNL     1      -8.399  11.657  68.266  1.00  0.00    -0.159 A  
HETATM   20  C   UNL     1     -10.054  10.005  67.685  1.00  0.00    -0.232 A  
HETATM   21  C   UNL     1      -9.450  11.244  67.458  1.00  0.00    -0.177 A  
HETATM   22  C   UNL     1      -7.945  10.825  69.288  1.00  0.00    -0.110 A  
HETATM   23  C   UNL     1      -8.525   9.564  69.503  1.00  0.00    -0.155 A  
HETATM   24 CL   UNL     1      -7.754   8.587  70.704  1.00  0.00    -0.074 Cl 
ENDBRANCH   6  18
TORSDOF 1
ENDMDL
MODEL      115
REMARK 921   NORMALIZED FREE ENERGY PREDICTED BY IDOCK:   -3.99 KCAL/MOL
REMARK 922        TOTAL FREE ENERGY PREDICTED BY IDOCK:   -4.87 KCAL/MOL
REMARK 923 INTER-LIGAND FREE ENERGY PREDICTED BY IDOCK:   -4.37 KCAL/MOL
REMARK 924 INTRA-LIGAND FREE ENERGY PREDICTED BY IDOCK:   -0.51 KCAL/MOL
REMARK 927      BINDING AFFINITY PREDICTED BY RF-SCORE:    0.00 PKD
ROOT
HETATM    1  C   UNL     1     -10.164  10.889  63.872  1.00  0.00    -0.354 C  
HETATM    2  N   UNL     1     -10.366  11.638  65.101  1.00  0.00    -0.266 N  
HETATM    3  C   UNL     1     -10.279  10.978  66.366  1.00  0.00    -0.236 A  
HETATM    4  C   UNL     1      -9.835  11.620  67.546  1.00  0.00    -0.199 A  
HETATM    5  C   UNL     1      -9.846  10.943  68.778  1.00  0.00    -0.203 A  
HETATM    6  C   UNL     1      -9.256  12.995  67.519  1.00  0.00    -0.195 C  
HETATM    7  C   UNL     1     -10.216   9.603  68.829  1.00  0.00    -0.196 A  
HETATM    8  N   UNL     1      -9.847  13.995  66.951  1.00  0.00    -0.259 NA 
HETATM    9  H   UNL     1     -12.570  14.831  65.463  1.00  0.00     0.000 HD 
HETATM   10  O   UNL     1     -10.784  13.530  63.842  1.00  0.00    -0.180 OA 
HETATM   11  C   UNL     1     -10.609   8.939  67.673  1.00  0.00    -0.292 A  
HETATM   12  C   UNL     1     -11.094  13.766  66.245  1.00  0.00    -0.302 C  
HETATM   13  H   UNL     1      -9.443  14.931  66.999  1.00  0.00     0.000 HD 
HETATM   14 CL   UNL     1     -10.151   8.752  70.321  1.00  0.00    -0.202 Cl 
HETATM   15  O   UNL     1     -11.754  14.981  65.925  1.00  0.00    -0.248 OA 
HETATM   16  C   UNL     1     -10.727  12.987  64.950  1.00  0.00    -0.332 C  
HETATM   17  C   UNL     1     -10.649   9.625  66.455  1.00  0.00    -0.142 A  
ENDROOT
BRANCH   6  18
HETATM   18  C   UNL     1      -7.930  13.293  68.176  1.00  0.00    -0.150 A  
HETATM   19  C   UNL     1      -5.518  14.151  69.364  1.00  0.00    -0.083 A  
HETATM   20  C   UNL     1      -7.852  14.510  68.886  1.00  0.00    -0.134 A  
HETATM   21  C   UNL     1      -6.656  14.939  69.465  1.00  0.00    -0.154 A  
HETATM   22  C   UNL     1      -5.575  12.941  68.672  1.00  0.00    -0.068 A  
HETATM   23  C   UNL     1      -6.764  12.517  68.059  1.00  0.00    -0.090 A  
HETATM   24 CL   UNL     1      -6.637  11.077  67.110  1.00  0.00    -0.081 Cl 
ENDBRANCH   6  18
TORSDOF 1
ENDMDL
MODEL      116
REMARK 921   NORMALIZED FREE ENERGY PREDICTED BY IDOCK:   -3.96 KCAL/MOL
REMARK 922        TOTAL FREE ENERGY PREDICTED BY IDOCK:   -4.84 KCAL/MOL
REMARK 923 INTER-LIGAND FREE ENERGY PREDICTED BY IDOCK:   -4.18 KCAL/MOL
REMARK 924 INTRA-LIGAND FREE ENERGY PREDICTED BY IDOCK:   -0.67 KCAL/MOL
REMARK 927      BINDING AFFINITY PREDICTED BY RF-SCORE:    0.00 PKD
ROOT
HETATM    1  C   UNL     1      -7.957  12.464  67.201  1.00  0.00    -0.153 C  
HETATM    2  N   UNL     1      -8.941  11.423  67.448  1.00  0.00    -0.152 N  
HETATM    3  C   UNL     1      -8.765  10.121  66.887  1.00  0.00    -0.129 A  
HETATM    4  C   UNL     1      -9.231   8.939  67.510  1.00  0.00    -0.153 A  
HETATM    5  C   UNL     1      -9.099   7.693  66.872  1.00  0.00    -0.171 A  
HETATM    6  C   UNL     1      -9.791   8.951  68.893  1.00  0.00    -0.177 C  
HETATM    7  C   UNL     1      -8.430   7.604  65.656  1.00  0.00    -0.142 A  
HETATM    8  N   UNL     1     -10.727   9.762  69.264  1.00  0.00    -0.218 NA 
HETATM    9  H   UNL     1     -12.727  12.020  68.155  1.00  0.00     0.000 HD 
HETATM   10  O   UNL     1     -10.195  12.942  68.658  1.00  0.00    -0.229 OA 
HETATM   11  C   UNL     1      -7.922   8.746  65.050  1.00  0.00    -0.132 A  
HETATM   12  C   UNL     1     -11.212  10.755  68.323  1.00  0.00    -0.297 C  
HETATM   13  H   UNL     1     -11.119   9.705  70.204  1.00  0.00     0.000 HD 
HETATM   14 CL   UNL     1      -8.197   6.070  64.916  1.00  0.00    -0.136 Cl 
HETATM   15  O   UNL     1     -12.410  11.370  68.771  1.00  0.00    -0.480 OA 
HETATM   16  C   UNL     1     -10.078  11.809  68.177  1.00  0.00    -0.192 C  
HETATM   17  C   UNL     1      -8.098   9.994  65.656  1.00  0.00    -0.138 A  
ENDROOT
BRANCH   6  18
HETATM   18  C   UNL     1      -9.288   7.991  69.944  1.00  0.00    -0.156 A  
HETATM   19  C   UNL     1      -8.061   6.275  71.818  1.00  0.00    -0.103 A  
HETATM   20  C   UNL     1      -8.035   8.301  70.513  1.00  0.00    -0.099 A  
HETATM   21  C   UNL     1      -7.422   7.447  71.434  1.00  0.00    -0.080 A  
HETATM   22  C   UNL     1      -9.303   5.954  71.272  1.00  0.00    -0.172 A  
HETATM   23  C   UNL     1      -9.911   6.790  70.323  1.00  0.00    -0.174 A  
HETATM   24 CL   UNL     1     -11.371   6.182  69.625  1.00  0.00    -0.496 Cl 
ENDBRANCH   6  18
TORSDOF 1
ENDMDL
MODEL      117
REMARK 921   NORMALIZED FREE ENERGY PREDICTED BY IDOCK:   -3.94 KCAL/MOL
REMARK 922        TOTAL FREE ENERGY PREDICTED BY IDOCK:   -4.82 KCAL/MOL
REMARK 923 INTER-LIGAND FREE ENERGY PREDICTED BY IDOCK:   -4.30 KCAL/MOL
REMARK 924 INTRA-LIGAND FREE ENERGY PREDICTED BY IDOCK:   -0.52 KCAL/MOL
REMARK 927      BINDING AFFINITY PREDICTED BY RF-SCORE:    0.00 PKD
ROOT
HETATM    1  C   UNL     1     -11.031  13.516  65.308  1.00  0.00    -0.295 C  
HETATM    2  N   UNL     1     -10.168  12.386  65.608  1.00  0.00    -0.258 N  
HETATM    3  C   UNL     1      -9.312  12.422  66.752  1.00  0.00    -0.220 A  
HETATM    4  C   UNL     1      -8.944  11.267  67.481  1.00  0.00    -0.140 A  
HETATM    5  C   UNL     1      -8.034  11.352  68.550  1.00  0.00    -0.143 A  
HETATM    6  C   UNL     1      -9.568   9.938  67.211  1.00  0.00    -0.160 C  
HETATM    7  C   UNL     1      -7.554  12.594  68.953  1.00  0.00     0.055 A  
HETATM    8  N   UNL     1      -9.634   9.422  66.027  1.00  0.00    -0.241 NA 
HETATM    9  H   UNL     1      -8.710   9.899  62.986  1.00  0.00     0.000 HD 
HETATM   10  O   UNL     1     -10.934  11.333  63.699  1.00  0.00    -0.385 OA 
HETATM   11  C   UNL     1      -7.941  13.747  68.282  1.00  0.00    -0.146 A  
HETATM   12  C   UNL     1      -9.148  10.191  64.896  1.00  0.00    -0.215 C  
HETATM   13  H   UNL     1     -10.023   8.489  65.890  1.00  0.00     0.000 HD 
HETATM   14 CL   UNL     1      -6.508  12.708  70.312  1.00  0.00     0.137 Cl 
HETATM   15  O   UNL     1      -9.028   9.396  63.726  1.00  0.00    -0.213 OA 
HETATM   16  C   UNL     1     -10.174  11.338  64.674  1.00  0.00    -0.301 C  
HETATM   17  C   UNL     1      -8.804  13.659  67.185  1.00  0.00    -0.237 A  
ENDROOT
BRANCH   6  18
HETATM   18  C   UNL     1     -10.154   9.112  68.330  1.00  0.00    -0.221 A  
HETATM   19  C   UNL     1     -11.262   7.333  70.220  1.00  0.00    -0.287 A  
HETATM   20  C   UNL     1      -9.889   7.727  68.279  1.00  0.00    -0.185 A  
HETATM   21  C   UNL     1     -10.445   6.845  69.208  1.00  0.00    -0.233 A  
HETATM   22  C   UNL     1     -11.531   8.699  70.292  1.00  0.00    -0.084 A  
HETATM   23  C   UNL     1     -11.002   9.589  69.343  1.00  0.00    -0.170 A  
HETATM   24 CL   UNL     1     -11.550  11.224  69.474  1.00  0.00    -0.359 Cl 
ENDBRANCH   6  18
TORSDOF 1
ENDMDL
MODEL      118
REMARK 921   NORMALIZED FREE ENERGY PREDICTED BY IDOCK:   -3.87 KCAL/MOL
REMARK 922        TOTAL FREE ENERGY PREDICTED BY IDOCK:   -4.74 KCAL/MOL
REMARK 923 INTER-LIGAND FREE ENERGY PREDICTED BY IDOCK:   -4.09 KCAL/MOL
REMARK 924 INTRA-LIGAND FREE ENERGY PREDICTED BY IDOCK:   -0.66 KCAL/MOL
REMARK 927      BINDING AFFINITY PREDICTED BY RF-SCORE:    0.00 PKD
ROOT
HETATM    1  C   UNL     1     -10.536   9.042  71.812  1.00  0.00    -0.348 C  
HETATM    2  N   UNL     1      -9.535   8.004  71.626  1.00  0.00    -0.155 N  
HETATM    3  C   UNL     1      -9.844   6.645  71.939  1.00  0.00    -0.166 A  
HETATM    4  C   UNL     1      -9.272   5.544  71.260  1.00  0.00    -0.169 A  
HETATM    5  C   UNL     1      -9.553   4.226  71.665  1.00  0.00    -0.228 A  
HETATM    6  C   UNL     1      -8.429   5.726  70.043  1.00  0.00    -0.124 C  
HETATM    7  C   UNL     1     -10.468   3.997  72.687  1.00  0.00    -0.146 A  
HETATM    8  N   UNL     1      -7.424   6.539  70.000  1.00  0.00    -0.092 NA 
HETATM    9  H   UNL     1      -5.678   8.526  71.826  1.00  0.00     0.000 HD 
HETATM   10  O   UNL     1      -8.031   9.621  70.944  1.00  0.00    -0.307 OA 
HETATM   11  C   UNL     1     -11.080   5.063  73.335  1.00  0.00    -0.404 A  
HETATM   12  C   UNL     1      -7.139   7.366  71.158  1.00  0.00    -0.059 C  
HETATM   13  H   UNL     1      -6.841   6.598  69.165  1.00  0.00     0.000 HD 
HETATM   14 CL   UNL     1     -10.874   2.385  73.127  1.00  0.00    -0.263 Cl 
HETATM   15  O   UNL     1      -5.864   7.985  71.068  1.00  0.00    -0.033 OA 
HETATM   16  C   UNL     1      -8.264   8.439  71.217  1.00  0.00    -0.134 C  
HETATM   17  C   UNL     1     -10.761   6.375  72.970  1.00  0.00    -0.286 A  
ENDROOT
BRANCH   6  18
HETATM   18  C   UNL     1      -8.708   4.948  68.780  1.00  0.00    -0.105 A  
HETATM   19  C   UNL     1      -8.922   3.475  66.382  1.00  0.00    -0.149 A  
HETATM   20  C   UNL     1      -7.727   4.005  68.406  1.00  0.00    -0.066 A  
HETATM   21  C   UNL     1      -7.827   3.284  67.215  1.00  0.00    -0.078 A  
HETATM   22  C   UNL     1      -9.906   4.398  66.736  1.00  0.00    -0.241 A  
HETATM   23  C   UNL     1      -9.797   5.150  67.916  1.00  0.00    -0.155 A  
HETATM   24 CL   UNL     1     -11.013   6.360  68.139  1.00  0.00    -0.382 Cl 
ENDBRANCH   6  18
TORSDOF 1
ENDMDL
MODEL      119
REMARK 921   NORMALIZED FREE ENERGY PREDICTED BY IDOCK:   -3.85 KCAL/MOL
REMARK 922        TOTAL FREE ENERGY PREDICTED BY IDOCK:   -4.73 KCAL/MOL
REMARK 923 INTER-LIGAND FREE ENERGY PREDICTED BY IDOCK:   -4.81 KCAL/MOL
REMARK 924 INTRA-LIGAND FREE ENERGY PREDICTED BY IDOCK:    0.08 KCAL/MOL
REMARK 927      BINDING AFFINITY PREDICTED BY RF-SCORE:    0.00 PKD
ROOT
HETATM    1  C   UNL     1     -10.290   7.339  69.487  1.00  0.00    -0.225 C  
HETATM    2  N   UNL     1      -9.468   8.230  68.684  1.00  0.00    -0.147 N  
HETATM    3  C   UNL     1      -9.117   7.870  67.346  1.00  0.00    -0.133 A  
HETATM    4  C   UNL     1      -8.909   8.819  66.318  1.00  0.00    -0.187 A  
HETATM    5  C   UNL     1      -8.487   8.411  65.040  1.00  0.00    -0.160 A  
HETATM    6  C   UNL     1      -9.214  10.267  66.514  1.00  0.00    -0.153 C  
HETATM    7  C   UNL     1      -8.353   7.056  64.755  1.00  0.00     0.024 A  
HETATM    8  N   UNL     1      -8.765  10.949  67.517  1.00  0.00    -0.129 NA 
HETATM    9  H   UNL     1      -6.832  10.740  70.077  1.00  0.00     0.000 HD 
HETATM   10  O   UNL     1      -9.323   9.669  70.486  1.00  0.00    -0.253 OA 
HETATM   11  C   UNL     1      -8.600   6.105  65.736  1.00  0.00    -0.153 A  
HETATM   12  C   UNL     1      -7.990  10.269  68.539  1.00  0.00    -0.107 C  
HETATM   13  H   UNL     1      -8.954  11.949  67.589  1.00  0.00     0.000 HD 
HETATM   14 CL   UNL     1      -7.917   6.554  63.170  1.00  0.00    -0.109 Cl 
HETATM   15  O   UNL     1      -7.340  11.185  69.409  1.00  0.00    -0.118 OA 
HETATM   16  C   UNL     1      -8.992   9.382  69.331  1.00  0.00    -0.157 C  
HETATM   17  C   UNL     1      -8.968   6.510  67.023  1.00  0.00    -0.121 A  
ENDROOT
BRANCH   6  18
HETATM   18  C   UNL     1     -10.069  11.022  65.527  1.00  0.00    -0.316 A  
HETATM   19  C   UNL     1     -11.406  12.501  63.529  1.00  0.00    -0.556 A  
HETATM   20  C   UNL     1      -9.582  11.078  64.204  1.00  0.00    -0.306 A  
HETATM   21  C   UNL     1     -10.238  11.818  63.217  1.00  0.00    -0.452 A  
HETATM   22  C   UNL     1     -11.908  12.453  64.829  1.00  0.00    -0.442 A  
HETATM   23  C   UNL     1     -11.238  11.739  65.834  1.00  0.00    -0.290 A  
HETATM   24 CL   UNL     1     -11.898  11.901  67.425  1.00  0.00    -0.318 Cl 
ENDBRANCH   6  18
TORSDOF 1
ENDMDL
MODEL      120
REMARK 921   NORMALIZED FREE ENERGY PREDICTED BY IDOCK:   -3.84 KCAL/MOL
REMARK 922        TOTAL FREE ENERGY PREDICTED BY IDOCK:   -4.71 KCAL/MOL
REMARK 923 INTER-LIGAND FREE ENERGY PREDICTED BY IDOCK:   -4.10 KCAL/MOL
REMARK 924 INTRA-LIGAND FREE ENERGY PREDICTED BY IDOCK:   -0.62 KCAL/MOL
REMARK 927      BINDING AFFINITY PREDICTED BY RF-SCORE:    0.00 PKD
ROOT
HETATM    1  C   UNL     1     -12.005   6.315  71.627  1.00  0.00    -0.212 C  
HETATM    2  N   UNL     1     -10.639   6.813  71.634  1.00  0.00    -0.213 N  
HETATM    3  C   UNL     1      -9.753   6.492  70.560  1.00  0.00    -0.172 A  
HETATM    4  C   UNL     1      -8.715   7.350  70.128  1.00  0.00    -0.143 A  
HETATM    5  C   UNL     1      -7.823   6.947  69.119  1.00  0.00    -0.111 A  
HETATM    6  C   UNL     1      -8.579   8.741  70.654  1.00  0.00    -0.178 C  
HETATM    7  C   UNL     1      -8.010   5.727  68.476  1.00  0.00    -0.101 A  
HETATM    8  N   UNL     1      -8.561   9.015  71.917  1.00  0.00    -0.344 NA 
HETATM    9  H   UNL     1      -8.553   7.638  74.821  1.00  0.00     0.000 HD 
HETATM   10  O   UNL     1     -11.043   7.799  73.684  1.00  0.00    -0.197 OA 
HETATM   11  C   UNL     1      -9.053   4.890  68.850  1.00  0.00    -0.149 A  
HETATM   12  C   UNL     1      -8.752   7.939  72.873  1.00  0.00    -0.186 C  
HETATM   13  H   UNL     1      -8.416   9.973  72.237  1.00  0.00     0.000 HD 
HETATM   14 CL   UNL     1      -6.970   5.271  67.186  1.00  0.00    -0.063 Cl 
HETATM   15  O   UNL     1      -8.429   8.342  74.196  1.00  0.00    -0.250 OA 
HETATM   16  C   UNL     1     -10.249   7.529  72.777  1.00  0.00    -0.255 C  
HETATM   17  C   UNL     1      -9.910   5.265  69.890  1.00  0.00    -0.282 A  
ENDROOT
BRANCH   6  18
HETATM   18  C   UNL     1      -8.444   9.916  69.717  1.00  0.00    -0.206 A  
HETATM   19  C   UNL     1      -7.965  12.216  68.152  1.00  0.00    -0.151 A  
HETATM   20  C   UNL     1      -7.159  10.492  69.630  1.00  0.00    -0.141 A  
HETATM   21  C   UNL     1      -6.924  11.636  68.864  1.00  0.00    -0.109 A  
HETATM   22  C   UNL     1      -9.242  11.658  68.218  1.00  0.00    -0.187 A  
HETATM   23  C   UNL     1      -9.494  10.528  69.011  1.00  0.00    -0.201 A  
HETATM   24 CL   UNL     1     -11.152  10.048  69.113  1.00  0.00    -0.246 Cl 
ENDBRANCH   6  18
TORSDOF 1
ENDMDL
MODEL      121
REMARK 921   NORMALIZED FREE ENERGY PREDICTED BY IDOCK:   -3.84 KCAL/MOL
REMARK 922        TOTAL FREE ENERGY PREDICTED BY IDOCK:   -4.71 KCAL/MOL
REMARK 923 INTER-LIGAND FREE ENERGY PREDICTED BY IDOCK:   -4.81 KCAL/MOL
REMARK 924 INTRA-LIGAND FREE ENERGY PREDICTED BY IDOCK:    0.10 KCAL/MOL
REMARK 927      BINDING AFFINITY PREDICTED BY RF-SCORE:    0.00 PKD
ROOT
HETATM    1  C   UNL     1      -6.218  16.758  68.409  1.00  0.00    -0.134 C  
HETATM    2  N   UNL     1      -7.663  16.608  68.431  1.00  0.00    -0.190 N  
HETATM    3  C   UNL     1      -8.482  17.427  67.594  1.00  0.00    -0.212 A  
HETATM    4  C   UNL     1      -9.720  16.997  67.061  1.00  0.00    -0.264 A  
HETATM    5  C   UNL     1     -10.521  17.875  66.308  1.00  0.00    -0.320 A  
HETATM    6  C   UNL     1     -10.181  15.584  67.192  1.00  0.00    -0.260 C  
HETATM    7  C   UNL     1     -10.058  19.152  66.012  1.00  0.00    -0.373 A  
HETATM    8  N   UNL     1     -10.216  14.959  68.324  1.00  0.00    -0.221 NA 
HETATM    9  H   UNL     1      -9.760  15.378  71.477  1.00  0.00     0.000 HD 
HETATM   10  O   UNL     1      -7.439  14.994  70.069  1.00  0.00    -0.124 OA 
HETATM   11  C   UNL     1      -8.823  19.579  66.484  1.00  0.00    -0.395 A  
HETATM   12  C   UNL     1      -9.722  15.630  69.513  1.00  0.00    -0.287 C  
HETATM   13  H   UNL     1     -10.586  14.010  68.380  1.00  0.00     0.000 HD 
HETATM   14 CL   UNL     1     -11.000  20.197  65.024  1.00  0.00     0.159 Cl 
HETATM   15  O   UNL     1     -10.083  14.939  70.700  1.00  0.00     0.267 OA 
HETATM   16  C   UNL     1      -8.175  15.695  69.367  1.00  0.00    -0.236 C  
HETATM   17  C   UNL     1      -8.048  18.726  67.277  1.00  0.00    -0.256 A  
ENDROOT
BRANCH   6  18
HETATM   18  C   UNL     1     -10.646  14.802  65.987  1.00  0.00    -0.318 A  
HETATM   19  C   UNL     1     -11.799  13.453  63.793  1.00  0.00    -0.483 A  
HETATM   20  C   UNL     1     -11.746  15.342  65.289  1.00  0.00    -0.058 A  
HETATM   21  C   UNL     1     -12.324  14.670  64.209  1.00  0.00    -0.375 A  
HETATM   22  C   UNL     1     -10.708  12.905  64.466  1.00  0.00    -0.392 A  
HETATM   23  C   UNL     1     -10.141  13.558  65.572  1.00  0.00    -0.268 A  
HETATM   24 CL   UNL     1      -8.897  12.682  66.394  1.00  0.00    -0.067 Cl 
ENDBRANCH   6  18
TORSDOF 1
ENDMDL
MODEL      122
REMARK 921   NORMALIZED FREE ENERGY PREDICTED BY IDOCK:   -3.70 KCAL/MOL
REMARK 922        TOTAL FREE ENERGY PREDICTED BY IDOCK:   -4.57 KCAL/MOL
REMARK 923 INTER-LIGAND FREE ENERGY PREDICTED BY IDOCK:   -3.97 KCAL/MOL
REMARK 924 INTRA-LIGAND FREE ENERGY PREDICTED BY IDOCK:   -0.60 KCAL/MOL
REMARK 927      BINDING AFFINITY PREDICTED BY RF-SCORE:    0.00 PKD
ROOT
HETATM    1  C   UNL     1      -7.250  12.481  68.829  1.00  0.00    -0.089 C  
HETATM    2  N   UNL     1      -8.137  11.382  68.483  1.00  0.00    -0.144 N  
HETATM    3  C   UNL     1      -8.970  11.470  67.325  1.00  0.00    -0.162 A  
HETATM    4  C   UNL     1      -9.354  10.344  66.560  1.00  0.00    -0.193 A  
HETATM    5  C   UNL     1     -10.240  10.482  65.477  1.00  0.00    -0.325 A  
HETATM    6  C   UNL     1      -8.771   8.993  66.808  1.00  0.00    -0.123 C  
HETATM    7  C   UNL     1     -10.679  11.746  65.097  1.00  0.00    -0.291 A  
HETATM    8  N   UNL     1      -8.741   8.445  67.978  1.00  0.00    -0.138 NA 
HETATM    9  H   UNL     1      -9.711   8.870  71.013  1.00  0.00     0.000 HD 
HETATM   10  O   UNL     1      -7.436  10.262  70.379  1.00  0.00    -0.250 OA 
HETATM   11  C   UNL     1     -10.275  12.871  65.805  1.00  0.00    -0.298 A  
HETATM   12  C   UNL     1      -9.228   9.198  69.120  1.00  0.00    -0.144 C  
HETATM   13  H   UNL     1      -8.380   7.499  68.098  1.00  0.00     0.000 HD 
HETATM   14 CL   UNL     1     -11.696  11.922  63.723  1.00  0.00    -0.539 Cl 
HETATM   15  O   UNL     1      -9.392   8.377  70.267  1.00  0.00    -0.160 OA 
HETATM   16  C   UNL     1      -8.176  10.311  69.391  1.00  0.00    -0.165 C  
HETATM   17  C   UNL     1      -9.436  12.732  66.915  1.00  0.00    -0.235 A  
ENDROOT
BRANCH   6  18
HETATM   18  C   UNL     1      -8.186   8.180  65.679  1.00  0.00    -0.133 A  
HETATM   19  C   UNL     1      -7.120   6.413  63.753  1.00  0.00    -0.050 A  
HETATM   20  C   UNL     1      -8.597   6.833  65.610  1.00  0.00    -0.126 A  
HETATM   21  C   UNL     1      -8.063   5.955  64.664  1.00  0.00    -0.132 A  
HETATM   22  C   UNL     1      -6.703   7.743  63.800  1.00  0.00    -0.062 A  
HETATM   23  C   UNL     1      -7.212   8.624  64.768  1.00  0.00    -0.088 A  
HETATM   24 CL   UNL     1      -6.487  10.194  64.796  1.00  0.00    -0.127 Cl 
ENDBRANCH   6  18
TORSDOF 1
ENDMDL
MODEL      123
REMARK 921   NORMALIZED FREE ENERGY PREDICTED BY IDOCK:   -3.65 KCAL/MOL
REMARK 922        TOTAL FREE ENERGY PREDICTED BY IDOCK:   -4.51 KCAL/MOL
REMARK 923 INTER-LIGAND FREE ENERGY PREDICTED BY IDOCK:   -3.86 KCAL/MOL
REMARK 924 INTRA-LIGAND FREE ENERGY PREDICTED BY IDOCK:   -0.65 KCAL/MOL
REMARK 927      BINDING AFFINITY PREDICTED BY RF-SCORE:    0.00 PKD
ROOT
HETATM    1  C   UNL     1     -10.815  12.757  68.684  1.00  0.00    -0.253 C  
HETATM    2  N   UNL     1     -10.889  11.336  68.981  1.00  0.00    -0.212 N  
HETATM    3  C   UNL     1     -10.317  10.385  68.081  1.00  0.00    -0.172 A  
HETATM    4  C   UNL     1      -9.775   9.148  68.502  1.00  0.00    -0.166 A  
HETATM    5  C   UNL     1      -9.298   8.217  67.563  1.00  0.00    -0.165 A  
HETATM    6  C   UNL     1      -9.603   8.820  69.948  1.00  0.00    -0.177 C  
HETATM    7  C   UNL     1      -9.278   8.545  66.211  1.00  0.00    -0.207 A  
HETATM    8  N   UNL     1     -10.559   8.930  70.811  1.00  0.00    -0.211 NA 
HETATM    9  H   UNL     1     -13.690   9.609  71.069  1.00  0.00     0.000 HD 
HETATM   10  O   UNL     1     -12.092  11.830  70.891  1.00  0.00    -0.330 OA 
HETATM   11  C   UNL     1      -9.760   9.774  65.780  1.00  0.00    -0.340 A  
HETATM   12  C   UNL     1     -11.839   9.463  70.379  1.00  0.00    -0.090 C  
HETATM   13  H   UNL     1     -10.416   8.648  71.781  1.00  0.00     0.000 HD 
HETATM   14 CL   UNL     1      -8.618   7.440  65.071  1.00  0.00     0.011 Cl 
HETATM   15  O   UNL     1     -12.853   9.261  71.352  1.00  0.00    -0.321 OA 
HETATM   16  C   UNL     1     -11.618  10.981  70.128  1.00  0.00    -0.334 C  
HETATM   17  C   UNL     1     -10.285  10.681  66.707  1.00  0.00    -0.284 A  
ENDROOT
BRANCH   6  18
HETATM   18  C   UNL     1      -8.281   8.324  70.481  1.00  0.00    -0.114 A  
HETATM   19  C   UNL     1      -5.674   7.591  71.275  1.00  0.00    -0.035 A  
HETATM   20  C   UNL     1      -7.211   9.243  70.431  1.00  0.00    -0.097 A  
HETATM   21  C   UNL     1      -5.919   8.878  70.815  1.00  0.00    -0.038 A  
HETATM   22  C   UNL     1      -6.718   6.669  71.338  1.00  0.00    -0.058 A  
HETATM   23  C   UNL     1      -8.013   7.018  70.925  1.00  0.00    -0.097 A  
HETATM   24 CL   UNL     1      -9.163   5.726  70.916  1.00  0.00    -0.167 Cl 
ENDBRANCH   6  18
TORSDOF 1
ENDMDL
MODEL      124
REMARK 921   NORMALIZED FREE ENERGY PREDICTED BY IDOCK:   -3.59 KCAL/MOL
REMARK 922        TOTAL FREE ENERGY PREDICTED BY IDOCK:   -4.46 KCAL/MOL
REMARK 923 INTER-LIGAND FREE ENERGY PREDICTED BY IDOCK:   -4.49 KCAL/MOL
REMARK 924 INTRA-LIGAND FREE ENERGY PREDICTED BY IDOCK:    0.03 KCAL/MOL
REMARK 927      BINDING AFFINITY PREDICTED BY RF-SCORE:    0.00 PKD
ROOT
HETATM    1  C   UNL     1     -12.548  11.141  69.862  1.00  0.00    -0.105 C  
HETATM    2  N   UNL     1     -11.291  11.517  69.235  1.00  0.00    -0.264 N  
HETATM    3  C   UNL     1     -10.238  10.559  69.109  1.00  0.00    -0.224 A  
HETATM    4  C   UNL     1      -9.306  10.568  68.046  1.00  0.00    -0.150 A  
HETATM    5  C   UNL     1      -8.242   9.648  68.016  1.00  0.00    -0.110 A  
HETATM    6  C   UNL     1      -9.461  11.481  66.875  1.00  0.00    -0.182 C  
HETATM    7  C   UNL     1      -8.150   8.664  68.996  1.00  0.00    -0.121 A  
HETATM    8  N   UNL     1      -9.645  12.755  66.998  1.00  0.00    -0.222 NA 
HETATM    9  H   UNL     1      -9.779  15.108  69.184  1.00  0.00     0.000 HD 
HETATM   10  O   UNL     1     -12.101  13.665  68.974  1.00  0.00    -0.344 OA 
HETATM   11  C   UNL     1      -9.084   8.607  70.022  1.00  0.00    -0.157 A  
HETATM   12  C   UNL     1      -9.778  13.321  68.328  1.00  0.00    -0.225 C  
HETATM   13  H   UNL     1      -9.695  13.353  66.174  1.00  0.00     0.000 HD 
HETATM   14 CL   UNL     1      -6.898   7.490  68.914  1.00  0.00    -0.066 Cl 
HETATM   15  O   UNL     1      -9.692  14.738  68.314  1.00  0.00    -0.207 OA 
HETATM   16  C   UNL     1     -11.167  12.864  68.860  1.00  0.00    -0.279 C  
HETATM   17  C   UNL     1     -10.112   9.553  70.083  1.00  0.00    -0.293 A  
ENDROOT
BRANCH   6  18
HETATM   18  C   UNL     1      -9.400  10.952  65.463  1.00  0.00    -0.237 A  
HETATM   19  C   UNL     1      -8.981  10.025  62.831  1.00  0.00    -0.270 A  
HETATM   20  C   UNL     1      -8.178  10.361  65.077  1.00  0.00    -0.152 A  
HETATM   21  C   UNL     1      -7.967   9.911  63.772  1.00  0.00    -0.148 A  
HETATM   22  C   UNL     1     -10.199  10.599  63.193  1.00  0.00    -0.072 A  
HETATM   23  C   UNL     1     -10.409  11.083  64.494  1.00  0.00    -0.354 A  
HETATM   24 CL   UNL     1     -11.909  11.906  64.746  1.00  0.00    -0.308 Cl 
ENDBRANCH   6  18
TORSDOF 1
ENDMDL
MODEL      125
REMARK 921   NORMALIZED FREE ENERGY PREDICTED BY IDOCK:   -3.58 KCAL/MOL
REMARK 922        TOTAL FREE ENERGY PREDICTED BY IDOCK:   -4.44 KCAL/MOL
REMARK 923 INTER-LIGAND FREE ENERGY PREDICTED BY IDOCK:   -4.56 KCAL/MOL
REMARK 924 INTRA-LIGAND FREE ENERGY PREDICTED BY IDOCK:    0.11 KCAL/MOL
REMARK 927      BINDING AFFINITY PREDICTED BY RF-SCORE:    0.00 PKD
ROOT
HETATM    1  C   UNL     1      -7.531  12.649  68.062  1.00  0.00    -0.120 C  
HETATM    2  N   UNL     1      -8.577  11.864  67.427  1.00  0.00    -0.157 N  
HETATM    3  C   UNL     1      -8.237  10.857  66.471  1.00  0.00    -0.157 A  
HETATM    4  C   UNL     1      -9.000   9.681  66.280  1.00  0.00    -0.184 A  
HETATM    5  C   UNL     1      -8.663   8.763  65.269  1.00  0.00    -0.216 A  
HETATM    6  C   UNL     1     -10.126   9.321  67.191  1.00  0.00    -0.236 C  
HETATM    7  C   UNL     1      -7.520   8.967  64.503  1.00  0.00    -0.105 A  
HETATM    8  N   UNL     1     -11.082  10.141  67.484  1.00  0.00    -0.367 NA 
HETATM    9  H   UNL     1     -12.230  13.062  66.792  1.00  0.00     0.000 HD 
HETATM   10  O   UNL     1     -10.157  13.090  68.585  1.00  0.00    -0.218 OA 
HETATM   11  C   UNL     1      -6.729  10.090  64.706  1.00  0.00    -0.127 A  
HETATM   12  C   UNL     1     -11.030  11.496  66.964  1.00  0.00    -0.294 C  
HETATM   13  H   UNL     1     -11.861   9.841  68.070  1.00  0.00     0.000 HD 
HETATM   14 CL   UNL     1      -7.062   7.803  63.323  1.00  0.00    -0.072 Cl 
HETATM   15  O   UNL     1     -12.265  12.177  67.132  1.00  0.00    -0.507 OA 
HETATM   16  C   UNL     1      -9.897  12.220  67.746  1.00  0.00    -0.201 C  
HETATM   17  C   UNL     1      -7.092  11.032  65.675  1.00  0.00     0.159 A  
ENDROOT
BRANCH   6  18
HETATM   18  C   UNL     1     -10.210   7.952  67.821  1.00  0.00    -0.276 A  
HETATM   19  C   UNL     1     -10.521   5.303  68.743  1.00  0.00    -0.166 A  
HETATM   20  C   UNL     1     -10.260   6.863  66.925  1.00  0.00    -0.310 A  
HETATM   21  C   UNL     1     -10.424   5.553  67.380  1.00  0.00    -0.284 A  
HETATM   22  C   UNL     1     -10.466   6.364  69.646  1.00  0.00    -0.278 A  
HETATM   23  C   UNL     1     -10.334   7.687  69.195  1.00  0.00    -0.213 A  
HETATM   24 CL   UNL     1     -10.438   8.902  70.421  1.00  0.00    -0.229 Cl 
ENDBRANCH   6  18
TORSDOF 1
ENDMDL
MODEL      126
REMARK 921   NORMALIZED FREE ENERGY PREDICTED BY IDOCK:   -3.54 KCAL/MOL
REMARK 922        TOTAL FREE ENERGY PREDICTED BY IDOCK:   -4.40 KCAL/MOL
REMARK 923 INTER-LIGAND FREE ENERGY PREDICTED BY IDOCK:   -3.98 KCAL/MOL
REMARK 924 INTRA-LIGAND FREE ENERGY PREDICTED BY IDOCK:   -0.42 KCAL/MOL
REMARK 927      BINDING AFFINITY PREDICTED BY RF-SCORE:    0.00 PKD
ROOT
HETATM    1  C   UNL     1     -10.848  17.108  67.345  1.00  0.00    -0.164 C  
HETATM    2  N   UNL     1     -10.261  16.061  68.165  1.00  0.00    -0.238 N  
HETATM    3  C   UNL     1     -11.082  15.298  69.051  1.00  0.00    -0.260 A  
HETATM    4  C   UNL     1     -10.817  13.950  69.386  1.00  0.00    -0.109 A  
HETATM    5  C   UNL     1     -11.616  13.274  70.327  1.00  0.00    -0.096 A  
HETATM    6  C   UNL     1      -9.750  13.167  68.697  1.00  0.00    -0.057 C  
HETATM    7  C   UNL     1     -12.729  13.906  70.872  1.00  0.00    -0.340 A  
HETATM    8  N   UNL     1      -8.535  13.591  68.577  1.00  0.00    -0.291 NA 
HETATM    9  H   UNL     1      -6.579  15.990  69.442  1.00  0.00     0.000 HD 
HETATM   10  O   UNL     1      -8.184  16.593  67.302  1.00  0.00    -0.164 OA 
HETATM   11  C   UNL     1     -13.036  15.214  70.519  1.00  0.00    -0.366 A  
HETATM   12  C   UNL     1      -8.201  14.916  69.067  1.00  0.00    -0.168 C  
HETATM   13  H   UNL     1      -7.822  13.004  68.144  1.00  0.00     0.000 HD 
HETATM   14 CL   UNL     1     -13.752  13.053  71.958  1.00  0.00    -0.503 Cl 
HETATM   15  O   UNL     1      -6.797  15.124  69.121  1.00  0.00    -0.116 OA 
HETATM   16  C   UNL     1      -8.865  15.924  68.087  1.00  0.00    -0.176 C  
HETATM   17  C   UNL     1     -12.213  15.906  69.625  1.00  0.00    -0.133 A  
ENDROOT
BRANCH   6  18
HETATM   18  C   UNL     1     -10.042  11.809  68.105  1.00  0.00    -0.196 A  
HETATM   19  C   UNL     1     -10.778   9.417  66.801  1.00  0.00    -0.129 A  
HETATM   20  C   UNL     1     -10.385  11.794  66.736  1.00  0.00    -0.251 A  
HETATM   21  C   UNL     1     -10.759  10.612  66.093  1.00  0.00    -0.146 A  
HETATM   22  C   UNL     1     -10.436   9.409  68.152  1.00  0.00    -0.267 A  
HETATM   23  C   UNL     1     -10.090  10.598  68.815  1.00  0.00    -0.191 A  
HETATM   24 CL   UNL     1      -9.843  10.451  70.521  1.00  0.00     0.383 Cl 
ENDBRANCH   6  18
TORSDOF 1
ENDMDL
MODEL      127
REMARK 921   NORMALIZED FREE ENERGY PREDICTED BY IDOCK:   -3.54 KCAL/MOL
REMARK 922        TOTAL FREE ENERGY PREDICTED BY IDOCK:   -4.40 KCAL/MOL
REMARK 923 INTER-LIGAND FREE ENERGY PREDICTED BY IDOCK:   -3.97 KCAL/MOL
REMARK 924 INTRA-LIGAND FREE ENERGY PREDICTED BY IDOCK:   -0.43 KCAL/MOL
REMARK 927      BINDING AFFINITY PREDICTED BY RF-SCORE:    0.00 PKD
ROOT
HETATM    1  C   UNL     1     -11.669  10.976  68.536  1.00  0.00    -0.278 C  
HETATM    2  N   UNL     1     -10.358  10.353  68.608  1.00  0.00    -0.174 N  
HETATM    3  C   UNL     1     -10.046   9.461  69.680  1.00  0.00    -0.206 A  
HETATM    4  C   UNL     1      -9.150   8.374  69.547  1.00  0.00    -0.153 A  
HETATM    5  C   UNL     1      -8.820   7.577  70.658  1.00  0.00    -0.146 A  
HETATM    6  C   UNL     1      -8.595   7.973  68.221  1.00  0.00    -0.130 C  
HETATM    7  C   UNL     1      -9.442   7.802  71.882  1.00  0.00    -0.153 A  
HETATM    8  N   UNL     1      -8.023   8.810  67.418  1.00  0.00    -0.098 NA 
HETATM    9  H   UNL     1      -7.058  11.867  67.191  1.00  0.00     0.000 HD 
HETATM   10  O   UNL     1      -9.735  11.519  66.713  1.00  0.00    -0.194 OA 
HETATM   11  C   UNL     1     -10.362   8.833  72.022  1.00  0.00    -0.411 A  
HETATM   12  C   UNL     1      -7.978  10.214  67.781  1.00  0.00    -0.102 C  
HETATM   13  H   UNL     1      -7.611   8.488  66.542  1.00  0.00     0.000 HD 
HETATM   14 CL   UNL     1      -9.100   6.776  73.218  1.00  0.00    -0.143 Cl 
HETATM   15  O   UNL     1      -7.088  10.948  66.953  1.00  0.00    -0.104 OA 
HETATM   16  C   UNL     1      -9.430  10.752  67.632  1.00  0.00    -0.154 C  
HETATM   17  C   UNL     1     -10.652   9.661  70.932  1.00  0.00    -0.386 A  
ENDROOT
BRANCH   6  18
HETATM   18  C   UNL     1      -8.666   6.542  67.749  1.00  0.00    -0.115 A  
HETATM   19  C   UNL     1      -8.619   3.952  66.629  1.00  0.00    -0.111 A  
HETATM   20  C   UNL     1      -7.547   6.072  67.031  1.00  0.00    -0.096 A  
HETATM   21  C   UNL     1      -7.527   4.794  66.468  1.00  0.00    -0.086 A  
HETATM   22  C   UNL     1      -9.734   4.394  67.340  1.00  0.00    -0.217 A  
HETATM   23  C   UNL     1      -9.775   5.688  67.882  1.00  0.00    -0.125 A  
HETATM   24 CL   UNL     1     -11.281   6.144  68.601  1.00  0.00    -0.387 Cl 
ENDBRANCH   6  18
TORSDOF 1
ENDMDL
MODEL      128
REMARK 921   NORMALIZED FREE ENERGY PREDICTED BY IDOCK:   -3.53 KCAL/MOL
REMARK 922        TOTAL FREE ENERGY PREDICTED BY IDOCK:   -4.39 KCAL/MOL
REMARK 923 INTER-LIGAND FREE ENERGY PREDICTED BY IDOCK:   -3.97 KCAL/MOL
REMARK 924 INTRA-LIGAND FREE ENERGY PREDICTED BY IDOCK:   -0.42 KCAL/MOL
REMARK 927      BINDING AFFINITY PREDICTED BY RF-SCORE:    0.00 PKD
ROOT
HETATM    1  C   UNL     1     -12.142   8.720  71.166  1.00  0.00    -0.267 C  
HETATM    2  N   UNL     1     -11.309   9.719  70.516  1.00  0.00    -0.291 N  
HETATM    3  C   UNL     1      -9.895   9.532  70.439  1.00  0.00    -0.271 A  
HETATM    4  C   UNL     1      -9.105  10.025  69.373  1.00  0.00    -0.228 A  
HETATM    5  C   UNL     1      -7.706   9.881  69.391  1.00  0.00    -0.119 A  
HETATM    6  C   UNL     1      -9.721  10.629  68.156  1.00  0.00    -0.156 C  
HETATM    7  C   UNL     1      -7.096   9.174  70.421  1.00  0.00    -0.079 A  
HETATM    8  N   UNL     1     -10.604  11.571  68.210  1.00  0.00    -0.191 NA 
HETATM    9  H   UNL     1     -12.123  13.522  70.264  1.00  0.00     0.000 HD 
HETATM   10  O   UNL     1     -13.195  11.001  70.141  1.00  0.00     0.054 OA 
HETATM   11  C   UNL     1      -7.857   8.639  71.453  1.00  0.00    -0.162 A  
HETATM   12  C   UNL     1     -11.076  12.020  69.508  1.00  0.00    -0.073 C  
HETATM   13  H   UNL     1     -10.965  11.994  67.354  1.00  0.00     0.000 HD 
HETATM   14 CL   UNL     1      -5.395   8.926  70.400  1.00  0.00    -0.020 Cl 
HETATM   15  O   UNL     1     -11.815  13.228  69.415  1.00  0.00    -0.300 OA 
HETATM   16  C   UNL     1     -11.967  10.876  70.068  1.00  0.00    -0.350 C  
HETATM   17  C   UNL     1      -9.243   8.827  71.465  1.00  0.00    -0.332 A  
ENDROOT
BRANCH   6  18
HETATM   18  C   UNL     1      -9.328  10.165  66.774  1.00  0.00    -0.190 A  
HETATM   19  C   UNL     1      -8.764   9.535  64.082  1.00  0.00    -0.239 A  
HETATM   20  C   UNL     1      -9.260  11.167  65.783  1.00  0.00    -0.234 A  
HETATM   21  C   UNL     1      -8.990  10.855  64.449  1.00  0.00    -0.121 A  
HETATM   22  C   UNL     1      -8.820   8.530  65.047  1.00  0.00    -0.074 A  
HETATM   23  C   UNL     1      -9.122   8.831  66.384  1.00  0.00    -0.177 A  
HETATM   24 CL   UNL     1      -9.308   7.465  67.429  1.00  0.00    -0.145 Cl 
ENDBRANCH   6  18
TORSDOF 1
ENDMDL
MODEL      129
REMARK 921   NORMALIZED FREE ENERGY PREDICTED BY IDOCK:   -3.42 KCAL/MOL
REMARK 922        TOTAL FREE ENERGY PREDICTED BY IDOCK:   -4.27 KCAL/MOL
REMARK 923 INTER-LIGAND FREE ENERGY PREDICTED BY IDOCK:   -4.89 KCAL/MOL
REMARK 924 INTRA-LIGAND FREE ENERGY PREDICTED BY IDOCK:    0.62 KCAL/MOL
REMARK 927      BINDING AFFINITY PREDICTED BY RF-SCORE:    0.00 PKD
ROOT
HETATM    1  C   UNL     1      -6.368   9.748  67.357  1.00  0.00    -0.068 C  
HETATM    2  N   UNL     1      -7.821   9.775  67.331  1.00  0.00    -0.099 N  
HETATM    3  C   UNL     1      -8.555   8.581  67.053  1.00  0.00    -0.121 A  
HETATM    4  C   UNL     1      -9.837   8.317  67.589  1.00  0.00    -0.218 A  
HETATM    5  C   UNL     1     -10.547   7.161  67.216  1.00  0.00    -0.398 A  
HETATM    6  C   UNL     1     -10.446   9.194  68.631  1.00  0.00    -0.207 C  
HETATM    7  C   UNL     1      -9.951   6.223  66.378  1.00  0.00    -0.054 A  
HETATM    8  N   UNL     1     -10.538  10.477  68.503  1.00  0.00    -0.192 NA 
HETATM    9  H   UNL     1     -10.007  12.872  66.426  1.00  0.00     0.000 HD 
HETATM   10  O   UNL     1      -7.755  12.045  67.754  1.00  0.00    -0.120 OA 
HETATM   11  C   UNL     1      -8.673   6.439  65.879  1.00  0.00    -0.152 A  
HETATM   12  C   UNL     1      -9.962  11.109  67.330  1.00  0.00    -0.184 C  
HETATM   13  H   UNL     1     -11.007  11.037  69.215  1.00  0.00     0.000 HD 
HETATM   14 CL   UNL     1     -10.785   4.772  65.988  1.00  0.00    -0.321 Cl 
HETATM   15  O   UNL     1     -10.383  12.458  67.194  1.00  0.00    -0.218 OA 
HETATM   16  C   UNL     1      -8.419  11.033  67.505  1.00  0.00    -0.127 C  
HETATM   17  C   UNL     1      -7.987   7.613  66.206  1.00  0.00    -0.105 A  
ENDROOT
BRANCH   6  18
HETATM   18  C   UNL     1     -11.005   8.612  69.907  1.00  0.00    -0.169 A  
HETATM   19  C   UNL     1     -12.105   7.266  72.131  1.00  0.00    -0.287 A  
HETATM   20  C   UNL     1     -10.885   7.214  70.053  1.00  0.00    -0.276 A  
HETATM   21  C   UNL     1     -11.438   6.546  71.148  1.00  0.00    -0.380 A  
HETATM   22  C   UNL     1     -12.229   8.650  72.009  1.00  0.00    -0.439 A  
HETATM   23  C   UNL     1     -11.704   9.325  70.896  1.00  0.00    -0.296 A  
HETATM   24 CL   UNL     1     -12.072  11.013  70.811  1.00  0.00    -0.457 Cl 
ENDBRANCH   6  18
TORSDOF 1
ENDMDL
MODEL      130
REMARK 921   NORMALIZED FREE ENERGY PREDICTED BY IDOCK:   -3.40 KCAL/MOL
REMARK 922        TOTAL FREE ENERGY PREDICTED BY IDOCK:   -4.25 KCAL/MOL
REMARK 923 INTER-LIGAND FREE ENERGY PREDICTED BY IDOCK:   -4.03 KCAL/MOL
REMARK 924 INTRA-LIGAND FREE ENERGY PREDICTED BY IDOCK:   -0.23 KCAL/MOL
REMARK 927      BINDING AFFINITY PREDICTED BY RF-SCORE:    0.00 PKD
ROOT
HETATM    1  C   UNL     1      -5.913  10.769  70.455  1.00  0.00    -0.122 C  
HETATM    2  N   UNL     1      -6.815   9.716  70.020  1.00  0.00    -0.072 N  
HETATM    3  C   UNL     1      -7.131   8.633  70.897  1.00  0.00    -0.067 A  
HETATM    4  C   UNL     1      -8.372   7.956  70.877  1.00  0.00    -0.115 A  
HETATM    5  C   UNL     1      -8.598   6.845  71.710  1.00  0.00    -0.119 A  
HETATM    6  C   UNL     1      -9.515   8.440  70.049  1.00  0.00    -0.164 C  
HETATM    7  C   UNL     1      -7.624   6.458  72.625  1.00  0.00    -0.103 A  
HETATM    8  N   UNL     1      -9.406   8.706  68.789  1.00  0.00    -0.142 NA 
HETATM    9  H   UNL     1      -7.340   8.577  66.330  1.00  0.00     0.000 HD 
HETATM   10  O   UNL     1      -6.978  10.751  67.960  1.00  0.00    -0.071 OA 
HETATM   11  C   UNL     1      -6.416   7.139  72.696  1.00  0.00    -0.052 A  
HETATM   12  C   UNL     1      -8.103   8.601  68.158  1.00  0.00    -0.115 C  
HETATM   13  H   UNL     1     -10.223   8.987  68.246  1.00  0.00     0.000 HD 
HETATM   14 CL   UNL     1      -7.931   5.152  73.701  1.00  0.00    -0.109 Cl 
HETATM   15  O   UNL     1      -8.193   8.646  66.742  1.00  0.00    -0.105 OA 
HETATM   16  C   UNL     1      -7.262   9.795  68.691  1.00  0.00    -0.073 C  
HETATM   17  C   UNL     1      -6.169   8.211  71.832  1.00  0.00    -0.047 A  
ENDROOT
BRANCH   6  18
HETATM   18  C   UNL     1     -10.885   8.637  70.653  1.00  0.00    -0.265 A  
HETATM   19  C   UNL     1     -13.324   9.249  71.933  1.00  0.00    -0.498 A  
HETATM   20  C   UNL     1     -11.227   9.965  70.986  1.00  0.00    -0.435 A  
HETATM   21  C   UNL     1     -12.430  10.267  71.629  1.00  0.00    -0.491 A  
HETATM   22  C   UNL     1     -13.008   7.931  71.607  1.00  0.00    -0.359 A  
HETATM   23  C   UNL     1     -11.788   7.614  70.990  1.00  0.00    -0.285 A  
HETATM   24 CL   UNL     1     -11.474   5.925  70.789  1.00  0.00    -0.220 Cl 
ENDBRANCH   6  18
TORSDOF 1
ENDMDL
MODEL      131
REMARK 921   NORMALIZED FREE ENERGY PREDICTED BY IDOCK:   -3.37 KCAL/MOL
REMARK 922        TOTAL FREE ENERGY PREDICTED BY IDOCK:   -4.21 KCAL/MOL
REMARK 923 INTER-LIGAND FREE ENERGY PREDICTED BY IDOCK:   -4.69 KCAL/MOL
REMARK 924 INTRA-LIGAND FREE ENERGY PREDICTED BY IDOCK:    0.48 KCAL/MOL
REMARK 927      BINDING AFFINITY PREDICTED BY RF-SCORE:    0.00 PKD
ROOT
HETATM    1  C   UNL     1      -6.615  10.687  69.921  1.00  0.00    -0.137 C  
HETATM    2  N   UNL     1      -7.798  10.064  69.351  1.00  0.00    -0.125 N  
HETATM    3  C   UNL     1      -8.142   8.722  69.702  1.00  0.00    -0.101 A  
HETATM    4  C   UNL     1      -9.475   8.251  69.752  1.00  0.00    -0.163 A  
HETATM    5  C   UNL     1      -9.749   6.899  70.027  1.00  0.00    -0.170 A  
HETATM    6  C   UNL     1     -10.638   9.176  69.609  1.00  0.00    -0.228 C  
HETATM    7  C   UNL     1      -8.707   6.031  70.337  1.00  0.00    -0.144 A  
HETATM    8  N   UNL     1     -10.752  10.014  68.631  1.00  0.00    -0.217 NA 
HETATM    9  H   UNL     1      -9.355  10.926  65.884  1.00  0.00     0.000 HD 
HETATM   10  O   UNL     1      -8.178  11.983  68.123  1.00  0.00    -0.147 OA 
HETATM   11  C   UNL     1      -7.394   6.484  70.342  1.00  0.00    -0.085 A  
HETATM   12  C   UNL     1      -9.674  10.118  67.665  1.00  0.00    -0.161 C  
HETATM   13  H   UNL     1     -11.587  10.593  68.541  1.00  0.00     0.000 HD 
HETATM   14 CL   UNL     1      -9.049   4.399  70.753  1.00  0.00    -0.168 Cl 
HETATM   15  O   UNL     1     -10.060  10.858  66.516  1.00  0.00    -0.207 OA 
HETATM   16  C   UNL     1      -8.497  10.821  68.397  1.00  0.00    -0.137 C  
HETATM   17  C   UNL     1      -7.115   7.815  70.017  1.00  0.00    -0.054 A  
ENDROOT
BRANCH   6  18
HETATM   18  C   UNL     1     -11.764   9.170  70.614  1.00  0.00    -0.256 A  
HETATM   19  C   UNL     1     -13.952   8.883  72.373  1.00  0.00    -0.516 A  
HETATM   20  C   UNL     1     -12.193   7.899  71.054  1.00  0.00    -0.214 A  
HETATM   21  C   UNL     1     -13.281   7.757  71.916  1.00  0.00    -0.300 A  
HETATM   22  C   UNL     1     -13.541  10.149  71.956  1.00  0.00    -0.328 A  
HETATM   23  C   UNL     1     -12.468  10.300  71.064  1.00  0.00    -0.384 A  
HETATM   24 CL   UNL     1     -12.177  11.916  70.520  1.00  0.00    -0.449 Cl 
ENDBRANCH   6  18
TORSDOF 1
ENDMDL
MODEL      132
REMARK 921   NORMALIZED FREE ENERGY PREDICTED BY IDOCK:   -3.34 KCAL/MOL
REMARK 922        TOTAL FREE ENERGY PREDICTED BY IDOCK:   -4.19 KCAL/MOL
REMARK 923 INTER-LIGAND FREE ENERGY PREDICTED BY IDOCK:   -3.53 KCAL/MOL
REMARK 924 INTRA-LIGAND FREE ENERGY PREDICTED BY IDOCK:   -0.66 KCAL/MOL
REMARK 927      BINDING AFFINITY PREDICTED BY RF-SCORE:    0.00 PKD
ROOT
HETATM    1  C   UNL     1      -9.414   4.288  72.245  1.00  0.00    -0.132 C  
HETATM    2  N   UNL     1      -9.733   4.890  70.961  1.00  0.00    -0.173 N  
HETATM    3  C   UNL     1     -10.512   6.087  70.904  1.00  0.00    -0.236 A  
HETATM    4  C   UNL     1     -10.363   7.061  69.890  1.00  0.00    -0.225 A  
HETATM    5  C   UNL     1     -11.213   8.181  69.840  1.00  0.00    -0.030 A  
HETATM    6  C   UNL     1      -9.253   6.993  68.895  1.00  0.00    -0.136 C  
HETATM    7  C   UNL     1     -12.156   8.380  70.843  1.00  0.00    -0.138 A  
HETATM    8  N   UNL     1      -8.995   5.933  68.201  1.00  0.00    -0.116 NA 
HETATM    9  H   UNL     1     -10.075   2.969  67.588  1.00  0.00     0.000 HD 
HETATM   10  O   UNL     1      -8.627   3.156  69.908  1.00  0.00    -0.055 OA 
HETATM   11  C   UNL     1     -12.286   7.460  71.876  1.00  0.00    -0.343 A  
HETATM   12  C   UNL     1      -9.770   4.729  68.443  1.00  0.00    -0.146 C  
HETATM   13  H   UNL     1      -8.260   5.942  67.495  1.00  0.00     0.000 HD 
HETATM   14 CL   UNL     1     -13.139   9.790  70.828  1.00  0.00    -0.260 Cl 
HETATM   15  O   UNL     1      -9.568   3.756  67.430  1.00  0.00    -0.198 OA 
HETATM   16  C   UNL     1      -9.309   4.183  69.824  1.00  0.00    -0.167 C  
HETATM   17  C   UNL     1     -11.478   6.319  71.899  1.00  0.00    -0.360 A  
ENDROOT
BRANCH   6  18
HETATM   18  C   UNL     1      -8.364   8.186  68.640  1.00  0.00    -0.126 A  
HETATM   19  C   UNL     1      -6.723  10.476  68.466  1.00  0.00    -0.056 A  
HETATM   20  C   UNL     1      -7.535   8.579  69.711  1.00  0.00    -0.071 A  
HETATM   21  C   UNL     1      -6.730   9.718  69.629  1.00  0.00    -0.055 A  
HETATM   22  C   UNL     1      -7.530  10.101  67.392  1.00  0.00    -0.094 A  
HETATM   23  C   UNL     1      -8.366   8.976  67.477  1.00  0.00    -0.116 A  
HETATM   24 CL   UNL     1      -9.418   8.730  66.127  1.00  0.00    -0.300 Cl 
ENDBRANCH   6  18
TORSDOF 1
ENDMDL
MODEL      133
REMARK 921   NORMALIZED FREE ENERGY PREDICTED BY IDOCK:   -3.31 KCAL/MOL
REMARK 922        TOTAL FREE ENERGY PREDICTED BY IDOCK:   -4.16 KCAL/MOL
REMARK 923 INTER-LIGAND FREE ENERGY PREDICTED BY IDOCK:   -3.49 KCAL/MOL
REMARK 924 INTRA-LIGAND FREE ENERGY PREDICTED BY IDOCK:   -0.67 KCAL/MOL
REMARK 927      BINDING AFFINITY PREDICTED BY RF-SCORE:    0.00 PKD
ROOT
HETATM    1  C   UNL     1      -5.769   8.328  72.581  1.00  0.00    -0.051 C  
HETATM    2  N   UNL     1      -7.076   8.582  71.995  1.00  0.00    -0.095 N  
HETATM    3  C   UNL     1      -7.190   9.374  70.812  1.00  0.00    -0.113 A  
HETATM    4  C   UNL     1      -8.204   9.182  69.845  1.00  0.00    -0.137 A  
HETATM    5  C   UNL     1      -8.314  10.044  68.739  1.00  0.00    -0.121 A  
HETATM    6  C   UNL     1      -9.132   8.015  69.905  1.00  0.00    -0.145 C  
HETATM    7  C   UNL     1      -7.368  11.045  68.545  1.00  0.00    -0.101 A  
HETATM    8  N   UNL     1      -9.799   7.703  70.968  1.00  0.00    -0.175 NA 
HETATM    9  H   UNL     1     -10.443   8.702  73.954  1.00  0.00     0.000 HD 
HETATM   10  O   UNL     1      -8.045   7.392  73.723  1.00  0.00    -0.107 OA 
HETATM   11  C   UNL     1      -6.335  11.221  69.456  1.00  0.00    -0.109 A  
HETATM   12  C   UNL     1      -9.590   8.472  72.181  1.00  0.00    -0.312 C  
HETATM   13  H   UNL     1     -10.463   6.928  70.954  1.00  0.00     0.000 HD 
HETATM   14 CL   UNL     1      -7.455  12.046  67.150  1.00  0.00    -0.148 Cl 
HETATM   15  O   UNL     1     -10.580   8.198  73.161  1.00  0.00    -0.274 OA 
HETATM   16  C   UNL     1      -8.179   8.083  72.707  1.00  0.00    -0.158 C  
HETATM   17  C   UNL     1      -6.254  10.399  70.585  1.00  0.00    -0.083 A  
ENDROOT
BRANCH   6  18
HETATM   18  C   UNL     1      -9.349   7.131  68.701  1.00  0.00    -0.134 A  
HETATM   19  C   UNL     1     -10.044   5.436  66.554  1.00  0.00    -0.250 A  
HETATM   20  C   UNL     1     -10.668   7.080  68.202  1.00  0.00    -0.242 A  
HETATM   21  C   UNL     1     -11.014   6.234  67.146  1.00  0.00    -0.453 A  
HETATM   22  C   UNL     1      -8.733   5.476  67.028  1.00  0.00    -0.108 A  
HETATM   23  C   UNL     1      -8.383   6.300  68.109  1.00  0.00    -0.115 A  
HETATM   24 CL   UNL     1      -6.759   6.124  68.680  1.00  0.00    -0.058 Cl 
ENDBRANCH   6  18
TORSDOF 1
ENDMDL
MODEL      134
REMARK 921   NORMALIZED FREE ENERGY PREDICTED BY IDOCK:   -3.25 KCAL/MOL
REMARK 922        TOTAL FREE ENERGY PREDICTED BY IDOCK:   -4.09 KCAL/MOL
REMARK 923 INTER-LIGAND FREE ENERGY PREDICTED BY IDOCK:   -3.42 KCAL/MOL
REMARK 924 INTRA-LIGAND FREE ENERGY PREDICTED BY IDOCK:   -0.67 KCAL/MOL
REMARK 927      BINDING AFFINITY PREDICTED BY RF-SCORE:    0.00 PKD
ROOT
HETATM    1  C   UNL     1      -9.280  11.937  68.232  1.00  0.00    -0.187 C  
HETATM    2  N   UNL     1      -8.760  10.805  68.982  1.00  0.00    -0.155 N  
HETATM    3  C   UNL     1      -9.657   9.858  69.565  1.00  0.00    -0.225 A  
HETATM    4  C   UNL     1      -9.336   8.491  69.736  1.00  0.00    -0.161 A  
HETATM    5  C   UNL     1     -10.228   7.620  70.388  1.00  0.00    -0.203 A  
HETATM    6  C   UNL     1      -8.094   7.899  69.158  1.00  0.00    -0.124 C  
HETATM    7  C   UNL     1     -11.475   8.084  70.795  1.00  0.00    -0.263 A  
HETATM    8  N   UNL     1      -6.921   8.411  69.343  1.00  0.00    -0.049 NA 
HETATM    9  H   UNL     1      -5.384  10.746  70.928  1.00  0.00     0.000 HD 
HETATM   10  O   UNL     1      -6.618  11.599  68.633  1.00  0.00    -0.057 OA 
HETATM   11  C   UNL     1     -11.830   9.412  70.593  1.00  0.00    -0.268 A  
HETATM   12  C   UNL     1      -6.805   9.653  70.085  1.00  0.00    -0.097 C  
HETATM   13  H   UNL     1      -6.090   7.948  68.973  1.00  0.00     0.000 HD 
HETATM   14 CL   UNL     1     -12.597   7.001  71.518  1.00  0.00    -0.414 Cl 
HETATM   15  O   UNL     1      -5.459   9.934  70.442  1.00  0.00    -0.040 OA 
HETATM   16  C   UNL     1      -7.367  10.769  69.159  1.00  0.00    -0.115 C  
HETATM   17  C   UNL     1     -10.924  10.292  69.992  1.00  0.00    -0.371 A  
ENDROOT
BRANCH   6  18
HETATM   18  C   UNL     1      -8.147   6.645  68.320  1.00  0.00    -0.111 A  
HETATM   19  C   UNL     1      -8.502   4.416  66.626  1.00  0.00    -0.105 A  
HETATM   20  C   UNL     1      -8.739   6.777  67.047  1.00  0.00    -0.114 A  
HETATM   21  C   UNL     1      -8.924   5.673  66.212  1.00  0.00    -0.141 A  
HETATM   22  C   UNL     1      -7.909   4.264  67.878  1.00  0.00    -0.079 A  
HETATM   23  C   UNL     1      -7.747   5.363  68.737  1.00  0.00    -0.083 A  
HETATM   24 CL   UNL     1      -7.139   4.990  70.312  1.00  0.00    -0.052 Cl 
ENDBRANCH   6  18
TORSDOF 1
ENDMDL
MODEL      135
REMARK 921   NORMALIZED FREE ENERGY PREDICTED BY IDOCK:   -3.17 KCAL/MOL
REMARK 922        TOTAL FREE ENERGY PREDICTED BY IDOCK:   -4.00 KCAL/MOL
REMARK 923 INTER-LIGAND FREE ENERGY PREDICTED BY IDOCK:   -4.16 KCAL/MOL
REMARK 924 INTRA-LIGAND FREE ENERGY PREDICTED BY IDOCK:    0.16 KCAL/MOL
REMARK 927      BINDING AFFINITY PREDICTED BY RF-SCORE:    0.00 PKD
ROOT
HETATM    1  C   UNL     1     -10.286  10.372  68.732  1.00  0.00    -0.187 C  
HETATM    2  N   UNL     1     -10.632   9.102  69.350  1.00  0.00    -0.225 N  
HETATM    3  C   UNL     1     -10.299   7.874  68.699  1.00  0.00    -0.201 A  
HETATM    4  C   UNL     1      -9.999   6.683  69.401  1.00  0.00    -0.169 A  
HETATM    5  C   UNL     1      -9.756   5.484  68.707  1.00  0.00    -0.190 A  
HETATM    6  C   UNL     1      -9.838   6.666  70.884  1.00  0.00    -0.183 C  
HETATM    7  C   UNL     1      -9.726   5.483  67.316  1.00  0.00    -0.139 A  
HETATM    8  N   UNL     1     -10.716   7.164  71.691  1.00  0.00    -0.212 NA 
HETATM    9  H   UNL     1     -13.635   8.509  71.762  1.00  0.00     0.000 HD 
HETATM   10  O   UNL     1     -11.633  10.255  71.084  1.00  0.00    -0.355 OA 
HETATM   11  C   UNL     1      -9.969   6.653  66.608  1.00  0.00    -0.203 A  
HETATM   12  C   UNL     1     -11.880   7.833  71.138  1.00  0.00    -0.291 C  
HETATM   13  H   UNL     1     -10.594   7.088  72.701  1.00  0.00     0.000 HD 
HETATM   14 CL   UNL     1      -9.348   4.036  66.469  1.00  0.00    -0.175 Cl 
HETATM   15  O   UNL     1     -12.874   8.071  72.124  1.00  0.00    -0.301 OA 
HETATM   16  C   UNL     1     -11.369   9.176  70.543  1.00  0.00    -0.257 C  
HETATM   17  C   UNL     1     -10.263   7.835  67.295  1.00  0.00    -0.343 A  
ENDROOT
BRANCH   6  18
HETATM   18  C   UNL     1      -8.621   6.046  71.527  1.00  0.00    -0.132 A  
HETATM   19  C   UNL     1      -6.499   4.616  72.717  1.00  0.00    -0.038 A  
HETATM   20  C   UNL     1      -8.375   4.694  71.206  1.00  0.00    -0.107 A  
HETATM   21  C   UNL     1      -7.330   3.983  71.802  1.00  0.00    -0.059 A  
HETATM   22  C   UNL     1      -6.721   5.953  73.043  1.00  0.00    -0.074 A  
HETATM   23  C   UNL     1      -7.787   6.666  72.473  1.00  0.00    -0.102 A  
HETATM   24 CL   UNL     1      -8.026   8.264  73.091  1.00  0.00    -0.216 Cl 
ENDBRANCH   6  18
TORSDOF 1
ENDMDL
MODEL      136
REMARK 921   NORMALIZED FREE ENERGY PREDICTED BY IDOCK:   -3.15 KCAL/MOL
REMARK 922        TOTAL FREE ENERGY PREDICTED BY IDOCK:   -3.99 KCAL/MOL
REMARK 923 INTER-LIGAND FREE ENERGY PREDICTED BY IDOCK:   -3.49 KCAL/MOL
REMARK 924 INTRA-LIGAND FREE ENERGY PREDICTED BY IDOCK:   -0.49 KCAL/MOL
REMARK 927      BINDING AFFINITY PREDICTED BY RF-SCORE:    0.00 PKD
ROOT
HETATM    1  C   UNL     1      -7.203  10.574  69.373  1.00  0.00    -0.117 C  
HETATM    2  N   UNL     1      -8.235   9.738  68.783  1.00  0.00    -0.104 N  
HETATM    3  C   UNL     1      -8.660   9.964  67.438  1.00  0.00    -0.125 A  
HETATM    4  C   UNL     1      -9.123   8.933  66.587  1.00  0.00    -0.192 A  
HETATM    5  C   UNL     1      -9.604   9.227  65.299  1.00  0.00    -0.175 A  
HETATM    6  C   UNL     1      -9.036   7.496  66.980  1.00  0.00    -0.135 C  
HETATM    7  C   UNL     1      -9.547  10.531  64.820  1.00  0.00    -0.285 A  
HETATM    8  N   UNL     1      -9.483   7.048  68.108  1.00  0.00    -0.125 NA 
HETATM    9  H   UNL     1     -11.082   7.943  70.748  1.00  0.00     0.000 HD 
HETATM   10  O   UNL     1      -8.424   8.610  70.791  1.00  0.00    -0.128 OA 
HETATM   11  C   UNL     1      -9.050  11.552  65.620  1.00  0.00    -0.136 A  
HETATM   12  C   UNL     1     -10.029   7.987  69.070  1.00  0.00    -0.185 C  
HETATM   13  H   UNL     1      -9.451   6.050  68.318  1.00  0.00     0.000 HD 
HETATM   14 CL   UNL     1     -10.057  10.877  63.215  1.00  0.00    -0.387 Cl 
HETATM   15  O   UNL     1     -10.724   7.329  70.119  1.00  0.00    -0.232 OA 
HETATM   16  C   UNL     1      -8.821   8.787  69.635  1.00  0.00    -0.141 C  
HETATM   17  C   UNL     1      -8.621  11.271  66.921  1.00  0.00    -0.150 A  
ENDROOT
BRANCH   6  18
HETATM   18  C   UNL     1      -8.420   6.473  66.057  1.00  0.00    -0.145 A  
HETATM   19  C   UNL     1      -7.112   4.796  64.201  1.00  0.00    -0.050 A  
HETATM   20  C   UNL     1      -7.123   6.769  65.585  1.00  0.00    -0.072 A  
HETATM   21  C   UNL     1      -6.480   5.945  64.659  1.00  0.00    -0.037 A  
HETATM   22  C   UNL     1      -8.391   4.482  64.660  1.00  0.00    -0.117 A  
HETATM   23  C   UNL     1      -9.058   5.321  65.566  1.00  0.00    -0.139 A  
HETATM   24 CL   UNL     1     -10.692   4.880  65.920  1.00  0.00    -0.314 Cl 
ENDBRANCH   6  18
TORSDOF 1
ENDMDL
MODEL      137
REMARK 921   NORMALIZED FREE ENERGY PREDICTED BY IDOCK:   -3.12 KCAL/MOL
REMARK 922        TOTAL FREE ENERGY PREDICTED BY IDOCK:   -3.96 KCAL/MOL
REMARK 923 INTER-LIGAND FREE ENERGY PREDICTED BY IDOCK:   -3.31 KCAL/MOL
REMARK 924 INTRA-LIGAND FREE ENERGY PREDICTED BY IDOCK:   -0.65 KCAL/MOL
REMARK 927      BINDING AFFINITY PREDICTED BY RF-SCORE:    0.00 PKD
ROOT
HETATM    1  C   UNL     1     -12.150   7.162  72.021  1.00  0.00    -0.292 C  
HETATM    2  N   UNL     1     -11.237   8.203  71.579  1.00  0.00    -0.251 N  
HETATM    3  C   UNL     1      -9.887   8.219  72.048  1.00  0.00    -0.257 A  
HETATM    4  C   UNL     1      -8.806   8.714  71.282  1.00  0.00    -0.263 A  
HETATM    5  C   UNL     1      -7.511   8.779  71.826  1.00  0.00    -0.080 A  
HETATM    6  C   UNL     1      -8.973   9.099  69.850  1.00  0.00    -0.174 C  
HETATM    7  C   UNL     1      -7.269   8.274  73.100  1.00  0.00    -0.107 A  
HETATM    8  N   UNL     1      -9.899   9.903  69.442  1.00  0.00    -0.203 NA 
HETATM    9  H   UNL     1     -12.267  11.802  70.498  1.00  0.00     0.000 HD 
HETATM   10  O   UNL     1     -12.957   9.153  70.363  1.00  0.00     0.366 OA 
HETATM   11  C   UNL     1      -8.307   7.737  73.851  1.00  0.00    -0.277 A  
HETATM   12  C   UNL     1     -10.868  10.403  70.400  1.00  0.00    -0.189 C  
HETATM   13  H   UNL     1      -9.949  10.182  68.462  1.00  0.00     0.000 HD 
HETATM   14 CL   UNL     1      -5.671   8.277  73.733  1.00  0.00    -0.072 Cl 
HETATM   15  O   UNL     1     -11.634  11.475  69.871  1.00  0.00    -0.297 OA 
HETATM   16  C   UNL     1     -11.788   9.201  70.760  1.00  0.00    -0.227 C  
HETATM   17  C   UNL     1      -9.606   7.721  73.333  1.00  0.00    -0.352 A  
ENDROOT
BRANCH   6  18
HETATM   18  C   UNL     1      -8.042   8.565  68.788  1.00  0.00    -0.120 A  
HETATM   19  C   UNL     1      -6.373   7.819  66.638  1.00  0.00    -0.050 A  
HETATM   20  C   UNL     1      -7.399   9.532  67.987  1.00  0.00    -0.082 A  
HETATM   21  C   UNL     1      -6.580   9.163  66.917  1.00  0.00    -0.068 A  
HETATM   22  C   UNL     1      -6.994   6.847  67.421  1.00  0.00    -0.079 A  
HETATM   23  C   UNL     1      -7.843   7.208  68.479  1.00  0.00    -0.122 A  
HETATM   24 CL   UNL     1      -8.660   5.896  69.257  1.00  0.00    -0.112 Cl 
ENDBRANCH   6  18
TORSDOF 1
ENDMDL
MODEL      138
REMARK 921   NORMALIZED FREE ENERGY PREDICTED BY IDOCK:   -3.03 KCAL/MOL
REMARK 922        TOTAL FREE ENERGY PREDICTED BY IDOCK:   -3.86 KCAL/MOL
REMARK 923 INTER-LIGAND FREE ENERGY PREDICTED BY IDOCK:   -3.25 KCAL/MOL
REMARK 924 INTRA-LIGAND FREE ENERGY PREDICTED BY IDOCK:   -0.61 KCAL/MOL
REMARK 927      BINDING AFFINITY PREDICTED BY RF-SCORE:    0.00 PKD
ROOT
HETATM    1  C   UNL     1     -12.718   7.110  71.019  1.00  0.00    -0.253 C  
HETATM    2  N   UNL     1     -11.272   6.960  70.990  1.00  0.00    -0.267 N  
HETATM    3  C   UNL     1     -10.605   6.676  69.758  1.00  0.00    -0.228 A  
HETATM    4  C   UNL     1      -9.291   7.113  69.469  1.00  0.00    -0.148 A  
HETATM    5  C   UNL     1      -8.656   6.735  68.273  1.00  0.00    -0.124 A  
HETATM    6  C   UNL     1      -8.565   8.057  70.368  1.00  0.00    -0.131 C  
HETATM    7  C   UNL     1      -9.353   5.996  67.322  1.00  0.00    -0.113 A  
HETATM    8  N   UNL     1      -8.442   7.861  71.640  1.00  0.00    -0.110 NA 
HETATM    9  H   UNL     1      -9.070   5.727  73.959  1.00  0.00     0.000 HD 
HETATM   10  O   UNL     1     -11.224   7.279  73.278  1.00  0.00    -0.290 OA 
HETATM   11  C   UNL     1     -10.662   5.598  67.564  1.00  0.00    -0.272 A  
HETATM   12  C   UNL     1      -9.095   6.713  72.241  1.00  0.00    -0.137 C  
HETATM   13  H   UNL     1      -7.894   8.504  72.212  1.00  0.00     0.000 HD 
HETATM   14 CL   UNL     1      -8.605   5.605  65.825  1.00  0.00    -0.143 Cl 
HETATM   15  O   UNL     1      -8.643   6.478  73.567  1.00  0.00    -0.122 OA 
HETATM   16  C   UNL     1     -10.619   7.022  72.231  1.00  0.00    -0.213 C  
HETATM   17  C   UNL     1     -11.278   5.927  68.776  1.00  0.00    -0.071 A  
ENDROOT
BRANCH   6  18
HETATM   18  C   UNL     1      -7.917   9.306  69.823  1.00  0.00    -0.103 A  
HETATM   19  C   UNL     1      -6.935  11.649  68.593  1.00  0.00    -0.088 A  
HETATM   20  C   UNL     1      -8.786  10.238  69.216  1.00  0.00    -0.182 A  
HETATM   21  C   UNL     1      -8.299  11.392  68.599  1.00  0.00    -0.136 A  
HETATM   22  C   UNL     1      -6.059  10.745  69.193  1.00  0.00    -0.043 A  
HETATM   23  C   UNL     1      -6.537   9.566  69.788  1.00  0.00    -0.051 A  
HETATM   24 CL   UNL     1      -5.319   8.474  70.350  1.00  0.00    -0.022 Cl 
ENDBRANCH   6  18
TORSDOF 1
ENDMDL
MODEL      139
REMARK 921   NORMALIZED FREE ENERGY PREDICTED BY IDOCK:   -3.03 KCAL/MOL
REMARK 922        TOTAL FREE ENERGY PREDICTED BY IDOCK:   -3.86 KCAL/MOL
REMARK 923 INTER-LIGAND FREE ENERGY PREDICTED BY IDOCK:   -3.19 KCAL/MOL
REMARK 924 INTRA-LIGAND FREE ENERGY PREDICTED BY IDOCK:   -0.67 KCAL/MOL
REMARK 927      BINDING AFFINITY PREDICTED BY RF-SCORE:    0.00 PKD
ROOT
HETATM    1  C   UNL     1      -5.132   7.254  73.315  1.00  0.00    -0.037 C  
HETATM    2  N   UNL     1      -5.970   6.901  72.180  1.00  0.00    -0.038 N  
HETATM    3  C   UNL     1      -6.793   5.734  72.232  1.00  0.00    -0.073 A  
HETATM    4  C   UNL     1      -8.031   5.629  71.555  1.00  0.00    -0.117 A  
HETATM    5  C   UNL     1      -8.761   4.427  71.577  1.00  0.00    -0.140 A  
HETATM    6  C   UNL     1      -8.653   6.801  70.873  1.00  0.00    -0.137 C  
HETATM    7  C   UNL     1      -8.307   3.356  72.340  1.00  0.00    -0.083 A  
HETATM    8  N   UNL     1      -8.017   7.539  70.024  1.00  0.00    -0.110 NA 
HETATM    9  H   UNL     1      -5.220   7.783  68.459  1.00  0.00     0.000 HD 
HETATM   10  O   UNL     1      -5.128   8.722  71.033  1.00  0.00    -0.027 OA 
HETATM   11  C   UNL     1      -7.119   3.455  73.053  1.00  0.00    -0.045 A  
HETATM   12  C   UNL     1      -6.614   7.266  69.768  1.00  0.00    -0.040 C  
HETATM   13  H   UNL     1      -8.492   8.301  69.540  1.00  0.00     0.000 HD 
HETATM   14 CL   UNL     1      -9.241   1.915  72.434  1.00  0.00    -0.110 Cl 
HETATM   15  O   UNL     1      -6.137   7.962  68.626  1.00  0.00    -0.034 OA 
HETATM   16  C   UNL     1      -5.842   7.714  71.042  1.00  0.00    -0.034 C  
HETATM   17  C   UNL     1      -6.364   4.631  72.990  1.00  0.00    -0.037 A  
ENDROOT
BRANCH   6  18
HETATM   18  C   UNL     1     -10.089   7.184  71.141  1.00  0.00    -0.193 A  
HETATM   19  C   UNL     1     -12.708   7.863  71.942  1.00  0.00    -0.341 A  
HETATM   20  C   UNL     1     -10.338   7.821  72.375  1.00  0.00    -0.311 A  
HETATM   21  C   UNL     1     -11.635   8.149  72.776  1.00  0.00    -0.371 A  
HETATM   22  C   UNL     1     -12.483   7.240  70.715  1.00  0.00    -0.189 A  
HETATM   23  C   UNL     1     -11.186   6.879  70.318  1.00  0.00    -0.316 A  
HETATM   24 CL   UNL     1     -11.086   5.977  68.846  1.00  0.00    -0.405 Cl 
ENDBRANCH   6  18
TORSDOF 1
ENDMDL
MODEL      140
REMARK 921   NORMALIZED FREE ENERGY PREDICTED BY IDOCK:   -2.99 KCAL/MOL
REMARK 922        TOTAL FREE ENERGY PREDICTED BY IDOCK:   -3.81 KCAL/MOL
REMARK 923 INTER-LIGAND FREE ENERGY PREDICTED BY IDOCK:   -3.56 KCAL/MOL
REMARK 924 INTRA-LIGAND FREE ENERGY PREDICTED BY IDOCK:   -0.26 KCAL/MOL
REMARK 927      BINDING AFFINITY PREDICTED BY RF-SCORE:    0.00 PKD
ROOT
HETATM    1  C   UNL     1     -12.655   7.076  71.138  1.00  0.00    -0.339 C  
HETATM    2  N   UNL     1     -11.353   6.445  71.000  1.00  0.00    -0.314 N  
HETATM    3  C   UNL     1     -10.590   6.628  69.805  1.00  0.00    -0.228 A  
HETATM    4  C   UNL     1      -9.175   6.632  69.783  1.00  0.00    -0.146 A  
HETATM    5  C   UNL     1      -8.478   6.737  68.566  1.00  0.00    -0.123 A  
HETATM    6  C   UNL     1      -8.372   6.619  71.040  1.00  0.00    -0.125 C  
HETATM    7  C   UNL     1      -9.180   6.923  67.379  1.00  0.00    -0.125 A  
HETATM    8  N   UNL     1      -8.559   5.757  71.984  1.00  0.00    -0.130 NA 
HETATM    9  H   UNL     1     -10.256   3.131  72.734  1.00  0.00     0.000 HD 
HETATM   10  O   UNL     1     -11.640   5.473  73.077  1.00  0.00    -0.274 OA 
HETATM   11  C   UNL     1     -10.568   6.971  67.385  1.00  0.00    -0.372 A  
HETATM   12  C   UNL     1      -9.643   4.799  71.857  1.00  0.00    -0.152 C  
HETATM   13  H   UNL     1      -7.955   5.749  72.806  1.00  0.00     0.000 HD 
HETATM   14 CL   UNL     1      -8.325   7.134  65.903  1.00  0.00    -0.135 Cl 
HETATM   15  O   UNL     1      -9.547   3.758  72.817  1.00  0.00    -0.121 OA 
HETATM   16  C   UNL     1     -10.960   5.602  72.052  1.00  0.00    -0.243 C  
HETATM   17  C   UNL     1     -11.266   6.814  68.587  1.00  0.00    -0.166 A  
ENDROOT
BRANCH   6  18
HETATM   18  C   UNL     1      -7.272   7.627  71.270  1.00  0.00    -0.062 A  
HETATM   19  C   UNL     1      -5.161   9.366  71.968  1.00  0.00    -0.075 A  
HETATM   20  C   UNL     1      -6.179   7.183  72.044  1.00  0.00    -0.041 A  
HETATM   21  C   UNL     1      -5.140   8.046  72.399  1.00  0.00    -0.035 A  
HETATM   22  C   UNL     1      -6.229   9.823  71.196  1.00  0.00    -0.017 A  
HETATM   23  C   UNL     1      -7.293   8.972  70.862  1.00  0.00    -0.111 A  
HETATM   24 CL   UNL     1      -8.613   9.724  70.034  1.00  0.00    -0.225 Cl 
ENDBRANCH   6  18
TORSDOF 1
ENDMDL
MODEL      141
REMARK 921   NORMALIZED FREE ENERGY PREDICTED BY IDOCK:   -2.89 KCAL/MOL
REMARK 922        TOTAL FREE ENERGY PREDICTED BY IDOCK:   -3.71 KCAL/MOL
REMARK 923 INTER-LIGAND FREE ENERGY PREDICTED BY IDOCK:   -3.20 KCAL/MOL
REMARK 924 INTRA-LIGAND FREE ENERGY PREDICTED BY IDOCK:   -0.51 KCAL/MOL
REMARK 927      BINDING AFFINITY PREDICTED BY RF-SCORE:    0.00 PKD
ROOT
HETATM    1  C   UNL     1     -11.214  16.239  71.443  1.00  0.00    -0.024 C  
HETATM    2  N   UNL     1     -11.515  15.050  70.663  1.00  0.00    -0.285 N  
HETATM    3  C   UNL     1     -11.353  15.063  69.243  1.00  0.00    -0.296 A  
HETATM    4  C   UNL     1     -11.000  13.917  68.492  1.00  0.00    -0.277 A  
HETATM    5  C   UNL     1     -10.933  13.972  67.089  1.00  0.00    -0.303 A  
HETATM    6  C   UNL     1     -10.600  12.641  69.153  1.00  0.00     0.050 C  
HETATM    7  C   UNL     1     -11.131  15.183  66.433  1.00  0.00    -0.312 A  
HETATM    8  N   UNL     1     -11.309  12.074  70.073  1.00  0.00    -0.507 NA 
HETATM    9  H   UNL     1     -14.108  12.308  71.636  1.00  0.00     0.000 HD 
HETATM   10  O   UNL     1     -12.162  13.978  72.605  1.00  0.00     0.047 OA 
HETATM   11  C   UNL     1     -11.430  16.331  67.154  1.00  0.00     0.367 A  
HETATM   12  C   UNL     1     -12.514  12.736  70.540  1.00  0.00    -0.202 C  
HETATM   13  H   UNL     1     -11.027  11.175  70.465  1.00  0.00     0.000 HD 
HETATM   14 CL   UNL     1     -10.967  15.267  64.724  1.00  0.00    -0.423 Cl 
HETATM   15  O   UNL     1     -13.320  11.875  71.330  1.00  0.00    -0.185 OA 
HETATM   16  C   UNL     1     -12.043  13.961  71.375  1.00  0.00    -0.092 C  
HETATM   17  C   UNL     1     -11.550  16.269  68.546  1.00  0.00    -0.188 A  
ENDROOT
BRANCH   6  18
HETATM   18  C   UNL     1      -9.326  11.931  68.765  1.00  0.00     0.013 A  
HETATM   19  C   UNL     1      -7.048  10.362  68.202  1.00  0.00    -0.082 A  
HETATM   20  C   UNL     1      -9.408  10.526  68.664  1.00  0.00    -0.172 A  
HETATM   21  C   UNL     1      -8.279   9.748  68.395  1.00  0.00    -0.105 A  
HETATM   22  C   UNL     1      -6.946  11.749  68.291  1.00  0.00    -0.075 A  
HETATM   23  C   UNL     1      -8.069  12.536  68.592  1.00  0.00    -0.013 A  
HETATM   24 CL   UNL     1      -7.754  14.222  68.820  1.00  0.00    -0.137 Cl 
ENDBRANCH   6  18
TORSDOF 1
ENDMDL
MODEL      142
REMARK 921   NORMALIZED FREE ENERGY PREDICTED BY IDOCK:   -2.87 KCAL/MOL
REMARK 922        TOTAL FREE ENERGY PREDICTED BY IDOCK:   -3.68 KCAL/MOL
REMARK 923 INTER-LIGAND FREE ENERGY PREDICTED BY IDOCK:   -3.05 KCAL/MOL
REMARK 924 INTRA-LIGAND FREE ENERGY PREDICTED BY IDOCK:   -0.63 KCAL/MOL
REMARK 927      BINDING AFFINITY PREDICTED BY RF-SCORE:    0.00 PKD
ROOT
HETATM    1  C   UNL     1      -5.909   9.286  71.978  1.00  0.00    -0.029 C  
HETATM    2  N   UNL     1      -7.223   9.003  71.423  1.00  0.00    -0.078 N  
HETATM    3  C   UNL     1      -7.549   9.427  70.098  1.00  0.00    -0.130 A  
HETATM    4  C   UNL     1      -8.445   8.726  69.259  1.00  0.00    -0.122 A  
HETATM    5  C   UNL     1      -8.790   9.234  67.993  1.00  0.00    -0.128 A  
HETATM    6  C   UNL     1      -8.987   7.387  69.635  1.00  0.00    -0.141 C  
HETATM    7  C   UNL     1      -8.180  10.393  67.523  1.00  0.00    -0.114 A  
HETATM    8  N   UNL     1      -9.548   7.152  70.776  1.00  0.00    -0.168 NA 
HETATM    9  H   UNL     1     -10.503   8.591  73.487  1.00  0.00     0.000 HD 
HETATM   10  O   UNL     1      -7.822   8.022  73.428  1.00  0.00    -0.148 OA 
HETATM   11  C   UNL     1      -7.259  11.071  68.312  1.00  0.00    -0.085 A  
HETATM   12  C   UNL     1      -9.594   8.211  71.768  1.00  0.00    -0.188 C  
HETATM   13  H   UNL     1      -9.951   6.237  70.977  1.00  0.00     0.000 HD 
HETATM   14 CL   UNL     1      -8.539  10.969  65.944  1.00  0.00    -0.177 Cl 
HETATM   15  O   UNL     1     -10.473   7.899  72.838  1.00  0.00    -0.309 OA 
HETATM   16  C   UNL     1      -8.139   8.385  72.290  1.00  0.00    -0.127 C  
HETATM   17  C   UNL     1      -6.955  10.597  69.592  1.00  0.00    -0.134 A  
ENDROOT
BRANCH   6  18
HETATM   18  C   UNL     1      -8.913   6.222  68.679  1.00  0.00    -0.127 A  
HETATM   19  C   UNL     1      -8.472   4.100  66.871  1.00  0.00    -0.100 A  
HETATM   20  C   UNL     1      -7.692   5.517  68.657  1.00  0.00    -0.088 A  
HETATM   21  C   UNL     1      -7.469   4.473  67.756  1.00  0.00    -0.073 A  
HETATM   22  C   UNL     1      -9.690   4.779  66.881  1.00  0.00    -0.204 A  
HETATM   23  C   UNL     1      -9.911   5.850  67.761  1.00  0.00    -0.124 A  
HETATM   24 CL   UNL     1     -11.408   6.689  67.547  1.00  0.00    -0.255 Cl 
ENDBRANCH   6  18
TORSDOF 1
ENDMDL
MODEL      143
REMARK 921   NORMALIZED FREE ENERGY PREDICTED BY IDOCK:   -2.86 KCAL/MOL
REMARK 922        TOTAL FREE ENERGY PREDICTED BY IDOCK:   -3.68 KCAL/MOL
REMARK 923 INTER-LIGAND FREE ENERGY PREDICTED BY IDOCK:   -3.01 KCAL/MOL
REMARK 924 INTRA-LIGAND FREE ENERGY PREDICTED BY IDOCK:   -0.67 KCAL/MOL
REMARK 927      BINDING AFFINITY PREDICTED BY RF-SCORE:    0.00 PKD
ROOT
HETATM    1  C   UNL     1      -6.249  11.297  65.791  1.00  0.00     0.233 C  
HETATM    2  N   UNL     1      -7.015  11.400  67.023  1.00  0.00    -0.126 N  
HETATM    3  C   UNL     1      -8.381  11.818  66.985  1.00  0.00    -0.172 A  
HETATM    4  C   UNL     1      -9.352  11.376  67.914  1.00  0.00    -0.164 A  
HETATM    5  C   UNL     1     -10.663  11.882  67.877  1.00  0.00    -0.239 A  
HETATM    6  C   UNL     1      -9.057  10.298  68.903  1.00  0.00    -0.168 C  
HETATM    7  C   UNL     1     -11.037  12.763  66.867  1.00  0.00    -0.270 A  
HETATM    8  N   UNL     1      -8.024  10.322  69.681  1.00  0.00    -0.234 NA 
HETATM    9  H   UNL     1      -5.532  12.158  70.546  1.00  0.00     0.000 HD 
HETATM   10  O   UNL     1      -5.129  10.784  68.208  1.00  0.00    -0.034 OA 
HETATM   11  C   UNL     1     -10.112  13.172  65.915  1.00  0.00    -0.292 A  
HETATM   12  C   UNL     1      -7.067  11.405  69.545  1.00  0.00    -0.019 C  
HETATM   13  H   UNL     1      -7.884   9.592  70.379  1.00  0.00     0.000 HD 
HETATM   14 CL   UNL     1     -12.661  13.318  66.772  1.00  0.00    -0.062 Cl 
HETATM   15  O   UNL     1      -6.158  11.450  70.635  1.00  0.00    -0.316 OA 
HETATM   16  C   UNL     1      -6.309  11.153  68.211  1.00  0.00    -0.049 C  
HETATM   17  C   UNL     1      -8.793  12.711  65.981  1.00  0.00     0.304 A  
ENDROOT
BRANCH   6  18
HETATM   18  C   UNL     1      -9.973   9.107  69.053  1.00  0.00    -0.189 A  
HETATM   19  C   UNL     1     -11.599   6.874  69.630  1.00  0.00    -0.150 A  
HETATM   20  C   UNL     1     -10.545   8.926  70.329  1.00  0.00    -0.246 A  
HETATM   21  C   UNL     1     -11.342   7.815  70.618  1.00  0.00    -0.275 A  
HETATM   22  C   UNL     1     -11.048   7.039  68.360  1.00  0.00    -0.069 A  
HETATM   23  C   UNL     1     -10.221   8.135  68.069  1.00  0.00    -0.212 A  
HETATM   24 CL   UNL     1      -9.490   8.118  66.502  1.00  0.00    -0.264 Cl 
ENDBRANCH   6  18
TORSDOF 1
ENDMDL
MODEL      144
REMARK 921   NORMALIZED FREE ENERGY PREDICTED BY IDOCK:   -2.83 KCAL/MOL
REMARK 922        TOTAL FREE ENERGY PREDICTED BY IDOCK:   -3.65 KCAL/MOL
REMARK 923 INTER-LIGAND FREE ENERGY PREDICTED BY IDOCK:   -3.22 KCAL/MOL
REMARK 924 INTRA-LIGAND FREE ENERGY PREDICTED BY IDOCK:   -0.43 KCAL/MOL
REMARK 927      BINDING AFFINITY PREDICTED BY RF-SCORE:    0.00 PKD
ROOT
HETATM    1  C   UNL     1      -9.578   6.960  69.159  1.00  0.00    -0.144 C  
HETATM    2  N   UNL     1      -8.567   7.278  68.163  1.00  0.00    -0.123 N  
HETATM    3  C   UNL     1      -8.602   6.650  66.880  1.00  0.00    -0.115 A  
HETATM    4  C   UNL     1      -8.140   7.276  65.698  1.00  0.00    -0.133 A  
HETATM    5  C   UNL     1      -8.125   6.580  64.476  1.00  0.00    -0.079 A  
HETATM    6  C   UNL     1      -7.740   8.714  65.678  1.00  0.00    -0.091 C  
HETATM    7  C   UNL     1      -8.648   5.292  64.407  1.00  0.00    -0.093 A  
HETATM    8  N   UNL     1      -6.901   9.221  66.521  1.00  0.00    -0.079 NA 
HETATM    9  H   UNL     1      -4.926   8.435  68.932  1.00  0.00     0.000 HD 
HETATM   10  O   UNL     1      -7.548   8.680  69.691  1.00  0.00    -0.076 OA 
HETATM   11  C   UNL     1      -9.152   4.677  65.545  1.00  0.00    -0.146 A  
HETATM   12  C   UNL     1      -6.373   8.380  67.580  1.00  0.00    -0.057 C  
HETATM   13  H   UNL     1      -6.614  10.196  66.443  1.00  0.00     0.000 HD 
HETATM   14 CL   UNL     1      -8.706   4.472  62.897  1.00  0.00    -0.113 Cl 
HETATM   15  O   UNL     1      -5.271   8.985  68.239  1.00  0.00    -0.034 OA 
HETATM   16  C   UNL     1      -7.544   8.147  68.577  1.00  0.00    -0.104 C  
HETATM   17  C   UNL     1      -9.119   5.347  66.772  1.00  0.00    -0.116 A  
ENDROOT
BRANCH   6  18
HETATM   18  C   UNL     1      -8.300   9.662  64.646  1.00  0.00    -0.162 A  
HETATM   19  C   UNL     1      -9.623  11.386  62.846  1.00  0.00    -0.366 A  
HETATM   20  C   UNL     1      -9.443  10.392  65.033  1.00  0.00    -0.308 A  
HETATM   21  C   UNL     1     -10.104  11.237  64.140  1.00  0.00    -0.373 A  
HETATM   22  C   UNL     1      -8.490  10.680  62.444  1.00  0.00    -0.277 A  
HETATM   23  C   UNL     1      -7.838   9.803  63.326  1.00  0.00    -0.139 A  
HETATM   24 CL   UNL     1      -6.545   8.884  62.637  1.00  0.00    -0.095 Cl 
ENDBRANCH   6  18
TORSDOF 1
ENDMDL
MODEL      145
REMARK 921   NORMALIZED FREE ENERGY PREDICTED BY IDOCK:   -2.79 KCAL/MOL
REMARK 922        TOTAL FREE ENERGY PREDICTED BY IDOCK:   -3.60 KCAL/MOL
REMARK 923 INTER-LIGAND FREE ENERGY PREDICTED BY IDOCK:   -2.94 KCAL/MOL
REMARK 924 INTRA-LIGAND FREE ENERGY PREDICTED BY IDOCK:   -0.66 KCAL/MOL
REMARK 927      BINDING AFFINITY PREDICTED BY RF-SCORE:    0.00 PKD
ROOT
HETATM    1  C   UNL     1      -5.619   9.637  67.957  1.00  0.00    -0.040 C  
HETATM    2  N   UNL     1      -6.789   8.774  67.967  1.00  0.00    -0.069 N  
HETATM    3  C   UNL     1      -6.670   7.408  68.370  1.00  0.00    -0.054 A  
HETATM    4  C   UNL     1      -7.712   6.694  69.005  1.00  0.00    -0.109 A  
HETATM    5  C   UNL     1      -7.565   5.328  69.307  1.00  0.00    -0.073 A  
HETATM    6  C   UNL     1      -8.961   7.371  69.461  1.00  0.00    -0.144 C  
HETATM    7  C   UNL     1      -6.355   4.690  69.058  1.00  0.00    -0.032 A  
HETATM    8  N   UNL     1      -9.671   8.127  68.690  1.00  0.00    -0.150 NA 
HETATM    9  H   UNL     1      -9.904   9.167  65.657  1.00  0.00     0.000 HD 
HETATM   10  O   UNL     1      -8.051  10.529  67.150  1.00  0.00    -0.117 OA 
HETATM   11  C   UNL     1      -5.301   5.386  68.479  1.00  0.00    -0.007 A  
HETATM   12  C   UNL     1      -9.204   8.393  67.341  1.00  0.00    -0.140 C  
HETATM   13  H   UNL     1     -10.546   8.532  69.023  1.00  0.00     0.000 HD 
HETATM   14 CL   UNL     1      -6.147   3.043  69.503  1.00  0.00    -0.024 Cl 
HETATM   15  O   UNL     1     -10.210   8.994  66.539  1.00  0.00    -0.278 OA 
HETATM   16  C   UNL     1      -7.979   9.341  67.482  1.00  0.00    -0.099 C  
HETATM   17  C   UNL     1      -5.462   6.730  68.129  1.00  0.00    -0.012 A  
ENDROOT
BRANCH   6  18
HETATM   18  C   UNL     1      -9.472   7.194  70.871  1.00  0.00    -0.160 A  
HETATM   19  C   UNL     1     -10.711   6.908  73.390  1.00  0.00    -0.352 A  
HETATM   20  C   UNL     1     -10.773   6.663  70.994  1.00  0.00    -0.278 A  
HETATM   21  C   UNL     1     -11.391   6.531  72.239  1.00  0.00    -0.318 A  
HETATM   22  C   UNL     1      -9.421   7.429  73.291  1.00  0.00    -0.262 A  
HETATM   23  C   UNL     1      -8.805   7.595  72.041  1.00  0.00    -0.117 A  
HETATM   24 CL   UNL     1      -7.272   8.394  72.070  1.00  0.00    -0.104 Cl 
ENDBRANCH   6  18
TORSDOF 1
ENDMDL
MODEL      146
REMARK 921   NORMALIZED FREE ENERGY PREDICTED BY IDOCK:   -2.77 KCAL/MOL
REMARK 922        TOTAL FREE ENERGY PREDICTED BY IDOCK:   -3.58 KCAL/MOL
REMARK 923 INTER-LIGAND FREE ENERGY PREDICTED BY IDOCK:   -3.04 KCAL/MOL
REMARK 924 INTRA-LIGAND FREE ENERGY PREDICTED BY IDOCK:   -0.54 KCAL/MOL
REMARK 927      BINDING AFFINITY PREDICTED BY RF-SCORE:    0.00 PKD
ROOT
HETATM    1  C   UNL     1     -12.661   7.375  71.845  1.00  0.00    -0.291 C  
HETATM    2  N   UNL     1     -11.437   6.611  71.668  1.00  0.00    -0.273 N  
HETATM    3  C   UNL     1     -10.410   7.093  70.798  1.00  0.00    -0.206 A  
HETATM    4  C   UNL     1      -9.035   6.837  71.006  1.00  0.00    -0.145 A  
HETATM    5  C   UNL     1      -8.075   7.269  70.073  1.00  0.00    -0.130 A  
HETATM    6  C   UNL     1      -8.539   6.187  72.255  1.00  0.00    -0.119 C  
HETATM    7  C   UNL     1      -8.469   8.030  68.977  1.00  0.00    -0.130 A  
HETATM    8  N   UNL     1      -9.026   5.079  72.710  1.00  0.00    -0.121 NA 
HETATM    9  H   UNL     1     -11.120   2.742  72.013  1.00  0.00     0.000 HD 
HETATM   10  O   UNL     1     -12.285   4.986  73.074  1.00  0.00    -0.105 OA 
HETATM   11  C   UNL     1      -9.810   8.335  68.779  1.00  0.00    -0.179 A  
HETATM   12  C   UNL     1     -10.150   4.470  72.023  1.00  0.00    -0.196 C  
HETATM   13  H   UNL     1      -8.626   4.639  73.539  1.00  0.00     0.000 HD 
HETATM   14 CL   UNL     1      -7.288   8.628  67.881  1.00  0.00    -0.091 Cl 
HETATM   15  O   UNL     1     -10.385   3.141  72.463  1.00  0.00    -0.157 OA 
HETATM   16  C   UNL     1     -11.384   5.369  72.321  1.00  0.00    -0.134 C  
HETATM   17  C   UNL     1     -10.772   7.861  69.677  1.00  0.00    -0.218 A  
ENDROOT
BRANCH   6  18
HETATM   18  C   UNL     1      -7.417   6.799  73.057  1.00  0.00    -0.086 A  
HETATM   19  C   UNL     1      -5.407   8.216  74.441  1.00  0.00    -0.077 A  
HETATM   20  C   UNL     1      -7.616   8.129  73.483  1.00  0.00    -0.205 A  
HETATM   21  C   UNL     1      -6.618   8.834  74.159  1.00  0.00    -0.065 A  
HETATM   22  C   UNL     1      -5.192   6.900  74.035  1.00  0.00    -0.042 A  
HETATM   23  C   UNL     1      -6.178   6.194  73.327  1.00  0.00    -0.063 A  
HETATM   24 CL   UNL     1      -5.706   4.630  72.759  1.00  0.00    -0.008 Cl 
ENDBRANCH   6  18
TORSDOF 1
ENDMDL
MODEL      147
REMARK 921   NORMALIZED FREE ENERGY PREDICTED BY IDOCK:   -2.77 KCAL/MOL
REMARK 922        TOTAL FREE ENERGY PREDICTED BY IDOCK:   -3.58 KCAL/MOL
REMARK 923 INTER-LIGAND FREE ENERGY PREDICTED BY IDOCK:   -3.39 KCAL/MOL
REMARK 924 INTRA-LIGAND FREE ENERGY PREDICTED BY IDOCK:   -0.19 KCAL/MOL
REMARK 927      BINDING AFFINITY PREDICTED BY RF-SCORE:    0.00 PKD
ROOT
HETATM    1  C   UNL     1     -11.188   5.871  71.338  1.00  0.00    -0.218 C  
HETATM    2  N   UNL     1      -9.976   6.382  70.720  1.00  0.00    -0.184 N  
HETATM    3  C   UNL     1      -9.452   5.759  69.546  1.00  0.00    -0.135 A  
HETATM    4  C   UNL     1      -8.738   6.463  68.548  1.00  0.00    -0.121 A  
HETATM    5  C   UNL     1      -8.177   5.783  67.452  1.00  0.00    -0.102 A  
HETATM    6  C   UNL     1      -8.629   7.951  68.565  1.00  0.00    -0.128 C  
HETATM    7  C   UNL     1      -8.395   4.417  67.300  1.00  0.00    -0.100 A  
HETATM    8  N   UNL     1      -8.239   8.615  69.604  1.00  0.00    -0.112 NA 
HETATM    9  H   UNL     1      -7.100   8.237  72.585  1.00  0.00     0.000 HD 
HETATM   10  O   UNL     1      -9.821   7.960  72.402  1.00  0.00    -0.187 OA 
HETATM   11  C   UNL     1      -9.135   3.715  68.242  1.00  0.00    -0.199 A  
HETATM   12  C   UNL     1      -7.960   7.896  70.833  1.00  0.00    -0.093 C  
HETATM   13  H   UNL     1      -8.129   9.628  69.560  1.00  0.00     0.000 HD 
HETATM   14 CL   UNL     1      -7.779   3.601  65.918  1.00  0.00    -0.088 Cl 
HETATM   15  O   UNL     1      -7.283   8.708  71.781  1.00  0.00    -0.096 OA 
HETATM   16  C   UNL     1      -9.336   7.436  71.393  1.00  0.00    -0.142 C  
HETATM   17  C   UNL     1      -9.650   4.380  69.361  1.00  0.00    -0.269 A  
ENDROOT
BRANCH   6  18
HETATM   18  C   UNL     1      -8.967   8.769  67.342  1.00  0.00    -0.143 A  
HETATM   19  C   UNL     1      -9.896  10.228  65.112  1.00  0.00    -0.389 A  
HETATM   20  C   UNL     1     -10.234   9.390  67.346  1.00  0.00    -0.298 A  
HETATM   21  C   UNL     1     -10.698  10.104  66.238  1.00  0.00    -0.047 A  
HETATM   22  C   UNL     1      -8.638   9.628  65.090  1.00  0.00    -0.175 A  
HETATM   23  C   UNL     1      -8.176   8.882  66.186  1.00  0.00    -0.116 A  
HETATM   24 CL   UNL     1      -6.666   8.072  65.950  1.00  0.00    -0.049 Cl 
ENDBRANCH   6  18
TORSDOF 1
ENDMDL
MODEL      148
REMARK 921   NORMALIZED FREE ENERGY PREDICTED BY IDOCK:   -2.76 KCAL/MOL
REMARK 922        TOTAL FREE ENERGY PREDICTED BY IDOCK:   -3.57 KCAL/MOL
REMARK 923 INTER-LIGAND FREE ENERGY PREDICTED BY IDOCK:   -2.94 KCAL/MOL
REMARK 924 INTRA-LIGAND FREE ENERGY PREDICTED BY IDOCK:   -0.63 KCAL/MOL
REMARK 927      BINDING AFFINITY PREDICTED BY RF-SCORE:    0.00 PKD
ROOT
HETATM    1  C   UNL     1      -5.750   9.273  69.646  1.00  0.00    -0.033 C  
HETATM    2  N   UNL     1      -6.888   8.604  70.254  1.00  0.00    -0.039 N  
HETATM    3  C   UNL     1      -7.864   7.960  69.432  1.00  0.00    -0.114 A  
HETATM    4  C   UNL     1      -8.592   6.818  69.842  1.00  0.00    -0.141 A  
HETATM    5  C   UNL     1      -9.596   6.274  69.022  1.00  0.00    -0.138 A  
HETATM    6  C   UNL     1      -8.266   6.095  71.107  1.00  0.00    -0.123 C  
HETATM    7  C   UNL     1      -9.822   6.809  67.758  1.00  0.00    -0.126 A  
HETATM    8  N   UNL     1      -8.158   6.692  72.249  1.00  0.00    -0.101 NA 
HETATM    9  H   UNL     1      -8.507   9.553  73.669  1.00  0.00     0.000 HD 
HETATM   10  O   UNL     1      -6.131   9.270  72.333  1.00  0.00    -0.262 OA 
HETATM   11  C   UNL     1      -9.085   7.899  67.314  1.00  0.00    -0.152 A  
HETATM   12  C   UNL     1      -8.285   8.137  72.302  1.00  0.00    -0.154 C  
HETATM   13  H   UNL     1      -7.984   6.155  73.099  1.00  0.00     0.000 HD 
HETATM   14 CL   UNL     1     -10.993   6.093  66.723  1.00  0.00    -0.384 Cl 
HETATM   15  O   UNL     1      -8.423   8.608  73.634  1.00  0.00    -0.353 OA 
HETATM   16  C   UNL     1      -6.997   8.714  71.649  1.00  0.00    -0.085 C  
HETATM   17  C   UNL     1      -8.122   8.475  68.149  1.00  0.00    -0.119 A  
ENDROOT
BRANCH   6  18
HETATM   18  C   UNL     1      -8.054   4.601  71.115  1.00  0.00    -0.088 A  
HETATM   19  C   UNL     1      -7.536   1.839  70.847  1.00  0.00    -0.033 A  
HETATM   20  C   UNL     1      -6.960   4.128  70.360  1.00  0.00    -0.034 A  
HETATM   21  C   UNL     1      -6.709   2.761  70.219  1.00  0.00    -0.033 A  
HETATM   22  C   UNL     1      -8.619   2.286  71.604  1.00  0.00    -0.093 A  
HETATM   23  C   UNL     1      -8.898   3.656  71.724  1.00  0.00    -0.099 A  
HETATM   24 CL   UNL     1     -10.359   4.045  72.563  1.00  0.00    -0.238 Cl 
ENDBRANCH   6  18
TORSDOF 1
ENDMDL
MODEL      149
REMARK 921   NORMALIZED FREE ENERGY PREDICTED BY IDOCK:   -2.70 KCAL/MOL
REMARK 922        TOTAL FREE ENERGY PREDICTED BY IDOCK:   -3.51 KCAL/MOL
REMARK 923 INTER-LIGAND FREE ENERGY PREDICTED BY IDOCK:   -3.09 KCAL/MOL
REMARK 924 INTRA-LIGAND FREE ENERGY PREDICTED BY IDOCK:   -0.42 KCAL/MOL
REMARK 927      BINDING AFFINITY PREDICTED BY RF-SCORE:    0.00 PKD
ROOT
HETATM    1  C   UNL     1      -5.943  11.469  68.957  1.00  0.00    -0.052 C  
HETATM    2  N   UNL     1      -7.078  10.587  68.739  1.00  0.00    -0.068 N  
HETATM    3  C   UNL     1      -6.871   9.184  68.557  1.00  0.00    -0.063 A  
HETATM    4  C   UNL     1      -7.809   8.204  68.958  1.00  0.00    -0.108 A  
HETATM    5  C   UNL     1      -7.587   6.843  68.681  1.00  0.00    -0.105 A  
HETATM    6  C   UNL     1      -9.015   8.557  69.763  1.00  0.00    -0.145 C  
HETATM    7  C   UNL     1      -6.396   6.443  68.084  1.00  0.00    -0.040 A  
HETATM    8  N   UNL     1      -9.833   9.499  69.426  1.00  0.00    -0.177 NA 
HETATM    9  H   UNL     1     -10.454  11.615  67.087  1.00  0.00     0.000 HD 
HETATM   10  O   UNL     1      -8.479  12.423  68.808  1.00  0.00    -0.023 OA 
HETATM   11  C   UNL     1      -5.440   7.385  67.727  1.00  0.00    -0.026 A  
HETATM   12  C   UNL     1      -9.537  10.301  68.252  1.00  0.00    -0.142 C  
HETATM   13  H   UNL     1     -10.674   9.677  69.975  1.00  0.00     0.000 HD 
HETATM   14 CL   UNL     1      -6.089   4.773  67.821  1.00  0.00    -0.027 Cl 
HETATM   15  O   UNL     1     -10.648  11.091  67.854  1.00  0.00    -0.184 OA 
HETATM   16  C   UNL     1      -8.333  11.208  68.636  1.00  0.00    -0.154 C  
HETATM   17  C   UNL     1      -5.681   8.744  67.952  1.00  0.00    -0.035 A  
ENDROOT
BRANCH   6  18
HETATM   18  C   UNL     1      -9.349   7.809  71.031  1.00  0.00    -0.160 A  
HETATM   19  C   UNL     1      -9.711   6.526  73.518  1.00  0.00    -0.197 A  
HETATM   20  C   UNL     1      -8.871   8.380  72.229  1.00  0.00    -0.289 A  
HETATM   21  C   UNL     1      -9.041   7.741  73.459  1.00  0.00    -0.342 A  
HETATM   22  C   UNL     1     -10.198   5.948  72.347  1.00  0.00    -0.217 A  
HETATM   23  C   UNL     1     -10.004   6.568  71.103  1.00  0.00    -0.182 A  
HETATM   24 CL   UNL     1     -10.527   5.656  69.729  1.00  0.00    -0.350 Cl 
ENDBRANCH   6  18
TORSDOF 1
ENDMDL
MODEL      150
REMARK 921   NORMALIZED FREE ENERGY PREDICTED BY IDOCK:   -2.66 KCAL/MOL
REMARK 922        TOTAL FREE ENERGY PREDICTED BY IDOCK:   -3.46 KCAL/MOL
REMARK 923 INTER-LIGAND FREE ENERGY PREDICTED BY IDOCK:   -2.80 KCAL/MOL
REMARK 924 INTRA-LIGAND FREE ENERGY PREDICTED BY IDOCK:   -0.66 KCAL/MOL
REMARK 927      BINDING AFFINITY PREDICTED BY RF-SCORE:    0.00 PKD
ROOT
HETATM    1  C   UNL     1      -6.016  17.058  66.298  1.00  0.00     0.081 C  
HETATM    2  N   UNL     1      -6.580  16.956  67.634  1.00  0.00    -0.136 N  
HETATM    3  C   UNL     1      -7.597  17.869  68.054  1.00  0.00    -0.238 A  
HETATM    4  C   UNL     1      -8.611  17.526  68.979  1.00  0.00    -0.030 A  
HETATM    5  C   UNL     1      -9.538  18.490  69.416  1.00  0.00     0.142 A  
HETATM    6  C   UNL     1      -8.798  16.124  69.453  1.00  0.00    -0.111 C  
HETATM    7  C   UNL     1      -9.513  19.771  68.874  1.00  0.00    -0.238 A  
HETATM    8  N   UNL     1      -7.833  15.411  69.934  1.00  0.00    -0.167 NA 
HETATM    9  H   UNL     1      -4.731  15.557  70.766  1.00  0.00     0.000 HD 
HETATM   10  O   UNL     1      -5.136  15.208  68.077  1.00  0.00    -0.111 OA 
HETATM   11  C   UNL     1      -8.556  20.114  67.928  1.00  0.00    -0.267 A  
HETATM   12  C   UNL     1      -6.491  15.966  69.953  1.00  0.00    -0.113 C  
HETATM   13  H   UNL     1      -8.011  14.474  70.295  1.00  0.00     0.000 HD 
HETATM   14 CL   UNL     1     -10.697  20.924  69.348  1.00  0.00     0.492 Cl 
HETATM   15  O   UNL     1      -5.609  15.194  70.754  1.00  0.00    -0.138 OA 
HETATM   16  C   UNL     1      -6.007  15.989  68.475  1.00  0.00    -0.105 C  
HETATM   17  C   UNL     1      -7.600  19.174  67.531  1.00  0.00    -0.260 A  
ENDROOT
BRANCH   6  18
HETATM   18  C   UNL     1     -10.152  15.460  69.402  1.00  0.00    -0.269 A  
HETATM   19  C   UNL     1     -12.603  14.069  69.566  1.00  0.00     0.007 A  
HETATM   20  C   UNL     1     -10.708  15.093  70.646  1.00  0.00    -0.160 A  
HETATM   21  C   UNL     1     -11.915  14.396  70.727  1.00  0.00    -0.391 A  
HETATM   22  C   UNL     1     -12.075  14.428  68.326  1.00  0.00    -0.260 A  
HETATM   23  C   UNL     1     -10.846  15.101  68.234  1.00  0.00    -0.262 A  
HETATM   24 CL   UNL     1     -10.250  15.339  66.628  1.00  0.00    -0.265 Cl 
ENDBRANCH   6  18
TORSDOF 1
ENDMDL
MODEL      151
REMARK 921   NORMALIZED FREE ENERGY PREDICTED BY IDOCK:   -2.57 KCAL/MOL
REMARK 922        TOTAL FREE ENERGY PREDICTED BY IDOCK:   -3.37 KCAL/MOL
REMARK 923 INTER-LIGAND FREE ENERGY PREDICTED BY IDOCK:   -2.69 KCAL/MOL
REMARK 924 INTRA-LIGAND FREE ENERGY PREDICTED BY IDOCK:   -0.67 KCAL/MOL
REMARK 927      BINDING AFFINITY PREDICTED BY RF-SCORE:    0.00 PKD
ROOT
HETATM    1  C   UNL     1      -7.223  10.936  69.139  1.00  0.00    -0.118 C  
HETATM    2  N   UNL     1      -7.315   9.962  70.215  1.00  0.00    -0.156 N  
HETATM    3  C   UNL     1      -8.528   9.236  70.423  1.00  0.00    -0.206 A  
HETATM    4  C   UNL     1      -8.564   7.920  70.942  1.00  0.00    -0.129 A  
HETATM    5  C   UNL     1      -9.791   7.285  71.201  1.00  0.00    -0.182 A  
HETATM    6  C   UNL     1      -7.318   7.125  71.148  1.00  0.00    -0.075 C  
HETATM    7  C   UNL     1     -10.984   7.919  70.866  1.00  0.00    -0.243 A  
HETATM    8  N   UNL     1      -6.297   7.576  71.801  1.00  0.00    -0.039 NA 
HETATM    9  H   UNL     1      -5.297  10.082  73.547  1.00  0.00     0.000 HD 
HETATM   10  O   UNL     1      -5.156  10.498  70.841  1.00  0.00    -0.063 OA 
HETATM   11  C   UNL     1     -10.970   9.191  70.309  1.00  0.00    -0.279 A  
HETATM   12  C   UNL     1      -6.327   8.939  72.299  1.00  0.00    -0.005 C  
HETATM   13  H   UNL     1      -5.484   6.983  71.964  1.00  0.00     0.000 HD 
HETATM   14 CL   UNL     1     -12.481   7.109  71.105  1.00  0.00    -0.406 Cl 
HETATM   15  O   UNL     1      -5.277   9.190  73.221  1.00  0.00    -0.085 OA 
HETATM   16  C   UNL     1      -6.194   9.862  71.055  1.00  0.00    -0.032 C  
HETATM   17  C   UNL     1      -9.752   9.847  70.100  1.00  0.00    -0.255 A  
ENDROOT
BRANCH   6  18
HETATM   18  C   UNL     1      -7.191   5.724  70.600  1.00  0.00    -0.082 A  
HETATM   19  C   UNL     1      -7.081   3.213  69.317  1.00  0.00    -0.045 A  
HETATM   20  C   UNL     1      -7.029   5.620  69.203  1.00  0.00    -0.063 A  
HETATM   21  C   UNL     1      -6.985   4.377  68.566  1.00  0.00    -0.052 A  
HETATM   22  C   UNL     1      -7.235   3.294  70.700  1.00  0.00    -0.033 A  
HETATM   23  C   UNL     1      -7.312   4.539  71.345  1.00  0.00    -0.059 A  
HETATM   24 CL   UNL     1      -7.657   4.476  73.039  1.00  0.00    -0.085 Cl 
ENDBRANCH   6  18
TORSDOF 1
ENDMDL
MODEL      152
REMARK 921   NORMALIZED FREE ENERGY PREDICTED BY IDOCK:   -2.53 KCAL/MOL
REMARK 922        TOTAL FREE ENERGY PREDICTED BY IDOCK:   -3.33 KCAL/MOL
REMARK 923 INTER-LIGAND FREE ENERGY PREDICTED BY IDOCK:   -3.17 KCAL/MOL
REMARK 924 INTRA-LIGAND FREE ENERGY PREDICTED BY IDOCK:   -0.16 KCAL/MOL
REMARK 927      BINDING AFFINITY PREDICTED BY RF-SCORE:    0.00 PKD
ROOT
HETATM    1  C   UNL     1      -5.138  14.909  67.266  1.00  0.00     0.564 C  
HETATM    2  N   UNL     1      -6.422  14.483  67.798  1.00  0.00    -0.165 N  
HETATM    3  C   UNL     1      -7.504  15.411  67.890  1.00  0.00    -0.140 A  
HETATM    4  C   UNL     1      -8.862  15.033  67.773  1.00  0.00    -0.172 A  
HETATM    5  C   UNL     1      -9.888  15.978  67.952  1.00  0.00    -0.226 A  
HETATM    6  C   UNL     1      -9.258  13.652  67.367  1.00  0.00    -0.222 C  
HETATM    7  C   UNL     1      -9.569  17.315  68.162  1.00  0.00    -0.283 A  
HETATM    8  N   UNL     1      -8.798  12.592  67.946  1.00  0.00    -0.176 NA 
HETATM    9  H   UNL     1      -6.953  11.625  70.393  1.00  0.00     0.000 HD 
HETATM   10  O   UNL     1      -5.532  12.384  68.175  1.00  0.00    -0.054 OA 
HETATM   11  C   UNL     1      -8.241  17.717  68.232  1.00  0.00    -0.285 A  
HETATM   12  C   UNL     1      -7.800  12.737  68.989  1.00  0.00     0.257 C  
HETATM   13  H   UNL     1      -9.132  11.667  67.674  1.00  0.00     0.000 HD 
HETATM   14 CL   UNL     1     -10.822  18.483  68.299  1.00  0.00    -0.089 Cl 
HETATM   15  O   UNL     1      -7.606  11.529  69.711  1.00  0.00     0.268 OA 
HETATM   16  C   UNL     1      -6.484  13.165  68.279  1.00  0.00    -0.096 C  
HETATM   17  C   UNL     1      -7.219  16.771  68.108  1.00  0.00    -0.166 A  
ENDROOT
BRANCH   6  18
HETATM   18  C   UNL     1     -10.242  13.424  66.246  1.00  0.00    -0.298 A  
HETATM   19  C   UNL     1     -12.065  13.301  64.095  1.00  0.00    -0.494 A  
HETATM   20  C   UNL     1     -10.155  14.315  65.156  1.00  0.00    -0.353 A  
HETATM   21  C   UNL     1     -11.063  14.261  64.096  1.00  0.00     0.064 A  
HETATM   22  C   UNL     1     -12.166  12.405  65.159  1.00  0.00    -0.449 A  
HETATM   23  C   UNL     1     -11.277  12.473  66.244  1.00  0.00    -0.315 A  
HETATM   24 CL   UNL     1     -11.623  11.399  67.555  1.00  0.00    -0.338 Cl 
ENDBRANCH   6  18
TORSDOF 1
ENDMDL
MODEL      153
REMARK 921   NORMALIZED FREE ENERGY PREDICTED BY IDOCK:   -2.34 KCAL/MOL
REMARK 922        TOTAL FREE ENERGY PREDICTED BY IDOCK:   -3.13 KCAL/MOL
REMARK 923 INTER-LIGAND FREE ENERGY PREDICTED BY IDOCK:   -2.47 KCAL/MOL
REMARK 924 INTRA-LIGAND FREE ENERGY PREDICTED BY IDOCK:   -0.66 KCAL/MOL
REMARK 927      BINDING AFFINITY PREDICTED BY RF-SCORE:    0.00 PKD
ROOT
HETATM    1  C   UNL     1      -6.671  18.933  70.140  1.00  0.00     0.293 C  
HETATM    2  N   UNL     1      -7.550  19.120  68.997  1.00  0.00    -0.334 N  
HETATM    3  C   UNL     1      -7.053  18.931  67.671  1.00  0.00    -0.215 A  
HETATM    4  C   UNL     1      -7.856  18.471  66.601  1.00  0.00    -0.270 A  
HETATM    5  C   UNL     1      -7.332  18.380  65.299  1.00  0.00     0.556 A  
HETATM    6  C   UNL     1      -9.248  17.981  66.821  1.00  0.00    -0.280 C  
HETATM    7  C   UNL     1      -5.989  18.662  65.072  1.00  0.00    -0.251 A  
HETATM    8  N   UNL     1     -10.137  18.660  67.467  1.00  0.00    -0.342 NA 
HETATM    9  H   UNL     1     -10.634  21.500  68.888  1.00  0.00     0.000 HD 
HETATM   10  O   UNL     1      -9.250  19.717  70.444  1.00  0.00     0.855 OA 
HETATM   11  C   UNL     1      -5.170  19.068  66.118  1.00  0.00    -0.171 A  
HETATM   12  C   UNL     1      -9.755  19.924  68.071  1.00  0.00    -0.393 C  
HETATM   13  H   UNL     1     -11.093  18.314  67.553  1.00  0.00     0.000 HD 
HETATM   14 CL   UNL     1      -5.328  18.471  63.496  1.00  0.00     0.008 Cl 
HETATM   15  O   UNL     1     -10.885  20.674  68.494  1.00  0.00     0.225 OA 
HETATM   16  C   UNL     1      -8.848  19.572  69.284  1.00  0.00     0.041 C  
HETATM   17  C   UNL     1      -5.701  19.211  67.403  1.00  0.00    -0.165 A  
ENDROOT
BRANCH   6  18
HETATM   18  C   UNL     1      -9.697  16.646  66.278  1.00  0.00    -0.327 A  
HETATM   19  C   UNL     1     -10.813  14.280  65.218  1.00  0.00    -0.363 A  
HETATM   20  C   UNL     1     -10.709  16.686  65.297  1.00  0.00    -0.219 A  
HETATM   21  C   UNL     1     -11.269  15.516  64.779  1.00  0.00    -0.399 A  
HETATM   22  C   UNL     1      -9.808  14.217  66.183  1.00  0.00    -0.335 A  
HETATM   23  C   UNL     1      -9.262  15.388  66.732  1.00  0.00    -0.249 A  
HETATM   24 CL   UNL     1      -8.139  15.148  68.025  1.00  0.00    -0.130 Cl 
ENDBRANCH   6  18
TORSDOF 1
ENDMDL
MODEL      154
REMARK 921   NORMALIZED FREE ENERGY PREDICTED BY IDOCK:   -1.99 KCAL/MOL
REMARK 922        TOTAL FREE ENERGY PREDICTED BY IDOCK:   -2.76 KCAL/MOL
REMARK 923 INTER-LIGAND FREE ENERGY PREDICTED BY IDOCK:   -2.99 KCAL/MOL
REMARK 924 INTRA-LIGAND FREE ENERGY PREDICTED BY IDOCK:    0.23 KCAL/MOL
REMARK 927      BINDING AFFINITY PREDICTED BY RF-SCORE:    0.00 PKD
ROOT
HETATM    1  C   UNL     1     -10.364  17.840  68.829  1.00  0.00    -0.332 C  
HETATM    2  N   UNL     1     -10.998  16.541  68.679  1.00  0.00    -0.344 N  
HETATM    3  C   UNL     1     -11.130  15.952  67.384  1.00  0.00    -0.207 A  
HETATM    4  C   UNL     1     -11.120  14.555  67.163  1.00  0.00    -0.325 A  
HETATM    5  C   UNL     1     -11.334  14.030  65.875  1.00  0.00    -0.317 A  
HETATM    6  C   UNL     1     -10.794  13.592  68.255  1.00  0.00    -0.259 C  
HETATM    7  C   UNL     1     -11.472  14.891  64.791  1.00  0.00    -0.410 A  
HETATM    8  N   UNL     1     -11.379  13.613  69.408  1.00  0.00    -0.347 NA 
HETATM    9  H   UNL     1     -13.728  15.076  71.043  1.00  0.00     0.000 HD 
HETATM   10  O   UNL     1     -11.391  16.506  70.956  1.00  0.00    -0.307 OA 
HETATM   11  C   UNL     1     -11.436  16.267  64.978  1.00  0.00     0.060 A  
HETATM   12  C   UNL     1     -12.345  14.660  69.686  1.00  0.00    -0.230 C  
HETATM   13  H   UNL     1     -11.165  12.906  70.111  1.00  0.00     0.000 HD 
HETATM   14 CL   UNL     1     -11.651  14.250  63.207  1.00  0.00     0.964 Cl 
HETATM   15  O   UNL     1     -13.096  14.391  70.861  1.00  0.00    -0.354 OA 
HETATM   16  C   UNL     1     -11.531  15.975  69.849  1.00  0.00    -0.326 C  
HETATM   17  C   UNL     1     -11.277  16.792  66.265  1.00  0.00     0.510 A  
ENDROOT
BRANCH   6  18
HETATM   18  C   UNL     1      -9.752  12.518  68.059  1.00  0.00    -0.215 A  
HETATM   19  C   UNL     1      -7.591  10.728  67.754  1.00  0.00    -0.095 A  
HETATM   20  C   UNL     1      -8.558  12.674  68.795  1.00  0.00     0.174 A  
HETATM   21  C   UNL     1      -7.485  11.794  68.637  1.00  0.00    -0.120 A  
HETATM   22  C   UNL     1      -8.765  10.551  67.022  1.00  0.00    -0.132 A  
HETATM   23  C   UNL     1      -9.837  11.449  67.151  1.00  0.00    -0.190 A  
HETATM   24 CL   UNL     1     -11.158  11.187  66.067  1.00  0.00    -0.188 Cl 
ENDBRANCH   6  18
TORSDOF 1
ENDMDL
MODEL      155
REMARK 921   NORMALIZED FREE ENERGY PREDICTED BY IDOCK:   -1.62 KCAL/MOL
REMARK 922        TOTAL FREE ENERGY PREDICTED BY IDOCK:   -2.37 KCAL/MOL
REMARK 923 INTER-LIGAND FREE ENERGY PREDICTED BY IDOCK:   -2.10 KCAL/MOL
REMARK 924 INTRA-LIGAND FREE ENERGY PREDICTED BY IDOCK:   -0.27 KCAL/MOL
REMARK 927      BINDING AFFINITY PREDICTED BY RF-SCORE:    0.00 PKD
ROOT
HETATM    1  C   UNL     1      -9.649   3.416  73.324  1.00  0.00    -0.109 C  
HETATM    2  N   UNL     1      -8.905   4.108  72.284  1.00  0.00    -0.106 N  
HETATM    3  C   UNL     1      -9.097   3.759  70.912  1.00  0.00    -0.111 A  
HETATM    4  C   UNL     1      -8.966   4.685  69.851  1.00  0.00    -0.144 A  
HETATM    5  C   UNL     1      -9.088   4.267  68.513  1.00  0.00    -0.175 A  
HETATM    6  C   UNL     1      -8.785   6.145  70.103  1.00  0.00    -0.141 C  
HETATM    7  C   UNL     1      -9.426   2.947  68.229  1.00  0.00    -0.155 A  
HETATM    8  N   UNL     1      -7.880   6.613  70.898  1.00  0.00    -0.104 NA 
HETATM    9  H   UNL     1      -5.386   5.724  72.720  1.00  0.00     0.000 HD 
HETATM   10  O   UNL     1      -7.820   5.331  73.917  1.00  0.00    -0.100 OA 
HETATM   11  C   UNL     1      -9.609   2.032  69.258  1.00  0.00    -0.054 A  
HETATM   12  C   UNL     1      -7.044   5.684  71.637  1.00  0.00    -0.080 C  
HETATM   13  H   UNL     1      -7.755   7.620  71.005  1.00  0.00     0.000 HD 
HETATM   14 CL   UNL     1      -9.657   2.455  66.598  1.00  0.00     0.161 Cl 
HETATM   15  O   UNL     1      -5.933   6.332  72.238  1.00  0.00    -0.036 OA 
HETATM   16  C   UNL     1      -7.955   5.045  72.723  1.00  0.00    -0.101 C  
HETATM   17  C   UNL     1      -9.435   2.433  70.586  1.00  0.00    -0.192 A  
ENDROOT
BRANCH   6  18
HETATM   18  C   UNL     1      -9.663   7.166  69.421  1.00  0.00    -0.160 A  
HETATM   19  C   UNL     1     -11.056   9.147  67.972  1.00  0.00     0.110 A  
HETATM   20  C   UNL     1      -9.345   7.454  68.077  1.00  0.00    -0.136 A  
HETATM   21  C   UNL     1     -10.027   8.441  67.362  1.00  0.00    -0.274 A  
HETATM   22  C   UNL     1     -11.390   8.874  69.298  1.00  0.00     0.325 A  
HETATM   23  C   UNL     1     -10.689   7.906  70.033  1.00  0.00    -0.244 A  
HETATM   24 CL   UNL     1     -11.116   7.791  71.705  1.00  0.00    -0.270 Cl 
ENDBRANCH   6  18
TORSDOF 1
ENDMDL
MODEL      156
REMARK 921   NORMALIZED FREE ENERGY PREDICTED BY IDOCK:   -0.99 KCAL/MOL
REMARK 922        TOTAL FREE ENERGY PREDICTED BY IDOCK:   -1.70 KCAL/MOL
REMARK 923 INTER-LIGAND FREE ENERGY PREDICTED BY IDOCK:   -3.33 KCAL/MOL
REMARK 924 INTRA-LIGAND FREE ENERGY PREDICTED BY IDOCK:    1.63 KCAL/MOL
REMARK 927      BINDING AFFINITY PREDICTED BY RF-SCORE:    0.00 PKD
ROOT
HETATM    1  C   UNL     1      -6.495  17.741  68.972  1.00  0.00    -0.233 C  
HETATM    2  N   UNL     1      -7.925  17.830  68.726  1.00  0.00    -0.271 N  
HETATM    3  C   UNL     1      -8.569  16.874  67.881  1.00  0.00    -0.208 A  
HETATM    4  C   UNL     1      -9.912  16.467  68.055  1.00  0.00    -0.242 A  
HETATM    5  C   UNL     1     -10.517  15.582  67.144  1.00  0.00    -0.286 A  
HETATM    6  C   UNL     1     -10.707  16.878  69.249  1.00  0.00    -0.288 C  
HETATM    7  C   UNL     1      -9.767  15.034  66.108  1.00  0.00    -0.306 A  
HETATM    8  N   UNL     1     -10.815  18.109  69.630  1.00  0.00     0.398 NA 
HETATM    9  H   UNL     1     -10.027  21.111  68.794  1.00  0.00     0.000 HD 
HETATM   10  O   UNL     1      -7.996  19.740  70.024  1.00  0.00     0.334 OA 
HETATM   11  C   UNL     1      -8.432  15.383  65.948  1.00  0.00     0.692 A  
HETATM   12  C   UNL     1     -10.077  19.134  68.914  1.00  0.00    -0.354 C  
HETATM   13  H   UNL     1     -11.410  18.356  70.421  1.00  0.00     0.000 HD 
HETATM   14 CL   UNL     1     -10.483  13.890  65.044  1.00  0.00    -0.403 Cl 
HETATM   15  O   UNL     1     -10.510  20.441  69.262  1.00  0.00    -0.112 OA 
HETATM   16  C   UNL     1      -8.581  18.937  69.289  1.00  0.00     0.117 C  
HETATM   17  C   UNL     1      -7.842  16.303  66.821  1.00  0.00    -0.300 A  
ENDROOT
BRANCH   6  18
HETATM   18  C   UNL     1     -11.448  15.859  70.079  1.00  0.00    -0.354 A  
HETATM   19  C   UNL     1     -12.599  13.974  71.837  1.00  0.00    -0.347 A  
HETATM   20  C   UNL     1     -11.252  15.939  71.474  1.00  0.00    -0.257 A  
HETATM   21  C   UNL     1     -11.813  15.001  72.343  1.00  0.00    -0.432 A  
HETATM   22  C   UNL     1     -12.810  13.880  70.462  1.00  0.00    -0.250 A  
HETATM   23  C   UNL     1     -12.224  14.800  69.578  1.00  0.00    -0.243 A  
HETATM   24 CL   UNL     1     -12.451  14.462  67.897  1.00  0.00     0.016 Cl 
ENDBRANCH   6  18
TORSDOF 1
ENDMDL
MODEL      157
REMARK 921   NORMALIZED FREE ENERGY PREDICTED BY IDOCK:   -0.86 KCAL/MOL
REMARK 922        TOTAL FREE ENERGY PREDICTED BY IDOCK:   -1.56 KCAL/MOL
REMARK 923 INTER-LIGAND FREE ENERGY PREDICTED BY IDOCK:   -2.31 KCAL/MOL
REMARK 924 INTRA-LIGAND FREE ENERGY PREDICTED BY IDOCK:    0.75 KCAL/MOL
REMARK 927      BINDING AFFINITY PREDICTED BY RF-SCORE:    0.00 PKD
ROOT
HETATM    1  C   UNL     1     -10.897  18.491  69.113  1.00  0.00     1.053 C  
HETATM    2  N   UNL     1     -10.482  17.551  68.084  1.00  0.00    -0.375 N  
HETATM    3  C   UNL     1      -9.280  17.779  67.346  1.00  0.00    -0.248 A  
HETATM    4  C   UNL     1      -8.475  16.735  66.834  1.00  0.00    -0.242 A  
HETATM    5  C   UNL     1      -7.345  17.020  66.047  1.00  0.00    -0.087 A  
HETATM    6  C   UNL     1      -8.733  15.306  67.179  1.00  0.00    -0.211 C  
HETATM    7  C   UNL     1      -6.963  18.341  65.837  1.00  0.00    -0.277 A  
HETATM    8  N   UNL     1      -9.894  14.752  67.053  1.00  0.00    -0.235 NA 
HETATM    9  H   UNL     1     -12.875  15.303  65.984  1.00  0.00     0.000 HD 
HETATM   10  O   UNL     1     -12.395  16.319  68.485  1.00  0.00     0.345 OA 
HETATM   11  C   UNL     1      -7.711  19.381  66.372  1.00  0.00    -0.297 A  
HETATM   12  C   UNL     1     -11.018  15.564  66.624  1.00  0.00    -0.248 C  
HETATM   13  H   UNL     1     -10.019  13.759  67.251  1.00  0.00     0.000 HD 
HETATM   14 CL   UNL     1      -5.535  18.687  64.944  1.00  0.00    -0.235 Cl 
HETATM   15  O   UNL     1     -12.140  14.772  66.265  1.00  0.00    -0.249 OA 
HETATM   16  C   UNL     1     -11.368  16.493  67.822  1.00  0.00     0.005 C  
HETATM   17  C   UNL     1      -8.865  19.102  67.111  1.00  0.00    -0.314 A  
ENDROOT
BRANCH   6  18
HETATM   18  C   UNL     1      -7.626  14.418  67.694  1.00  0.00    -0.195 A  
HETATM   19  C   UNL     1      -5.383  12.869  68.424  1.00  0.00    -0.067 A  
HETATM   20  C   UNL     1      -6.311  14.876  67.466  1.00  0.00    -0.071 A  
HETATM   21  C   UNL     1      -5.201  14.105  67.818  1.00  0.00     0.003 A  
HETATM   22  C   UNL     1      -6.674  12.401  68.665  1.00  0.00    -0.083 A  
HETATM   23  C   UNL     1      -7.796  13.155  68.285  1.00  0.00    -0.143 A  
HETATM   24 CL   UNL     1      -9.323  12.375  68.508  1.00  0.00    -0.141 Cl 
ENDBRANCH   6  18
TORSDOF 1
ENDMDL
MODEL      158
REMARK 921   NORMALIZED FREE ENERGY PREDICTED BY IDOCK:    0.42 KCAL/MOL
REMARK 922        TOTAL FREE ENERGY PREDICTED BY IDOCK:   -0.21 KCAL/MOL
REMARK 923 INTER-LIGAND FREE ENERGY PREDICTED BY IDOCK:   -0.94 KCAL/MOL
REMARK 924 INTRA-LIGAND FREE ENERGY PREDICTED BY IDOCK:    0.73 KCAL/MOL
REMARK 927      BINDING AFFINITY PREDICTED BY RF-SCORE:    0.00 PKD
ROOT
HETATM    1  C   UNL     1     -11.394  16.985  67.585  1.00  0.00     0.257 C  
HETATM    2  N   UNL     1     -10.746  16.002  68.438  1.00  0.00    -0.275 N  
HETATM    3  C   UNL     1     -11.137  15.871  69.807  1.00  0.00    -0.324 A  
HETATM    4  C   UNL     1     -11.081  14.648  70.515  1.00  0.00    -0.062 A  
HETATM    5  C   UNL     1     -11.404  14.596  71.883  1.00  0.00     0.274 A  
HETATM    6  C   UNL     1     -10.772  13.359  69.829  1.00  0.00     0.502 C  
HETATM    7  C   UNL     1     -11.863  15.738  72.530  1.00  0.00    -0.499 A  
HETATM    8  N   UNL     1      -9.743  13.200  69.064  1.00  0.00    -0.378 NA 
HETATM    9  H   UNL     1      -7.099  14.695  68.011  1.00  0.00     0.000 HD 
HETATM   10  O   UNL     1      -9.380  15.414  66.670  1.00  0.00    -0.227 OA 
HETATM   11  C   UNL     1     -11.972  16.939  71.841  1.00  0.00     0.716 A  
HETATM   12  C   UNL     1      -8.882  14.339  68.797  1.00  0.00    -0.094 C  
HETATM   13  H   UNL     1      -9.538  12.289  68.653  1.00  0.00     0.000 HD 
HETATM   14 CL   UNL     1     -12.335  15.655  74.181  1.00  0.00    -0.742 Cl 
HETATM   15  O   UNL     1      -7.662  13.951  68.185  1.00  0.00    -0.117 OA 
HETATM   16  C   UNL     1      -9.687  15.284  67.860  1.00  0.00    -0.211 C  
HETATM   17  C   UNL     1     -11.602  17.006  70.494  1.00  0.00     1.190 A  
ENDROOT
BRANCH   6  18
HETATM   18  C   UNL     1     -11.660  12.151  70.007  1.00  0.00    -0.251 A  
HETATM   19  C   UNL     1     -13.286   9.935  70.645  1.00  0.00    -0.071 A  
HETATM   20  C   UNL     1     -12.442  12.127  71.181  1.00  0.00    -0.337 A  
HETATM   21  C   UNL     1     -13.239  11.027  71.502  1.00  0.00    -0.400 A  
HETATM   22  C   UNL     1     -12.526   9.941  69.476  1.00  0.00     0.713 A  
HETATM   23  C   UNL     1     -11.698  11.030  69.161  1.00  0.00    -0.333 A  
HETATM   24 CL   UNL     1     -10.702  10.823  67.762  1.00  0.00    -0.268 Cl 
ENDBRANCH   6  18
TORSDOF 1
ENDMDL
MODEL      159
REMARK 921   NORMALIZED FREE ENERGY PREDICTED BY IDOCK:    1.71 KCAL/MOL
REMARK 922        TOTAL FREE ENERGY PREDICTED BY IDOCK:    1.16 KCAL/MOL
REMARK 923 INTER-LIGAND FREE ENERGY PREDICTED BY IDOCK:    1.79 KCAL/MOL
REMARK 924 INTRA-LIGAND FREE ENERGY PREDICTED BY IDOCK:   -0.64 KCAL/MOL
REMARK 927      BINDING AFFINITY PREDICTED BY RF-SCORE:    0.00 PKD
ROOT
HETATM    1  C   UNL     1     -11.033  14.845  69.739  1.00  0.00    -0.258 C  
HETATM    2  N   UNL     1     -10.679  14.217  68.477  1.00  0.00    -0.248 N  
HETATM    3  C   UNL     1      -9.346  14.321  67.972  1.00  0.00    -0.200 A  
HETATM    4  C   UNL     1      -8.736  13.319  67.182  1.00  0.00    -0.215 A  
HETATM    5  C   UNL     1      -7.450  13.511  66.647  1.00  0.00     1.122 A  
HETATM    6  C   UNL     1      -9.384  11.993  66.962  1.00  0.00    -0.191 C  
HETATM    7  C   UNL     1      -6.733  14.660  66.964  1.00  0.00     0.733 A  
HETATM    8  N   UNL     1     -10.603  11.866  66.549  1.00  0.00    -0.235 NA 
HETATM    9  H   UNL     1     -13.129  13.565  65.517  1.00  0.00     0.000 HD 
HETATM   10  O   UNL     1     -12.871  13.522  68.246  1.00  0.00     0.758 OA 
HETATM   11  C   UNL     1      -7.294  15.635  67.778  1.00  0.00    -0.169 A  
HETATM   12  C   UNL     1     -11.407  13.060  66.356  1.00  0.00    -0.317 C  
HETATM   13  H   UNL     1     -10.994  10.943  66.362  1.00  0.00     0.000 HD 
HETATM   14 CL   UNL     1      -5.129  14.857  66.377  1.00  0.00     2.861 Cl 
HETATM   15  O   UNL     1     -12.603  12.784  65.643  1.00  0.00    -0.596 OA 
HETATM   16  C   UNL     1     -11.731  13.603  67.777  1.00  0.00    -0.362 C  
HETATM   17  C   UNL     1      -8.593  15.471  68.269  1.00  0.00    -0.161 A  
ENDROOT
BRANCH   6  18
HETATM   18  C   UNL     1      -8.630  10.708  67.207  1.00  0.00    -0.126 A  
HETATM   19  C   UNL     1      -7.155   8.419  67.946  1.00  0.00    -0.083 A  
HETATM   20  C   UNL     1      -8.581  10.266  68.546  1.00  0.00    -0.126 A  
HETATM   21  C   UNL     1      -7.843   9.139  68.914  1.00  0.00    -0.094 A  
HETATM   22  C   UNL     1      -7.195   8.835  66.616  1.00  0.00    -0.081 A  
HETATM   23  C   UNL     1      -7.908   9.985  66.242  1.00  0.00    -0.111 A  
HETATM   24 CL   UNL     1      -7.736  10.459  64.588  1.00  0.00    -0.110 Cl 
ENDBRANCH   6  18
TORSDOF 1
ENDMDL
MODEL      160
REMARK 921   NORMALIZED FREE ENERGY PREDICTED BY IDOCK:    1.78 KCAL/MOL
REMARK 922        TOTAL FREE ENERGY PREDICTED BY IDOCK:    1.23 KCAL/MOL
REMARK 923 INTER-LIGAND FREE ENERGY PREDICTED BY IDOCK:    1.11 KCAL/MOL
REMARK 924 INTRA-LIGAND FREE ENERGY PREDICTED BY IDOCK:    0.12 KCAL/MOL
REMARK 927      BINDING AFFINITY PREDICTED BY RF-SCORE:    0.00 PKD
ROOT
HETATM    1  C   UNL     1     -13.404  12.378  65.571  1.00  0.00     2.423 C  
HETATM    2  N   UNL     1     -11.965  12.369  65.776  1.00  0.00    -0.417 N  
HETATM    3  C   UNL     1     -11.405  11.680  66.896  1.00  0.00    -0.295 A  
HETATM    4  C   UNL     1     -10.126  11.077  66.874  1.00  0.00    -0.248 A  
HETATM    5  C   UNL     1      -9.593  10.481  68.032  1.00  0.00    -0.159 A  
HETATM    6  C   UNL     1      -9.334  10.966  65.615  1.00  0.00    -0.207 C  
HETATM    7  C   UNL     1     -10.363  10.407  69.189  1.00  0.00    -0.222 A  
HETATM    8  N   UNL     1      -9.098  11.975  64.842  1.00  0.00    -0.267 NA 
HETATM    9  H   UNL     1      -9.500  15.156  64.616  1.00  0.00     0.000 HD 
HETATM   10  O   UNL     1     -11.721  13.712  63.912  1.00  0.00    -0.389 OA 
HETATM   11  C   UNL     1     -11.641  10.949  69.217  1.00  0.00    -0.388 A  
HETATM   12  C   UNL     1      -9.685  13.262  65.168  1.00  0.00     0.065 C  
HETATM   13  H   UNL     1      -8.509  11.869  64.016  1.00  0.00     0.000 HD 
HETATM   14 CL   UNL     1      -9.744   9.606  70.578  1.00  0.00    -0.316 Cl 
HETATM   15  O   UNL     1      -9.117  14.314  64.402  1.00  0.00     2.110 OA 
HETATM   16  C   UNL     1     -11.207  13.135  64.876  1.00  0.00    -0.310 C  
HETATM   17  C   UNL     1     -12.152  11.589  68.084  1.00  0.00    -0.032 A  
ENDROOT
BRANCH   6  18
HETATM   18  C   UNL     1      -8.749   9.644  65.178  1.00  0.00    -0.192 A  
HETATM   19  C   UNL     1      -7.762   7.058  64.628  1.00  0.00    -0.116 A  
HETATM   20  C   UNL     1      -9.405   8.491  65.656  1.00  0.00    -0.122 A  
HETATM   21  C   UNL     1      -8.912   7.211  65.393  1.00  0.00     0.174 A  
HETATM   22  C   UNL     1      -7.102   8.185  64.140  1.00  0.00    -0.082 A  
HETATM   23  C   UNL     1      -7.573   9.476  64.427  1.00  0.00    -0.122 A  
HETATM   24 CL   UNL     1      -6.563  10.771  63.884  1.00  0.00     0.218 Cl 
ENDBRANCH   6  18
TORSDOF 1
ENDMDL
MODEL      161
REMARK 921   NORMALIZED FREE ENERGY PREDICTED BY IDOCK:    2.15 KCAL/MOL
REMARK 922        TOTAL FREE ENERGY PREDICTED BY IDOCK:    1.63 KCAL/MOL
REMARK 923 INTER-LIGAND FREE ENERGY PREDICTED BY IDOCK:    2.00 KCAL/MOL
REMARK 924 INTRA-LIGAND FREE ENERGY PREDICTED BY IDOCK:   -0.38 KCAL/MOL
REMARK 927      BINDING AFFINITY PREDICTED BY RF-SCORE:    0.00 PKD
ROOT
HETATM    1  C   UNL     1     -12.525  13.257  69.003  1.00  0.00     0.278 C  
HETATM    2  N   UNL     1     -11.718  13.021  67.817  1.00  0.00    -0.346 N  
HETATM    3  C   UNL     1     -10.724  13.969  67.425  1.00  0.00    -0.283 A  
HETATM    4  C   UNL     1      -9.531  13.609  66.755  1.00  0.00    -0.275 A  
HETATM    5  C   UNL     1      -8.625  14.594  66.323  1.00  0.00     0.261 A  
HETATM    6  C   UNL     1      -9.142  12.181  66.562  1.00  0.00    -0.199 C  
HETATM    7  C   UNL     1      -8.858  15.931  66.629  1.00  0.00    -0.281 A  
HETATM    8  N   UNL     1      -9.938  11.299  66.052  1.00  0.00    -0.222 NA 
HETATM    9  H   UNL     1     -12.835  10.964  64.701  1.00  0.00     0.000 HD 
HETATM   10  O   UNL     1     -12.903  11.073  67.439  1.00  0.00     2.817 OA 
HETATM   11  C   UNL     1      -9.999  16.302  67.330  1.00  0.00    -0.250 A  
HETATM   12  C   UNL     1     -11.296  11.688  65.716  1.00  0.00    -0.182 C  
HETATM   13  H   UNL     1      -9.618  10.345  65.889  1.00  0.00     0.000 HD 
HETATM   14 CL   UNL     1      -7.711  17.127  66.173  1.00  0.00    -0.339 Cl 
HETATM   15  O   UNL     1     -11.947  10.709  64.921  1.00  0.00     1.521 OA 
HETATM   16  C   UNL     1     -12.043  11.878  67.067  1.00  0.00     0.304 C  
HETATM   17  C   UNL     1     -10.928  15.330  67.715  1.00  0.00    -0.312 A  
ENDROOT
BRANCH   6  18
HETATM   18  C   UNL     1      -7.768  11.691  66.950  1.00  0.00    -0.147 A  
HETATM   19  C   UNL     1      -5.175  11.031  67.847  1.00  0.00    -0.039 A  
HETATM   20  C   UNL     1      -7.306  12.090  68.222  1.00  0.00    -0.095 A  
HETATM   21  C   UNL     1      -6.020  11.773  68.662  1.00  0.00    -0.050 A  
HETATM   22  C   UNL     1      -5.614  10.620  66.589  1.00  0.00    -0.066 A  
HETATM   23  C   UNL     1      -6.894  10.962  66.125  1.00  0.00    -0.100 A  
HETATM   24 CL   UNL     1      -7.235  10.514  64.490  1.00  0.00     0.008 Cl 
ENDBRANCH   6  18
TORSDOF 1
ENDMDL
MODEL      162
REMARK 921   NORMALIZED FREE ENERGY PREDICTED BY IDOCK:    3.17 KCAL/MOL
REMARK 922        TOTAL FREE ENERGY PREDICTED BY IDOCK:    2.71 KCAL/MOL
REMARK 923 INTER-LIGAND FREE ENERGY PREDICTED BY IDOCK:    3.33 KCAL/MOL
REMARK 924 INTRA-LIGAND FREE ENERGY PREDICTED BY IDOCK:   -0.62 KCAL/MOL
REMARK 927      BINDING AFFINITY PREDICTED BY RF-SCORE:    0.00 PKD
ROOT
HETATM    1  C   UNL     1     -12.679  12.426  65.002  1.00  0.00    -0.083 C  
HETATM    2  N   UNL     1     -11.669  13.094  65.806  1.00  0.00    -0.355 N  
HETATM    3  C   UNL     1     -11.834  13.200  67.222  1.00  0.00    -0.367 A  
HETATM    4  C   UNL     1     -10.748  13.225  68.128  1.00  0.00    -0.264 A  
HETATM    5  C   UNL     1     -10.967  13.410  69.505  1.00  0.00    -0.006 A  
HETATM    6  C   UNL     1      -9.348  12.966  67.681  1.00  0.00    -0.195 C  
HETATM    7  C   UNL     1     -12.267  13.485  69.995  1.00  0.00    -0.312 A  
HETATM    8  N   UNL     1      -8.801  13.589  66.689  1.00  0.00    -0.440 NA 
HETATM    9  H   UNL     1      -9.320  15.947  64.568  1.00  0.00     0.000 HD 
HETATM   10  O   UNL     1     -10.489  13.566  63.876  1.00  0.00    -0.196 OA 
HETATM   11  C   UNL     1     -13.350  13.413  69.128  1.00  0.00     2.961 A  
HETATM   12  C   UNL     1      -9.599  14.532  65.926  1.00  0.00    -0.247 C  
HETATM   13  H   UNL     1      -7.825  13.421  66.446  1.00  0.00     0.000 HD 
HETATM   14 CL   UNL     1     -12.537  13.629  71.687  1.00  0.00    -0.383 Cl 
HETATM   15  O   UNL     1      -8.799  15.330  65.066  1.00  0.00     1.448 OA 
HETATM   16  C   UNL     1     -10.607  13.683  65.100  1.00  0.00    -0.361 C  
HETATM   17  C   UNL     1     -13.133  13.282  67.752  1.00  0.00     3.001 A  
ENDROOT
BRANCH   6  18
HETATM   18  C   UNL     1      -8.481  11.951  68.387  1.00  0.00    -0.155 A  
HETATM   19  C   UNL     1      -6.618  10.203  69.585  1.00  0.00    -0.069 A  
HETATM   20  C   UNL     1      -7.201  12.397  68.775  1.00  0.00    -0.094 A  
HETATM   21  C   UNL     1      -6.274  11.529  69.359  1.00  0.00    -0.094 A  
HETATM   22  C   UNL     1      -7.881   9.744  69.214  1.00  0.00    -0.105 A  
HETATM   23  C   UNL     1      -8.807  10.600  68.598  1.00  0.00    -0.151 A  
HETATM   24 CL   UNL     1     -10.268   9.849  68.057  1.00  0.00    -0.202 Cl 
ENDBRANCH   6  18
TORSDOF 1
ENDMDL
MODEL      163
REMARK 921   NORMALIZED FREE ENERGY PREDICTED BY IDOCK:    3.70 KCAL/MOL
REMARK 922        TOTAL FREE ENERGY PREDICTED BY IDOCK:    3.27 KCAL/MOL
REMARK 923 INTER-LIGAND FREE ENERGY PREDICTED BY IDOCK:    3.47 KCAL/MOL
REMARK 924 INTRA-LIGAND FREE ENERGY PREDICTED BY IDOCK:   -0.21 KCAL/MOL
REMARK 927      BINDING AFFINITY PREDICTED BY RF-SCORE:    0.00 PKD
ROOT
HETATM    1  C   UNL     1     -10.935  16.450  66.562  1.00  0.00     0.037 C  
HETATM    2  N   UNL     1      -9.648  17.054  66.867  1.00  0.00    -0.248 N  
HETATM    3  C   UNL     1      -9.512  17.919  67.997  1.00  0.00    -0.279 A  
HETATM    4  C   UNL     1      -8.314  18.041  68.739  1.00  0.00    -0.223 A  
HETATM    5  C   UNL     1      -8.213  18.967  69.792  1.00  0.00     0.699 A  
HETATM    6  C   UNL     1      -7.149  17.139  68.500  1.00  0.00    -0.213 C  
HETATM    7  C   UNL     1      -9.327  19.713  70.167  1.00  0.00     0.941 A  
HETATM    8  N   UNL     1      -6.645  16.940  67.326  1.00  0.00    -0.155 NA 
HETATM    9  H   UNL     1      -6.871  17.889  64.264  1.00  0.00     0.000 HD 
HETATM   10  O   UNL     1      -8.763  16.042  64.988  1.00  0.00     1.223 OA 
HETATM   11  C   UNL     1     -10.528  19.573  69.483  1.00  0.00     0.395 A  
HETATM   12  C   UNL     1      -7.275  17.560  66.175  1.00  0.00    -0.308 C  
HETATM   13  H   UNL     1      -5.816  16.356  67.211  1.00  0.00     0.000 HD 
HETATM   14 CL   UNL     1      -9.228  20.785  71.507  1.00  0.00     1.862 Cl 
HETATM   15  O   UNL     1      -6.459  17.483  65.017  1.00  0.00     0.441 OA 
HETATM   16  C   UNL     1      -8.615  16.803  65.950  1.00  0.00    -0.029 C  
HETATM   17  C   UNL     1     -10.615  18.691  68.401  1.00  0.00    -0.132 A  
ENDROOT
BRANCH   6  18
HETATM   18  C   UNL     1      -6.484  16.409  69.641  1.00  0.00    -0.201 A  
HETATM   19  C   UNL     1      -5.495  14.867  71.789  1.00  0.00     0.043 A  
HETATM   20  C   UNL     1      -6.838  15.052  69.797  1.00  0.00    -0.181 A  
HETATM   21  C   UNL     1      -6.357  14.292  70.865  1.00  0.00     0.020 A  
HETATM   22  C   UNL     1      -5.127  16.205  71.650  1.00  0.00     0.074 A  
HETATM   23  C   UNL     1      -5.631  16.986  70.598  1.00  0.00    -0.059 A  
HETATM   24 CL   UNL     1      -5.207  18.662  70.649  1.00  0.00    -0.235 Cl 
ENDBRANCH   6  18
TORSDOF 1
ENDMDL
MODEL      164
REMARK 921   NORMALIZED FREE ENERGY PREDICTED BY IDOCK:    3.75 KCAL/MOL
REMARK 922        TOTAL FREE ENERGY PREDICTED BY IDOCK:    3.32 KCAL/MOL
REMARK 923 INTER-LIGAND FREE ENERGY PREDICTED BY IDOCK:    3.60 KCAL/MOL
REMARK 924 INTRA-LIGAND FREE ENERGY PREDICTED BY IDOCK:   -0.28 KCAL/MOL
REMARK 927      BINDING AFFINITY PREDICTED BY RF-SCORE:    0.00 PKD
ROOT
HETATM    1  C   UNL     1     -11.375  16.747  65.752  1.00  0.00     0.620 C  
HETATM    2  N   UNL     1     -10.704  16.540  67.024  1.00  0.00    -0.247 N  
HETATM    3  C   UNL     1      -9.520  15.743  67.090  1.00  0.00    -0.213 A  
HETATM    4  C   UNL     1      -8.485  15.968  68.028  1.00  0.00    -0.164 A  
HETATM    5  C   UNL     1      -7.379  15.103  68.098  1.00  0.00    -0.117 A  
HETATM    6  C   UNL     1      -8.477  17.171  68.911  1.00  0.00    -0.187 C  
HETATM    7  C   UNL     1      -7.255  14.063  67.182  1.00  0.00     0.245 A  
HETATM    8  N   UNL     1      -9.490  17.518  69.635  1.00  0.00     0.455 NA 
HETATM    9  H   UNL     1     -12.431  16.568  70.518  1.00  0.00     0.000 HD 
HETATM   10  O   UNL     1     -12.356  17.781  68.060  1.00  0.00     2.318 OA 
HETATM   11  C   UNL     1      -8.235  13.854  66.220  1.00  0.00     1.093 A  
HETATM   12  C   UNL     1     -10.718  16.750  69.539  1.00  0.00    -0.273 C  
HETATM   13  H   UNL     1      -9.427  18.318  70.265  1.00  0.00     0.000 HD 
HETATM   14 CL   UNL     1      -5.862  13.056  67.214  1.00  0.00    -0.022 Cl 
HETATM   15  O   UNL     1     -11.628  17.070  70.581  1.00  0.00     0.504 OA 
HETATM   16  C   UNL     1     -11.337  17.088  68.152  1.00  0.00     0.119 C  
HETATM   17  C   UNL     1      -9.362  14.681  66.182  1.00  0.00    -0.265 A  
ENDROOT
BRANCH   6  18
HETATM   18  C   UNL     1      -7.256  18.054  69.011  1.00  0.00    -0.216 A  
HETATM   19  C   UNL     1      -5.131  19.868  69.409  1.00  0.00    -0.208 A  
HETATM   20  C   UNL     1      -7.041  18.670  70.261  1.00  0.00     1.042 A  
HETATM   21  C   UNL     1      -5.995  19.576  70.456  1.00  0.00    -0.234 A  
HETATM   22  C   UNL     1      -5.323  19.265  68.167  1.00  0.00    -0.188 A  
HETATM   23  C   UNL     1      -6.390  18.378  67.953  1.00  0.00    -0.192 A  
HETATM   24 CL   UNL     1      -6.587  17.833  66.323  1.00  0.00    -0.270 Cl 
ENDBRANCH   6  18
TORSDOF 1
ENDMDL
MODEL      165
REMARK 921   NORMALIZED FREE ENERGY PREDICTED BY IDOCK:    4.05 KCAL/MOL
REMARK 922        TOTAL FREE ENERGY PREDICTED BY IDOCK:    3.63 KCAL/MOL
REMARK 923 INTER-LIGAND FREE ENERGY PREDICTED BY IDOCK:    4.30 KCAL/MOL
REMARK 924 INTRA-LIGAND FREE ENERGY PREDICTED BY IDOCK:   -0.67 KCAL/MOL
REMARK 927      BINDING AFFINITY PREDICTED BY RF-SCORE:    0.00 PKD
ROOT
HETATM    1  C   UNL     1     -10.452  18.942  71.873  1.00  0.00     3.594 C  
HETATM    2  N   UNL     1     -10.569  17.782  71.006  1.00  0.00     1.868 N  
HETATM    3  C   UNL     1      -9.976  17.795  69.706  1.00  0.00     0.519 A  
HETATM    4  C   UNL     1      -9.478  16.634  69.069  1.00  0.00    -0.236 A  
HETATM    5  C   UNL     1      -8.977  16.694  67.756  1.00  0.00    -0.211 A  
HETATM    6  C   UNL     1      -9.380  15.329  69.786  1.00  0.00    -0.075 C  
HETATM    7  C   UNL     1      -8.889  17.921  67.105  1.00  0.00    -0.247 A  
HETATM    8  N   UNL     1     -10.372  14.803  70.427  1.00  0.00    -0.380 NA 
HETATM    9  H   UNL     1     -13.497  15.210  71.057  1.00  0.00     0.000 HD 
HETATM   10  O   UNL     1     -11.848  16.740  72.624  1.00  0.00    -0.442 OA 
HETATM   11  C   UNL     1      -9.326  19.081  67.731  1.00  0.00    -0.347 A  
HETATM   12  C   UNL     1     -11.619  15.540  70.518  1.00  0.00    -0.346 C  
HETATM   13  H   UNL     1     -10.279  13.885  70.861  1.00  0.00     0.000 HD 
HETATM   14 CL   UNL     1      -8.200  18.007  65.532  1.00  0.00     0.518 Cl 
HETATM   15  O   UNL     1     -12.681  14.728  70.998  1.00  0.00    -0.305 OA 
HETATM   16  C   UNL     1     -11.356  16.725  71.491  1.00  0.00     0.397 C  
HETATM   17  C   UNL     1      -9.874  19.016  69.016  1.00  0.00    -0.408 A  
ENDROOT
BRANCH   6  18
HETATM   18  C   UNL     1      -8.093  14.539  69.789  1.00  0.00     0.385 A  
HETATM   19  C   UNL     1      -5.542  13.334  69.820  1.00  0.00    -0.106 A  
HETATM   20  C   UNL     1      -7.018  15.112  70.500  1.00  0.00     0.376 A  
HETATM   21  C   UNL     1      -5.753  14.522  70.507  1.00  0.00    -0.159 A  
HETATM   22  C   UNL     1      -6.592  12.747  69.116  1.00  0.00    -0.101 A  
HETATM   23  C   UNL     1      -7.859  13.350  69.077  1.00  0.00     0.187 A  
HETATM   24 CL   UNL     1      -9.013  12.587  68.038  1.00  0.00    -0.186 Cl 
ENDBRANCH   6  18
TORSDOF 1
ENDMDL
MODEL      166
REMARK 921   NORMALIZED FREE ENERGY PREDICTED BY IDOCK:    5.08 KCAL/MOL
REMARK 922        TOTAL FREE ENERGY PREDICTED BY IDOCK:    4.73 KCAL/MOL
REMARK 923 INTER-LIGAND FREE ENERGY PREDICTED BY IDOCK:    5.39 KCAL/MOL
REMARK 924 INTRA-LIGAND FREE ENERGY PREDICTED BY IDOCK:   -0.66 KCAL/MOL
REMARK 927      BINDING AFFINITY PREDICTED BY RF-SCORE:    0.00 PKD
ROOT
HETATM    1  C   UNL     1     -10.454  14.787  69.592  1.00  0.00    -0.111 C  
HETATM    2  N   UNL     1      -9.673  14.522  68.395  1.00  0.00    -0.218 N  
HETATM    3  C   UNL     1      -8.605  13.573  68.431  1.00  0.00    -0.142 A  
HETATM    4  C   UNL     1      -8.224  12.794  67.313  1.00  0.00    -0.181 A  
HETATM    5  C   UNL     1      -7.113  11.933  67.385  1.00  0.00    -0.129 A  
HETATM    6  C   UNL     1      -9.027  12.780  66.056  1.00  0.00     0.259 C  
HETATM    7  C   UNL     1      -6.432  11.780  68.588  1.00  0.00    -0.060 A  
HETATM    8  N   UNL     1      -9.386  13.859  65.441  1.00  0.00    -0.310 NA 
HETATM    9  H   UNL     1      -9.048  17.055  65.500  1.00  0.00     0.000 HD 
HETATM   10  O   UNL     1     -10.917  16.112  67.270  1.00  0.00    -0.283 OA 
HETATM   11  C   UNL     1      -6.821  12.499  69.711  1.00  0.00     0.250 A  
HETATM   12  C   UNL     1      -9.058  15.146  66.029  1.00  0.00    -0.161 C  
HETATM   13  H   UNL     1      -9.891  13.808  64.556  1.00  0.00     0.000 HD 
HETATM   14 CL   UNL     1      -5.127  10.667  68.697  1.00  0.00    -0.041 Cl 
HETATM   15  O   UNL     1      -9.263  16.214  65.116  1.00  0.00     0.013 OA 
HETATM   16  C   UNL     1      -9.980  15.306  67.271  1.00  0.00    -0.226 C  
HETATM   17  C   UNL     1      -7.892  13.395  69.629  1.00  0.00     1.011 A  
ENDROOT
BRANCH   6  18
HETATM   18  C   UNL     1      -9.460  11.480  65.424  1.00  0.00    -0.220 A  
HETATM   19  C   UNL     1     -10.316   8.944  64.529  1.00  0.00     3.749 A  
HETATM   20  C   UNL     1     -10.406  10.725  66.149  1.00  0.00    -0.300 A  
HETATM   21  C   UNL     1     -10.822   9.466  65.712  1.00  0.00     1.326 A  
HETATM   22  C   UNL     1      -9.385   9.676  63.793  1.00  0.00    -0.069 A  
HETATM   23  C   UNL     1      -8.937  10.929  64.241  1.00  0.00    -0.100 A  
HETATM   24 CL   UNL     1      -7.671  11.643  63.304  1.00  0.00     1.339 Cl 
ENDBRANCH   6  18
TORSDOF 1
ENDMDL
MODEL      167
REMARK 921   NORMALIZED FREE ENERGY PREDICTED BY IDOCK:    5.81 KCAL/MOL
REMARK 922        TOTAL FREE ENERGY PREDICTED BY IDOCK:    5.50 KCAL/MOL
REMARK 923 INTER-LIGAND FREE ENERGY PREDICTED BY IDOCK:    2.51 KCAL/MOL
REMARK 924 INTRA-LIGAND FREE ENERGY PREDICTED BY IDOCK:    2.99 KCAL/MOL
REMARK 927      BINDING AFFINITY PREDICTED BY RF-SCORE:    0.00 PKD
ROOT
HETATM    1  C   UNL     1     -10.352  17.947  70.671  1.00  0.00     2.070 C  
HETATM    2  N   UNL     1      -9.713  17.096  69.682  1.00  0.00     0.199 N  
HETATM    3  C   UNL     1     -10.070  15.715  69.586  1.00  0.00    -0.291 A  
HETATM    4  C   UNL     1     -10.034  14.988  68.373  1.00  0.00    -0.225 A  
HETATM    5  C   UNL     1     -10.319  13.611  68.353  1.00  0.00    -0.248 A  
HETATM    6  C   UNL     1      -9.787  15.661  67.064  1.00  0.00    -0.233 C  
HETATM    7  C   UNL     1     -10.723  12.971  69.520  1.00  0.00     0.306 A  
HETATM    8  N   UNL     1      -8.784  16.451  66.859  1.00  0.00    -0.188 NA 
HETATM    9  H   UNL     1      -6.124  17.601  68.248  1.00  0.00     0.000 HD 
HETATM   10  O   UNL     1      -8.417  18.891  69.021  1.00  0.00    -0.263 OA 
HETATM   11  C   UNL     1     -10.812  13.677  70.713  1.00  0.00     1.916 A  
HETATM   12  C   UNL     1      -7.896  16.760  67.964  1.00  0.00    -0.176 C  
HETATM   13  H   UNL     1      -8.621  16.851  65.935  1.00  0.00     0.000 HD 
HETATM   14 CL   UNL     1     -11.151  11.307  69.480  1.00  0.00    -0.306 Cl 
HETATM   15  O   UNL     1      -6.706  17.399  67.525  1.00  0.00    -0.145 OA 
HETATM   16  C   UNL     1      -8.695  17.691  68.920  1.00  0.00    -0.119 C  
HETATM   17  C   UNL     1     -10.478  15.035  70.746  1.00  0.00     0.199 A  
ENDROOT
BRANCH   6  18
HETATM   18  C   UNL     1     -10.708  15.438  65.889  1.00  0.00    -0.343 A  
HETATM   19  C   UNL     1     -12.468  15.329  63.686  1.00  0.00     0.742 A  
HETATM   20  C   UNL     1     -10.775  16.488  64.949  1.00  0.00    -0.168 A  
HETATM   21  C   UNL     1     -11.653  16.439  63.864  1.00  0.00     0.917 A  
HETATM   22  C   UNL     1     -12.413  14.277  64.599  1.00  0.00    -0.371 A  
HETATM   23  C   UNL     1     -11.556  14.332  65.710  1.00  0.00    -0.346 A  
HETATM   24 CL   UNL     1     -11.713  13.026  66.833  1.00  0.00    -0.416 Cl 
ENDBRANCH   6  18
TORSDOF 1
ENDMDL
MODEL      168
REMARK 921   NORMALIZED FREE ENERGY PREDICTED BY IDOCK:    8.79 KCAL/MOL
REMARK 922        TOTAL FREE ENERGY PREDICTED BY IDOCK:    8.65 KCAL/MOL
REMARK 923 INTER-LIGAND FREE ENERGY PREDICTED BY IDOCK:    5.63 KCAL/MOL
REMARK 924 INTRA-LIGAND FREE ENERGY PREDICTED BY IDOCK:    3.02 KCAL/MOL
REMARK 927      BINDING AFFINITY PREDICTED BY RF-SCORE:    0.00 PKD
ROOT
HETATM    1  C   UNL     1      -7.767  17.327  66.966  1.00  0.00    -0.197 C  
HETATM    2  N   UNL     1      -8.078  15.932  67.231  1.00  0.00    -0.168 N  
HETATM    3  C   UNL     1      -9.188  15.309  66.582  1.00  0.00    -0.274 A  
HETATM    4  C   UNL     1      -9.221  13.933  66.253  1.00  0.00    -0.114 A  
HETATM    5  C   UNL     1     -10.373  13.358  65.687  1.00  0.00    -0.295 A  
HETATM    6  C   UNL     1      -8.019  13.062  66.406  1.00  0.00     0.902 C  
HETATM    7  C   UNL     1     -11.462  14.162  65.366  1.00  0.00    -0.325 A  
HETATM    8  N   UNL     1      -7.334  12.996  67.500  1.00  0.00    -0.163 NA 
HETATM    9  H   UNL     1      -7.291  14.033  70.542  1.00  0.00     0.000 HD 
HETATM   10  O   UNL     1      -6.329  15.862  68.740  1.00  0.00    -0.110 OA 
HETATM   11  C   UNL     1     -11.432  15.525  65.635  1.00  0.00     0.041 A  
HETATM   12  C   UNL     1      -7.701  13.854  68.612  1.00  0.00    -0.128 C  
HETATM   13  H   UNL     1      -6.549  12.350  67.581  1.00  0.00     0.000 HD 
HETATM   14 CL   UNL     1     -12.837  13.475  64.598  1.00  0.00    -0.197 Cl 
HETATM   15  O   UNL     1      -7.051  13.471  69.815  1.00  0.00     0.164 OA 
HETATM   16  C   UNL     1      -7.289  15.297  68.204  1.00  0.00    -0.114 C  
HETATM   17  C   UNL     1     -10.308  16.090  66.247  1.00  0.00    -0.330 A  
ENDROOT
BRANCH   6  18
HETATM   18  C   UNL     1      -7.540  12.192  65.269  1.00  0.00     2.724 A  
HETATM   19  C   UNL     1      -6.366  10.694  63.185  1.00  0.00     0.012 A  
HETATM   20  C   UNL     1      -6.183  11.809  65.313  1.00  0.00     2.312 A  
HETATM   21  C   UNL     1      -5.599  11.076  64.278  1.00  0.00     0.390 A  
HETATM   22  C   UNL     1      -7.711  11.056  63.125  1.00  0.00     0.356 A  
HETATM   23  C   UNL     1      -8.298  11.820  64.145  1.00  0.00     1.484 A  
HETATM   24 CL   UNL     1      -9.928  12.320  63.854  1.00  0.00    -0.339 Cl 
ENDBRANCH   6  18
TORSDOF 1
ENDMDL
MODEL      169
REMARK 921   NORMALIZED FREE ENERGY PREDICTED BY IDOCK:   11.61 KCAL/MOL
REMARK 922        TOTAL FREE ENERGY PREDICTED BY IDOCK:   11.63 KCAL/MOL
REMARK 923 INTER-LIGAND FREE ENERGY PREDICTED BY IDOCK:   12.27 KCAL/MOL
REMARK 924 INTRA-LIGAND FREE ENERGY PREDICTED BY IDOCK:   -0.64 KCAL/MOL
REMARK 927      BINDING AFFINITY PREDICTED BY RF-SCORE:    0.00 PKD
ROOT
HETATM    1  C   UNL     1      -8.205   3.325  66.035  1.00  0.00    -0.094 C  
HETATM    2  N   UNL     1      -8.822   4.186  67.030  1.00  0.00    -0.114 N  
HETATM    3  C   UNL     1      -8.029   5.128  67.755  1.00  0.00    -0.095 A  
HETATM    4  C   UNL     1      -8.531   6.365  68.224  1.00  0.00    -0.115 A  
HETATM    5  C   UNL     1      -7.726   7.217  69.001  1.00  0.00    -0.112 A  
HETATM    6  C   UNL     1      -9.888   6.855  67.843  1.00  0.00    -0.135 C  
HETATM    7  C   UNL     1      -6.396   6.885  69.241  1.00  0.00    -0.035 A  
HETATM    8  N   UNL     1     -10.955   6.137  67.973  1.00  0.00    -0.327 NA 
HETATM    9  H   UNL     1     -12.005   3.318  69.105  1.00  0.00     0.000 HD 
HETATM   10  O   UNL     1     -10.847   3.148  66.626  1.00  0.00     2.870 OA 
HETATM   11  C   UNL     1      -5.869   5.699  68.747  1.00  0.00    -0.019 A  
HETATM   12  C   UNL     1     -10.830   4.769  68.442  1.00  0.00     0.986 C  
HETATM   13  H   UNL     1     -11.871   6.526  67.750  1.00  0.00     0.000 HD 
HETATM   14 CL   UNL     1      -5.389   7.966  70.120  1.00  0.00    -0.023 Cl 
HETATM   15  O   UNL     1     -12.087   4.212  68.798  1.00  0.00    10.705 OA 
HETATM   16  C   UNL     1     -10.187   3.965  67.277  1.00  0.00     0.547 C  
HETATM   17  C   UNL     1      -6.682   4.824  68.020  1.00  0.00    -0.054 A  
ENDROOT
BRANCH   6  18
HETATM   18  C   UNL     1     -10.085   8.244  67.286  1.00  0.00    -0.315 A  
HETATM   19  C   UNL     1     -10.179  10.805  66.106  1.00  0.00    -0.308 A  
HETATM   20  C   UNL     1      -9.475   8.502  66.041  1.00  0.00    -0.256 A  
HETATM   21  C   UNL     1      -9.512   9.772  65.461  1.00  0.00    -0.324 A  
HETATM   22  C   UNL     1     -10.794  10.570  67.335  1.00  0.00    -0.349 A  
HETATM   23  C   UNL     1     -10.734   9.305  67.940  1.00  0.00    -0.188 A  
HETATM   24 CL   UNL     1     -11.410   9.210  69.529  1.00  0.00     0.030 Cl 
ENDBRANCH   6  18
TORSDOF 1
ENDMDL
MODEL      170
REMARK 921   NORMALIZED FREE ENERGY PREDICTED BY IDOCK:   11.89 KCAL/MOL
REMARK 922        TOTAL FREE ENERGY PREDICTED BY IDOCK:   11.93 KCAL/MOL
REMARK 923 INTER-LIGAND FREE ENERGY PREDICTED BY IDOCK:   12.40 KCAL/MOL
REMARK 924 INTRA-LIGAND FREE ENERGY PREDICTED BY IDOCK:   -0.47 KCAL/MOL
REMARK 927      BINDING AFFINITY PREDICTED BY RF-SCORE:    0.00 PKD
ROOT
HETATM    1  C   UNL     1      -7.571  14.055  67.480  1.00  0.00    -0.180 C  
HETATM    2  N   UNL     1      -7.872  14.574  68.804  1.00  0.00    -0.142 N  
HETATM    3  C   UNL     1      -8.358  15.908  68.959  1.00  0.00    -0.239 A  
HETATM    4  C   UNL     1      -9.235  16.298  69.998  1.00  0.00     0.828 A  
HETATM    5  C   UNL     1      -9.618  17.643  70.147  1.00  0.00     1.768 A  
HETATM    6  C   UNL     1      -9.858  15.298  70.914  1.00  0.00     1.148 C  
HETATM    7  C   UNL     1      -9.200  18.589  69.216  1.00  0.00     0.161 A  
HETATM    8  N   UNL     1      -9.172  14.404  71.548  1.00  0.00     4.090 NA 
HETATM    9  H   UNL     1      -6.161  13.436  72.116  1.00  0.00     0.000 HD 
HETATM   10  O   UNL     1      -7.161  12.572  69.714  1.00  0.00     0.342 OA 
HETATM   11  C   UNL     1      -8.379  18.219  68.159  1.00  0.00    -0.296 A  
HETATM   12  C   UNL     1      -7.743  14.316  71.311  1.00  0.00     3.637 C  
HETATM   13  H   UNL     1      -9.629  13.770  72.204  1.00  0.00     0.000 HD 
HETATM   14 CL   UNL     1      -9.735  20.217  69.351  1.00  0.00     0.108 Cl 
HETATM   15  O   UNL     1      -7.096  13.493  72.271  1.00  0.00     3.408 OA 
HETATM   16  C   UNL     1      -7.572  13.725  69.882  1.00  0.00     0.895 C  
HETATM   17  C   UNL     1      -7.953  16.892  68.039  1.00  0.00    -0.185 A  
ENDROOT
BRANCH   6  18
HETATM   18  C   UNL     1     -11.348  15.288  71.156  1.00  0.00    -0.402 A  
HETATM   19  C   UNL     1     -14.067  15.308  71.910  1.00  0.00    -0.656 A  
HETATM   20  C   UNL     1     -11.798  16.039  72.262  1.00  0.00    -0.628 A  
HETATM   21  C   UNL     1     -13.142  16.041  72.642  1.00  0.00    -0.479 A  
HETATM   22  C   UNL     1     -13.644  14.564  70.809  1.00  0.00    -0.069 A  
HETATM   23  C   UNL     1     -12.290  14.531  70.440  1.00  0.00    -0.338 A  
HETATM   24 CL   UNL     1     -11.899  13.444  69.152  1.00  0.00    -0.366 Cl 
ENDBRANCH   6  18
TORSDOF 1
ENDMDL
MODEL      171
REMARK 921   NORMALIZED FREE ENERGY PREDICTED BY IDOCK:   12.22 KCAL/MOL
REMARK 922        TOTAL FREE ENERGY PREDICTED BY IDOCK:   12.28 KCAL/MOL
REMARK 923 INTER-LIGAND FREE ENERGY PREDICTED BY IDOCK:   11.90 KCAL/MOL
REMARK 924 INTRA-LIGAND FREE ENERGY PREDICTED BY IDOCK:    0.39 KCAL/MOL
REMARK 927      BINDING AFFINITY PREDICTED BY RF-SCORE:    0.00 PKD
ROOT
HETATM    1  C   UNL     1     -12.521  11.583  65.476  1.00  0.00     1.918 C  
HETATM    2  N   UNL     1     -11.695  12.777  65.535  1.00  0.00    -0.372 N  
HETATM    3  C   UNL     1     -11.703  13.598  66.705  1.00  0.00    -0.392 A  
HETATM    4  C   UNL     1     -10.580  14.342  67.138  1.00  0.00    -0.277 A  
HETATM    5  C   UNL     1     -10.671  15.195  68.253  1.00  0.00    -0.251 A  
HETATM    6  C   UNL     1      -9.243  14.187  66.495  1.00  0.00    -0.224 C  
HETATM    7  C   UNL     1     -11.849  15.246  68.991  1.00  0.00    -0.318 A  
HETATM    8  N   UNL     1      -9.064  14.270  65.217  1.00  0.00     0.359 NA 
HETATM    9  H   UNL     1     -10.600  14.919  62.469  1.00  0.00     0.000 HD 
HETATM   10  O   UNL     1     -10.994  12.361  63.373  1.00  0.00    -0.456 OA 
HETATM   11  C   UNL     1     -12.948  14.485  68.613  1.00  0.00     1.541 A  
HETATM   12  C   UNL     1     -10.219  14.450  64.356  1.00  0.00     0.488 C  
HETATM   13  H   UNL     1      -8.127  14.208  64.820  1.00  0.00     0.000 HD 
HETATM   14 CL   UNL     1     -11.933  16.225  70.402  1.00  0.00    -0.081 Cl 
HETATM   15  O   UNL     1      -9.844  14.801  63.032  1.00  0.00     7.409 OA 
HETATM   16  C   UNL     1     -10.987  13.098  64.366  1.00  0.00    -0.390 C  
HETATM   17  C   UNL     1     -12.878  13.677  67.474  1.00  0.00     1.229 A  
ENDROOT
BRANCH   6  18
HETATM   18  C   UNL     1      -8.007  13.931  67.323  1.00  0.00    -0.147 A  
HETATM   19  C   UNL     1      -5.707  13.752  68.949  1.00  0.00    -0.082 A  
HETATM   20  C   UNL     1      -7.847  14.747  68.463  1.00  0.00    -0.130 A  
HETATM   21  C   UNL     1      -6.705  14.666  69.262  1.00  0.00    -0.134 A  
HETATM   22  C   UNL     1      -5.848  12.931  67.831  1.00  0.00    -0.123 A  
HETATM   23  C   UNL     1      -6.978  13.028  67.004  1.00  0.00     0.313 A  
HETATM   24 CL   UNL     1      -6.937  12.056  65.574  1.00  0.00     2.016 Cl 
ENDBRANCH   6  18
TORSDOF 1
ENDMDL
MODEL      172
REMARK 921   NORMALIZED FREE ENERGY PREDICTED BY IDOCK:   17.55 KCAL/MOL
REMARK 922        TOTAL FREE ENERGY PREDICTED BY IDOCK:   17.92 KCAL/MOL
REMARK 923 INTER-LIGAND FREE ENERGY PREDICTED BY IDOCK:   18.56 KCAL/MOL
REMARK 924 INTRA-LIGAND FREE ENERGY PREDICTED BY IDOCK:   -0.64 KCAL/MOL
REMARK 927      BINDING AFFINITY PREDICTED BY RF-SCORE:    0.00 PKD
ROOT
HETATM    1  C   UNL     1     -13.393  10.320  63.775  1.00  0.00     8.456 C  
HETATM    2  N   UNL     1     -12.143  10.959  64.150  1.00  0.00     1.441 N  
HETATM    3  C   UNL     1     -11.398  10.475  65.269  1.00  0.00     1.107 A  
HETATM    4  C   UNL     1      -9.987  10.549  65.352  1.00  0.00    -0.353 A  
HETATM    5  C   UNL     1      -9.314  10.130  66.513  1.00  0.00    -0.200 A  
HETATM    6  C   UNL     1      -9.156  10.984  64.191  1.00  0.00    -0.097 C  
HETATM    7  C   UNL     1     -10.029   9.557  67.560  1.00  0.00    -0.186 A  
HETATM    8  N   UNL     1      -9.381  12.076  63.536  1.00  0.00    -0.610 NA 
HETATM    9  H   UNL     1     -11.240  14.698  63.521  1.00  0.00     0.000 HD 
HETATM   10  O   UNL     1     -12.447  12.486  62.442  1.00  0.00     1.237 OA 
HETATM   11  C   UNL     1     -11.410   9.429  67.479  1.00  0.00     0.660 A  
HETATM   12  C   UNL     1     -10.533  12.885  63.893  1.00  0.00    -0.304 C  
HETATM   13  H   UNL     1      -8.760  12.364  62.780  1.00  0.00     0.000 HD 
HETATM   14 CL   UNL     1      -9.198   8.968  68.944  1.00  0.00    -0.139 Cl 
HETATM   15  O   UNL     1     -10.487  14.169  63.288  1.00  0.00     2.225 OA 
HETATM   16  C   UNL     1     -11.785  12.099  63.411  1.00  0.00    -0.444 C  
HETATM   17  C   UNL     1     -12.088   9.895  66.348  1.00  0.00     5.418 A  
ENDROOT
BRANCH   6  18
HETATM   18  C   UNL     1      -7.983  10.158  63.722  1.00  0.00    -0.153 A  
HETATM   19  C   UNL     1      -5.986   8.374  62.833  1.00  0.00    -0.082 A  
HETATM   20  C   UNL     1      -8.291   9.073  62.874  1.00  0.00    -0.202 A  
HETATM   21  C   UNL     1      -7.305   8.184  62.442  1.00  0.00    -0.098 A  
HETATM   22  C   UNL     1      -5.659   9.443  63.666  1.00  0.00    -0.071 A  
HETATM   23  C   UNL     1      -6.649  10.323  64.131  1.00  0.00    -0.072 A  
HETATM   24 CL   UNL     1      -6.114  11.503  65.277  1.00  0.00     1.026 Cl 
ENDBRANCH   6  18
TORSDOF 1
ENDMDL
MODEL      173
REMARK 921   NORMALIZED FREE ENERGY PREDICTED BY IDOCK:   17.66 KCAL/MOL
REMARK 922        TOTAL FREE ENERGY PREDICTED BY IDOCK:   18.04 KCAL/MOL
REMARK 923 INTER-LIGAND FREE ENERGY PREDICTED BY IDOCK:   18.45 KCAL/MOL
REMARK 924 INTRA-LIGAND FREE ENERGY PREDICTED BY IDOCK:   -0.41 KCAL/MOL
REMARK 927      BINDING AFFINITY PREDICTED BY RF-SCORE:    0.00 PKD
ROOT
HETATM    1  C   UNL     1     -11.319  18.412  70.294  1.00  0.00     4.219 C  
HETATM    2  N   UNL     1     -10.591  17.162  70.429  1.00  0.00     0.453 N  
HETATM    3  C   UNL     1     -11.019  16.181  71.377  1.00  0.00     0.291 A  
HETATM    4  C   UNL     1     -10.843  14.791  71.186  1.00  0.00     0.301 A  
HETATM    5  C   UNL     1     -11.212  13.877  72.190  1.00  0.00     2.828 A  
HETATM    6  C   UNL     1     -10.349  14.234  69.893  1.00  0.00     0.432 C  
HETATM    7  C   UNL     1     -11.835  14.333  73.347  1.00  0.00     0.671 A  
HETATM    8  N   UNL     1      -9.277  14.658  69.309  1.00  0.00    -0.400 NA 
HETATM    9  H   UNL     1      -6.797  16.667  69.690  1.00  0.00     0.000 HD 
HETATM   10  O   UNL     1      -9.091  17.899  68.834  1.00  0.00    -0.238 OA 
HETATM   11  C   UNL     1     -12.063  15.691  73.532  1.00  0.00    -0.603 A  
HETATM   12  C   UNL     1      -8.553  15.774  69.893  1.00  0.00     0.317 C  
HETATM   13  H   UNL     1      -8.944  14.217  68.452  1.00  0.00     0.000 HD 
HETATM   14 CL   UNL     1     -12.362  13.209  74.536  1.00  0.00     8.042 Cl 
HETATM   15  O   UNL     1      -7.270  15.938  69.308  1.00  0.00    -0.193 OA 
HETATM   16  C   UNL     1      -9.428  17.036  69.651  1.00  0.00     0.459 C  
HETATM   17  C   UNL     1     -11.649  16.606  72.560  1.00  0.00    -0.056 A  
ENDROOT
BRANCH   6  18
HETATM   18  C   UNL     1     -11.087  13.117  69.195  1.00  0.00    -0.248 A  
HETATM   19  C   UNL     1     -12.213  10.859  67.932  1.00  0.00     0.904 A  
HETATM   20  C   UNL     1     -10.733  11.807  69.580  1.00  0.00     0.046 A  
HETATM   21  C   UNL     1     -11.282  10.689  68.948  1.00  0.00    -0.333 A  
HETATM   22  C   UNL     1     -12.583  12.145  67.541  1.00  0.00     1.667 A  
HETATM   23  C   UNL     1     -12.012  13.274  68.148  1.00  0.00    -0.304 A  
HETATM   24 CL   UNL     1     -12.454  14.794  67.451  1.00  0.00     0.192 Cl 
ENDBRANCH   6  18
TORSDOF 1
ENDMDL
MODEL      174
REMARK 921   NORMALIZED FREE ENERGY PREDICTED BY IDOCK:   18.45 KCAL/MOL
REMARK 922        TOTAL FREE ENERGY PREDICTED BY IDOCK:   18.88 KCAL/MOL
REMARK 923 INTER-LIGAND FREE ENERGY PREDICTED BY IDOCK:   18.39 KCAL/MOL
REMARK 924 INTRA-LIGAND FREE ENERGY PREDICTED BY IDOCK:    0.49 KCAL/MOL
REMARK 927      BINDING AFFINITY PREDICTED BY RF-SCORE:    0.00 PKD
ROOT
HETATM    1  C   UNL     1     -10.066  17.823  69.500  1.00  0.00     0.127 C  
HETATM    2  N   UNL     1     -10.293  16.389  69.580  1.00  0.00    -0.270 N  
HETATM    3  C   UNL     1     -10.835  15.685  68.461  1.00  0.00    -0.282 A  
HETATM    4  C   UNL     1     -10.527  14.335  68.172  1.00  0.00    -0.246 A  
HETATM    5  C   UNL     1     -11.153  13.670  67.102  1.00  0.00    -0.311 A  
HETATM    6  C   UNL     1      -9.470  13.595  68.921  1.00  0.00     0.127 C  
HETATM    7  C   UNL     1     -12.020  14.366  66.266  1.00  0.00    -0.376 A  
HETATM    8  N   UNL     1      -9.431  13.543  70.213  1.00  0.00     2.530 NA 
HETATM    9  H   UNL     1     -11.061  14.405  72.845  1.00  0.00     0.000 HD 
HETATM   10  O   UNL     1      -9.555  16.428  71.770  1.00  0.00     4.798 OA 
HETATM   11  C   UNL     1     -12.299  15.706  66.503  1.00  0.00     1.405 A  
HETATM   12  C   UNL     1     -10.413  14.291  70.977  1.00  0.00     2.012 C  
HETATM   13  H   UNL     1      -8.722  12.984  70.687  1.00  0.00     0.000 HD 
HETATM   14 CL   UNL     1     -12.721  13.575  64.911  1.00  0.00    -0.379 Cl 
HETATM   15  O   UNL     1     -10.419  13.916  72.346  1.00  0.00     4.795 OA 
HETATM   16  C   UNL     1     -10.033  15.792  70.824  1.00  0.00     0.960 C  
HETATM   17  C   UNL     1     -11.719  16.356  67.597  1.00  0.00     0.441 A  
ENDROOT
BRANCH   6  18
HETATM   18  C   UNL     1      -8.379  12.849  68.193  1.00  0.00    -0.168 A  
HETATM   19  C   UNL     1      -6.526  11.454  66.585  1.00  0.00    -0.117 A  
HETATM   20  C   UNL     1      -8.311  13.059  66.800  1.00  0.00     0.047 A  
HETATM   21  C   UNL     1      -7.401  12.361  66.002  1.00  0.00     1.730 A  
HETATM   22  C   UNL     1      -6.572  11.236  67.961  1.00  0.00    -0.058 A  
HETATM   23  C   UNL     1      -7.505  11.909  68.766  1.00  0.00    -0.100 A  
HETATM   24 CL   UNL     1      -7.543  11.419  70.425  1.00  0.00     1.724 Cl 
ENDBRANCH   6  18
TORSDOF 1
ENDMDL
MODEL      175
REMARK 921   NORMALIZED FREE ENERGY PREDICTED BY IDOCK:   20.36 KCAL/MOL
REMARK 922        TOTAL FREE ENERGY PREDICTED BY IDOCK:   20.90 KCAL/MOL
REMARK 923 INTER-LIGAND FREE ENERGY PREDICTED BY IDOCK:   19.80 KCAL/MOL
REMARK 924 INTRA-LIGAND FREE ENERGY PREDICTED BY IDOCK:    1.10 KCAL/MOL
REMARK 927      BINDING AFFINITY PREDICTED BY RF-SCORE:    0.00 PKD
ROOT
HETATM    1  C   UNL     1     -13.882  14.444  69.693  1.00  0.00     3.240 C  
HETATM    2  N   UNL     1     -12.752  13.922  70.445  1.00  0.00    -0.271 N  
HETATM    3  C   UNL     1     -12.600  12.512  70.624  1.00  0.00    -0.155 A  
HETATM    4  C   UNL     1     -11.341  11.878  70.743  1.00  0.00     1.087 A  
HETATM    5  C   UNL     1     -11.255  10.497  70.998  1.00  0.00     0.067 A  
HETATM    6  C   UNL     1     -10.066  12.618  70.514  1.00  0.00     4.634 C  
HETATM    7  C   UNL     1     -12.414   9.729  71.050  1.00  0.00    -0.323 A  
HETATM    8  N   UNL     1      -9.788  13.736  71.100  1.00  0.00     4.661 NA 
HETATM    9  H   UNL     1     -10.889  15.793  73.311  1.00  0.00     0.000 HD 
HETATM   10  O   UNL     1     -12.061  16.089  70.851  1.00  0.00    -0.394 OA 
HETATM   11  C   UNL     1     -13.658  10.324  70.887  1.00  0.00     0.057 A  
HETATM   12  C   UNL     1     -10.783  14.342  71.966  1.00  0.00     2.675 C  
HETATM   13  H   UNL     1      -8.884  14.186  70.956  1.00  0.00     0.000 HD 
HETATM   14 CL   UNL     1     -12.304   8.029  71.279  1.00  0.00    -0.308 Cl 
HETATM   15  O   UNL     1     -10.238  15.397  72.745  1.00  0.00     2.337 OA 
HETATM   16  C   UNL     1     -11.907  14.877  71.034  1.00  0.00    -0.327 C  
HETATM   17  C   UNL     1     -13.749  11.705  70.687  1.00  0.00     1.899 A  
ENDROOT
BRANCH   6  18
HETATM   18  C   UNL     1      -9.013  12.081  69.575  1.00  0.00     1.351 A  
HETATM   19  C   UNL     1      -7.172  11.258  67.601  1.00  0.00    -0.092 A  
HETATM   20  C   UNL     1      -8.611  12.949  68.537  1.00  0.00    -0.042 A  
HETATM   21  C   UNL     1      -7.707  12.538  67.555  1.00  0.00    -0.165 A  
HETATM   22  C   UNL     1      -7.551  10.387  68.622  1.00  0.00    -0.092 A  
HETATM   23  C   UNL     1      -8.483  10.780  69.595  1.00  0.00     0.240 A  
HETATM   24 CL   UNL     1      -8.968   9.541  70.700  1.00  0.00    -0.278 Cl 
ENDBRANCH   6  18
TORSDOF 1
ENDMDL
MODEL      176
REMARK 921   NORMALIZED FREE ENERGY PREDICTED BY IDOCK:   25.53 KCAL/MOL
REMARK 922        TOTAL FREE ENERGY PREDICTED BY IDOCK:   26.38 KCAL/MOL
REMARK 923 INTER-LIGAND FREE ENERGY PREDICTED BY IDOCK:   25.51 KCAL/MOL
REMARK 924 INTRA-LIGAND FREE ENERGY PREDICTED BY IDOCK:    0.86 KCAL/MOL
REMARK 927      BINDING AFFINITY PREDICTED BY RF-SCORE:    0.00 PKD
ROOT
HETATM    1  C   UNL     1     -10.115  19.511  71.793  1.00  0.00     3.203 C  
HETATM    2  N   UNL     1      -9.526  18.628  70.800  1.00  0.00     3.091 N  
HETATM    3  C   UNL     1      -9.965  17.272  70.695  1.00  0.00     2.432 A  
HETATM    4  C   UNL     1      -9.970  16.552  69.477  1.00  0.00    -0.119 A  
HETATM    5  C   UNL     1     -10.338  15.195  69.448  1.00  0.00    -0.259 A  
HETATM    6  C   UNL     1      -9.679  17.216  68.173  1.00  0.00    -0.276 C  
HETATM    7  C   UNL     1     -10.783  14.573  70.610  1.00  0.00     0.492 A  
HETATM    8  N   UNL     1      -8.630  17.945  67.975  1.00  0.00    -0.249 NA 
HETATM    9  H   UNL     1      -5.909  18.924  69.378  1.00  0.00     0.000 HD 
HETATM   10  O   UNL     1      -8.122  20.346  70.153  1.00  0.00     0.827 OA 
HETATM   11  C   UNL     1     -10.832  15.276  71.808  1.00  0.00     0.148 A  
HETATM   12  C   UNL     1      -7.727  18.194  69.084  1.00  0.00    -0.020 C  
HETATM   13  H   UNL     1      -8.441  18.341  67.054  1.00  0.00     0.000 HD 
HETATM   14 CL   UNL     1     -11.311  12.938  70.559  1.00  0.00     0.457 Cl 
HETATM   15  O   UNL     1      -6.500  18.762  68.652  1.00  0.00    -0.226 OA 
HETATM   16  C   UNL     1      -8.471  19.165  70.044  1.00  0.00     1.211 C  
HETATM   17  C   UNL     1     -10.417  16.610  71.850  1.00  0.00     3.121 A  
ENDROOT
BRANCH   6  18
HETATM   18  C   UNL     1     -10.609  17.056  66.994  1.00  0.00    -0.226 A  
HETATM   19  C   UNL     1     -12.208  17.007  64.670  1.00  0.00     3.167 A  
HETATM   20  C   UNL     1     -10.113  17.503  65.752  1.00  0.00    -0.119 A  
HETATM   21  C   UNL     1     -10.908  17.489  64.603  1.00  0.00     1.348 A  
HETATM   22  C   UNL     1     -12.716  16.554  65.887  1.00  0.00     4.508 A  
HETATM   23  C   UNL     1     -11.935  16.595  67.053  1.00  0.00     1.680 A  
HETATM   24 CL   UNL     1     -12.753  16.145  68.509  1.00  0.00     1.323 Cl 
ENDBRANCH   6  18
TORSDOF 1
ENDMDL
MODEL      177
REMARK 921   NORMALIZED FREE ENERGY PREDICTED BY IDOCK:   27.53 KCAL/MOL
REMARK 922        TOTAL FREE ENERGY PREDICTED BY IDOCK:   28.49 KCAL/MOL
REMARK 923 INTER-LIGAND FREE ENERGY PREDICTED BY IDOCK:   28.81 KCAL/MOL
REMARK 924 INTRA-LIGAND FREE ENERGY PREDICTED BY IDOCK:   -0.33 KCAL/MOL
REMARK 927      BINDING AFFINITY PREDICTED BY RF-SCORE:    0.00 PKD
ROOT
HETATM    1  C   UNL     1     -10.100  16.882  66.655  1.00  0.00    -0.304 C  
HETATM    2  N   UNL     1      -8.875  17.060  67.418  1.00  0.00    -0.202 N  
HETATM    3  C   UNL     1      -8.927  17.597  68.742  1.00  0.00    -0.207 A  
HETATM    4  C   UNL     1      -8.003  17.249  69.755  1.00  0.00     1.086 A  
HETATM    5  C   UNL     1      -8.054  17.869  71.016  1.00  0.00     6.683 A  
HETATM    6  C   UNL     1      -7.005  16.156  69.564  1.00  0.00    -0.186 C  
HETATM    7  C   UNL     1      -9.073  18.772  71.303  1.00  0.00     5.921 A  
HETATM    8  N   UNL     1      -6.219  16.095  68.539  1.00  0.00    -0.113 NA 
HETATM    9  H   UNL     1      -5.345  17.710  65.901  1.00  0.00     0.000 HD 
HETATM   10  O   UNL     1      -7.670  16.289  65.604  1.00  0.00     0.693 OA 
HETATM   11  C   UNL     1     -10.020  19.091  70.338  1.00  0.00     1.392 A  
HETATM   12  C   UNL     1      -6.353  17.088  67.489  1.00  0.00    -0.149 C  
HETATM   13  H   UNL     1      -5.515  15.360  68.470  1.00  0.00     0.000 HD 
HETATM   14 CL   UNL     1      -9.185  19.468  72.870  1.00  0.00     3.827 Cl 
HETATM   15  O   UNL     1      -5.257  17.060  66.588  1.00  0.00    -0.222 OA 
HETATM   16  C   UNL     1      -7.679  16.761  66.746  1.00  0.00    -0.250 C  
HETATM   17  C   UNL     1      -9.940  18.516  69.066  1.00  0.00    -0.323 A  
ENDROOT
BRANCH   6  18
HETATM   18  C   UNL     1      -6.855  15.053  70.583  1.00  0.00     0.385 A  
HETATM   19  C   UNL     1      -6.299  13.112  72.555  1.00  0.00     2.863 A  
HETATM   20  C   UNL     1      -6.067  15.358  71.712  1.00  0.00     1.014 A  
HETATM   21  C   UNL     1      -5.783  14.395  72.683  1.00  0.00     0.055 A  
HETATM   22  C   UNL     1      -7.086  12.792  71.450  1.00  0.00     5.219 A  
HETATM   23  C   UNL     1      -7.350  13.744  70.453  1.00  0.00     1.386 A  
HETATM   24 CL   UNL     1      -8.209  13.154  69.072  1.00  0.00     0.245 Cl 
ENDBRANCH   6  18
TORSDOF 1
ENDMDL
MODEL      178
REMARK 921   NORMALIZED FREE ENERGY PREDICTED BY IDOCK:   38.71 KCAL/MOL
REMARK 922        TOTAL FREE ENERGY PREDICTED BY IDOCK:   40.32 KCAL/MOL
REMARK 923 INTER-LIGAND FREE ENERGY PREDICTED BY IDOCK:   40.99 KCAL/MOL
REMARK 924 INTRA-LIGAND FREE ENERGY PREDICTED BY IDOCK:   -0.67 KCAL/MOL
REMARK 927      BINDING AFFINITY PREDICTED BY RF-SCORE:    0.00 PKD
ROOT
HETATM    1  C   UNL     1      -6.875  14.229  67.277  1.00  0.00     0.187 C  
HETATM    2  N   UNL     1      -7.560  13.416  68.269  1.00  0.00    -0.125 N  
HETATM    3  C   UNL     1      -7.111  13.410  69.626  1.00  0.00     0.313 A  
HETATM    4  C   UNL     1      -7.977  13.218  70.727  1.00  0.00     5.385 A  
HETATM    5  C   UNL     1      -7.468  13.142  72.036  1.00  0.00     8.689 A  
HETATM    6  C   UNL     1      -9.460  13.181  70.562  1.00  0.00     5.699 C  
HETATM    7  C   UNL     1      -6.109  13.341  72.263  1.00  0.00     1.547 A  
HETATM    8  N   UNL     1     -10.051  12.420  69.700  1.00  0.00     0.366 NA 
HETATM    9  H   UNL     1      -9.490  10.111  67.536  1.00  0.00     0.000 HD 
HETATM   10  O   UNL     1      -8.970  12.638  66.611  1.00  0.00    -0.217 OA 
HETATM   11  C   UNL     1      -5.248  13.580  71.199  1.00  0.00    -0.164 A  
HETATM   12  C   UNL     1      -9.244  11.614  68.803  1.00  0.00    -0.033 C  
HETATM   13  H   UNL     1     -11.070  12.386  69.652  1.00  0.00     0.000 HD 
HETATM   14 CL   UNL     1      -5.499  13.330  73.869  1.00  0.00     0.107 Cl 
HETATM   15  O   UNL     1     -10.019  10.638  68.123  1.00  0.00    -0.153 OA 
HETATM   16  C   UNL     1      -8.599  12.602  67.789  1.00  0.00    -0.179 C  
HETATM   17  C   UNL     1      -5.745  13.603  69.892  1.00  0.00    -0.117 A  
ENDROOT
BRANCH   6  18
HETATM   18  C   UNL     1     -10.359  14.042  71.415  1.00  0.00     4.066 A  
HETATM   19  C   UNL     1     -11.826  15.873  72.984  1.00  0.00    -0.535 A  
HETATM   20  C   UNL     1     -10.280  15.432  71.189  1.00  0.00     0.806 A  
HETATM   21  C   UNL     1     -10.998  16.339  71.972  1.00  0.00     0.892 A  
HETATM   22  C   UNL     1     -11.925  14.502  73.220  1.00  0.00    -0.002 A  
HETATM   23  C   UNL     1     -11.182  13.585  72.459  1.00  0.00     4.827 A  
HETATM   24 CL   UNL     1     -11.292  11.936  72.970  1.00  0.00     9.631 Cl 
ENDBRANCH   6  18
TORSDOF 1
ENDMDL
MODEL      179
REMARK 921   NORMALIZED FREE ENERGY PREDICTED BY IDOCK:   41.97 KCAL/MOL
REMARK 922        TOTAL FREE ENERGY PREDICTED BY IDOCK:   43.77 KCAL/MOL
REMARK 923 INTER-LIGAND FREE ENERGY PREDICTED BY IDOCK:   43.06 KCAL/MOL
REMARK 924 INTRA-LIGAND FREE ENERGY PREDICTED BY IDOCK:    0.71 KCAL/MOL
REMARK 927      BINDING AFFINITY PREDICTED BY RF-SCORE:    0.00 PKD
ROOT
HETATM    1  C   UNL     1      -9.813   3.575  66.700  1.00  0.00     0.125 C  
HETATM    2  N   UNL     1      -9.855   4.910  67.274  1.00  0.00    -0.173 N  
HETATM    3  C   UNL     1      -8.835   5.860  66.958  1.00  0.00    -0.112 A  
HETATM    4  C   UNL     1      -9.065   7.255  66.906  1.00  0.00    -0.162 A  
HETATM    5  C   UNL     1      -8.005   8.148  66.668  1.00  0.00    -0.102 A  
HETATM    6  C   UNL     1     -10.439   7.827  67.009  1.00  0.00    -0.349 C  
HETATM    7  C   UNL     1      -6.733   7.655  66.395  1.00  0.00    -0.058 A  
HETATM    8  N   UNL     1     -11.258   7.519  67.961  1.00  0.00    -0.337 NA 
HETATM    9  H   UNL     1     -11.468   5.845  70.697  1.00  0.00     0.000 HD 
HETATM   10  O   UNL     1     -11.757   4.312  68.442  1.00  0.00     6.348 OA 
HETATM   11  C   UNL     1      -6.496   6.287  66.392  1.00  0.00    -0.047 A  
HETATM   12  C   UNL     1     -10.859   6.521  68.937  1.00  0.00    -0.301 C  
HETATM   13  H   UNL     1     -12.171   7.970  68.025  1.00  0.00     0.000 HD 
HETATM   14 CL   UNL     1      -5.455   8.743  66.022  1.00  0.00    -0.037 Cl 
HETATM   15  O   UNL     1     -11.729   6.497  70.059  1.00  0.00    -0.416 OA 
HETATM   16  C   UNL     1     -10.885   5.153  68.197  1.00  0.00     0.392 C  
HETATM   17  C   UNL     1      -7.536   5.398  66.681  1.00  0.00    -0.088 A  
ENDROOT
BRANCH   6  18
HETATM   18  C   UNL     1     -10.946   8.821  65.993  1.00  0.00     2.027 A  
HETATM   19  C   UNL     1     -11.604  10.790  64.082  1.00  0.00     1.426 A  
HETATM   20  C   UNL     1     -10.003   9.268  65.043  1.00  0.00     0.489 A  
HETATM   21  C   UNL     1     -10.326  10.250  64.104  1.00  0.00     0.222 A  
HETATM   22  C   UNL     1     -12.553  10.357  65.007  1.00  0.00     7.126 A  
HETATM   23  C   UNL     1     -12.229   9.394  65.975  1.00  0.00     9.144 A  
HETATM   24 CL   UNL     1     -13.461   9.075  67.146  1.00  0.00    17.945 Cl 
ENDBRANCH   6  18
TORSDOF 1
ENDMDL
MODEL      180
REMARK 921   NORMALIZED FREE ENERGY PREDICTED BY IDOCK:   42.85 KCAL/MOL
REMARK 922        TOTAL FREE ENERGY PREDICTED BY IDOCK:   44.70 KCAL/MOL
REMARK 923 INTER-LIGAND FREE ENERGY PREDICTED BY IDOCK:   45.10 KCAL/MOL
REMARK 924 INTRA-LIGAND FREE ENERGY PREDICTED BY IDOCK:   -0.40 KCAL/MOL
REMARK 927      BINDING AFFINITY PREDICTED BY RF-SCORE:    0.00 PKD
ROOT
HETATM    1  C   UNL     1     -11.291  19.303  69.923  1.00  0.00     4.305 C  
HETATM    2  N   UNL     1     -10.643  18.002  69.892  1.00  0.00     0.752 N  
HETATM    3  C   UNL     1     -11.394  16.835  69.552  1.00  0.00     0.208 A  
HETATM    4  C   UNL     1     -10.832  15.715  68.896  1.00  0.00    -0.252 A  
HETATM    5  C   UNL     1     -11.600  14.561  68.659  1.00  0.00    -0.346 A  
HETATM    6  C   UNL     1      -9.442  15.742  68.353  1.00  0.00    -0.196 C  
HETATM    7  C   UNL     1     -12.951  14.548  68.993  1.00  0.00     1.202 A  
HETATM    8  N   UNL     1      -8.420  16.103  69.057  1.00  0.00    -0.244 NA 
HETATM    9  H   UNL     1      -7.553  16.967  72.029  1.00  0.00     0.000 HD 
HETATM   10  O   UNL     1      -8.674  19.001  70.573  1.00  0.00     2.022 OA 
HETATM   11  C   UNL     1     -13.536  15.656  69.593  1.00  0.00     1.880 A  
HETATM   12  C   UNL     1      -8.631  16.572  70.414  1.00  0.00     2.645 C  
HETATM   13  H   UNL     1      -7.479  16.059  68.665  1.00  0.00     0.000 HD 
HETATM   14 CL   UNL     1     -13.910  13.170  68.627  1.00  0.00     6.970 Cl 
HETATM   15  O   UNL     1      -7.414  16.660  71.141  1.00  0.00     3.940 OA 
HETATM   16  C   UNL     1      -9.298  17.972  70.294  1.00  0.00     2.526 C  
HETATM   17  C   UNL     1     -12.761  16.785  69.879  1.00  0.00     3.541 A  
ENDROOT
BRANCH   6  18
HETATM   18  C   UNL     1      -9.156  15.331  66.929  1.00  0.00    -0.263 A  
HETATM   19  C   UNL     1      -8.453  14.330  64.385  1.00  0.00     8.253 A  
HETATM   20  C   UNL     1      -8.932  13.954  66.717  1.00  0.00    -0.206 A  
HETATM   21  C   UNL     1      -8.574  13.460  65.460  1.00  0.00     1.962 A  
HETATM   22  C   UNL     1      -8.677  15.694  64.572  1.00  0.00     6.595 A  
HETATM   23  C   UNL     1      -9.006  16.203  65.838  1.00  0.00    -0.206 A  
HETATM   24 CL   UNL     1      -9.100  17.927  65.942  1.00  0.00     0.015 Cl 
ENDBRANCH   6  18
TORSDOF 1
ENDMDL
MODEL      181
REMARK 921   NORMALIZED FREE ENERGY PREDICTED BY IDOCK:   50.23 KCAL/MOL
REMARK 922        TOTAL FREE ENERGY PREDICTED BY IDOCK:   52.52 KCAL/MOL
REMARK 923 INTER-LIGAND FREE ENERGY PREDICTED BY IDOCK:   49.56 KCAL/MOL
REMARK 924 INTRA-LIGAND FREE ENERGY PREDICTED BY IDOCK:    2.95 KCAL/MOL
REMARK 927      BINDING AFFINITY PREDICTED BY RF-SCORE:    0.00 PKD
ROOT
HETATM    1  C   UNL     1      -9.752  19.288  66.372  1.00  0.00    -0.374 C  
HETATM    2  N   UNL     1      -9.671  17.933  66.891  1.00  0.00    -0.296 N  
HETATM    3  C   UNL     1     -10.742  17.013  66.667  1.00  0.00    -0.092 A  
HETATM    4  C   UNL     1     -10.551  15.617  66.541  1.00  0.00    -0.307 A  
HETATM    5  C   UNL     1     -11.651  14.753  66.400  1.00  0.00    -0.301 A  
HETATM    6  C   UNL     1      -9.187  15.018  66.459  1.00  0.00    -0.290 C  
HETATM    7  C   UNL     1     -12.936  15.277  66.299  1.00  0.00     1.936 A  
HETATM    8  N   UNL     1      -8.254  15.276  67.316  1.00  0.00    -0.187 NA 
HETATM    9  H   UNL     1      -7.684  16.845  70.062  1.00  0.00     0.000 HD 
HETATM   10  O   UNL     1      -7.631  18.454  67.843  1.00  0.00    -0.237 OA 
HETATM   11  C   UNL     1     -13.141  16.649  66.371  1.00  0.00     6.740 A  
HETATM   12  C   UNL     1      -8.512  16.245  68.365  1.00  0.00    -0.195 C  
HETATM   13  H   UNL     1      -7.351  14.807  67.255  1.00  0.00     0.000 HD 
HETATM   14 CL   UNL     1     -14.272  14.227  66.045  1.00  0.00     4.258 Cl 
HETATM   15  O   UNL     1      -7.515  16.212  69.375  1.00  0.00    -0.232 OA 
HETATM   16  C   UNL     1      -8.544  17.638  67.676  1.00  0.00    -0.224 C  
HETATM   17  C   UNL     1     -12.054  17.508  66.564  1.00  0.00     3.744 A  
ENDROOT
BRANCH   6  18
HETATM   18  C   UNL     1      -8.827  14.053  65.355  1.00  0.00     1.740 A  
HETATM   19  C   UNL     1      -7.927  12.447  63.216  1.00  0.00     4.392 A  
HETATM   20  C   UNL     1      -7.468  14.028  64.976  1.00  0.00    11.219 A  
HETATM   21  C   UNL     1      -7.024  13.241  63.911  1.00  0.00    17.397 A  
HETATM   22  C   UNL     1      -9.273  12.452  63.579  1.00  0.00     0.992 A  
HETATM   23  C   UNL     1      -9.734  13.264  64.627  1.00  0.00     0.210 A  
HETATM   24 CL   UNL     1     -11.448  13.278  64.856  1.00  0.00    -0.329 Cl 
ENDBRANCH   6  18
TORSDOF 1
ENDMDL
