MODEL        1
REMARK 921   NORMALIZED FREE ENERGY PREDICTED BY IDOCK:   -7.11 KCAL/MOL
REMARK 922        TOTAL FREE ENERGY PREDICTED BY IDOCK:   -8.55 KCAL/MOL
REMARK 923 INTER-LIGAND FREE ENERGY PREDICTED BY IDOCK:   -7.94 KCAL/MOL
REMARK 924 INTRA-LIGAND FREE ENERGY PREDICTED BY IDOCK:   -0.61 KCAL/MOL
REMARK 927      BINDING AFFINITY PREDICTED BY RF-SCORE:    0.00 PKD
ROOT
HETATM    1  C   UNL     1     -10.278  15.046  65.141  1.00  0.00    -0.365 C  
HETATM    2  N   UNL     1     -10.701  15.346  66.515  1.00  0.00    -0.307 N  
HETATM    3  C   UNL     1     -10.445  16.569  67.256  1.00  0.00    -0.304 C  
HETATM    4  O   UNL     1     -10.524  12.937  67.356  1.00  0.00    -0.231 OA 
HETATM    5  C   UNL     1     -10.829  16.727  68.553  1.00  0.00    -0.345 C  
HETATM    6  C   UNL     1     -12.443  14.241  71.049  1.00  0.00    -0.362 A  
HETATM    7  O   UNL     1     -10.642  17.890  69.285  1.00  0.00    -0.407 OA 
HETATM    8  C   UNL     1     -11.461  15.692  69.312  1.00  0.00    -0.362 A  
HETATM    9  O   UNL     1     -12.774  13.870  66.665  1.00  0.00    -0.246 OA 
HETATM   10  S   UNL     1     -11.472  14.032  67.252  1.00  0.00    -0.369 S  
HETATM   11  H   UNL     1     -10.909  17.999  70.190  1.00  0.00     0.000 HD 
HETATM   12  S   UNL     1     -11.877  15.834  70.983  1.00  0.00    -0.450 SA 
HETATM   13  C   UNL     1     -11.792  14.436  68.875  1.00  0.00    -0.320 A  
HETATM   14 CL   UNL     1     -13.042  13.606  72.528  1.00  0.00    -0.510 Cl 
HETATM   15  C   UNL     1     -12.355  13.579  69.854  1.00  0.00    -0.287 A  
ENDROOT
BRANCH   3  16
HETATM   16  C   UNL     1      -9.686  17.741  66.659  1.00  0.00    -0.313 C  
HETATM   17  N   UNL     1      -8.403  17.943  67.099  1.00  0.00    -0.224 N  
HETATM   18  O   UNL     1     -10.189  18.363  65.719  1.00  0.00    -0.571 OA 
HETATM   19  H   UNL     1      -8.059  17.360  67.861  1.00  0.00     0.000 HD 
BRANCH  17  20
HETATM   20  C   UNL     1      -7.538  18.905  66.562  1.00  0.00    -0.251 A  
HETATM   21  C   UNL     1      -7.349  20.165  67.125  1.00  0.00    -0.308 A  
HETATM   22  C   UNL     1      -5.924  20.709  65.271  1.00  0.00    -0.274 A  
HETATM   23  C   UNL     1      -6.516  21.074  66.472  1.00  0.00    -0.334 A  
HETATM   24  C   UNL     1      -6.147  19.425  64.803  1.00  0.00    -0.274 A  
HETATM   25  N   UNL     1      -6.904  18.505  65.443  1.00  0.00    -0.526 NA 
ENDBRANCH  17  20
ENDBRANCH   3  16
TORSDOF 2
ENDMDL
MODEL        2
REMARK 921   NORMALIZED FREE ENERGY PREDICTED BY IDOCK:   -6.68 KCAL/MOL
REMARK 922        TOTAL FREE ENERGY PREDICTED BY IDOCK:   -8.08 KCAL/MOL
REMARK 923 INTER-LIGAND FREE ENERGY PREDICTED BY IDOCK:   -7.63 KCAL/MOL
REMARK 924 INTRA-LIGAND FREE ENERGY PREDICTED BY IDOCK:   -0.45 KCAL/MOL
REMARK 927      BINDING AFFINITY PREDICTED BY RF-SCORE:    0.00 PKD
ROOT
HETATM    1  C   UNL     1     -12.881  14.879  65.559  1.00  0.00     0.348 C  
HETATM    2  N   UNL     1     -12.107  13.722  66.028  1.00  0.00    -0.409 N  
HETATM    3  C   UNL     1     -11.632  13.485  67.380  1.00  0.00    -0.356 C  
HETATM    4  O   UNL     1     -10.836  13.375  63.836  1.00  0.00    -0.278 OA 
HETATM    5  C   UNL     1     -10.865  12.406  67.702  1.00  0.00    -0.225 C  
HETATM    6  C   UNL     1      -9.311   9.635  65.483  1.00  0.00    -0.248 A  
HETATM    7  O   UNL     1     -10.425  12.119  68.986  1.00  0.00    -0.386 OA 
HETATM    8  C   UNL     1     -10.416  11.451  66.737  1.00  0.00    -0.244 A  
HETATM    9  O   UNL     1     -12.879  11.969  64.346  1.00  0.00    -0.506 OA 
HETATM   10  S   UNL     1     -11.697  12.669  64.769  1.00  0.00    -0.373 S  
HETATM   11  H   UNL     1      -9.890  11.366  69.209  1.00  0.00     0.000 HD 
HETATM   12  S   UNL     1      -9.371  10.124  67.102  1.00  0.00    -0.155 SA 
HETATM   13  C   UNL     1     -10.688  11.448  65.394  1.00  0.00    -0.253 A  
HETATM   14 CL   UNL     1      -8.361   8.278  65.033  1.00  0.00    -0.164 Cl 
HETATM   15  C   UNL     1     -10.063  10.417  64.647  1.00  0.00    -0.378 A  
ENDROOT
BRANCH   3  16
HETATM   16  C   UNL     1     -11.909  14.446  68.523  1.00  0.00    -0.334 C  
HETATM   17  N   UNL     1     -12.508  13.928  69.642  1.00  0.00    -0.362 N  
HETATM   18  O   UNL     1     -11.466  15.596  68.458  1.00  0.00    -0.344 OA 
HETATM   19  H   UNL     1     -12.815  12.956  69.617  1.00  0.00     0.000 HD 
BRANCH  17  20
HETATM   20  C   UNL     1     -12.721  14.656  70.819  1.00  0.00    -0.359 A  
HETATM   21  C   UNL     1     -11.688  15.117  71.633  1.00  0.00    -0.458 A  
HETATM   22  C   UNL     1     -13.345  15.926  73.170  1.00  0.00    -0.681 A  
HETATM   23  C   UNL     1     -12.010  15.774  72.820  1.00  0.00    -0.598 A  
HETATM   24  C   UNL     1     -14.303  15.462  72.285  1.00  0.00    -0.483 A  
HETATM   25  N   UNL     1     -14.020  14.872  71.100  1.00  0.00    -0.383 NA 
ENDBRANCH  17  20
ENDBRANCH   3  16
TORSDOF 2
ENDMDL
MODEL        3
REMARK 921   NORMALIZED FREE ENERGY PREDICTED BY IDOCK:   -6.66 KCAL/MOL
REMARK 922        TOTAL FREE ENERGY PREDICTED BY IDOCK:   -8.05 KCAL/MOL
REMARK 923 INTER-LIGAND FREE ENERGY PREDICTED BY IDOCK:   -7.69 KCAL/MOL
REMARK 924 INTRA-LIGAND FREE ENERGY PREDICTED BY IDOCK:   -0.36 KCAL/MOL
REMARK 927      BINDING AFFINITY PREDICTED BY RF-SCORE:    0.00 PKD
ROOT
HETATM    1  C   UNL     1     -12.683  13.547  72.632  1.00  0.00     0.052 C  
HETATM    2  N   UNL     1     -12.422  13.392  71.195  1.00  0.00    -0.357 N  
HETATM    3  C   UNL     1     -12.301  12.142  70.464  1.00  0.00    -0.272 C  
HETATM    4  O   UNL     1     -10.957  15.479  70.988  1.00  0.00    -0.345 OA 
HETATM    5  C   UNL     1     -11.996  12.105  69.137  1.00  0.00    -0.255 C  
HETATM    6  C   UNL     1     -11.045  14.930  66.662  1.00  0.00    -0.329 A  
HETATM    7  O   UNL     1     -11.911  10.938  68.390  1.00  0.00    -0.701 OA 
HETATM    8  C   UNL     1     -11.712  13.276  68.366  1.00  0.00    -0.354 A  
HETATM    9  O   UNL     1     -13.401  15.583  70.335  1.00  0.00    -0.296 OA 
HETATM   10  S   UNL     1     -12.153  14.875  70.427  1.00  0.00    -0.357 S  
HETATM   11  H   UNL     1     -11.698  10.912  67.465  1.00  0.00     0.000 HD 
HETATM   12  S   UNL     1     -11.236  13.250  66.706  1.00  0.00    -0.315 SA 
HETATM   13  C   UNL     1     -11.723  14.573  68.807  1.00  0.00    -0.327 A  
HETATM   14 CL   UNL     1     -10.519  15.695  65.217  1.00  0.00    -0.428 Cl 
HETATM   15  C   UNL     1     -11.340  15.546  67.849  1.00  0.00    -0.309 A  
ENDROOT
BRANCH   3  16
HETATM   16  C   UNL     1     -12.455  10.788  71.131  1.00  0.00    -0.414 C  
HETATM   17  N   UNL     1     -11.432   9.890  70.965  1.00  0.00    -0.363 N  
HETATM   18  O   UNL     1     -13.405  10.603  71.897  1.00  0.00    -0.424 OA 
HETATM   19  H   UNL     1     -10.671  10.141  70.335  1.00  0.00     0.000 HD 
BRANCH  17  20
HETATM   20  C   UNL     1     -11.372   8.649  71.612  1.00  0.00    -0.307 A  
HETATM   21  C   UNL     1     -10.513   8.380  72.675  1.00  0.00    -0.317 A  
HETATM   22  C   UNL     1     -11.286   6.107  72.640  1.00  0.00    -0.312 A  
HETATM   23  C   UNL     1     -10.483   7.090  73.204  1.00  0.00    -0.335 A  
HETATM   24  C   UNL     1     -12.128   6.475  71.605  1.00  0.00    -0.328 A  
HETATM   25  N   UNL     1     -12.219   7.731  71.110  1.00  0.00    -0.296 NA 
ENDBRANCH  17  20
ENDBRANCH   3  16
TORSDOF 2
ENDMDL
MODEL        4
REMARK 921   NORMALIZED FREE ENERGY PREDICTED BY IDOCK:   -6.65 KCAL/MOL
REMARK 922        TOTAL FREE ENERGY PREDICTED BY IDOCK:   -8.03 KCAL/MOL
REMARK 923 INTER-LIGAND FREE ENERGY PREDICTED BY IDOCK:   -7.39 KCAL/MOL
REMARK 924 INTRA-LIGAND FREE ENERGY PREDICTED BY IDOCK:   -0.64 KCAL/MOL
REMARK 927      BINDING AFFINITY PREDICTED BY RF-SCORE:    0.00 PKD
ROOT
HETATM    1  C   UNL     1     -10.042  14.211  64.932  1.00  0.00    -0.246 C  
HETATM    2  N   UNL     1     -10.621  14.243  66.281  1.00  0.00    -0.286 N  
HETATM    3  C   UNL     1     -10.666  15.384  67.180  1.00  0.00    -0.314 C  
HETATM    4  O   UNL     1     -10.042  11.818  66.852  1.00  0.00    -0.204 OA 
HETATM    5  C   UNL     1     -11.173  15.294  68.441  1.00  0.00    -0.309 C  
HETATM    6  C   UNL     1     -12.459  12.246  70.458  1.00  0.00    -0.189 A  
HETATM    7  O   UNL     1     -11.274  16.365  69.318  1.00  0.00    -0.315 OA 
HETATM    8  C   UNL     1     -11.647  14.070  69.008  1.00  0.00    -0.306 A  
HETATM    9  O   UNL     1     -12.371  12.404  66.049  1.00  0.00    -0.627 OA 
HETATM   10  S   UNL     1     -11.175  12.724  66.780  1.00  0.00    -0.311 S  
HETATM   11  H   UNL     1     -11.627  16.302  70.197  1.00  0.00     0.000 HD 
HETATM   12  S   UNL     1     -12.212  13.910  70.633  1.00  0.00    -0.371 SA 
HETATM   13  C   UNL     1     -11.692  12.844  68.398  1.00  0.00    -0.345 A  
HETATM   14 CL   UNL     1     -13.036  11.321  71.785  1.00  0.00    -0.559 Cl 
HETATM   15  C   UNL     1     -12.151  11.775  69.209  1.00  0.00    -0.292 A  
ENDROOT
BRANCH   3  16
HETATM   16  C   UNL     1     -10.107  16.743  66.802  1.00  0.00    -0.294 C  
HETATM   17  N   UNL     1      -8.854  17.053  67.264  1.00  0.00    -0.208 N  
HETATM   18  O   UNL     1     -10.727  17.442  65.995  1.00  0.00    -0.263 OA 
HETATM   19  H   UNL     1      -8.403  16.401  67.905  1.00  0.00     0.000 HD 
BRANCH  17  20
HETATM   20  C   UNL     1      -8.157  18.214  66.906  1.00  0.00    -0.237 A  
HETATM   21  C   UNL     1      -8.292  19.427  67.578  1.00  0.00    -0.326 A  
HETATM   22  C   UNL     1      -6.828  20.417  65.953  1.00  0.00    -0.276 A  
HETATM   23  C   UNL     1      -7.603  20.541  67.098  1.00  0.00    -0.372 A  
HETATM   24  C   UNL     1      -6.730  19.165  65.370  1.00  0.00    -0.244 A  
HETATM   25  N   UNL     1      -7.341  18.056  65.846  1.00  0.00    -0.494 NA 
ENDBRANCH  17  20
ENDBRANCH   3  16
TORSDOF 2
ENDMDL
MODEL        5
REMARK 921   NORMALIZED FREE ENERGY PREDICTED BY IDOCK:   -6.65 KCAL/MOL
REMARK 922        TOTAL FREE ENERGY PREDICTED BY IDOCK:   -8.03 KCAL/MOL
REMARK 923 INTER-LIGAND FREE ENERGY PREDICTED BY IDOCK:   -7.45 KCAL/MOL
REMARK 924 INTRA-LIGAND FREE ENERGY PREDICTED BY IDOCK:   -0.59 KCAL/MOL
REMARK 927      BINDING AFFINITY PREDICTED BY RF-SCORE:    0.00 PKD
ROOT
HETATM    1  C   UNL     1     -13.207  13.102  72.550  1.00  0.00    -0.332 C  
HETATM    2  N   UNL     1     -12.668  13.289  71.198  1.00  0.00    -0.352 N  
HETATM    3  C   UNL     1     -12.265  12.246  70.270  1.00  0.00    -0.262 C  
HETATM    4  O   UNL     1     -11.450  15.477  71.721  1.00  0.00    -0.390 OA 
HETATM    5  C   UNL     1     -11.717  12.526  69.055  1.00  0.00    -0.318 C  
HETATM    6  C   UNL     1     -10.670  15.894  67.451  1.00  0.00    -0.313 A  
HETATM    7  O   UNL     1     -11.357  11.564  68.123  1.00  0.00    -0.248 OA 
HETATM    8  C   UNL     1     -11.438  13.857  68.612  1.00  0.00    -0.298 A  
HETATM    9  O   UNL     1     -13.726  15.534  70.613  1.00  0.00    -0.397 OA 
HETATM   10  S   UNL     1     -12.441  14.922  70.816  1.00  0.00    -0.369 S  
HETATM   11  H   UNL     1     -10.974  11.760  67.276  1.00  0.00     0.000 HD 
HETATM   12  S   UNL     1     -10.663  14.236  67.115  1.00  0.00    -0.284 SA 
HETATM   13  C   UNL     1     -11.686  15.020  69.293  1.00  0.00    -0.323 A  
HETATM   14 CL   UNL     1      -9.981  16.997  66.330  1.00  0.00    -0.301 Cl 
HETATM   15  C   UNL     1     -11.251  16.207  68.650  1.00  0.00    -0.369 A  
ENDROOT
BRANCH   3  16
HETATM   16  C   UNL     1     -12.377  10.769  70.605  1.00  0.00    -0.372 C  
HETATM   17  N   UNL     1     -11.205  10.069  70.735  1.00  0.00    -0.334 N  
HETATM   18  O   UNL     1     -13.484  10.301  70.883  1.00  0.00    -0.307 OA 
HETATM   19  H   UNL     1     -10.333  10.547  70.513  1.00  0.00     0.000 HD 
BRANCH  17  20
HETATM   20  C   UNL     1     -11.138   8.734  71.154  1.00  0.00    -0.276 A  
HETATM   21  C   UNL     1     -11.233   7.651  70.282  1.00  0.00    -0.230 A  
HETATM   22  C   UNL     1     -11.148   6.192  72.186  1.00  0.00    -0.321 A  
HETATM   23  C   UNL     1     -11.223   6.361  70.811  1.00  0.00    -0.386 A  
HETATM   24  C   UNL     1     -11.027   7.326  72.972  1.00  0.00    -0.344 A  
HETATM   25  N   UNL     1     -10.977   8.587  72.483  1.00  0.00    -0.321 NA 
ENDBRANCH  17  20
ENDBRANCH   3  16
TORSDOF 2
ENDMDL
MODEL        6
REMARK 921   NORMALIZED FREE ENERGY PREDICTED BY IDOCK:   -6.61 KCAL/MOL
REMARK 922        TOTAL FREE ENERGY PREDICTED BY IDOCK:   -7.99 KCAL/MOL
REMARK 923 INTER-LIGAND FREE ENERGY PREDICTED BY IDOCK:   -7.32 KCAL/MOL
REMARK 924 INTRA-LIGAND FREE ENERGY PREDICTED BY IDOCK:   -0.67 KCAL/MOL
REMARK 927      BINDING AFFINITY PREDICTED BY RF-SCORE:    0.00 PKD
ROOT
HETATM    1  C   UNL     1     -10.121  15.402  70.078  1.00  0.00    -0.207 C  
HETATM    2  N   UNL     1     -10.362  15.180  68.647  1.00  0.00    -0.226 N  
HETATM    3  C   UNL     1     -10.118  16.122  67.568  1.00  0.00    -0.256 C  
HETATM    4  O   UNL     1     -12.395  13.663  68.974  1.00  0.00    -0.280 OA 
HETATM    5  C   UNL     1     -10.434  15.841  66.273  1.00  0.00    -0.309 C  
HETATM    6  C   UNL     1     -12.262  12.809  64.699  1.00  0.00    -0.447 A  
HETATM    7  O   UNL     1     -10.182  16.693  65.207  1.00  0.00    -0.600 OA 
HETATM    8  C   UNL     1     -11.080  14.629  65.871  1.00  0.00    -0.338 A  
HETATM    9  O   UNL     1     -10.116  12.645  68.551  1.00  0.00    -0.222 OA 
HETATM   10  S   UNL     1     -11.088  13.682  68.341  1.00  0.00    -0.279 S  
HETATM   11  H   UNL     1     -10.402  16.496  64.305  1.00  0.00     0.000 HD 
HETATM   12  S   UNL     1     -11.571  14.286  64.251  1.00  0.00    -0.219 SA 
HETATM   13  C   UNL     1     -11.450  13.587  66.680  1.00  0.00    -0.339 A  
HETATM   14 CL   UNL     1     -13.034  11.831  63.518  1.00  0.00    -0.440 Cl 
HETATM   15  C   UNL     1     -12.135  12.528  66.033  1.00  0.00    -0.390 A  
ENDROOT
BRANCH   3  16
HETATM   16  C   UNL     1      -9.544  17.507  67.808  1.00  0.00    -0.269 C  
HETATM   17  N   UNL     1      -8.180  17.636  67.744  1.00  0.00    -0.221 N  
HETATM   18  O   UNL     1     -10.314  18.465  67.906  1.00  0.00    -0.369 OA 
HETATM   19  H   UNL     1      -7.622  16.790  67.630  1.00  0.00     0.000 HD 
BRANCH  17  20
HETATM   20  C   UNL     1      -7.509  18.863  67.826  1.00  0.00    -0.239 A  
HETATM   21  C   UNL     1      -7.380  19.738  66.750  1.00  0.00    -0.261 A  
HETATM   22  C   UNL     1      -6.019  21.144  68.140  1.00  0.00    -0.373 A  
HETATM   23  C   UNL     1      -6.634  20.904  66.919  1.00  0.00    -0.380 A  
HETATM   24  C   UNL     1      -6.227  20.232  69.160  1.00  0.00    -0.327 A  
HETATM   25  N   UNL     1      -6.992  19.122  69.042  1.00  0.00    -0.325 NA 
ENDBRANCH  17  20
ENDBRANCH   3  16
TORSDOF 2
ENDMDL
MODEL        7
REMARK 921   NORMALIZED FREE ENERGY PREDICTED BY IDOCK:   -6.55 KCAL/MOL
REMARK 922        TOTAL FREE ENERGY PREDICTED BY IDOCK:   -7.93 KCAL/MOL
REMARK 923 INTER-LIGAND FREE ENERGY PREDICTED BY IDOCK:   -7.64 KCAL/MOL
REMARK 924 INTRA-LIGAND FREE ENERGY PREDICTED BY IDOCK:   -0.29 KCAL/MOL
REMARK 927      BINDING AFFINITY PREDICTED BY RF-SCORE:    0.00 PKD
ROOT
HETATM    1  C   UNL     1      -9.308  13.243  66.708  1.00  0.00    -0.252 C  
HETATM    2  N   UNL     1     -10.235  13.173  67.844  1.00  0.00    -0.228 N  
HETATM    3  C   UNL     1     -10.632  14.270  68.711  1.00  0.00    -0.252 C  
HETATM    4  O   UNL     1      -9.610  10.787  68.521  1.00  0.00    -0.168 OA 
HETATM    5  C   UNL     1     -11.455  14.088  69.781  1.00  0.00    -0.230 C  
HETATM    6  C   UNL     1     -12.952  10.863  71.322  1.00  0.00    -0.392 A  
HETATM    7  O   UNL     1     -11.893  15.111  70.609  1.00  0.00    -0.278 OA 
HETATM    8  C   UNL     1     -11.950  12.806  70.178  1.00  0.00    -0.296 A  
HETATM    9  O   UNL     1     -11.673  11.199  67.113  1.00  0.00    -0.501 OA 
HETATM   10  S   UNL     1     -10.760  11.594  68.150  1.00  0.00    -0.226 S  
HETATM   11  H   UNL     1     -12.466  14.984  71.355  1.00  0.00     0.000 HD 
HETATM   12  S   UNL     1     -12.921  12.535  71.581  1.00  0.00    -0.214 SA 
HETATM   13  C   UNL     1     -11.710  11.605  69.563  1.00  0.00    -0.344 A  
HETATM   14 CL   UNL     1     -13.782   9.842  72.425  1.00  0.00    -0.375 Cl 
HETATM   15  C   UNL     1     -12.271  10.470  70.202  1.00  0.00    -0.358 A  
ENDROOT
BRANCH   3  16
HETATM   16  C   UNL     1     -10.122  15.686  68.520  1.00  0.00    -0.211 C  
HETATM   17  N   UNL     1     -10.858  16.511  67.709  1.00  0.00    -0.332 N  
HETATM   18  O   UNL     1      -9.167  16.074  69.199  1.00  0.00    -0.227 OA 
HETATM   19  H   UNL     1     -11.651  16.111  67.209  1.00  0.00     0.000 HD 
BRANCH  17  20
HETATM   20  C   UNL     1     -10.584  17.873  67.529  1.00  0.00    -0.376 A  
HETATM   21  C   UNL     1     -10.526  18.483  66.278  1.00  0.00    -0.441 A  
HETATM   22  C   UNL     1      -9.872  20.518  67.371  1.00  0.00    -0.574 A  
HETATM   23  C   UNL     1     -10.178  19.832  66.204  1.00  0.00    -0.618 A  
HETATM   24  C   UNL     1      -9.984  19.836  68.571  1.00  0.00    -0.432 A  
HETATM   25  N   UNL     1     -10.375  18.545  68.677  1.00  0.00    -0.312 NA 
ENDBRANCH  17  20
ENDBRANCH   3  16
TORSDOF 2
ENDMDL
MODEL        8
REMARK 921   NORMALIZED FREE ENERGY PREDICTED BY IDOCK:   -6.51 KCAL/MOL
REMARK 922        TOTAL FREE ENERGY PREDICTED BY IDOCK:   -7.89 KCAL/MOL
REMARK 923 INTER-LIGAND FREE ENERGY PREDICTED BY IDOCK:   -7.24 KCAL/MOL
REMARK 924 INTRA-LIGAND FREE ENERGY PREDICTED BY IDOCK:   -0.65 KCAL/MOL
REMARK 927      BINDING AFFINITY PREDICTED BY RF-SCORE:    0.00 PKD
ROOT
HETATM    1  C   UNL     1      -9.669  11.847  66.280  1.00  0.00    -0.229 C  
HETATM    2  N   UNL     1      -9.946  12.944  67.215  1.00  0.00    -0.222 N  
HETATM    3  C   UNL     1     -10.756  12.876  68.419  1.00  0.00    -0.255 C  
HETATM    4  O   UNL     1      -9.927  14.787  65.441  1.00  0.00    -0.357 OA 
HETATM    5  C   UNL     1     -11.004  13.971  69.191  1.00  0.00    -0.230 C  
HETATM    6  C   UNL     1     -10.098  17.703  68.679  1.00  0.00    -0.377 A  
HETATM    7  O   UNL     1     -11.736  13.944  70.369  1.00  0.00    -0.434 OA 
HETATM    8  C   UNL     1     -10.543  15.283  68.856  1.00  0.00    -0.242 A  
HETATM    9  O   UNL     1      -7.864  14.368  66.847  1.00  0.00    -0.047 OA 
HETATM   10  S   UNL     1      -9.293  14.416  66.693  1.00  0.00    -0.269 S  
HETATM   11  H   UNL     1     -11.909  14.708  70.906  1.00  0.00     0.000 HD 
HETATM   12  S   UNL     1     -10.917  16.702  69.769  1.00  0.00    -0.066 SA 
HETATM   13  C   UNL     1      -9.790  15.638  67.768  1.00  0.00    -0.220 A  
HETATM   14 CL   UNL     1     -10.059  19.400  68.939  1.00  0.00    -0.496 Cl 
HETATM   15  C   UNL     1      -9.521  17.025  67.639  1.00  0.00    -0.236 A  
ENDROOT
BRANCH   3  16
HETATM   16  C   UNL     1     -11.427  11.595  68.879  1.00  0.00    -0.287 C  
HETATM   17  N   UNL     1     -11.065  11.107  70.109  1.00  0.00    -0.479 N  
HETATM   18  O   UNL     1     -12.354  11.131  68.210  1.00  0.00    -0.532 OA 
HETATM   19  H   UNL     1     -10.307  11.574  70.606  1.00  0.00     0.000 HD 
BRANCH  17  20
HETATM   20  C   UNL     1     -11.677  10.006  70.721  1.00  0.00    -0.350 A  
HETATM   21  C   UNL     1     -12.739  10.119  71.616  1.00  0.00    -0.549 A  
HETATM   22  C   UNL     1     -12.634   7.743  71.941  1.00  0.00    -0.339 A  
HETATM   23  C   UNL     1     -13.231   8.964  72.222  1.00  0.00    -0.498 A  
HETATM   24  C   UNL     1     -11.603   7.724  71.017  1.00  0.00    -0.283 A  
HETATM   25  N   UNL     1     -11.143   8.821  70.371  1.00  0.00    -0.242 NA 
ENDBRANCH  17  20
ENDBRANCH   3  16
TORSDOF 2
ENDMDL
MODEL        9
REMARK 921   NORMALIZED FREE ENERGY PREDICTED BY IDOCK:   -6.48 KCAL/MOL
REMARK 922        TOTAL FREE ENERGY PREDICTED BY IDOCK:   -7.84 KCAL/MOL
REMARK 923 INTER-LIGAND FREE ENERGY PREDICTED BY IDOCK:   -7.32 KCAL/MOL
REMARK 924 INTRA-LIGAND FREE ENERGY PREDICTED BY IDOCK:   -0.52 KCAL/MOL
REMARK 927      BINDING AFFINITY PREDICTED BY RF-SCORE:    0.00 PKD
ROOT
HETATM    1  C   UNL     1     -12.093  15.124  64.286  1.00  0.00    -0.261 C  
HETATM    2  N   UNL     1     -11.502  14.124  65.184  1.00  0.00    -0.323 N  
HETATM    3  C   UNL     1     -10.834  14.378  66.449  1.00  0.00    -0.314 C  
HETATM    4  O   UNL     1     -10.781  12.523  63.324  1.00  0.00    -0.385 OA 
HETATM    5  C   UNL     1     -10.263  13.382  67.182  1.00  0.00    -0.247 C  
HETATM    6  C   UNL     1      -9.781   9.614  66.415  1.00  0.00    -0.224 A  
HETATM    7  O   UNL     1      -9.652  13.573  68.412  1.00  0.00    -0.217 OA 
HETATM    8  C   UNL     1     -10.218  12.020  66.747  1.00  0.00    -0.202 A  
HETATM    9  O   UNL     1     -12.934  12.101  64.586  1.00  0.00    -0.651 OA 
HETATM   10  S   UNL     1     -11.572  12.560  64.541  1.00  0.00    -0.371 S  
HETATM   11  H   UNL     1      -9.253  12.878  68.922  1.00  0.00     0.000 HD 
HETATM   12  S   UNL     1      -9.423  10.754  67.614  1.00  0.00    -0.155 SA 
HETATM   13  C   UNL     1     -10.740  11.508  65.588  1.00  0.00    -0.267 A  
HETATM   14 CL   UNL     1      -9.240   7.994  66.586  1.00  0.00    -0.207 Cl 
HETATM   15  C   UNL     1     -10.500  10.128  65.370  1.00  0.00    -0.054 A  
ENDROOT
BRANCH   3  16
HETATM   16  C   UNL     1     -10.678  15.775  67.023  1.00  0.00    -0.306 C  
HETATM   17  N   UNL     1      -9.876  16.647  66.333  1.00  0.00    -0.276 N  
HETATM   18  O   UNL     1     -11.376  16.107  67.985  1.00  0.00    -0.326 OA 
HETATM   19  H   UNL     1      -9.359  16.291  65.530  1.00  0.00     0.000 HD 
BRANCH  17  20
HETATM   20  C   UNL     1      -9.726  17.998  66.669  1.00  0.00    -0.332 A  
HETATM   21  C   UNL     1      -8.948  18.441  67.736  1.00  0.00    -0.292 A  
HETATM   22  C   UNL     1      -9.687  20.676  67.265  1.00  0.00    -0.562 A  
HETATM   23  C   UNL     1      -8.920  19.805  68.026  1.00  0.00    -0.376 A  
HETATM   24  C   UNL     1     -10.407  20.149  66.206  1.00  0.00    -0.394 A  
HETATM   25  N   UNL     1     -10.407  18.839  65.867  1.00  0.00    -0.582 NA 
ENDBRANCH  17  20
ENDBRANCH   3  16
TORSDOF 2
ENDMDL
MODEL       10
REMARK 921   NORMALIZED FREE ENERGY PREDICTED BY IDOCK:   -6.47 KCAL/MOL
REMARK 922        TOTAL FREE ENERGY PREDICTED BY IDOCK:   -7.83 KCAL/MOL
REMARK 923 INTER-LIGAND FREE ENERGY PREDICTED BY IDOCK:   -7.33 KCAL/MOL
REMARK 924 INTRA-LIGAND FREE ENERGY PREDICTED BY IDOCK:   -0.51 KCAL/MOL
REMARK 927      BINDING AFFINITY PREDICTED BY RF-SCORE:    0.00 PKD
ROOT
HETATM    1  C   UNL     1     -13.228  12.922  72.068  1.00  0.00    -0.448 C  
HETATM    2  N   UNL     1     -12.439  13.500  70.974  1.00  0.00    -0.373 N  
HETATM    3  C   UNL     1     -11.820  12.780  69.874  1.00  0.00    -0.301 C  
HETATM    4  O   UNL     1     -11.434  15.391  72.373  1.00  0.00    -0.446 OA 
HETATM    5  C   UNL     1     -11.052  13.405  68.938  1.00  0.00    -0.266 C  
HETATM    6  C   UNL     1      -9.835  17.074  68.680  1.00  0.00    -0.290 A  
HETATM    7  O   UNL     1     -10.477  12.765  67.850  1.00  0.00    -0.211 OA 
HETATM    8  C   UNL     1     -10.741  14.800  68.987  1.00  0.00    -0.250 A  
HETATM    9  O   UNL     1     -13.443  15.842  70.901  1.00  0.00    -0.568 OA 
HETATM   10  S   UNL     1     -12.202  15.165  71.161  1.00  0.00    -0.370 S  
HETATM   11  H   UNL     1      -9.941  13.201  67.198  1.00  0.00     0.000 HD 
HETATM   12  S   UNL     1      -9.698  15.599  67.864  1.00  0.00    -0.211 SA 
HETATM   13  C   UNL     1     -11.163  15.705  69.925  1.00  0.00    -0.331 A  
HETATM   14 CL   UNL     1      -8.979  18.450  68.111  1.00  0.00    -0.313 Cl 
HETATM   15  C   UNL     1     -10.655  17.020  69.775  1.00  0.00    -0.004 A  
ENDROOT
BRANCH   3  16
HETATM   16  C   UNL     1     -11.940  11.276  69.714  1.00  0.00    -0.360 C  
HETATM   17  N   UNL     1     -11.369  10.497  70.687  1.00  0.00    -0.380 N  
HETATM   18  O   UNL     1     -12.652  10.825  68.813  1.00  0.00    -0.257 OA 
HETATM   19  H   UNL     1     -10.821  10.959  71.412  1.00  0.00     0.000 HD 
BRANCH  17  20
HETATM   20  C   UNL     1     -11.495   9.103  70.743  1.00  0.00    -0.282 A  
HETATM   21  C   UNL     1     -12.376   8.447  71.599  1.00  0.00    -0.359 A  
HETATM   22  C   UNL     1     -11.480   6.361  70.822  1.00  0.00    -0.415 A  
HETATM   23  C   UNL     1     -12.375   7.053  71.626  1.00  0.00    -0.407 A  
HETATM   24  C   UNL     1     -10.661   7.097  69.981  1.00  0.00    -0.248 A  
HETATM   25  N   UNL     1     -10.681   8.447  69.894  1.00  0.00    -0.233 NA 
ENDBRANCH  17  20
ENDBRANCH   3  16
TORSDOF 2
ENDMDL
MODEL       11
REMARK 921   NORMALIZED FREE ENERGY PREDICTED BY IDOCK:   -6.42 KCAL/MOL
REMARK 922        TOTAL FREE ENERGY PREDICTED BY IDOCK:   -7.78 KCAL/MOL
REMARK 923 INTER-LIGAND FREE ENERGY PREDICTED BY IDOCK:   -7.26 KCAL/MOL
REMARK 924 INTRA-LIGAND FREE ENERGY PREDICTED BY IDOCK:   -0.52 KCAL/MOL
REMARK 927      BINDING AFFINITY PREDICTED BY RF-SCORE:    0.00 PKD
ROOT
HETATM    1  C   UNL     1     -11.803  15.252  64.517  1.00  0.00    -0.295 C  
HETATM    2  N   UNL     1     -11.418  14.276  65.544  1.00  0.00    -0.322 N  
HETATM    3  C   UNL     1     -10.866  14.568  66.856  1.00  0.00    -0.305 C  
HETATM    4  O   UNL     1     -10.669  12.470  63.894  1.00  0.00    -0.377 OA 
HETATM    5  C   UNL     1     -10.482  13.584  67.717  1.00  0.00    -0.240 C  
HETATM    6  C   UNL     1     -10.311   9.739  67.275  1.00  0.00    -0.248 A  
HETATM    7  O   UNL     1      -9.990  13.815  68.993  1.00  0.00    -0.415 OA 
HETATM    8  C   UNL     1     -10.531  12.193  67.387  1.00  0.00    -0.213 A  
HETATM    9  O   UNL     1     -12.977  12.356  64.929  1.00  0.00    -0.762 OA 
HETATM   10  S   UNL     1     -11.579  12.680  65.007  1.00  0.00    -0.363 S  
HETATM   11  H   UNL     1      -9.722  13.130  69.593  1.00  0.00     0.000 HD 
HETATM   12  S   UNL     1      -9.968  10.932  68.424  1.00  0.00    -0.185 SA 
HETATM   13  C   UNL     1     -10.976  11.642  66.214  1.00  0.00    -0.289 A  
HETATM   14 CL   UNL     1      -9.960   8.093  67.619  1.00  0.00    -0.220 Cl 
HETATM   15  C   UNL     1     -10.857  10.231  66.121  1.00  0.00     0.052 A  
ENDROOT
BRANCH   3  16
HETATM   16  C   UNL     1     -10.630  15.985  67.345  1.00  0.00    -0.316 C  
HETATM   17  N   UNL     1      -9.718  16.740  66.654  1.00  0.00    -0.256 N  
HETATM   18  O   UNL     1     -11.355  16.439  68.235  1.00  0.00    -0.350 OA 
HETATM   19  H   UNL     1      -9.184  16.288  65.912  1.00  0.00     0.000 HD 
BRANCH  17  20
HETATM   20  C   UNL     1      -9.477  18.096  66.908  1.00  0.00    -0.286 A  
HETATM   21  C   UNL     1     -10.255  19.124  66.381  1.00  0.00    -0.515 A  
HETATM   22  C   UNL     1      -8.747  20.696  67.390  1.00  0.00    -0.311 A  
HETATM   23  C   UNL     1      -9.888  20.445  66.641  1.00  0.00    -0.496 A  
HETATM   24  C   UNL     1      -8.053  19.611  67.897  1.00  0.00    -0.304 A  
HETATM   25  N   UNL     1      -8.418  18.322  67.709  1.00  0.00    -0.246 NA 
ENDBRANCH  17  20
ENDBRANCH   3  16
TORSDOF 2
ENDMDL
MODEL       12
REMARK 921   NORMALIZED FREE ENERGY PREDICTED BY IDOCK:   -6.37 KCAL/MOL
REMARK 922        TOTAL FREE ENERGY PREDICTED BY IDOCK:   -7.73 KCAL/MOL
REMARK 923 INTER-LIGAND FREE ENERGY PREDICTED BY IDOCK:   -7.61 KCAL/MOL
REMARK 924 INTRA-LIGAND FREE ENERGY PREDICTED BY IDOCK:   -0.12 KCAL/MOL
REMARK 927      BINDING AFFINITY PREDICTED BY RF-SCORE:    0.00 PKD
ROOT
HETATM    1  C   UNL     1     -10.457   9.426  70.722  1.00  0.00    -0.304 C  
HETATM    2  N   UNL     1     -10.559  10.193  69.474  1.00  0.00    -0.228 N  
HETATM    3  C   UNL     1     -11.236  11.466  69.290  1.00  0.00    -0.277 C  
HETATM    4  O   UNL     1     -10.614   8.151  67.935  1.00  0.00    -0.212 OA 
HETATM    5  C   UNL     1     -11.327  12.070  68.072  1.00  0.00    -0.296 C  
HETATM    6  C   UNL     1     -10.241  10.875  64.550  1.00  0.00    -0.356 A  
HETATM    7  O   UNL     1     -11.927  13.302  67.858  1.00  0.00    -0.345 OA 
HETATM    8  C   UNL     1     -10.821  11.485  66.869  1.00  0.00    -0.284 A  
HETATM    9  O   UNL     1      -8.442   9.399  68.299  1.00  0.00    -0.118 OA 
HETATM   10  S   UNL     1      -9.872   9.379  68.159  1.00  0.00    -0.167 S  
HETATM   11  H   UNL     1     -11.990  13.723  67.009  1.00  0.00     0.000 HD 
HETATM   12  S   UNL     1     -11.001  12.187  65.301  1.00  0.00    -0.314 SA 
HETATM   13  C   UNL     1     -10.169  10.285  66.749  1.00  0.00    -0.228 A  
HETATM   14 CL   UNL     1     -10.064  10.852  62.842  1.00  0.00    -0.262 Cl 
HETATM   15  C   UNL     1      -9.827   9.908  65.426  1.00  0.00    -0.384 A  
ENDROOT
BRANCH   3  16
HETATM   16  C   UNL     1     -11.935  12.190  70.426  1.00  0.00    -0.272 C  
HETATM   17  N   UNL     1     -11.768  13.549  70.496  1.00  0.00    -0.533 N  
HETATM   18  O   UNL     1     -12.723  11.564  71.139  1.00  0.00    -0.393 OA 
HETATM   19  H   UNL     1     -11.118  13.987  69.844  1.00  0.00     0.000 HD 
BRANCH  17  20
HETATM   20  C   UNL     1     -12.439  14.371  71.411  1.00  0.00    -0.359 A  
HETATM   21  C   UNL     1     -13.819  14.558  71.403  1.00  0.00    -0.441 A  
HETATM   22  C   UNL     1     -13.550  16.146  73.183  1.00  0.00    -0.389 A  
HETATM   23  C   UNL     1     -14.381  15.451  72.315  1.00  0.00    -0.576 A  
HETATM   24  C   UNL     1     -12.193  15.873  73.138  1.00  0.00    -0.516 A  
HETATM   25  N   UNL     1     -11.628  14.971  72.302  1.00  0.00    -0.357 NA 
ENDBRANCH  17  20
ENDBRANCH   3  16
TORSDOF 2
ENDMDL
MODEL       13
REMARK 921   NORMALIZED FREE ENERGY PREDICTED BY IDOCK:   -6.34 KCAL/MOL
REMARK 922        TOTAL FREE ENERGY PREDICTED BY IDOCK:   -7.69 KCAL/MOL
REMARK 923 INTER-LIGAND FREE ENERGY PREDICTED BY IDOCK:   -7.15 KCAL/MOL
REMARK 924 INTRA-LIGAND FREE ENERGY PREDICTED BY IDOCK:   -0.54 KCAL/MOL
REMARK 927      BINDING AFFINITY PREDICTED BY RF-SCORE:    0.00 PKD
ROOT
HETATM    1  C   UNL     1      -9.646  13.982  66.523  1.00  0.00    -0.293 C  
HETATM    2  N   UNL     1     -10.067  12.612  66.845  1.00  0.00    -0.227 N  
HETATM    3  C   UNL     1     -11.061  12.217  67.827  1.00  0.00    -0.250 C  
HETATM    4  O   UNL     1      -7.781  11.549  66.411  1.00  0.00    -0.108 OA 
HETATM    5  C   UNL     1     -11.337  10.910  68.095  1.00  0.00    -0.315 C  
HETATM    6  C   UNL     1      -9.684   7.646  66.819  1.00  0.00    -0.222 A  
HETATM    7  O   UNL     1     -12.306  10.487  68.994  1.00  0.00    -0.759 OA 
HETATM    8  C   UNL     1     -10.638   9.822  67.483  1.00  0.00    -0.275 A  
HETATM    9  O   UNL     1      -9.569  11.470  64.621  1.00  0.00    -0.226 OA 
HETATM   10  S   UNL     1      -9.171  11.450  66.002  1.00  0.00    -0.210 S  
HETATM   11  H   UNL     1     -12.497   9.576  69.181  1.00  0.00     0.000 HD 
HETATM   12  S   UNL     1     -10.906   8.160  67.871  1.00  0.00     0.138 SA 
HETATM   13  C   UNL     1      -9.638   9.907  66.551  1.00  0.00    -0.190 A  
HETATM   14 CL   UNL     1      -9.323   5.973  66.680  1.00  0.00    -0.149 Cl 
HETATM   15  C   UNL     1      -9.068   8.671  66.153  1.00  0.00    -0.250 A  
ENDROOT
BRANCH   3  16
HETATM   16  C   UNL     1     -11.829  13.225  68.662  1.00  0.00    -0.345 C  
HETATM   17  N   UNL     1     -11.654  13.172  70.021  1.00  0.00    -0.520 N  
HETATM   18  O   UNL     1     -12.454  14.123  68.091  1.00  0.00    -0.115 OA 
HETATM   19  H   UNL     1     -11.095  12.411  70.404  1.00  0.00     0.000 HD 
BRANCH  17  20
HETATM   20  C   UNL     1     -12.198  14.105  70.913  1.00  0.00    -0.363 A  
HETATM   21  C   UNL     1     -11.524  15.250  71.331  1.00  0.00    -0.444 A  
HETATM   22  C   UNL     1     -13.368  15.727  72.791  1.00  0.00    -0.636 A  
HETATM   23  C   UNL     1     -12.129  16.079  72.275  1.00  0.00    -0.617 A  
HETATM   24  C   UNL     1     -13.976  14.586  72.295  1.00  0.00    -0.502 A  
HETATM   25  N   UNL     1     -13.438  13.794  71.338  1.00  0.00    -0.272 NA 
ENDBRANCH  17  20
ENDBRANCH   3  16
TORSDOF 2
ENDMDL
MODEL       14
REMARK 921   NORMALIZED FREE ENERGY PREDICTED BY IDOCK:   -6.34 KCAL/MOL
REMARK 922        TOTAL FREE ENERGY PREDICTED BY IDOCK:   -7.69 KCAL/MOL
REMARK 923 INTER-LIGAND FREE ENERGY PREDICTED BY IDOCK:   -7.66 KCAL/MOL
REMARK 924 INTRA-LIGAND FREE ENERGY PREDICTED BY IDOCK:   -0.03 KCAL/MOL
REMARK 927      BINDING AFFINITY PREDICTED BY RF-SCORE:    0.00 PKD
ROOT
HETATM    1  C   UNL     1     -11.653  11.870  66.466  1.00  0.00    -0.255 C  
HETATM    2  N   UNL     1     -11.277  13.118  67.142  1.00  0.00    -0.283 N  
HETATM    3  C   UNL     1     -11.257  13.358  68.574  1.00  0.00    -0.283 C  
HETATM    4  O   UNL     1     -12.157  14.664  65.304  1.00  0.00    -0.347 OA 
HETATM    5  C   UNL     1     -10.950  14.576  69.102  1.00  0.00    -0.268 C  
HETATM    6  C   UNL     1     -10.264  17.988  67.399  1.00  0.00    -0.363 A  
HETATM    7  O   UNL     1     -10.879  14.840  70.462  1.00  0.00    -0.483 OA 
HETATM    8  C   UNL     1     -10.680  15.729  68.300  1.00  0.00    -0.281 A  
HETATM    9  O   UNL     1      -9.692  14.096  65.401  1.00  0.00    -0.236 OA 
HETATM   10  S   UNL     1     -10.946  14.367  66.049  1.00  0.00    -0.323 S  
HETATM   11  H   UNL     1     -10.666  15.689  70.830  1.00  0.00     0.000 HD 
HETATM   12  S   UNL     1     -10.376  17.304  68.943  1.00  0.00    -0.327 SA 
HETATM   13  C   UNL     1     -10.662  15.794  66.932  1.00  0.00    -0.299 A  
HETATM   14 CL   UNL     1      -9.976  19.672  67.228  1.00  0.00    -0.483 Cl 
HETATM   15  C   UNL     1     -10.428  17.082  66.386  1.00  0.00    -0.252 A  
ENDROOT
BRANCH   3  16
HETATM   16  C   UNL     1     -11.625  12.288  69.586  1.00  0.00    -0.278 C  
HETATM   17  N   UNL     1     -10.862  11.149  69.596  1.00  0.00    -0.427 N  
HETATM   18  O   UNL     1     -12.485  12.539  70.436  1.00  0.00    -0.242 OA 
HETATM   19  H   UNL     1     -10.152  11.040  68.872  1.00  0.00     0.000 HD 
BRANCH  17  20
HETATM   20  C   UNL     1     -11.001  10.127  70.543  1.00  0.00    -0.310 A  
HETATM   21  C   UNL     1     -12.226   9.746  71.085  1.00  0.00    -0.453 A  
HETATM   22  C   UNL     1     -11.049   8.211  72.506  1.00  0.00    -0.446 A  
HETATM   23  C   UNL     1     -12.247   8.762  72.073  1.00  0.00    -0.447 A  
HETATM   24  C   UNL     1      -9.883   8.630  71.889  1.00  0.00    -0.314 A  
HETATM   25  N   UNL     1      -9.838   9.542  70.889  1.00  0.00    -0.260 NA 
ENDBRANCH  17  20
ENDBRANCH   3  16
TORSDOF 2
ENDMDL
MODEL       15
REMARK 921   NORMALIZED FREE ENERGY PREDICTED BY IDOCK:   -6.31 KCAL/MOL
REMARK 922        TOTAL FREE ENERGY PREDICTED BY IDOCK:   -7.66 KCAL/MOL
REMARK 923 INTER-LIGAND FREE ENERGY PREDICTED BY IDOCK:   -7.04 KCAL/MOL
REMARK 924 INTRA-LIGAND FREE ENERGY PREDICTED BY IDOCK:   -0.62 KCAL/MOL
REMARK 927      BINDING AFFINITY PREDICTED BY RF-SCORE:    0.00 PKD
ROOT
HETATM    1  C   UNL     1     -11.361  12.985  68.922  1.00  0.00    -0.287 C  
HETATM    2  N   UNL     1     -11.166  14.203  68.125  1.00  0.00    -0.265 N  
HETATM    3  C   UNL     1     -10.975  14.280  66.687  1.00  0.00    -0.310 C  
HETATM    4  O   UNL     1      -9.905  15.485  69.945  1.00  0.00    -0.286 OA 
HETATM    5  C   UNL     1     -10.740  15.459  66.047  1.00  0.00    -0.322 C  
HETATM    6  C   UNL     1     -10.180  19.036  67.428  1.00  0.00    -0.394 A  
HETATM    7  O   UNL     1     -10.594  15.584  64.674  1.00  0.00    -0.596 OA 
HETATM    8  C   UNL     1     -10.604  16.707  66.734  1.00  0.00    -0.214 A  
HETATM    9  O   UNL     1     -12.380  15.889  69.602  1.00  0.00    -0.252 OA 
HETATM   10  S   UNL     1     -11.071  15.593  69.087  1.00  0.00    -0.310 S  
HETATM   11  H   UNL     1     -10.429  16.407  64.228  1.00  0.00     0.000 HD 
HETATM   12  S   UNL     1     -10.218  18.201  65.957  1.00  0.00    -0.244 SA 
HETATM   13  C   UNL     1     -10.706  16.919  68.083  1.00  0.00    -0.375 A  
HETATM   14 CL   UNL     1      -9.802  20.711  67.452  1.00  0.00    -0.594 Cl 
HETATM   15  C   UNL     1     -10.463  18.249  68.512  1.00  0.00    -0.241 A  
ENDROOT
BRANCH   3  16
HETATM   16  C   UNL     1     -10.972  13.050  65.798  1.00  0.00    -0.277 C  
HETATM   17  N   UNL     1      -9.759  12.634  65.312  1.00  0.00    -0.464 N  
HETATM   18  O   UNL     1     -12.015  12.403  65.667  1.00  0.00    -0.447 OA 
HETATM   19  H   UNL     1      -8.943  13.216  65.495  1.00  0.00     0.000 HD 
BRANCH  17  20
HETATM   20  C   UNL     1      -9.577  11.454  64.579  1.00  0.00    -0.192 A  
HETATM   21  C   UNL     1      -9.220  10.239  65.159  1.00  0.00    -0.252 A  
HETATM   22  C   UNL     1      -9.108   9.293  62.955  1.00  0.00     0.015 A  
HETATM   23  C   UNL     1      -8.997   9.139  64.330  1.00  0.00    -0.104 A  
HETATM   24  C   UNL     1      -9.495  10.531  62.471  1.00  0.00    -0.254 A  
HETATM   25  N   UNL     1      -9.773  11.599  63.254  1.00  0.00    -0.380 NA 
ENDBRANCH  17  20
ENDBRANCH   3  16
TORSDOF 2
ENDMDL
MODEL       16
REMARK 921   NORMALIZED FREE ENERGY PREDICTED BY IDOCK:   -6.30 KCAL/MOL
REMARK 922        TOTAL FREE ENERGY PREDICTED BY IDOCK:   -7.65 KCAL/MOL
REMARK 923 INTER-LIGAND FREE ENERGY PREDICTED BY IDOCK:   -7.24 KCAL/MOL
REMARK 924 INTRA-LIGAND FREE ENERGY PREDICTED BY IDOCK:   -0.41 KCAL/MOL
REMARK 927      BINDING AFFINITY PREDICTED BY RF-SCORE:    0.00 PKD
ROOT
HETATM    1  C   UNL     1      -9.546  15.546  66.033  1.00  0.00    -0.345 C  
HETATM    2  N   UNL     1     -10.231  14.991  67.207  1.00  0.00    -0.240 N  
HETATM    3  C   UNL     1     -10.856  13.684  67.311  1.00  0.00    -0.284 C  
HETATM    4  O   UNL     1     -11.136  17.233  68.043  1.00  0.00    -0.289 OA 
HETATM    5  C   UNL     1     -11.524  13.285  68.430  1.00  0.00    -0.314 C  
HETATM    6  C   UNL     1     -12.409  15.195  71.683  1.00  0.00    -0.347 A  
HETATM    7  O   UNL     1     -12.099  12.033  68.588  1.00  0.00    -0.316 OA 
HETATM    8  C   UNL     1     -11.716  14.130  69.568  1.00  0.00    -0.312 A  
HETATM    9  O   UNL     1      -9.028  16.266  69.058  1.00  0.00    -0.246 OA 
HETATM   10  S   UNL     1     -10.334  16.104  68.478  1.00  0.00    -0.268 S  
HETATM   11  H   UNL     1     -12.564  11.755  69.368  1.00  0.00     0.000 HD 
HETATM   12  S   UNL     1     -12.633  13.681  70.962  1.00  0.00    -0.340 SA 
HETATM   13  C   UNL     1     -11.263  15.413  69.726  1.00  0.00    -0.288 A  
HETATM   14 CL   UNL     1     -13.118  15.529  73.211  1.00  0.00    -0.614 Cl 
HETATM   15  C   UNL     1     -11.650  16.052  70.932  1.00  0.00    -0.453 A  
ENDROOT
BRANCH   3  16
HETATM   16  C   UNL     1     -10.858  12.687  66.167  1.00  0.00    -0.273 C  
HETATM   17  N   UNL     1      -9.639  12.326  65.652  1.00  0.00    -0.393 N  
HETATM   18  O   UNL     1     -11.919  12.144  65.847  1.00  0.00    -0.561 OA 
HETATM   19  H   UNL     1      -8.810  12.807  65.998  1.00  0.00     0.000 HD 
BRANCH  17  20
HETATM   20  C   UNL     1      -9.468  11.334  64.678  1.00  0.00    -0.188 A  
HETATM   21  C   UNL     1      -9.112  10.020  64.977  1.00  0.00    -0.255 A  
HETATM   22  C   UNL     1      -9.022   9.576  62.620  1.00  0.00    -0.249 A  
HETATM   23  C   UNL     1      -8.900   9.127  63.927  1.00  0.00    -0.104 A  
HETATM   24  C   UNL     1      -9.408  10.890  62.420  1.00  0.00    -0.211 A  
HETATM   25  N   UNL     1      -9.675  11.763  63.419  1.00  0.00    -0.350 NA 
ENDBRANCH  17  20
ENDBRANCH   3  16
TORSDOF 2
ENDMDL
MODEL       17
REMARK 921   NORMALIZED FREE ENERGY PREDICTED BY IDOCK:   -6.28 KCAL/MOL
REMARK 922        TOTAL FREE ENERGY PREDICTED BY IDOCK:   -7.63 KCAL/MOL
REMARK 923 INTER-LIGAND FREE ENERGY PREDICTED BY IDOCK:   -7.32 KCAL/MOL
REMARK 924 INTRA-LIGAND FREE ENERGY PREDICTED BY IDOCK:   -0.30 KCAL/MOL
REMARK 927      BINDING AFFINITY PREDICTED BY RF-SCORE:    0.00 PKD
ROOT
HETATM    1  C   UNL     1     -11.101  11.770  65.702  1.00  0.00    -0.285 C  
HETATM    2  N   UNL     1     -10.943  12.893  66.634  1.00  0.00    -0.271 N  
HETATM    3  C   UNL     1     -11.096  12.851  68.079  1.00  0.00    -0.253 C  
HETATM    4  O   UNL     1     -11.808  14.676  65.017  1.00  0.00    -0.371 OA 
HETATM    5  C   UNL     1     -10.989  13.967  68.853  1.00  0.00    -0.263 C  
HETATM    6  C   UNL     1     -10.537  17.694  67.897  1.00  0.00    -0.387 A  
HETATM    7  O   UNL     1     -11.086  13.967  70.236  1.00  0.00    -0.468 OA 
HETATM    8  C   UNL     1     -10.776  15.274  68.314  1.00  0.00    -0.254 A  
HETATM    9  O   UNL     1      -9.316  14.337  65.307  1.00  0.00     0.176 OA 
HETATM   10  S   UNL     1     -10.652  14.356  65.836  1.00  0.00    -0.322 S  
HETATM   11  H   UNL     1     -11.011  14.745  70.776  1.00  0.00     0.000 HD 
HETATM   12  S   UNL     1     -10.725  16.716  69.265  1.00  0.00    -0.315 SA 
HETATM   13  C   UNL     1     -10.628  15.606  66.992  1.00  0.00    -0.311 A  
HETATM   14 CL   UNL     1     -10.433  19.399  68.072  1.00  0.00    -0.519 Cl 
HETATM   15  C   UNL     1     -10.492  16.991  66.723  1.00  0.00    -0.257 A  
ENDROOT
BRANCH   3  16
HETATM   16  C   UNL     1     -11.437  11.575  68.826  1.00  0.00    -0.287 C  
HETATM   17  N   UNL     1     -10.564  11.173  69.805  1.00  0.00    -0.455 N  
HETATM   18  O   UNL     1     -12.531  11.040  68.629  1.00  0.00    -0.462 OA 
HETATM   19  H   UNL     1      -9.696  11.694  69.918  1.00  0.00     0.000 HD 
BRANCH  17  20
HETATM   20  C   UNL     1     -10.798  10.087  70.658  1.00  0.00    -0.297 A  
HETATM   21  C   UNL     1      -9.905   9.029  70.813  1.00  0.00    -0.304 A  
HETATM   22  C   UNL     1     -11.507   7.972  72.255  1.00  0.00    -0.419 A  
HETATM   23  C   UNL     1     -10.264   7.963  71.638  1.00  0.00    -0.239 A  
HETATM   24  C   UNL     1     -12.316   9.080  72.066  1.00  0.00    -0.384 A  
HETATM   25  N   UNL     1     -11.970  10.153  71.318  1.00  0.00    -0.377 NA 
ENDBRANCH  17  20
ENDBRANCH   3  16
TORSDOF 2
ENDMDL
MODEL       18
REMARK 921   NORMALIZED FREE ENERGY PREDICTED BY IDOCK:   -6.22 KCAL/MOL
REMARK 922        TOTAL FREE ENERGY PREDICTED BY IDOCK:   -7.56 KCAL/MOL
REMARK 923 INTER-LIGAND FREE ENERGY PREDICTED BY IDOCK:   -6.99 KCAL/MOL
REMARK 924 INTRA-LIGAND FREE ENERGY PREDICTED BY IDOCK:   -0.57 KCAL/MOL
REMARK 927      BINDING AFFINITY PREDICTED BY RF-SCORE:    0.00 PKD
ROOT
HETATM    1  C   UNL     1     -11.600  15.512  64.524  1.00  0.00    -0.283 C  
HETATM    2  N   UNL     1     -11.182  14.485  65.487  1.00  0.00    -0.325 N  
HETATM    3  C   UNL     1     -10.460  14.701  66.729  1.00  0.00    -0.277 C  
HETATM    4  O   UNL     1     -10.784  12.660  63.739  1.00  0.00    -0.416 OA 
HETATM    5  C   UNL     1     -10.063  13.671  67.526  1.00  0.00    -0.237 C  
HETATM    6  C   UNL     1     -10.268   9.835  67.020  1.00  0.00    -0.229 A  
HETATM    7  O   UNL     1      -9.409  13.832  68.739  1.00  0.00    -0.369 OA 
HETATM    8  C   UNL     1     -10.267  12.296  67.187  1.00  0.00    -0.211 A  
HETATM    9  O   UNL     1     -12.958  12.714  65.035  1.00  0.00    -0.812 OA 
HETATM   10  S   UNL     1     -11.538  12.919  64.953  1.00  0.00    -0.346 S  
HETATM   11  H   UNL     1      -9.132  13.114  69.295  1.00  0.00     0.000 HD 
HETATM   12  S   UNL     1      -9.695  10.970  68.136  1.00  0.00    -0.180 SA 
HETATM   13  C   UNL     1     -10.889  11.809  66.068  1.00  0.00    -0.296 A  
HETATM   14 CL   UNL     1     -10.020   8.159  67.301  1.00  0.00    -0.256 Cl 
HETATM   15  C   UNL     1     -10.901  10.396  65.944  1.00  0.00     0.079 A  
ENDROOT
BRANCH   3  16
HETATM   16  C   UNL     1     -10.051  16.083  67.204  1.00  0.00    -0.270 C  
HETATM   17  N   UNL     1      -8.851  16.569  66.751  1.00  0.00    -0.207 N  
HETATM   18  O   UNL     1     -10.858  16.758  67.849  1.00  0.00    -0.348 OA 
HETATM   19  H   UNL     1      -8.260  15.949  66.198  1.00  0.00     0.000 HD 
BRANCH  17  20
HETATM   20  C   UNL     1      -8.391  17.867  67.005  1.00  0.00    -0.234 A  
HETATM   21  C   UNL     1      -7.732  18.231  68.176  1.00  0.00    -0.288 A  
HETATM   22  C   UNL     1      -7.710  20.498  67.385  1.00  0.00    -0.365 A  
HETATM   23  C   UNL     1      -7.375  19.568  68.359  1.00  0.00    -0.352 A  
HETATM   24  C   UNL     1      -8.339  20.038  66.240  1.00  0.00    -0.285 A  
HETATM   25  N   UNL     1      -8.646  18.740  66.012  1.00  0.00    -0.484 NA 
ENDBRANCH  17  20
ENDBRANCH   3  16
TORSDOF 2
ENDMDL
MODEL       19
REMARK 921   NORMALIZED FREE ENERGY PREDICTED BY IDOCK:   -6.22 KCAL/MOL
REMARK 922        TOTAL FREE ENERGY PREDICTED BY IDOCK:   -7.55 KCAL/MOL
REMARK 923 INTER-LIGAND FREE ENERGY PREDICTED BY IDOCK:   -6.93 KCAL/MOL
REMARK 924 INTRA-LIGAND FREE ENERGY PREDICTED BY IDOCK:   -0.62 KCAL/MOL
REMARK 927      BINDING AFFINITY PREDICTED BY RF-SCORE:    0.00 PKD
ROOT
HETATM    1  C   UNL     1     -13.148  10.356  71.711  1.00  0.00    -0.462 C  
HETATM    2  N   UNL     1     -12.210   9.508  70.965  1.00  0.00    -0.308 N  
HETATM    3  C   UNL     1     -11.513   9.854  69.738  1.00  0.00    -0.143 C  
HETATM    4  O   UNL     1     -13.366   7.300  71.542  1.00  0.00    -0.379 OA 
HETATM    5  C   UNL     1     -10.707   8.970  69.087  1.00  0.00    -0.157 C  
HETATM    6  C   UNL     1      -9.971   5.225  69.757  1.00  0.00    -0.236 A  
HETATM    7  O   UNL     1      -9.990   9.270  67.938  1.00  0.00    -0.170 OA 
HETATM    8  C   UNL     1     -10.523   7.617  69.515  1.00  0.00    -0.227 A  
HETATM    9  O   UNL     1     -11.339   8.045  72.862  1.00  0.00    -0.408 OA 
HETATM   10  S   UNL     1     -12.075   7.957  71.630  1.00  0.00    -0.311 S  
HETATM   11  H   UNL     1      -9.429   8.653  67.484  1.00  0.00     0.000 HD 
HETATM   12  S   UNL     1      -9.578   6.452  68.659  1.00  0.00    -0.120 SA 
HETATM   13  C   UNL     1     -11.081   7.020  70.615  1.00  0.00    -0.272 A  
HETATM   14 CL   UNL     1      -9.363   3.637  69.519  1.00  0.00    -0.234 Cl 
HETATM   15  C   UNL     1     -10.783   5.643  70.776  1.00  0.00    -0.320 A  
ENDROOT
BRANCH   3  16
HETATM   16  C   UNL     1     -11.669  11.205  69.064  1.00  0.00    -0.339 C  
HETATM   17  N   UNL     1     -11.009  12.265  69.631  1.00  0.00    -0.462 N  
HETATM   18  O   UNL     1     -12.252  11.268  67.979  1.00  0.00    -0.621 OA 
HETATM   19  H   UNL     1     -10.527  12.113  70.516  1.00  0.00     0.000 HD 
BRANCH  17  20
HETATM   20  C   UNL     1     -10.959  13.545  69.063  1.00  0.00    -0.225 A  
HETATM   21  C   UNL     1     -11.806  14.584  69.442  1.00  0.00    -0.367 A  
HETATM   22  C   UNL     1     -10.815  15.933  67.721  1.00  0.00    -0.324 A  
HETATM   23  C   UNL     1     -11.720  15.801  68.765  1.00  0.00    -0.387 A  
HETATM   24  C   UNL     1      -9.994  14.855  67.435  1.00  0.00    -0.223 A  
HETATM   25  N   UNL     1     -10.018  13.683  68.111  1.00  0.00    -0.240 NA 
ENDBRANCH  17  20
ENDBRANCH   3  16
TORSDOF 2
ENDMDL
MODEL       20
REMARK 921   NORMALIZED FREE ENERGY PREDICTED BY IDOCK:   -6.21 KCAL/MOL
REMARK 922        TOTAL FREE ENERGY PREDICTED BY IDOCK:   -7.55 KCAL/MOL
REMARK 923 INTER-LIGAND FREE ENERGY PREDICTED BY IDOCK:   -7.59 KCAL/MOL
REMARK 924 INTRA-LIGAND FREE ENERGY PREDICTED BY IDOCK:    0.04 KCAL/MOL
REMARK 927      BINDING AFFINITY PREDICTED BY RF-SCORE:    0.00 PKD
ROOT
HETATM    1  C   UNL     1     -12.244  14.400  66.970  1.00  0.00    -0.239 C  
HETATM    2  N   UNL     1     -11.669  13.055  67.100  1.00  0.00    -0.367 N  
HETATM    3  C   UNL     1     -11.473  12.309  68.331  1.00  0.00    -0.307 C  
HETATM    4  O   UNL     1     -10.047  13.293  65.135  1.00  0.00    -0.288 OA 
HETATM    5  C   UNL     1     -10.872  11.087  68.351  1.00  0.00    -0.220 C  
HETATM    6  C   UNL     1      -9.169   9.040  65.536  1.00  0.00    -0.198 A  
HETATM    7  O   UNL     1     -10.701  10.322  69.496  1.00  0.00    -0.215 OA 
HETATM    8  C   UNL     1     -10.332  10.462  67.183  1.00  0.00    -0.238 A  
HETATM    9  O   UNL     1     -12.259  12.105  64.809  1.00  0.00    -0.360 OA 
HETATM   10  S   UNL     1     -11.121  12.444  65.620  1.00  0.00    -0.319 S  
HETATM   11  H   UNL     1     -10.282   9.471  69.510  1.00  0.00     0.000 HD 
HETATM   12  S   UNL     1      -9.487   8.955  67.196  1.00  0.00    -0.167 SA 
HETATM   13  C   UNL     1     -10.351  10.953  65.904  1.00  0.00    -0.250 A  
HETATM   14 CL   UNL     1      -8.268   7.794  64.772  1.00  0.00    -0.130 Cl 
HETATM   15  C   UNL     1      -9.686  10.157  64.937  1.00  0.00    -0.392 A  
ENDROOT
BRANCH   3  16
HETATM   16  C   UNL     1     -11.876  12.855  69.688  1.00  0.00    -0.320 C  
HETATM   17  N   UNL     1     -11.829  14.216  69.853  1.00  0.00    -0.305 N  
HETATM   18  O   UNL     1     -12.356  12.085  70.525  1.00  0.00    -0.336 OA 
HETATM   19  H   UNL     1     -11.444  14.778  69.095  1.00  0.00     0.000 HD 
BRANCH  17  20
HETATM   20  C   UNL     1     -12.279  14.877  71.002  1.00  0.00    -0.317 A  
HETATM   21  C   UNL     1     -11.432  15.303  72.023  1.00  0.00    -0.500 A  
HETATM   22  C   UNL     1     -13.370  16.012  73.250  1.00  0.00    -0.625 A  
HETATM   23  C   UNL     1     -11.990  15.892  73.158  1.00  0.00    -0.572 A  
HETATM   24  C   UNL     1     -14.130  15.588  72.173  1.00  0.00    -0.526 A  
HETATM   25  N   UNL     1     -13.612  15.065  71.037  1.00  0.00    -0.405 NA 
ENDBRANCH  17  20
ENDBRANCH   3  16
TORSDOF 2
ENDMDL
MODEL       21
REMARK 921   NORMALIZED FREE ENERGY PREDICTED BY IDOCK:   -6.19 KCAL/MOL
REMARK 922        TOTAL FREE ENERGY PREDICTED BY IDOCK:   -7.52 KCAL/MOL
REMARK 923 INTER-LIGAND FREE ENERGY PREDICTED BY IDOCK:   -7.10 KCAL/MOL
REMARK 924 INTRA-LIGAND FREE ENERGY PREDICTED BY IDOCK:   -0.42 KCAL/MOL
REMARK 927      BINDING AFFINITY PREDICTED BY RF-SCORE:    0.00 PKD
ROOT
HETATM    1  C   UNL     1     -12.631  13.625  66.410  1.00  0.00    -0.235 C  
HETATM    2  N   UNL     1     -11.218  13.751  66.789  1.00  0.00    -0.309 N  
HETATM    3  C   UNL     1     -10.481  12.886  67.695  1.00  0.00    -0.224 C  
HETATM    4  O   UNL     1     -11.159  16.305  66.665  1.00  0.00    -0.097 OA 
HETATM    5  C   UNL     1      -9.183  13.124  68.031  1.00  0.00    -0.211 C  
HETATM    6  C   UNL     1      -6.833  16.083  67.172  1.00  0.00    -0.188 A  
HETATM    7  O   UNL     1      -8.429  12.304  68.858  1.00  0.00    -0.359 OA 
HETATM    8  C   UNL     1      -8.454  14.267  67.574  1.00  0.00    -0.187 A  
HETATM    9  O   UNL     1     -10.312  14.927  64.717  1.00  0.00    -0.368 OA 
HETATM   10  S   UNL     1     -10.494  15.130  66.128  1.00  0.00    -0.328 S  
HETATM   11  H   UNL     1      -7.524  12.470  69.092  1.00  0.00     0.000 HD 
HETATM   12  S   UNL     1      -6.837  14.640  68.056  1.00  0.00    -0.160 SA 
HETATM   13  C   UNL     1      -8.911  15.255  66.741  1.00  0.00    -0.271 A  
HETATM   14 CL   UNL     1      -5.446  17.096  67.194  1.00  0.00    -0.166 Cl 
HETATM   15  C   UNL     1      -8.000  16.314  66.495  1.00  0.00    -0.326 A  
ENDROOT
BRANCH   3  16
HETATM   16  C   UNL     1     -11.115  11.684  68.372  1.00  0.00    -0.234 C  
HETATM   17  N   UNL     1     -11.055  11.636  69.741  1.00  0.00    -0.478 N  
HETATM   18  O   UNL     1     -11.770  10.890  67.691  1.00  0.00    -0.566 OA 
HETATM   19  H   UNL     1     -10.515  12.354  70.224  1.00  0.00     0.000 HD 
BRANCH  17  20
HETATM   20  C   UNL     1     -11.692  10.658  70.515  1.00  0.00    -0.356 A  
HETATM   21  C   UNL     1     -12.894  10.874  71.184  1.00  0.00    -0.508 A  
HETATM   22  C   UNL     1     -12.701   8.668  72.111  1.00  0.00    -0.447 A  
HETATM   23  C   UNL     1     -13.410   9.854  71.984  1.00  0.00    -0.532 A  
HETATM   24  C   UNL     1     -11.530   8.533  71.385  1.00  0.00    -0.287 A  
HETATM   25  N   UNL     1     -11.035   9.483  70.558  1.00  0.00    -0.264 NA 
ENDBRANCH  17  20
ENDBRANCH   3  16
TORSDOF 2
ENDMDL
MODEL       22
REMARK 921   NORMALIZED FREE ENERGY PREDICTED BY IDOCK:   -6.17 KCAL/MOL
REMARK 922        TOTAL FREE ENERGY PREDICTED BY IDOCK:   -7.50 KCAL/MOL
REMARK 923 INTER-LIGAND FREE ENERGY PREDICTED BY IDOCK:   -6.90 KCAL/MOL
REMARK 924 INTRA-LIGAND FREE ENERGY PREDICTED BY IDOCK:   -0.60 KCAL/MOL
REMARK 927      BINDING AFFINITY PREDICTED BY RF-SCORE:    0.00 PKD
ROOT
HETATM    1  C   UNL     1     -10.519   8.770  68.233  1.00  0.00    -0.187 C  
HETATM    2  N   UNL     1     -11.123   9.662  69.231  1.00  0.00    -0.170 N  
HETATM    3  C   UNL     1     -11.752   9.270  70.481  1.00  0.00    -0.176 C  
HETATM    4  O   UNL     1     -11.946  11.396  67.539  1.00  0.00    -0.626 OA 
HETATM    5  C   UNL     1     -12.341  10.174  71.312  1.00  0.00    -0.400 C  
HETATM    6  C   UNL     1     -12.974  13.974  70.903  1.00  0.00    -0.277 A  
HETATM    7  O   UNL     1     -12.915   9.849  72.533  1.00  0.00    -0.426 OA 
HETATM    8  C   UNL     1     -12.444  11.567  71.006  1.00  0.00    -0.356 A  
HETATM    9  O   UNL     1      -9.780  11.783  68.791  1.00  0.00    -0.168 OA 
HETATM   10  S   UNL     1     -11.125  11.279  68.731  1.00  0.00    -0.258 S  
HETATM   11  H   UNL     1     -13.325  10.480  73.113  1.00  0.00     0.000 HD 
HETATM   12  S   UNL     1     -13.263  12.718  72.000  1.00  0.00    -0.359 SA 
HETATM   13  C   UNL     1     -11.969  12.200  69.887  1.00  0.00    -0.309 A  
HETATM   14 CL   UNL     1     -13.568  15.551  71.233  1.00  0.00    -0.574 Cl 
HETATM   15  C   UNL     1     -12.263  13.585  69.801  1.00  0.00    -0.330 A  
ENDROOT
BRANCH   3  16
HETATM   16  C   UNL     1     -11.844   7.822  70.928  1.00  0.00    -0.239 C  
HETATM   17  N   UNL     1     -10.695   7.240  71.399  1.00  0.00    -0.227 N  
HETATM   18  O   UNL     1     -12.953   7.283  70.984  1.00  0.00    -0.307 OA 
HETATM   19  H   UNL     1      -9.828   7.773  71.341  1.00  0.00     0.000 HD 
BRANCH  17  20
HETATM   20  C   UNL     1     -10.645   5.956  71.956  1.00  0.00    -0.221 A  
HETATM   21  C   UNL     1     -11.011   5.676  73.270  1.00  0.00    -0.316 A  
HETATM   22  C   UNL     1     -10.322   3.404  72.911  1.00  0.00    -0.248 A  
HETATM   23  C   UNL     1     -10.859   4.374  73.747  1.00  0.00    -0.362 A  
HETATM   24  C   UNL     1     -10.014   3.769  71.611  1.00  0.00    -0.141 A  
HETATM   25  N   UNL     1     -10.204   5.009  71.105  1.00  0.00    -0.220 NA 
ENDBRANCH  17  20
ENDBRANCH   3  16
TORSDOF 2
ENDMDL
MODEL       23
REMARK 921   NORMALIZED FREE ENERGY PREDICTED BY IDOCK:   -6.15 KCAL/MOL
REMARK 922        TOTAL FREE ENERGY PREDICTED BY IDOCK:   -7.48 KCAL/MOL
REMARK 923 INTER-LIGAND FREE ENERGY PREDICTED BY IDOCK:   -6.84 KCAL/MOL
REMARK 924 INTRA-LIGAND FREE ENERGY PREDICTED BY IDOCK:   -0.64 KCAL/MOL
REMARK 927      BINDING AFFINITY PREDICTED BY RF-SCORE:    0.00 PKD
ROOT
HETATM    1  C   UNL     1      -9.247  12.543  66.295  1.00  0.00    -0.132 C  
HETATM    2  N   UNL     1     -10.210  12.468  67.401  1.00  0.00    -0.212 N  
HETATM    3  C   UNL     1     -11.006  13.560  67.935  1.00  0.00    -0.256 C  
HETATM    4  O   UNL     1      -8.942  10.668  68.705  1.00  0.00    -0.153 OA 
HETATM    5  C   UNL     1     -11.829  13.400  69.009  1.00  0.00    -0.335 C  
HETATM    6  C   UNL     1     -12.391  10.371  71.358  1.00  0.00    -0.397 A  
HETATM    7  O   UNL     1     -12.637  14.402  69.526  1.00  0.00    -0.545 OA 
HETATM    8  C   UNL     1     -11.937  12.173  69.736  1.00  0.00    -0.302 A  
HETATM    9  O   UNL     1     -10.890  10.018  67.224  1.00  0.00    -0.270 OA 
HETATM   10  S   UNL     1     -10.245  10.937  68.121  1.00  0.00    -0.184 S  
HETATM   11  H   UNL     1     -13.211  14.291  70.275  1.00  0.00     0.000 HD 
HETATM   12  S   UNL     1     -12.903  11.970  71.153  1.00  0.00    -0.131 SA 
HETATM   13  C   UNL     1     -11.280  11.000  69.472  1.00  0.00    -0.279 A  
HETATM   14 CL   UNL     1     -12.962   9.453  72.692  1.00  0.00    -0.329 Cl 
HETATM   15  C   UNL     1     -11.519   9.947  70.391  1.00  0.00    -0.372 A  
ENDROOT
BRANCH   3  16
HETATM   16  C   UNL     1     -10.944  14.967  67.370  1.00  0.00    -0.315 C  
HETATM   17  N   UNL     1     -10.242  15.899  68.091  1.00  0.00    -0.229 N  
HETATM   18  O   UNL     1     -11.394  15.179  66.241  1.00  0.00    -0.317 OA 
HETATM   19  H   UNL     1      -9.879  15.625  69.004  1.00  0.00     0.000 HD 
BRANCH  17  20
HETATM   20  C   UNL     1      -9.995  17.203  67.647  1.00  0.00    -0.283 A  
HETATM   21  C   UNL     1     -10.846  18.275  67.907  1.00  0.00    -0.232 A  
HETATM   22  C   UNL     1      -9.421  19.653  66.552  1.00  0.00    -0.472 A  
HETATM   23  C   UNL     1     -10.543  19.522  67.360  1.00  0.00    -0.607 A  
HETATM   24  C   UNL     1      -8.618  18.539  66.374  1.00  0.00    -0.256 A  
HETATM   25  N   UNL     1      -8.858  17.333  66.938  1.00  0.00    -0.231 NA 
ENDBRANCH  17  20
ENDBRANCH   3  16
TORSDOF 2
ENDMDL
MODEL       24
REMARK 921   NORMALIZED FREE ENERGY PREDICTED BY IDOCK:   -6.15 KCAL/MOL
REMARK 922        TOTAL FREE ENERGY PREDICTED BY IDOCK:   -7.48 KCAL/MOL
REMARK 923 INTER-LIGAND FREE ENERGY PREDICTED BY IDOCK:   -6.99 KCAL/MOL
REMARK 924 INTRA-LIGAND FREE ENERGY PREDICTED BY IDOCK:   -0.49 KCAL/MOL
REMARK 927      BINDING AFFINITY PREDICTED BY RF-SCORE:    0.00 PKD
ROOT
HETATM    1  C   UNL     1     -12.282  14.320  67.323  1.00  0.00    -0.252 C  
HETATM    2  N   UNL     1     -11.074  13.502  67.155  1.00  0.00    -0.287 N  
HETATM    3  C   UNL     1      -9.697  13.963  67.219  1.00  0.00    -0.245 C  
HETATM    4  O   UNL     1     -12.109  11.883  65.467  1.00  0.00    -0.410 OA 
HETATM    5  C   UNL     1      -8.642  13.132  66.987  1.00  0.00    -0.162 C  
HETATM    6  C   UNL     1      -8.519   9.434  65.838  1.00  0.00    -0.126 A  
HETATM    7  O   UNL     1      -7.313  13.518  67.078  1.00  0.00    -0.345 OA 
HETATM    8  C   UNL     1      -8.796  11.761  66.607  1.00  0.00    -0.189 A  
HETATM    9  O   UNL     1     -11.970  11.239  67.912  1.00  0.00    -0.630 OA 
HETATM   10  S   UNL     1     -11.433  11.898  66.753  1.00  0.00    -0.264 S  
HETATM   11  H   UNL     1      -6.578  12.938  66.916  1.00  0.00     0.000 HD 
HETATM   12  S   UNL     1      -7.479  10.711  66.222  1.00  0.00    -0.138 SA 
HETATM   13  C   UNL     1      -9.973  11.080  66.444  1.00  0.00    -0.222 A  
HETATM   14 CL   UNL     1      -7.874   7.936  65.299  1.00  0.00    -0.104 Cl 
HETATM   15  C   UNL     1      -9.844   9.740  65.998  1.00  0.00    -0.342 A  
ENDROOT
BRANCH   3  16
HETATM   16  C   UNL     1      -9.333  15.409  67.497  1.00  0.00    -0.203 C  
HETATM   17  N   UNL     1      -9.822  16.354  66.631  1.00  0.00    -0.248 N  
HETATM   18  O   UNL     1      -8.745  15.687  68.545  1.00  0.00    -0.168 OA 
HETATM   19  H   UNL     1     -10.324  16.033  65.804  1.00  0.00     0.000 HD 
BRANCH  17  20
HETATM   20  C   UNL     1      -9.672  17.734  66.818  1.00  0.00    -0.309 A  
HETATM   21  C   UNL     1     -10.549  18.503  67.580  1.00  0.00    -0.461 A  
HETATM   22  C   UNL     1      -9.303  20.450  66.932  1.00  0.00    -0.477 A  
HETATM   23  C   UNL     1     -10.349  19.882  67.646  1.00  0.00    -0.557 A  
HETATM   24  C   UNL     1      -8.466  19.603  66.226  1.00  0.00    -0.360 A  
HETATM   25  N   UNL     1      -8.603  18.257  66.190  1.00  0.00    -0.488 NA 
ENDBRANCH  17  20
ENDBRANCH   3  16
TORSDOF 2
ENDMDL
MODEL       25
REMARK 921   NORMALIZED FREE ENERGY PREDICTED BY IDOCK:   -5.93 KCAL/MOL
REMARK 922        TOTAL FREE ENERGY PREDICTED BY IDOCK:   -7.23 KCAL/MOL
REMARK 923 INTER-LIGAND FREE ENERGY PREDICTED BY IDOCK:   -6.73 KCAL/MOL
REMARK 924 INTRA-LIGAND FREE ENERGY PREDICTED BY IDOCK:   -0.50 KCAL/MOL
REMARK 927      BINDING AFFINITY PREDICTED BY RF-SCORE:    0.00 PKD
ROOT
HETATM    1  C   UNL     1      -9.007  10.480  68.637  1.00  0.00    -0.162 C  
HETATM    2  N   UNL     1      -9.758   9.467  69.389  1.00  0.00    -0.173 N  
HETATM    3  C   UNL     1     -11.061   9.635  70.010  1.00  0.00    -0.255 C  
HETATM    4  O   UNL     1      -7.696   8.306  70.360  1.00  0.00    -0.079 OA 
HETATM    5  C   UNL     1     -11.649   8.648  70.742  1.00  0.00    -0.242 C  
HETATM    6  C   UNL     1     -10.341   5.170  71.841  1.00  0.00    -0.212 A  
HETATM    7  O   UNL     1     -12.908   8.750  71.316  1.00  0.00    -0.430 OA 
HETATM    8  C   UNL     1     -11.018   7.393  71.010  1.00  0.00    -0.251 A  
HETATM    9  O   UNL     1      -8.835   7.349  68.312  1.00  0.00    -0.128 OA 
HETATM   10  S   UNL     1      -8.888   8.028  69.578  1.00  0.00    -0.144 S  
HETATM   11  H   UNL     1     -13.317   8.062  71.827  1.00  0.00     0.000 HD 
HETATM   12  S   UNL     1     -11.704   6.160  72.008  1.00  0.00    -0.259 SA 
HETATM   13  C   UNL     1      -9.785   6.983  70.577  1.00  0.00    -0.176 A  
HETATM   14 CL   UNL     1     -10.281   3.654  72.644  1.00  0.00    -0.232 Cl 
HETATM   15  C   UNL     1      -9.368   5.709  71.043  1.00  0.00    -0.181 A  
ENDROOT
BRANCH   3  16
HETATM   16  C   UNL     1     -11.840  10.936  69.933  1.00  0.00    -0.349 C  
HETATM   17  N   UNL     1     -11.918  11.685  71.079  1.00  0.00    -0.310 N  
HETATM   18  O   UNL     1     -12.241  11.329  68.834  1.00  0.00    -0.494 OA 
HETATM   19  H   UNL     1     -11.531  11.293  71.937  1.00  0.00     0.000 HD 
BRANCH  17  20
HETATM   20  C   UNL     1     -12.497  12.959  71.139  1.00  0.00    -0.249 A  
HETATM   21  C   UNL     1     -11.943  14.082  70.530  1.00  0.00    -0.390 A  
HETATM   22  C   UNL     1     -13.696  15.399  71.506  1.00  0.00    -0.601 A  
HETATM   23  C   UNL     1     -12.564  15.318  70.708  1.00  0.00    -0.474 A  
HETATM   24  C   UNL     1     -14.192  14.225  72.047  1.00  0.00    -0.542 A  
HETATM   25  N   UNL     1     -13.643  13.005  71.845  1.00  0.00    -0.396 NA 
ENDBRANCH  17  20
ENDBRANCH   3  16
TORSDOF 2
ENDMDL
MODEL       26
REMARK 921   NORMALIZED FREE ENERGY PREDICTED BY IDOCK:   -5.88 KCAL/MOL
REMARK 922        TOTAL FREE ENERGY PREDICTED BY IDOCK:   -7.18 KCAL/MOL
REMARK 923 INTER-LIGAND FREE ENERGY PREDICTED BY IDOCK:   -6.57 KCAL/MOL
REMARK 924 INTRA-LIGAND FREE ENERGY PREDICTED BY IDOCK:   -0.61 KCAL/MOL
REMARK 927      BINDING AFFINITY PREDICTED BY RF-SCORE:    0.00 PKD
ROOT
HETATM    1  C   UNL     1      -9.952   9.573  66.420  1.00  0.00    -0.269 C  
HETATM    2  N   UNL     1     -10.473   9.284  67.762  1.00  0.00    -0.247 N  
HETATM    3  C   UNL     1     -11.105  10.226  68.670  1.00  0.00    -0.239 C  
HETATM    4  O   UNL     1      -8.731   7.496  68.320  1.00  0.00    -0.124 OA 
HETATM    5  C   UNL     1     -11.501   9.871  69.924  1.00  0.00    -0.179 C  
HETATM    6  C   UNL     1     -11.044   6.569  71.899  1.00  0.00    -0.261 A  
HETATM    7  O   UNL     1     -12.145  10.725  70.808  1.00  0.00    -0.314 OA 
HETATM    8  C   UNL     1     -11.280   8.569  70.474  1.00  0.00    -0.242 A  
HETATM    9  O   UNL     1     -11.023   6.810  67.493  1.00  0.00    -0.294 OA 
HETATM   10  S   UNL     1     -10.168   7.690  68.241  1.00  0.00    -0.197 S  
HETATM   11  H   UNL     1     -12.421  10.477  71.682  1.00  0.00     0.000 HD 
HETATM   12  S   UNL     1     -11.692   8.120  72.091  1.00  0.00    -0.384 SA 
HETATM   13  C   UNL     1     -10.683   7.504  69.853  1.00  0.00    -0.246 A  
HETATM   14 CL   UNL     1     -11.071   5.462  73.211  1.00  0.00    -0.350 Cl 
HETATM   15  C   UNL     1     -10.531   6.341  70.650  1.00  0.00    -0.276 A  
ENDROOT
BRANCH   3  16
HETATM   16  C   UNL     1     -11.324  11.684  68.310  1.00  0.00    -0.285 C  
HETATM   17  N   UNL     1     -10.558  12.612  68.969  1.00  0.00    -0.424 N  
HETATM   18  O   UNL     1     -12.062  11.962  67.360  1.00  0.00    -0.577 OA 
HETATM   19  H   UNL     1      -9.953  12.287  69.722  1.00  0.00     0.000 HD 
BRANCH  17  20
HETATM   20  C   UNL     1     -10.560  13.979  68.666  1.00  0.00    -0.257 A  
HETATM   21  C   UNL     1      -9.687  14.562  67.750  1.00  0.00    -0.216 A  
HETATM   22  C   UNL     1     -10.608  16.701  68.330  1.00  0.00    -0.343 A  
HETATM   23  C   UNL     1      -9.725  15.945  67.573  1.00  0.00    -0.223 A  
HETATM   24  C   UNL     1     -11.458  16.032  69.195  1.00  0.00    -0.347 A  
HETATM   25  N   UNL     1     -11.482  14.687  69.346  1.00  0.00    -0.279 NA 
ENDBRANCH  17  20
ENDBRANCH   3  16
TORSDOF 2
ENDMDL
MODEL       27
REMARK 921   NORMALIZED FREE ENERGY PREDICTED BY IDOCK:   -5.85 KCAL/MOL
REMARK 922        TOTAL FREE ENERGY PREDICTED BY IDOCK:   -7.14 KCAL/MOL
REMARK 923 INTER-LIGAND FREE ENERGY PREDICTED BY IDOCK:   -6.75 KCAL/MOL
REMARK 924 INTRA-LIGAND FREE ENERGY PREDICTED BY IDOCK:   -0.39 KCAL/MOL
REMARK 927      BINDING AFFINITY PREDICTED BY RF-SCORE:    0.00 PKD
ROOT
HETATM    1  C   UNL     1     -12.473   9.984  71.506  1.00  0.00    -0.419 C  
HETATM    2  N   UNL     1     -11.549   8.941  71.042  1.00  0.00    -0.284 N  
HETATM    3  C   UNL     1     -10.645   9.024  69.908  1.00  0.00    -0.228 C  
HETATM    4  O   UNL     1     -13.041   6.976  71.718  1.00  0.00    -0.361 OA 
HETATM    5  C   UNL     1      -9.869   7.973  69.520  1.00  0.00    -0.181 C  
HETATM    6  C   UNL     1      -9.707   4.320  70.799  1.00  0.00    -0.204 A  
HETATM    7  O   UNL     1      -8.963   8.021  68.471  1.00  0.00    -0.134 OA 
HETATM    8  C   UNL     1      -9.918   6.691  70.151  1.00  0.00    -0.173 A  
HETATM    9  O   UNL     1     -11.149   7.705  73.235  1.00  0.00    -0.382 OA 
HETATM   10  S   UNL     1     -11.704   7.505  71.924  1.00  0.00    -0.296 S  
HETATM   11  H   UNL     1      -8.422   7.288  68.201  1.00  0.00     0.000 HD 
HETATM   12  S   UNL     1      -9.011   5.318  69.624  1.00  0.00    -0.109 SA 
HETATM   13  C   UNL     1     -10.698   6.328  71.217  1.00  0.00    -0.248 A  
HETATM   14 CL   UNL     1      -9.272   2.660  70.879  1.00  0.00    -0.188 Cl 
HETATM   15  C   UNL     1     -10.600   4.968  71.609  1.00  0.00    -0.187 A  
ENDROOT
BRANCH   3  16
HETATM   16  C   UNL     1     -10.534  10.265  69.041  1.00  0.00    -0.217 C  
HETATM   17  N   UNL     1     -11.691  10.737  68.476  1.00  0.00    -0.447 N  
HETATM   18  O   UNL     1      -9.459  10.870  68.998  1.00  0.00    -0.197 OA 
HETATM   19  H   UNL     1     -12.541  10.185  68.589  1.00  0.00     0.000 HD 
BRANCH  17  20
HETATM   20  C   UNL     1     -11.772  11.932  67.750  1.00  0.00    -0.292 A  
HETATM   21  C   UNL     1     -11.758  13.191  68.346  1.00  0.00    -0.386 A  
HETATM   22  C   UNL     1     -12.105  14.152  66.173  1.00  0.00    -0.454 A  
HETATM   23  C   UNL     1     -11.913  14.318  67.538  1.00  0.00    -0.411 A  
HETATM   24  C   UNL     1     -12.076  12.864  65.667  1.00  0.00    -0.458 A  
HETATM   25  N   UNL     1     -11.871  11.757  66.419  1.00  0.00    -0.494 NA 
ENDBRANCH  17  20
ENDBRANCH   3  16
TORSDOF 2
ENDMDL
MODEL       28
REMARK 921   NORMALIZED FREE ENERGY PREDICTED BY IDOCK:   -5.83 KCAL/MOL
REMARK 922        TOTAL FREE ENERGY PREDICTED BY IDOCK:   -7.12 KCAL/MOL
REMARK 923 INTER-LIGAND FREE ENERGY PREDICTED BY IDOCK:   -6.44 KCAL/MOL
REMARK 924 INTRA-LIGAND FREE ENERGY PREDICTED BY IDOCK:   -0.68 KCAL/MOL
REMARK 927      BINDING AFFINITY PREDICTED BY RF-SCORE:    0.00 PKD
ROOT
HETATM    1  C   UNL     1      -9.364  14.161  66.610  1.00  0.00    -0.282 C  
HETATM    2  N   UNL     1     -10.190  13.928  67.802  1.00  0.00    -0.234 N  
HETATM    3  C   UNL     1     -10.859  12.691  68.167  1.00  0.00    -0.227 C  
HETATM    4  O   UNL     1     -11.119  16.308  67.923  1.00  0.00    -0.332 OA 
HETATM    5  C   UNL     1     -11.657  12.594  69.267  1.00  0.00    -0.318 C  
HETATM    6  C   UNL     1     -12.843  15.280  71.794  1.00  0.00    -0.380 A  
HETATM    7  O   UNL     1     -12.281  11.425  69.675  1.00  0.00    -0.296 OA 
HETATM    8  C   UNL     1     -11.951  13.704  70.119  1.00  0.00    -0.337 A  
HETATM    9  O   UNL     1      -9.164  15.640  69.386  1.00  0.00    -0.258 OA 
HETATM   10  S   UNL     1     -10.401  15.331  68.723  1.00  0.00    -0.240 S  
HETATM   11  H   UNL     1     -12.837  11.357  70.442  1.00  0.00     0.000 HD 
HETATM   12  S   UNL     1     -13.028  13.630  71.467  1.00  0.00    -0.338 SA 
HETATM   13  C   UNL     1     -11.482  14.986  69.992  1.00  0.00    -0.276 A  
HETATM   14 CL   UNL     1     -13.707  15.997  73.094  1.00  0.00    -0.602 Cl 
HETATM   15  C   UNL     1     -11.982  15.914  70.940  1.00  0.00    -0.432 A  
ENDROOT
BRANCH   3  16
HETATM   16  C   UNL     1     -10.761  11.431  67.325  1.00  0.00    -0.241 C  
HETATM   17  N   UNL     1      -9.856  10.482  67.724  1.00  0.00    -0.163 N  
HETATM   18  O   UNL     1     -11.581  11.251  66.421  1.00  0.00    -0.300 OA 
HETATM   19  H   UNL     1      -9.237  10.706  68.503  1.00  0.00     0.000 HD 
BRANCH  17  20
HETATM   20  C   UNL     1      -9.731   9.223  67.124  1.00  0.00    -0.172 A  
HETATM   21  C   UNL     1     -10.546   8.139  67.443  1.00  0.00    -0.325 A  
HETATM   22  C   UNL     1      -9.227   6.792  65.956  1.00  0.00    -0.069 A  
HETATM   23  C   UNL     1     -10.294   6.908  66.836  1.00  0.00    -0.332 A  
HETATM   24  C   UNL     1      -8.490   7.931  65.678  1.00  0.00    -0.147 A  
HETATM   25  N   UNL     1      -8.747   9.149  66.208  1.00  0.00    -0.135 NA 
ENDBRANCH  17  20
ENDBRANCH   3  16
TORSDOF 2
ENDMDL
MODEL       29
REMARK 921   NORMALIZED FREE ENERGY PREDICTED BY IDOCK:   -5.80 KCAL/MOL
REMARK 922        TOTAL FREE ENERGY PREDICTED BY IDOCK:   -7.09 KCAL/MOL
REMARK 923 INTER-LIGAND FREE ENERGY PREDICTED BY IDOCK:   -7.43 KCAL/MOL
REMARK 924 INTRA-LIGAND FREE ENERGY PREDICTED BY IDOCK:    0.35 KCAL/MOL
REMARK 927      BINDING AFFINITY PREDICTED BY RF-SCORE:    0.00 PKD
ROOT
HETATM    1  C   UNL     1     -10.898  19.224  65.751  1.00  0.00    -0.247 C  
HETATM    2  N   UNL     1      -9.822  18.489  66.426  1.00  0.00    -0.351 N  
HETATM    3  C   UNL     1      -9.500  17.081  66.270  1.00  0.00    -0.256 C  
HETATM    4  O   UNL     1      -9.927  19.842  68.595  1.00  0.00    -0.427 OA 
HETATM    5  C   UNL     1      -8.516  16.476  66.992  1.00  0.00    -0.197 C  
HETATM    6  C   UNL     1      -6.286  17.806  69.868  1.00  0.00    -0.036 A  
HETATM    7  O   UNL     1      -8.147  15.147  66.846  1.00  0.00    -0.218 OA 
HETATM    8  C   UNL     1      -7.758  17.152  67.999  1.00  0.00    -0.189 A  
HETATM    9  O   UNL     1      -8.185  20.398  66.844  1.00  0.00    -0.306 OA 
HETATM   10  S   UNL     1      -8.997  19.446  67.552  1.00  0.00    -0.311 S  
HETATM   11  H   UNL     1      -7.461  14.726  67.349  1.00  0.00     0.000 HD 
HETATM   12  S   UNL     1      -6.567  16.387  68.990  1.00  0.00    -0.194 SA 
HETATM   13  C   UNL     1      -7.873  18.465  68.373  1.00  0.00    -0.306 A  
HETATM   14 CL   UNL     1      -5.147  17.806  71.153  1.00  0.00    -0.240 Cl 
HETATM   15  C   UNL     1      -7.041  18.868  69.448  1.00  0.00    -0.168 A  
ENDROOT
BRANCH   3  16
HETATM   16  C   UNL     1     -10.268  16.168  65.331  1.00  0.00    -0.264 C  
HETATM   17  N   UNL     1     -10.269  14.828  65.625  1.00  0.00    -0.334 N  
HETATM   18  O   UNL     1     -10.962  16.670  64.443  1.00  0.00    -0.924 OA 
HETATM   19  H   UNL     1      -9.687  14.506  66.397  1.00  0.00     0.000 HD 
BRANCH  17  20
HETATM   20  C   UNL     1     -11.024  13.878  64.926  1.00  0.00    -0.386 A  
HETATM   21  C   UNL     1     -12.384  13.671  65.142  1.00  0.00    -0.486 A  
HETATM   22  C   UNL     1     -12.293  11.858  63.571  1.00  0.00    -0.603 A  
HETATM   23  C   UNL     1     -13.028  12.651  64.440  1.00  0.00    -0.232 A  
HETATM   24  C   UNL     1     -10.952  12.157  63.398  1.00  0.00    -0.412 A  
HETATM   25  N   UNL     1     -10.315  13.175  64.023  1.00  0.00    -0.345 NA 
ENDBRANCH  17  20
ENDBRANCH   3  16
TORSDOF 2
ENDMDL
MODEL       30
REMARK 921   NORMALIZED FREE ENERGY PREDICTED BY IDOCK:   -5.73 KCAL/MOL
REMARK 922        TOTAL FREE ENERGY PREDICTED BY IDOCK:   -7.01 KCAL/MOL
REMARK 923 INTER-LIGAND FREE ENERGY PREDICTED BY IDOCK:   -6.43 KCAL/MOL
REMARK 924 INTRA-LIGAND FREE ENERGY PREDICTED BY IDOCK:   -0.59 KCAL/MOL
REMARK 927      BINDING AFFINITY PREDICTED BY RF-SCORE:    0.00 PKD
ROOT
HETATM    1  C   UNL     1     -11.841  12.841  70.043  1.00  0.00    -0.281 C  
HETATM    2  N   UNL     1     -11.527  13.824  68.999  1.00  0.00    -0.284 N  
HETATM    3  C   UNL     1     -11.172  13.542  67.618  1.00  0.00    -0.279 C  
HETATM    4  O   UNL     1     -10.450  15.523  70.579  1.00  0.00    -0.302 OA 
HETATM    5  C   UNL     1     -10.838  14.527  66.739  1.00  0.00    -0.305 C  
HETATM    6  C   UNL     1     -10.352  18.337  67.248  1.00  0.00    -0.390 A  
HETATM    7  O   UNL     1     -10.533  14.308  65.403  1.00  0.00    -0.321 OA 
HETATM    8  C   UNL     1     -10.750  15.907  67.107  1.00  0.00    -0.301 A  
HETATM    9  O   UNL     1     -12.860  15.818  69.862  1.00  0.00    -0.157 OA 
HETATM   10  S   UNL     1     -11.509  15.409  69.591  1.00  0.00    -0.348 S  
HETATM   11  H   UNL     1     -10.300  14.995  64.790  1.00  0.00     0.000 HD 
HETATM   12  S   UNL     1     -10.243  17.163  66.035  1.00  0.00    -0.268 SA 
HETATM   13  C   UNL     1     -10.999  16.446  68.341  1.00  0.00    -0.353 A  
HETATM   14 CL   UNL     1      -9.939  19.968  66.902  1.00  0.00    -0.548 Cl 
HETATM   15  C   UNL     1     -10.775  17.842  68.453  1.00  0.00    -0.205 A  
ENDROOT
BRANCH   3  16
HETATM   16  C   UNL     1     -11.098  12.130  67.067  1.00  0.00    -0.294 C  
HETATM   17  N   UNL     1     -10.049  11.351  67.484  1.00  0.00    -0.182 N  
HETATM   18  O   UNL     1     -12.039  11.700  66.394  1.00  0.00    -0.371 OA 
HETATM   19  H   UNL     1      -9.331  11.784  68.065  1.00  0.00     0.000 HD 
BRANCH  17  20
HETATM   20  C   UNL     1      -9.907   9.996  67.159  1.00  0.00    -0.185 A  
HETATM   21  C   UNL     1      -9.300   9.549  65.988  1.00  0.00    -0.273 A  
HETATM   22  C   UNL     1      -9.869   7.306  66.625  1.00  0.00    -0.257 A  
HETATM   23  C   UNL     1      -9.271   8.179  65.727  1.00  0.00    -0.098 A  
HETATM   24  C   UNL     1     -10.422   7.839  67.777  1.00  0.00    -0.211 A  
HETATM   25  N   UNL     1     -10.415   9.157  68.082  1.00  0.00    -0.218 NA 
ENDBRANCH  17  20
ENDBRANCH   3  16
TORSDOF 2
ENDMDL
MODEL       31
REMARK 921   NORMALIZED FREE ENERGY PREDICTED BY IDOCK:   -5.69 KCAL/MOL
REMARK 922        TOTAL FREE ENERGY PREDICTED BY IDOCK:   -6.97 KCAL/MOL
REMARK 923 INTER-LIGAND FREE ENERGY PREDICTED BY IDOCK:   -6.68 KCAL/MOL
REMARK 924 INTRA-LIGAND FREE ENERGY PREDICTED BY IDOCK:   -0.28 KCAL/MOL
REMARK 927      BINDING AFFINITY PREDICTED BY RF-SCORE:    0.00 PKD
ROOT
HETATM    1  C   UNL     1     -11.322   8.091  72.804  1.00  0.00    -0.374 C  
HETATM    2  N   UNL     1     -10.967   8.211  71.384  1.00  0.00    -0.231 N  
HETATM    3  C   UNL     1     -11.399   9.251  70.466  1.00  0.00    -0.258 C  
HETATM    4  O   UNL     1     -10.837   5.693  70.952  1.00  0.00    -0.265 OA 
HETATM    5  C   UNL     1     -11.062   9.239  69.146  1.00  0.00     0.024 C  
HETATM    6  C   UNL     1      -9.178   6.602  67.023  1.00  0.00    -0.135 A  
HETATM    7  O   UNL     1     -11.417  10.231  68.243  1.00  0.00    -0.501 OA 
HETATM    8  C   UNL     1     -10.312   8.182  68.540  1.00  0.00    -0.198 A  
HETATM    9  O   UNL     1      -8.720   7.008  71.392  1.00  0.00    -0.125 OA 
HETATM   10  S   UNL     1     -10.042   6.903  70.839  1.00  0.00    -0.193 S  
HETATM   11  H   UNL     1     -11.183  10.222  67.323  1.00  0.00     0.000 HD 
HETATM   12  S   UNL     1      -9.949   8.098  66.853  1.00  0.00    -0.297 SA 
HETATM   13  C   UNL     1      -9.809   7.069  69.161  1.00  0.00    -0.158 A  
HETATM   14 CL   UNL     1      -8.526   5.813  65.644  1.00  0.00    -0.144 Cl 
HETATM   15  C   UNL     1      -9.155   6.141  68.312  1.00  0.00    -0.112 A  
ENDROOT
BRANCH   3  16
HETATM   16  C   UNL     1     -12.295  10.398  70.895  1.00  0.00    -0.381 C  
HETATM   17  N   UNL     1     -11.742  11.652  70.905  1.00  0.00    -0.240 N  
HETATM   18  O   UNL     1     -13.497  10.182  71.076  1.00  0.00    -0.351 OA 
HETATM   19  H   UNL     1     -10.745  11.739  70.713  1.00  0.00     0.000 HD 
BRANCH  17  20
HETATM   20  C   UNL     1     -12.469  12.822  71.162  1.00  0.00    -0.239 A  
HETATM   21  C   UNL     1     -13.445  12.915  72.151  1.00  0.00    -0.619 A  
HETATM   22  C   UNL     1     -13.897  15.152  71.405  1.00  0.00    -0.587 A  
HETATM   23  C   UNL     1     -14.159  14.106  72.280  1.00  0.00    -0.630 A  
HETATM   24  C   UNL     1     -12.888  14.978  70.473  1.00  0.00    -0.333 A  
HETATM   25  N   UNL     1     -12.142  13.855  70.362  1.00  0.00    -0.335 NA 
ENDBRANCH  17  20
ENDBRANCH   3  16
TORSDOF 2
ENDMDL
MODEL       32
REMARK 921   NORMALIZED FREE ENERGY PREDICTED BY IDOCK:   -5.67 KCAL/MOL
REMARK 922        TOTAL FREE ENERGY PREDICTED BY IDOCK:   -6.95 KCAL/MOL
REMARK 923 INTER-LIGAND FREE ENERGY PREDICTED BY IDOCK:   -6.37 KCAL/MOL
REMARK 924 INTRA-LIGAND FREE ENERGY PREDICTED BY IDOCK:   -0.57 KCAL/MOL
REMARK 927      BINDING AFFINITY PREDICTED BY RF-SCORE:    0.00 PKD
ROOT
HETATM    1  C   UNL     1      -9.736  12.462  66.928  1.00  0.00    -0.215 C  
HETATM    2  N   UNL     1     -10.513  12.556  68.170  1.00  0.00    -0.222 N  
HETATM    3  C   UNL     1     -11.002  11.450  68.975  1.00  0.00    -0.236 C  
HETATM    4  O   UNL     1     -11.762  14.690  67.514  1.00  0.00    -0.365 OA 
HETATM    5  C   UNL     1     -11.771  11.643  70.083  1.00  0.00    -0.296 C  
HETATM    6  C   UNL     1     -13.300  14.868  71.591  1.00  0.00    -0.375 A  
HETATM    7  O   UNL     1     -12.224  10.620  70.904  1.00  0.00    -0.327 OA 
HETATM    8  C   UNL     1     -12.210  12.934  70.515  1.00  0.00    -0.314 A  
HETATM    9  O   UNL     1      -9.723  14.830  69.008  1.00  0.00    -0.218 OA 
HETATM   10  S   UNL     1     -10.910  14.154  68.561  1.00  0.00    -0.260 S  
HETATM   11  H   UNL     1     -12.760  10.755  71.676  1.00  0.00     0.000 HD 
HETATM   12  S   UNL     1     -13.257  13.198  71.864  1.00  0.00    -0.395 SA 
HETATM   13  C   UNL     1     -11.924  14.139  69.929  1.00  0.00    -0.338 A  
HETATM   14 CL   UNL     1     -14.245  15.877  72.609  1.00  0.00    -0.475 Cl 
HETATM   15  C   UNL     1     -12.541  15.268  70.525  1.00  0.00    -0.450 A  
ENDROOT
BRANCH   3  16
HETATM   16  C   UNL     1     -10.738  10.000  68.615  1.00  0.00    -0.226 C  
HETATM   17  N   UNL     1     -10.178   9.208  69.585  1.00  0.00    -0.195 N  
HETATM   18  O   UNL     1     -11.157   9.564  67.540  1.00  0.00    -0.173 OA 
HETATM   19  H   UNL     1      -9.888   9.649  70.457  1.00  0.00     0.000 HD 
BRANCH  17  20
HETATM   20  C   UNL     1      -9.983   7.828  69.447  1.00  0.00    -0.188 A  
HETATM   21  C   UNL     1      -8.871   7.271  68.820  1.00  0.00    -0.127 A  
HETATM   22  C   UNL     1      -9.859   5.106  69.133  1.00  0.00    -0.257 A  
HETATM   23  C   UNL     1      -8.806   5.885  68.675  1.00  0.00    -0.111 A  
HETATM   24  C   UNL     1     -10.909   5.745  69.770  1.00  0.00    -0.349 A  
HETATM   25  N   UNL     1     -10.971   7.081  69.974  1.00  0.00    -0.260 NA 
ENDBRANCH  17  20
ENDBRANCH   3  16
TORSDOF 2
ENDMDL
MODEL       33
REMARK 921   NORMALIZED FREE ENERGY PREDICTED BY IDOCK:   -5.63 KCAL/MOL
REMARK 922        TOTAL FREE ENERGY PREDICTED BY IDOCK:   -6.90 KCAL/MOL
REMARK 923 INTER-LIGAND FREE ENERGY PREDICTED BY IDOCK:   -6.20 KCAL/MOL
REMARK 924 INTRA-LIGAND FREE ENERGY PREDICTED BY IDOCK:   -0.70 KCAL/MOL
REMARK 927      BINDING AFFINITY PREDICTED BY RF-SCORE:    0.00 PKD
ROOT
HETATM    1  C   UNL     1      -9.469   8.902  65.830  1.00  0.00    -0.202 C  
HETATM    2  N   UNL     1      -9.993   8.808  67.198  1.00  0.00    -0.208 N  
HETATM    3  C   UNL     1     -10.206   9.907  68.124  1.00  0.00    -0.179 C  
HETATM    4  O   UNL     1      -8.971   6.516  67.693  1.00  0.00    -0.116 OA 
HETATM    5  C   UNL     1     -10.641   9.707  69.400  1.00  0.00    -0.225 C  
HETATM    6  C   UNL     1     -11.287   6.445  71.388  1.00  0.00    -0.301 A  
HETATM    7  O   UNL     1     -10.898  10.728  70.303  1.00  0.00    -0.458 OA 
HETATM    8  C   UNL     1     -10.869   8.408  69.953  1.00  0.00    -0.207 A  
HETATM    9  O   UNL     1     -11.395   6.690  66.983  1.00  0.00    -0.348 OA 
HETATM   10  S   UNL     1     -10.248   7.206  67.680  1.00  0.00    -0.219 S  
HETATM   11  H   UNL     1     -11.201  10.589  71.192  1.00  0.00     0.000 HD 
HETATM   12  S   UNL     1     -11.334   8.124  71.593  1.00  0.00    -0.281 SA 
HETATM   13  C   UNL     1     -10.717   7.205  69.317  1.00  0.00    -0.215 A  
HETATM   14 CL   UNL     1     -11.640   5.410  72.712  1.00  0.00    -0.345 Cl 
HETATM   15  C   UNL     1     -10.948   6.058  70.119  1.00  0.00    -0.429 A  
ENDROOT
BRANCH   3  16
HETATM   16  C   UNL     1      -9.913  11.351  67.759  1.00  0.00    -0.178 C  
HETATM   17  N   UNL     1     -10.937  12.075  67.204  1.00  0.00    -0.255 N  
HETATM   18  O   UNL     1      -8.835  11.847  68.098  1.00  0.00    -0.166 OA 
HETATM   19  H   UNL     1     -11.805  11.588  66.984  1.00  0.00     0.000 HD 
BRANCH  17  20
HETATM   20  C   UNL     1     -10.859  13.445  66.923  1.00  0.00    -0.277 A  
HETATM   21  C   UNL     1     -10.465  13.952  65.687  1.00  0.00    -0.320 A  
HETATM   22  C   UNL     1     -10.614  16.160  66.617  1.00  0.00    -0.274 A  
HETATM   23  C   UNL     1     -10.356  15.334  65.532  1.00  0.00    -0.408 A  
HETATM   24  C   UNL     1     -11.027  15.567  67.798  1.00  0.00    -0.317 A  
HETATM   25  N   UNL     1     -11.197  14.235  67.960  1.00  0.00    -0.269 NA 
ENDBRANCH  17  20
ENDBRANCH   3  16
TORSDOF 2
ENDMDL
MODEL       34
REMARK 921   NORMALIZED FREE ENERGY PREDICTED BY IDOCK:   -5.62 KCAL/MOL
REMARK 922        TOTAL FREE ENERGY PREDICTED BY IDOCK:   -6.89 KCAL/MOL
REMARK 923 INTER-LIGAND FREE ENERGY PREDICTED BY IDOCK:   -6.32 KCAL/MOL
REMARK 924 INTRA-LIGAND FREE ENERGY PREDICTED BY IDOCK:   -0.57 KCAL/MOL
REMARK 927      BINDING AFFINITY PREDICTED BY RF-SCORE:    0.00 PKD
ROOT
HETATM    1  C   UNL     1      -8.475   7.816  65.569  1.00  0.00    -0.133 C  
HETATM    2  N   UNL     1      -9.261   9.005  65.923  1.00  0.00    -0.214 N  
HETATM    3  C   UNL     1     -10.206   9.126  67.019  1.00  0.00    -0.263 C  
HETATM    4  O   UNL     1      -9.528   9.843  63.521  1.00  0.00    -0.266 OA 
HETATM    5  C   UNL     1     -10.934  10.259  67.227  1.00  0.00    -0.210 C  
HETATM    6  C   UNL     1     -11.227  13.515  65.148  1.00  0.00    -0.309 A  
HETATM    7  O   UNL     1     -11.816  10.434  68.283  1.00  0.00    -0.747 OA 
HETATM    8  C   UNL     1     -10.877  11.395  66.360  1.00  0.00    -0.271 A  
HETATM    9  O   UNL     1      -7.731  10.827  65.008  1.00  0.00    -0.022 OA 
HETATM   10  S   UNL     1      -9.043  10.271  64.821  1.00  0.00    -0.241 S  
HETATM   11  H   UNL     1     -12.324  11.223  68.428  1.00  0.00     0.000 HD 
HETATM   12  S   UNL     1     -11.855  12.807  66.551  1.00  0.00    -0.368 SA 
HETATM   13  C   UNL     1     -10.100  11.538  65.241  1.00  0.00    -0.269 A  
HETATM   14 CL   UNL     1     -11.795  15.054  64.638  1.00  0.00    -0.412 Cl 
HETATM   15  C   UNL     1     -10.283  12.747  64.522  1.00  0.00    -0.333 A  
ENDROOT
BRANCH   3  16
HETATM   16  C   UNL     1     -10.491   7.988  67.981  1.00  0.00    -0.184 C  
HETATM   17  N   UNL     1     -10.369   8.257  69.320  1.00  0.00    -0.216 N  
HETATM   18  O   UNL     1     -10.949   6.931  67.539  1.00  0.00    -0.281 OA 
HETATM   19  H   UNL     1     -10.010   9.171  69.596  1.00  0.00     0.000 HD 
BRANCH  17  20
HETATM   20  C   UNL     1     -10.710   7.350  70.331  1.00  0.00    -0.237 A  
HETATM   21  C   UNL     1     -11.984   7.265  70.887  1.00  0.00    -0.342 A  
HETATM   22  C   UNL     1     -11.139   5.619  72.416  1.00  0.00    -0.324 A  
HETATM   23  C   UNL     1     -12.201   6.373  71.937  1.00  0.00    -0.332 A  
HETATM   24  C   UNL     1      -9.915   5.749  71.783  1.00  0.00    -0.169 A  
HETATM   25  N   UNL     1      -9.690   6.564  70.726  1.00  0.00    -0.179 NA 
ENDBRANCH  17  20
ENDBRANCH   3  16
TORSDOF 2
ENDMDL
MODEL       35
REMARK 921   NORMALIZED FREE ENERGY PREDICTED BY IDOCK:   -5.61 KCAL/MOL
REMARK 922        TOTAL FREE ENERGY PREDICTED BY IDOCK:   -6.87 KCAL/MOL
REMARK 923 INTER-LIGAND FREE ENERGY PREDICTED BY IDOCK:   -6.27 KCAL/MOL
REMARK 924 INTRA-LIGAND FREE ENERGY PREDICTED BY IDOCK:   -0.61 KCAL/MOL
REMARK 927      BINDING AFFINITY PREDICTED BY RF-SCORE:    0.00 PKD
ROOT
HETATM    1  C   UNL     1     -12.090  14.462  67.037  1.00  0.00    -0.342 C  
HETATM    2  N   UNL     1     -10.965  13.519  67.007  1.00  0.00    -0.285 N  
HETATM    3  C   UNL     1      -9.551  13.853  67.009  1.00  0.00    -0.254 C  
HETATM    4  O   UNL     1     -12.158  11.761  65.582  1.00  0.00    -0.336 OA 
HETATM    5  C   UNL     1      -8.580  12.902  66.916  1.00  0.00    -0.127 C  
HETATM    6  C   UNL     1      -8.809   9.076  66.354  1.00  0.00    -0.146 A  
HETATM    7  O   UNL     1      -7.219  13.172  66.956  1.00  0.00    -0.360 OA 
HETATM    8  C   UNL     1      -8.862  11.510  66.752  1.00  0.00    -0.183 A  
HETATM    9  O   UNL     1     -12.062  11.494  68.097  1.00  0.00    -0.604 OA 
HETATM   10  S   UNL     1     -11.475  11.913  66.854  1.00  0.00    -0.281 S  
HETATM   11  H   UNL     1      -6.543  12.509  66.892  1.00  0.00     0.000 HD 
HETATM   12  S   UNL     1      -7.652  10.295  66.543  1.00  0.00    -0.118 SA 
HETATM   13  C   UNL     1     -10.099  10.924  66.687  1.00  0.00    -0.219 A  
HETATM   14 CL   UNL     1      -8.310   7.460  66.057  1.00  0.00    -0.136 Cl 
HETATM   15  C   UNL     1     -10.099   9.525  66.455  1.00  0.00    -0.328 A  
ENDROOT
BRANCH   3  16
HETATM   16  C   UNL     1      -9.051  15.286  67.062  1.00  0.00    -0.225 C  
HETATM   17  N   UNL     1      -8.861  15.834  68.305  1.00  0.00    -0.177 N  
HETATM   18  O   UNL     1      -8.706  15.839  66.014  1.00  0.00    -0.313 OA 
HETATM   19  H   UNL     1      -9.147  15.291  69.119  1.00  0.00     0.000 HD 
BRANCH  17  20
HETATM   20  C   UNL     1      -8.296  17.097  68.520  1.00  0.00    -0.262 A  
HETATM   21  C   UNL     1      -8.936  18.290  68.190  1.00  0.00    -0.314 A  
HETATM   22  C   UNL     1      -6.957  19.467  68.870  1.00  0.00    -0.384 A  
HETATM   23  C   UNL     1      -8.257  19.493  68.383  1.00  0.00    -0.379 A  
HETATM   24  C   UNL     1      -6.413  18.236  69.198  1.00  0.00    -0.261 A  
HETATM   25  N   UNL     1      -7.069  17.059  69.074  1.00  0.00    -0.231 NA 
ENDBRANCH  17  20
ENDBRANCH   3  16
TORSDOF 2
ENDMDL
MODEL       36
REMARK 921   NORMALIZED FREE ENERGY PREDICTED BY IDOCK:   -5.59 KCAL/MOL
REMARK 922        TOTAL FREE ENERGY PREDICTED BY IDOCK:   -6.86 KCAL/MOL
REMARK 923 INTER-LIGAND FREE ENERGY PREDICTED BY IDOCK:   -6.21 KCAL/MOL
REMARK 924 INTRA-LIGAND FREE ENERGY PREDICTED BY IDOCK:   -0.65 KCAL/MOL
REMARK 927      BINDING AFFINITY PREDICTED BY RF-SCORE:    0.00 PKD
ROOT
HETATM    1  C   UNL     1      -9.676   8.924  66.467  1.00  0.00    -0.254 C  
HETATM    2  N   UNL     1     -10.180   8.710  67.829  1.00  0.00    -0.212 N  
HETATM    3  C   UNL     1     -10.476   9.733  68.817  1.00  0.00    -0.218 C  
HETATM    4  O   UNL     1      -8.968   6.486  68.190  1.00  0.00    -0.119 OA 
HETATM    5  C   UNL     1     -10.884   9.426  70.080  1.00  0.00    -0.249 C  
HETATM    6  C   UNL     1     -11.242   6.014  71.881  1.00  0.00    -0.282 A  
HETATM    7  O   UNL     1     -11.217  10.369  71.041  1.00  0.00    -0.318 OA 
HETATM    8  C   UNL     1     -10.998   8.084  70.560  1.00  0.00    -0.247 A  
HETATM    9  O   UNL     1     -11.404   6.498  67.498  1.00  0.00    -0.284 OA 
HETATM   10  S   UNL     1     -10.299   7.068  68.220  1.00  0.00    -0.203 S  
HETATM   11  H   UNL     1     -11.500  10.155  71.922  1.00  0.00     0.000 HD 
HETATM   12  S   UNL     1     -11.426   7.669  72.182  1.00  0.00    -0.317 SA 
HETATM   13  C   UNL     1     -10.753   6.934  69.856  1.00  0.00    -0.246 A  
HETATM   14 CL   UNL     1     -11.498   4.881  73.146  1.00  0.00    -0.398 Cl 
HETATM   15  C   UNL     1     -10.882   5.729  70.592  1.00  0.00    -0.337 A  
ENDROOT
BRANCH   3  16
HETATM   16  C   UNL     1     -10.306  11.214  68.533  1.00  0.00    -0.193 C  
HETATM   17  N   UNL     1     -11.446  11.975  68.480  1.00  0.00    -0.268 N  
HETATM   18  O   UNL     1      -9.168  11.691  68.505  1.00  0.00    -0.193 OA 
HETATM   19  H   UNL     1     -12.345  11.498  68.542  1.00  0.00     0.000 HD 
BRANCH  17  20
HETATM   20  C   UNL     1     -11.447  13.369  68.346  1.00  0.00    -0.316 A  
HETATM   21  C   UNL     1     -11.194  14.022  67.142  1.00  0.00    -0.327 A  
HETATM   22  C   UNL     1     -11.333  16.110  68.319  1.00  0.00    -0.316 A  
HETATM   23  C   UNL     1     -11.151  15.416  67.130  1.00  0.00    -0.291 A  
HETATM   24  C   UNL     1     -11.607  15.376  69.461  1.00  0.00    -0.332 A  
HETATM   25  N   UNL     1     -11.711  14.028  69.490  1.00  0.00    -0.293 NA 
ENDBRANCH  17  20
ENDBRANCH   3  16
TORSDOF 2
ENDMDL
MODEL       37
REMARK 921   NORMALIZED FREE ENERGY PREDICTED BY IDOCK:   -5.58 KCAL/MOL
REMARK 922        TOTAL FREE ENERGY PREDICTED BY IDOCK:   -6.85 KCAL/MOL
REMARK 923 INTER-LIGAND FREE ENERGY PREDICTED BY IDOCK:   -6.41 KCAL/MOL
REMARK 924 INTRA-LIGAND FREE ENERGY PREDICTED BY IDOCK:   -0.44 KCAL/MOL
REMARK 927      BINDING AFFINITY PREDICTED BY RF-SCORE:    0.00 PKD
ROOT
HETATM    1  C   UNL     1      -9.879   8.867  66.292  1.00  0.00    -0.285 C  
HETATM    2  N   UNL     1     -10.307   8.769  67.693  1.00  0.00    -0.241 N  
HETATM    3  C   UNL     1     -10.798   9.851  68.530  1.00  0.00    -0.217 C  
HETATM    4  O   UNL     1      -8.648   6.927  68.326  1.00  0.00    -0.125 OA 
HETATM    5  C   UNL     1     -11.114   9.668  69.842  1.00  0.00    -0.235 C  
HETATM    6  C   UNL     1     -10.718   6.580  72.149  1.00  0.00    -0.221 A  
HETATM    7  O   UNL     1     -11.624  10.661  70.666  1.00  0.00    -0.326 OA 
HETATM    8  C   UNL     1     -10.936   8.423  70.523  1.00  0.00    -0.242 A  
HETATM    9  O   UNL     1     -11.041   6.329  67.756  1.00  0.00    -0.334 OA 
HETATM   10  S   UNL     1     -10.071   7.220  68.332  1.00  0.00    -0.176 S  
HETATM   11  H   UNL     1     -11.844  10.533  71.581  1.00  0.00     0.000 HD 
HETATM   12  S   UNL     1     -11.243   8.188  72.207  1.00  0.00    -0.386 SA 
HETATM   13  C   UNL     1     -10.463   7.253  69.988  1.00  0.00    -0.224 A  
HETATM   14 CL   UNL     1     -10.711   5.631  73.580  1.00  0.00    -0.295 Cl 
HETATM   15  C   UNL     1     -10.325   6.178  70.902  1.00  0.00    -0.267 A  
ENDROOT
BRANCH   3  16
HETATM   16  C   UNL     1     -10.949  11.273  68.020  1.00  0.00    -0.247 C  
HETATM   17  N   UNL     1      -9.826  11.876  67.512  1.00  0.00    -0.186 N  
HETATM   18  O   UNL     1     -12.077  11.767  67.951  1.00  0.00    -0.592 OA 
HETATM   19  H   UNL     1      -8.939  11.379  67.586  1.00  0.00     0.000 HD 
BRANCH  17  20
HETATM   20  C   UNL     1      -9.828  13.135  66.899  1.00  0.00    -0.249 A  
HETATM   21  C   UNL     1      -9.425  14.302  67.544  1.00  0.00    -0.209 A  
HETATM   22  C   UNL     1     -10.058  15.530  65.582  1.00  0.00    -0.406 A  
HETATM   23  C   UNL     1      -9.530  15.516  66.865  1.00  0.00    -0.244 A  
HETATM   24  C   UNL     1     -10.405  14.318  65.010  1.00  0.00    -0.421 A  
HETATM   25  N   UNL     1     -10.261  13.120  65.624  1.00  0.00    -0.285 NA 
ENDBRANCH  17  20
ENDBRANCH   3  16
TORSDOF 2
ENDMDL
MODEL       38
REMARK 921   NORMALIZED FREE ENERGY PREDICTED BY IDOCK:   -5.57 KCAL/MOL
REMARK 922        TOTAL FREE ENERGY PREDICTED BY IDOCK:   -6.83 KCAL/MOL
REMARK 923 INTER-LIGAND FREE ENERGY PREDICTED BY IDOCK:   -6.13 KCAL/MOL
REMARK 924 INTRA-LIGAND FREE ENERGY PREDICTED BY IDOCK:   -0.70 KCAL/MOL
REMARK 927      BINDING AFFINITY PREDICTED BY RF-SCORE:    0.00 PKD
ROOT
HETATM    1  C   UNL     1     -11.853  10.074  71.421  1.00  0.00    -0.363 C  
HETATM    2  N   UNL     1     -11.241   9.283  70.346  1.00  0.00    -0.246 N  
HETATM    3  C   UNL     1     -10.936   9.737  69.000  1.00  0.00    -0.163 C  
HETATM    4  O   UNL     1     -12.291   7.060  71.052  1.00  0.00    -0.370 OA 
HETATM    5  C   UNL     1     -10.422   8.904  68.052  1.00  0.00    -0.208 C  
HETATM    6  C   UNL     1      -9.736   5.091  68.116  1.00  0.00    -0.148 A  
HETATM    7  O   UNL     1     -10.078   9.303  66.769  1.00  0.00    -0.225 OA 
HETATM    8  C   UNL     1     -10.195   7.509  68.277  1.00  0.00    -0.186 A  
HETATM    9  O   UNL     1      -9.916   7.607  71.736  1.00  0.00    -0.170 OA 
HETATM   10  S   UNL     1     -10.998   7.669  70.792  1.00  0.00    -0.255 S  
HETATM   11  H   UNL     1      -9.720   8.722  66.109  1.00  0.00     0.000 HD 
HETATM   12  S   UNL     1      -9.629   6.414  67.067  1.00  0.00    -0.148 SA 
HETATM   13  C   UNL     1     -10.422   6.816  69.437  1.00  0.00    -0.217 A  
HETATM   14 CL   UNL     1      -9.325   3.520  67.558  1.00  0.00    -0.233 Cl 
HETATM   15  C   UNL     1     -10.170   5.422  69.372  1.00  0.00    -0.334 A  
ENDROOT
BRANCH   3  16
HETATM   16  C   UNL     1     -11.212  11.154  68.534  1.00  0.00    -0.258 C  
HETATM   17  N   UNL     1     -10.225  12.084  68.741  1.00  0.00    -0.366 N  
HETATM   18  O   UNL     1     -12.231  11.379  67.874  1.00  0.00    -0.592 OA 
HETATM   19  H   UNL     1      -9.403  11.800  69.272  1.00  0.00     0.000 HD 
BRANCH  17  20
HETATM   20  C   UNL     1     -10.282  13.399  68.265  1.00  0.00    -0.250 A  
HETATM   21  C   UNL     1     -10.884  14.442  68.965  1.00  0.00    -0.267 A  
HETATM   22  C   UNL     1     -10.434  15.875  67.092  1.00  0.00    -0.313 A  
HETATM   23  C   UNL     1     -10.946  15.703  68.371  1.00  0.00    -0.308 A  
HETATM   24  C   UNL     1      -9.828  14.788  66.485  1.00  0.00    -0.272 A  
HETATM   25  N   UNL     1      -9.703  13.569  67.061  1.00  0.00    -0.243 NA 
ENDBRANCH  17  20
ENDBRANCH   3  16
TORSDOF 2
ENDMDL
MODEL       39
REMARK 921   NORMALIZED FREE ENERGY PREDICTED BY IDOCK:   -5.56 KCAL/MOL
REMARK 922        TOTAL FREE ENERGY PREDICTED BY IDOCK:   -6.82 KCAL/MOL
REMARK 923 INTER-LIGAND FREE ENERGY PREDICTED BY IDOCK:   -6.13 KCAL/MOL
REMARK 924 INTRA-LIGAND FREE ENERGY PREDICTED BY IDOCK:   -0.69 KCAL/MOL
REMARK 927      BINDING AFFINITY PREDICTED BY RF-SCORE:    0.00 PKD
ROOT
HETATM    1  C   UNL     1      -7.297  11.020  68.904  1.00  0.00    -0.111 C  
HETATM    2  N   UNL     1      -8.487  10.250  69.288  1.00  0.00    -0.158 N  
HETATM    3  C   UNL     1      -9.871  10.597  69.015  1.00  0.00    -0.205 C  
HETATM    4  O   UNL     1      -7.498   9.344  71.466  1.00  0.00    -0.337 OA 
HETATM    5  C   UNL     1     -10.912   9.844  69.470  1.00  0.00    -0.242 C  
HETATM    6  C   UNL     1     -10.987   6.747  71.797  1.00  0.00    -0.235 A  
HETATM    7  O   UNL     1     -12.245  10.114  69.198  1.00  0.00    -0.517 OA 
HETATM    8  C   UNL     1     -10.739   8.691  70.297  1.00  0.00    -0.227 A  
HETATM    9  O   UNL     1      -7.483   7.909  69.380  1.00  0.00    -0.086 OA 
HETATM   10  S   UNL     1      -8.102   8.894  70.224  1.00  0.00    -0.139 S  
HETATM   11  H   UNL     1     -12.970   9.590  69.516  1.00  0.00     0.000 HD 
HETATM   12  S   UNL     1     -12.043   7.771  70.960  1.00  0.00    -0.193 SA 
HETATM   13  C   UNL     1      -9.552   8.160  70.731  1.00  0.00    -0.166 A  
HETATM   14 CL   UNL     1     -11.616   5.491  72.783  1.00  0.00    -0.345 Cl 
HETATM   15  C   UNL     1      -9.665   7.043  71.598  1.00  0.00    -0.164 A  
ENDROOT
BRANCH   3  16
HETATM   16  C   UNL     1     -10.263  11.847  68.248  1.00  0.00    -0.204 C  
HETATM   17  N   UNL     1     -10.456  11.716  66.897  1.00  0.00    -0.220 N  
HETATM   18  O   UNL     1     -10.527  12.876  68.877  1.00  0.00    -0.191 OA 
HETATM   19  H   UNL     1     -10.241  10.818  66.466  1.00  0.00     0.000 HD 
BRANCH  17  20
HETATM   20  C   UNL     1     -10.932  12.745  66.075  1.00  0.00    -0.278 A  
HETATM   21  C   UNL     1     -10.129  13.779  65.598  1.00  0.00    -0.315 A  
HETATM   22  C   UNL     1     -12.085  14.758  64.609  1.00  0.00    -0.437 A  
HETATM   23  C   UNL     1     -10.717  14.792  64.842  1.00  0.00    -0.438 A  
HETATM   24  C   UNL     1     -12.798  13.676  65.098  1.00  0.00    -0.329 A  
HETATM   25  N   UNL     1     -12.244  12.651  65.786  1.00  0.00    -0.598 NA 
ENDBRANCH  17  20
ENDBRANCH   3  16
TORSDOF 2
ENDMDL
MODEL       40
REMARK 921   NORMALIZED FREE ENERGY PREDICTED BY IDOCK:   -5.53 KCAL/MOL
REMARK 922        TOTAL FREE ENERGY PREDICTED BY IDOCK:   -6.79 KCAL/MOL
REMARK 923 INTER-LIGAND FREE ENERGY PREDICTED BY IDOCK:   -6.40 KCAL/MOL
REMARK 924 INTRA-LIGAND FREE ENERGY PREDICTED BY IDOCK:   -0.38 KCAL/MOL
REMARK 927      BINDING AFFINITY PREDICTED BY RF-SCORE:    0.00 PKD
ROOT
HETATM    1  C   UNL     1      -9.553  12.639  67.007  1.00  0.00    -0.219 C  
HETATM    2  N   UNL     1     -10.011  11.409  67.666  1.00  0.00    -0.178 N  
HETATM    3  C   UNL     1     -11.022  11.305  68.704  1.00  0.00    -0.218 C  
HETATM    4  O   UNL     1      -7.751  10.216  67.553  1.00  0.00    -0.091 OA 
HETATM    5  C   UNL     1     -11.333  10.119  69.298  1.00  0.00    -0.156 C  
HETATM    6  C   UNL     1      -9.758   6.598  68.932  1.00  0.00    -0.135 A  
HETATM    7  O   UNL     1     -12.319   9.966  70.262  1.00  0.00    -0.479 OA 
HETATM    8  C   UNL     1     -10.659   8.894  68.998  1.00  0.00    -0.183 A  
HETATM    9  O   UNL     1      -9.529   9.718  65.821  1.00  0.00    -0.199 OA 
HETATM   10  S   UNL     1      -9.140  10.048  67.165  1.00  0.00    -0.138 S  
HETATM   11  H   UNL     1     -12.535   9.140  70.676  1.00  0.00     0.000 HD 
HETATM   12  S   UNL     1     -10.973   7.396  69.799  1.00  0.00    -0.152 SA 
HETATM   13  C   UNL     1      -9.651   8.711  68.088  1.00  0.00    -0.147 A  
HETATM   14 CL   UNL     1      -9.439   4.938  69.235  1.00  0.00    -0.186 Cl 
HETATM   15  C   UNL     1      -9.111   7.401  68.031  1.00  0.00    -0.130 A  
ENDROOT
BRANCH   3  16
HETATM   16  C   UNL     1     -11.769  12.513  69.240  1.00  0.00    -0.321 C  
HETATM   17  N   UNL     1     -11.787  12.683  70.600  1.00  0.00    -0.482 N  
HETATM   18  O   UNL     1     -12.199  13.352  68.443  1.00  0.00    -0.293 OA 
HETATM   19  H   UNL     1     -11.380  11.951  71.181  1.00  0.00     0.000 HD 
BRANCH  17  20
HETATM   20  C   UNL     1     -12.331  13.805  71.238  1.00  0.00    -0.308 A  
HETATM   21  C   UNL     1     -11.634  14.998  71.415  1.00  0.00    -0.397 A  
HETATM   22  C   UNL     1     -13.511  15.836  72.655  1.00  0.00    -0.624 A  
HETATM   23  C   UNL     1     -12.244  16.033  72.125  1.00  0.00    -0.597 A  
HETATM   24  C   UNL     1     -14.138  14.628  72.403  1.00  0.00    -0.444 A  
HETATM   25  N   UNL     1     -13.593  13.628  71.671  1.00  0.00    -0.327 NA 
ENDBRANCH  17  20
ENDBRANCH   3  16
TORSDOF 2
ENDMDL
MODEL       41
REMARK 921   NORMALIZED FREE ENERGY PREDICTED BY IDOCK:   -5.50 KCAL/MOL
REMARK 922        TOTAL FREE ENERGY PREDICTED BY IDOCK:   -6.75 KCAL/MOL
REMARK 923 INTER-LIGAND FREE ENERGY PREDICTED BY IDOCK:   -6.36 KCAL/MOL
REMARK 924 INTRA-LIGAND FREE ENERGY PREDICTED BY IDOCK:   -0.39 KCAL/MOL
REMARK 927      BINDING AFFINITY PREDICTED BY RF-SCORE:    0.00 PKD
ROOT
HETATM    1  C   UNL     1     -11.122  16.637  68.188  1.00  0.00    -0.285 C  
HETATM    2  N   UNL     1     -10.367  15.410  67.906  1.00  0.00    -0.244 N  
HETATM    3  C   UNL     1      -8.954  15.314  67.582  1.00  0.00    -0.179 C  
HETATM    4  O   UNL     1     -12.316  14.173  66.803  1.00  0.00    -0.438 OA 
HETATM    5  C   UNL     1      -8.358  14.128  67.275  1.00  0.00    -0.196 C  
HETATM    6  C   UNL     1      -9.843  10.580  66.803  1.00  0.00    -0.193 A  
HETATM    7  O   UNL     1      -7.006  13.984  67.000  1.00  0.00    -0.384 OA 
HETATM    8  C   UNL     1      -9.075  12.893  67.188  1.00  0.00    -0.220 A  
HETATM    9  O   UNL     1     -11.753  13.731  69.231  1.00  0.00    -0.282 OA 
HETATM   10  S   UNL     1     -11.356  14.037  67.884  1.00  0.00    -0.309 S  
HETATM   11  H   UNL     1      -6.591  13.157  66.786  1.00  0.00     0.000 HD 
HETATM   12  S   UNL     1      -8.361  11.392  66.714  1.00  0.00    -0.164 SA 
HETATM   13  C   UNL     1     -10.413  12.700  67.411  1.00  0.00    -0.224 A  
HETATM   14 CL   UNL     1      -9.930   8.911  66.409  1.00  0.00    -0.354 Cl 
HETATM   15  C   UNL     1     -10.883  11.380  67.194  1.00  0.00    -0.316 A  
ENDROOT
BRANCH   3  16
HETATM   16  C   UNL     1      -8.049  16.530  67.511  1.00  0.00    -0.154 C  
HETATM   17  N   UNL     1      -8.210  17.366  66.435  1.00  0.00    -0.266 N  
HETATM   18  O   UNL     1      -7.320  16.791  68.472  1.00  0.00    -0.184 OA 
HETATM   19  H   UNL     1      -8.858  17.084  65.701  1.00  0.00     0.000 HD 
BRANCH  17  20
HETATM   20  C   UNL     1      -7.535  18.585  66.288  1.00  0.00    -0.257 A  
HETATM   21  C   UNL     1      -7.664  19.644  67.184  1.00  0.00    -0.288 A  
HETATM   22  C   UNL     1      -6.258  20.951  65.742  1.00  0.00    -0.268 A  
HETATM   23  C   UNL     1      -7.001  20.840  66.909  1.00  0.00    -0.361 A  
HETATM   24  C   UNL     1      -6.164  19.836  64.926  1.00  0.00    -0.276 A  
HETATM   25  N   UNL     1      -6.750  18.646  65.196  1.00  0.00    -0.522 NA 
ENDBRANCH  17  20
ENDBRANCH   3  16
TORSDOF 2
ENDMDL
MODEL       42
REMARK 921   NORMALIZED FREE ENERGY PREDICTED BY IDOCK:   -5.40 KCAL/MOL
REMARK 922        TOTAL FREE ENERGY PREDICTED BY IDOCK:   -6.64 KCAL/MOL
REMARK 923 INTER-LIGAND FREE ENERGY PREDICTED BY IDOCK:   -6.25 KCAL/MOL
REMARK 924 INTRA-LIGAND FREE ENERGY PREDICTED BY IDOCK:   -0.39 KCAL/MOL
REMARK 927      BINDING AFFINITY PREDICTED BY RF-SCORE:    0.00 PKD
ROOT
HETATM    1  C   UNL     1     -10.288   8.815  66.737  1.00  0.00    -0.258 C  
HETATM    2  N   UNL     1     -10.343  10.225  67.140  1.00  0.00    -0.225 N  
HETATM    3  C   UNL     1     -10.746  10.743  68.436  1.00  0.00    -0.217 C  
HETATM    4  O   UNL     1     -10.981  11.115  64.828  1.00  0.00    -0.260 OA 
HETATM    5  C   UNL     1     -10.822  12.079  68.693  1.00  0.00    -0.237 C  
HETATM    6  C   UNL     1     -10.362  15.147  66.372  1.00  0.00    -0.286 A  
HETATM    7  O   UNL     1     -11.162  12.617  69.926  1.00  0.00    -0.484 OA 
HETATM    8  C   UNL     1     -10.571  13.080  67.703  1.00  0.00    -0.224 A  
HETATM    9  O   UNL     1      -8.568  11.193  65.588  1.00  0.00    -0.167 OA 
HETATM   10  S   UNL     1      -9.976  11.275  65.864  1.00  0.00    -0.246 S  
HETATM   11  H   UNL     1     -11.215  13.548  70.104  1.00  0.00     0.000 HD 
HETATM   12  S   UNL     1     -10.747  14.777  67.977  1.00  0.00    -0.253 SA 
HETATM   13  C   UNL     1     -10.206  12.874  66.399  1.00  0.00    -0.267 A  
HETATM   14 CL   UNL     1     -10.359  16.782  65.847  1.00  0.00    -0.362 Cl 
HETATM   15  C   UNL     1     -10.082  14.045  65.608  1.00  0.00    -0.342 A  
ENDROOT
BRANCH   3  16
HETATM   16  C   UNL     1     -11.161   9.839  69.583  1.00  0.00    -0.217 C  
HETATM   17  N   UNL     1     -10.273   8.866  69.963  1.00  0.00    -0.192 N  
HETATM   18  O   UNL     1     -12.193  10.100  70.207  1.00  0.00    -0.248 OA 
HETATM   19  H   UNL     1      -9.429   8.741  69.405  1.00  0.00     0.000 HD 
BRANCH  17  20
HETATM   20  C   UNL     1     -10.458   8.033  71.074  1.00  0.00    -0.203 A  
HETATM   21  C   UNL     1      -9.874   8.271  72.316  1.00  0.00    -0.364 A  
HETATM   22  C   UNL     1     -10.811   6.199  73.083  1.00  0.00    -0.279 A  
HETATM   23  C   UNL     1     -10.067   7.343  73.338  1.00  0.00    -0.389 A  
HETATM   24  C   UNL     1     -11.378   6.062  71.828  1.00  0.00    -0.265 A  
HETATM   25  N   UNL     1     -11.253   6.973  70.835  1.00  0.00    -0.268 NA 
ENDBRANCH  17  20
ENDBRANCH   3  16
TORSDOF 2
ENDMDL
MODEL       43
REMARK 921   NORMALIZED FREE ENERGY PREDICTED BY IDOCK:   -5.34 KCAL/MOL
REMARK 922        TOTAL FREE ENERGY PREDICTED BY IDOCK:   -6.58 KCAL/MOL
REMARK 923 INTER-LIGAND FREE ENERGY PREDICTED BY IDOCK:   -6.03 KCAL/MOL
REMARK 924 INTRA-LIGAND FREE ENERGY PREDICTED BY IDOCK:   -0.55 KCAL/MOL
REMARK 927      BINDING AFFINITY PREDICTED BY RF-SCORE:    0.00 PKD
ROOT
HETATM    1  C   UNL     1     -12.446  12.056  63.460  1.00  0.00    -0.540 C  
HETATM    2  N   UNL     1     -11.589  12.743  64.435  1.00  0.00    -0.339 N  
HETATM    3  C   UNL     1     -10.331  12.259  64.978  1.00  0.00    -0.291 C  
HETATM    4  O   UNL     1     -13.507  13.877  65.690  1.00  0.00    -0.590 OA 
HETATM    5  C   UNL     1      -9.639  12.947  65.929  1.00  0.00    -0.124 C  
HETATM    6  C   UNL     1     -10.518  16.175  67.883  1.00  0.00    -0.290 A  
HETATM    7  O   UNL     1      -8.416  12.544  66.445  1.00  0.00    -0.407 OA 
HETATM    8  C   UNL     1     -10.111  14.164  66.512  1.00  0.00    -0.280 A  
HETATM    9  O   UNL     1     -12.213  15.163  63.936  1.00  0.00    -0.592 OA 
HETATM   10  S   UNL     1     -12.274  14.187  64.990  1.00  0.00    -0.448 S  
HETATM   11  H   UNL     1      -7.933  13.023  67.108  1.00  0.00     0.000 HD 
HETATM   12  S   UNL     1      -9.297  15.009  67.781  1.00  0.00    -0.187 SA 
HETATM   13  C   UNL     1     -11.273  14.825  66.210  1.00  0.00    -0.343 A  
HETATM   14 CL   UNL     1     -10.404  17.435  69.043  1.00  0.00    -0.349 Cl 
HETATM   15  C   UNL     1     -11.535  15.983  66.986  1.00  0.00     0.284 A  
ENDROOT
BRANCH   3  16
HETATM   16  C   UNL     1      -9.722  10.931  64.568  1.00  0.00    -0.282 C  
HETATM   17  N   UNL     1      -8.523  10.972  63.904  1.00  0.00    -0.367 N  
HETATM   18  O   UNL     1     -10.245   9.885  64.964  1.00  0.00    -0.221 OA 
HETATM   19  H   UNL     1      -8.150  11.885  63.643  1.00  0.00     0.000 HD 
BRANCH  17  20
HETATM   20  C   UNL     1      -7.781   9.834  63.565  1.00  0.00    -0.132 A  
HETATM   21  C   UNL     1      -8.222   8.875  62.657  1.00  0.00    -0.190 A  
HETATM   22  C   UNL     1      -6.254   7.592  63.154  1.00  0.00    -0.059 A  
HETATM   23  C   UNL     1      -7.435   7.743  62.440  1.00  0.00    -0.101 A  
HETATM   24  C   UNL     1      -5.882   8.612  64.013  1.00  0.00    -0.070 A  
HETATM   25  N   UNL     1      -6.597   9.745  64.200  1.00  0.00    -0.114 NA 
ENDBRANCH  17  20
ENDBRANCH   3  16
TORSDOF 2
ENDMDL
MODEL       44
REMARK 921   NORMALIZED FREE ENERGY PREDICTED BY IDOCK:   -5.34 KCAL/MOL
REMARK 922        TOTAL FREE ENERGY PREDICTED BY IDOCK:   -6.58 KCAL/MOL
REMARK 923 INTER-LIGAND FREE ENERGY PREDICTED BY IDOCK:   -5.91 KCAL/MOL
REMARK 924 INTRA-LIGAND FREE ENERGY PREDICTED BY IDOCK:   -0.66 KCAL/MOL
REMARK 927      BINDING AFFINITY PREDICTED BY RF-SCORE:    0.00 PKD
ROOT
HETATM    1  C   UNL     1     -10.669   6.021  70.591  1.00  0.00    -0.276 C  
HETATM    2  N   UNL     1     -11.032   7.430  70.398  1.00  0.00    -0.248 N  
HETATM    3  C   UNL     1     -10.516   8.329  69.379  1.00  0.00    -0.220 C  
HETATM    4  O   UNL     1     -11.413   7.925  72.878  1.00  0.00    -0.403 OA 
HETATM    5  C   UNL     1     -10.872   9.643  69.322  1.00  0.00    -0.205 C  
HETATM    6  C   UNL     1     -13.036  11.800  71.705  1.00  0.00    -0.362 A  
HETATM    7  O   UNL     1     -10.436  10.525  68.345  1.00  0.00    -0.168 OA 
HETATM    8  C   UNL     1     -11.730  10.262  70.284  1.00  0.00    -0.306 A  
HETATM    9  O   UNL     1     -13.386   7.414  71.376  1.00  0.00    -0.370 OA 
HETATM   10  S   UNL     1     -12.088   7.993  71.594  1.00  0.00    -0.316 S  
HETATM   11  H   UNL     1     -10.684  11.441  68.305  1.00  0.00     0.000 HD 
HETATM   12  S   UNL     1     -12.125  11.944  70.286  1.00  0.00    -0.269 SA 
HETATM   13  C   UNL     1     -12.330   9.662  71.360  1.00  0.00    -0.378 A  
HETATM   14 CL   UNL     1     -13.782  13.187  72.388  1.00  0.00    -0.683 Cl 
HETATM   15  C   UNL     1     -13.084  10.523  72.196  1.00  0.00    -0.413 A  
ENDROOT
BRANCH   3  16
HETATM   16  C   UNL     1      -9.505   7.886  68.337  1.00  0.00    -0.148 C  
HETATM   17  N   UNL     1      -9.949   7.776  67.044  1.00  0.00    -0.219 N  
HETATM   18  O   UNL     1      -8.319   7.784  68.660  1.00  0.00    -0.126 OA 
HETATM   19  H   UNL     1     -10.944   7.908  66.865  1.00  0.00     0.000 HD 
BRANCH  17  20
HETATM   20  C   UNL     1      -9.115   7.495  65.955  1.00  0.00    -0.094 A  
HETATM   21  C   UNL     1      -8.632   8.471  65.087  1.00  0.00    -0.179 A  
HETATM   22  C   UNL     1      -7.625   6.725  63.784  1.00  0.00    -0.104 A  
HETATM   23  C   UNL     1      -7.863   8.076  63.993  1.00  0.00    -0.145 A  
HETATM   24  C   UNL     1      -8.120   5.829  64.716  1.00  0.00    -0.132 A  
HETATM   25  N   UNL     1      -8.821   6.188  65.817  1.00  0.00    -0.150 NA 
ENDBRANCH  17  20
ENDBRANCH   3  16
TORSDOF 2
ENDMDL
MODEL       45
REMARK 921   NORMALIZED FREE ENERGY PREDICTED BY IDOCK:   -5.34 KCAL/MOL
REMARK 922        TOTAL FREE ENERGY PREDICTED BY IDOCK:   -6.57 KCAL/MOL
REMARK 923 INTER-LIGAND FREE ENERGY PREDICTED BY IDOCK:   -5.94 KCAL/MOL
REMARK 924 INTRA-LIGAND FREE ENERGY PREDICTED BY IDOCK:   -0.63 KCAL/MOL
REMARK 927      BINDING AFFINITY PREDICTED BY RF-SCORE:    0.00 PKD
ROOT
HETATM    1  C   UNL     1      -7.080  11.108  69.458  1.00  0.00    -0.088 C  
HETATM    2  N   UNL     1      -8.290  11.609  68.793  1.00  0.00    -0.092 N  
HETATM    3  C   UNL     1      -9.594  10.969  68.768  1.00  0.00    -0.187 C  
HETATM    4  O   UNL     1      -7.056  12.732  66.855  1.00  0.00     0.040 OA 
HETATM    5  C   UNL     1     -10.642  11.487  68.067  1.00  0.00    -0.190 C  
HETATM    6  C   UNL     1     -10.852  14.523  65.669  1.00  0.00    -0.326 A  
HETATM    7  O   UNL     1     -11.914  10.933  68.048  1.00  0.00    -0.744 OA 
HETATM    8  C   UNL     1     -10.538  12.660  67.257  1.00  0.00    -0.228 A  
HETATM    9  O   UNL     1      -7.810  14.112  68.839  1.00  0.00    -0.135 OA 
HETATM   10  S   UNL     1      -8.003  13.027  67.916  1.00  0.00    -0.173 S  
HETATM   11  H   UNL     1     -12.645  11.294  67.560  1.00  0.00     0.000 HD 
HETATM   12  S   UNL     1     -11.826  13.286  66.290  1.00  0.00    -0.410 SA 
HETATM   13  C   UNL     1      -9.425  13.439  67.076  1.00  0.00    -0.247 A  
HETATM   14 CL   UNL     1     -11.497  15.627  64.523  1.00  0.00    -0.374 Cl 
HETATM   15  C   UNL     1      -9.576  14.515  66.165  1.00  0.00    -0.325 A  
ENDROOT
BRANCH   3  16
HETATM   16  C   UNL     1      -9.873   9.655  69.474  1.00  0.00    -0.206 C  
HETATM   17  N   UNL     1     -10.521   9.720  70.681  1.00  0.00    -0.302 N  
HETATM   18  O   UNL     1      -9.641   8.597  68.882  1.00  0.00    -0.156 OA 
HETATM   19  H   UNL     1     -10.699  10.641  71.081  1.00  0.00     0.000 HD 
BRANCH  17  20
HETATM   20  C   UNL     1     -10.951   8.595  71.395  1.00  0.00    -0.271 A  
HETATM   21  C   UNL     1     -10.296   8.107  72.524  1.00  0.00    -0.401 A  
HETATM   22  C   UNL     1     -11.856   6.283  72.562  1.00  0.00    -0.199 A  
HETATM   23  C   UNL     1     -10.769   6.939  73.122  1.00  0.00    -0.338 A  
HETATM   24  C   UNL     1     -12.461   6.859  71.458  1.00  0.00    -0.375 A  
HETATM   25  N   UNL     1     -12.060   8.020  70.891  1.00  0.00    -0.215 NA 
ENDBRANCH  17  20
ENDBRANCH   3  16
TORSDOF 2
ENDMDL
MODEL       46
REMARK 921   NORMALIZED FREE ENERGY PREDICTED BY IDOCK:   -5.31 KCAL/MOL
REMARK 922        TOTAL FREE ENERGY PREDICTED BY IDOCK:   -6.54 KCAL/MOL
REMARK 923 INTER-LIGAND FREE ENERGY PREDICTED BY IDOCK:   -6.15 KCAL/MOL
REMARK 924 INTRA-LIGAND FREE ENERGY PREDICTED BY IDOCK:   -0.39 KCAL/MOL
REMARK 927      BINDING AFFINITY PREDICTED BY RF-SCORE:    0.00 PKD
ROOT
HETATM    1  C   UNL     1     -10.108   8.657  66.843  1.00  0.00    -0.285 C  
HETATM    2  N   UNL     1     -10.217   7.826  68.049  1.00  0.00    -0.193 N  
HETATM    3  C   UNL     1     -10.499   8.285  69.398  1.00  0.00    -0.220 C  
HETATM    4  O   UNL     1      -8.483   6.097  67.311  1.00  0.00    -0.106 OA 
HETATM    5  C   UNL     1     -10.519   7.438  70.465  1.00  0.00    -0.218 C  
HETATM    6  C   UNL     1      -9.662   3.669  70.737  1.00  0.00    -0.152 A  
HETATM    7  O   UNL     1     -10.823   7.825  71.761  1.00  0.00    -0.228 OA 
HETATM    8  C   UNL     1     -10.210   6.045  70.361  1.00  0.00    -0.204 A  
HETATM    9  O   UNL     1     -10.950   5.623  66.996  1.00  0.00    -0.237 OA 
HETATM   10  S   UNL     1      -9.865   6.199  67.744  1.00  0.00    -0.131 S  
HETATM   11  H   UNL     1     -10.837   7.234  72.505  1.00  0.00     0.000 HD 
HETATM   12  S   UNL     1     -10.142   4.967  71.710  1.00  0.00    -0.202 SA 
HETATM   13  C   UNL     1      -9.882   5.357  69.223  1.00  0.00    -0.182 A  
HETATM   14 CL   UNL     1      -9.351   2.136  71.446  1.00  0.00    -0.181 Cl 
HETATM   15  C   UNL     1      -9.559   3.989  69.410  1.00  0.00    -0.257 A  
ENDROOT
BRANCH   3  16
HETATM   16  C   UNL     1     -10.740   9.747  69.729  1.00  0.00    -0.256 C  
HETATM   17  N   UNL     1     -12.020  10.108  70.065  1.00  0.00    -0.444 N  
HETATM   18  O   UNL     1      -9.773  10.507  69.819  1.00  0.00    -0.139 OA 
HETATM   19  H   UNL     1     -12.753   9.403  69.990  1.00  0.00     0.000 HD 
BRANCH  17  20
HETATM   20  C   UNL     1     -12.377  11.387  70.508  1.00  0.00    -0.349 A  
HETATM   21  C   UNL     1     -12.012  12.557  69.845  1.00  0.00    -0.371 A  
HETATM   22  C   UNL     1     -13.036  13.807  71.620  1.00  0.00    -0.456 A  
HETATM   23  C   UNL     1     -12.362  13.785  70.407  1.00  0.00    -0.423 A  
HETATM   24  C   UNL     1     -13.383  12.594  72.191  1.00  0.00    -0.466 A  
HETATM   25  N   UNL     1     -13.106  11.390  71.640  1.00  0.00    -0.450 NA 
ENDBRANCH  17  20
ENDBRANCH   3  16
TORSDOF 2
ENDMDL
MODEL       47
REMARK 921   NORMALIZED FREE ENERGY PREDICTED BY IDOCK:   -5.31 KCAL/MOL
REMARK 922        TOTAL FREE ENERGY PREDICTED BY IDOCK:   -6.54 KCAL/MOL
REMARK 923 INTER-LIGAND FREE ENERGY PREDICTED BY IDOCK:   -5.95 KCAL/MOL
REMARK 924 INTRA-LIGAND FREE ENERGY PREDICTED BY IDOCK:   -0.58 KCAL/MOL
REMARK 927      BINDING AFFINITY PREDICTED BY RF-SCORE:    0.00 PKD
ROOT
HETATM    1  C   UNL     1     -10.772   8.423  69.392  1.00  0.00    -0.152 C  
HETATM    2  N   UNL     1     -11.189   9.826  69.507  1.00  0.00    -0.187 N  
HETATM    3  C   UNL     1     -10.807  10.920  68.630  1.00  0.00    -0.217 C  
HETATM    4  O   UNL     1     -11.315   9.835  72.062  1.00  0.00    -0.021 OA 
HETATM    5  C   UNL     1     -11.200  12.204  68.858  1.00  0.00    -0.269 C  
HETATM    6  C   UNL     1     -13.152  13.783  71.811  1.00  0.00    -0.379 A  
HETATM    7  O   UNL     1     -10.895  13.272  68.027  1.00  0.00    -0.232 OA 
HETATM    8  C   UNL     1     -11.967  12.596  70.001  1.00  0.00    -0.306 A  
HETATM    9  O   UNL     1     -13.423   9.522  70.695  1.00  0.00    -0.043 OA 
HETATM   10  S   UNL     1     -12.125  10.109  70.888  1.00  0.00    -0.386 S  
HETATM   11  H   UNL     1     -11.169  14.167  68.186  1.00  0.00     0.000 HD 
HETATM   12  S   UNL     1     -12.402  14.229  70.361  1.00  0.00    -0.368 SA 
HETATM   13  C   UNL     1     -12.432  11.780  70.998  1.00  0.00    -0.309 A  
HETATM   14 CL   UNL     1     -13.855  14.984  72.815  1.00  0.00    -0.519 Cl 
HETATM   15  C   UNL     1     -13.115  12.436  72.054  1.00  0.00    -0.470 A  
ENDROOT
BRANCH   3  16
HETATM   16  C   UNL     1      -9.903  10.724  67.427  1.00  0.00    -0.177 C  
HETATM   17  N   UNL     1     -10.506  10.396  66.240  1.00  0.00    -0.197 N  
HETATM   18  O   UNL     1      -8.705  11.002  67.527  1.00  0.00    -0.127 OA 
HETATM   19  H   UNL     1     -11.509  10.213  66.245  1.00  0.00     0.000 HD 
BRANCH  17  20
HETATM   20  C   UNL     1      -9.824  10.298  65.020  1.00  0.00    -0.329 A  
HETATM   21  C   UNL     1      -8.871   9.318  64.753  1.00  0.00    -0.225 A  
HETATM   22  C   UNL     1      -8.479  10.369  62.630  1.00  0.00    -0.201 A  
HETATM   23  C   UNL     1      -8.200   9.350  63.530  1.00  0.00    -0.168 A  
HETATM   24  C   UNL     1      -9.463  11.282  62.971  1.00  0.00    -0.367 A  
HETATM   25  N   UNL     1     -10.169  11.242  64.124  1.00  0.00    -0.304 NA 
ENDBRANCH  17  20
ENDBRANCH   3  16
TORSDOF 2
ENDMDL
MODEL       48
REMARK 921   NORMALIZED FREE ENERGY PREDICTED BY IDOCK:   -5.27 KCAL/MOL
REMARK 922        TOTAL FREE ENERGY PREDICTED BY IDOCK:   -6.49 KCAL/MOL
REMARK 923 INTER-LIGAND FREE ENERGY PREDICTED BY IDOCK:   -6.24 KCAL/MOL
REMARK 924 INTRA-LIGAND FREE ENERGY PREDICTED BY IDOCK:   -0.25 KCAL/MOL
REMARK 927      BINDING AFFINITY PREDICTED BY RF-SCORE:    0.00 PKD
ROOT
HETATM    1  C   UNL     1     -11.999  12.947  70.277  1.00  0.00    -0.283 C  
HETATM    2  N   UNL     1     -11.643  12.185  69.073  1.00  0.00    -0.296 N  
HETATM    3  C   UNL     1     -11.514  10.742  68.965  1.00  0.00    -0.298 C  
HETATM    4  O   UNL     1     -10.098  13.976  68.100  1.00  0.00    -0.231 OA 
HETATM    5  C   UNL     1     -11.117  10.133  67.812  1.00  0.00    -0.227 C  
HETATM    6  C   UNL     1      -9.900  11.608  64.443  1.00  0.00    -0.223 A  
HETATM    7  O   UNL     1     -11.019   8.759  67.652  1.00  0.00    -0.493 OA 
HETATM    8  C   UNL     1     -10.740  10.855  66.636  1.00  0.00    -0.230 A  
HETATM    9  O   UNL     1     -12.485  13.787  67.278  1.00  0.00    -0.243 OA 
HETATM   10  S   UNL     1     -11.271  13.189  67.763  1.00  0.00    -0.294 S  
HETATM   11  H   UNL     1     -10.742   8.335  66.849  1.00  0.00     0.000 HD 
HETATM   12  S   UNL     1     -10.149  10.112  65.193  1.00  0.00    -0.153 SA 
HETATM   13  C   UNL     1     -10.738  12.215  66.471  1.00  0.00    -0.255 A  
HETATM   14 CL   UNL     1      -9.247  11.671  62.855  1.00  0.00    -0.243 Cl 
HETATM   15  C   UNL     1     -10.256  12.677  65.220  1.00  0.00    -0.302 A  
ENDROOT
BRANCH   3  16
HETATM   16  C   UNL     1     -11.760   9.811  70.137  1.00  0.00    -0.130 C  
HETATM   17  N   UNL     1     -10.830   8.827  70.359  1.00  0.00    -0.224 N  
HETATM   18  O   UNL     1     -12.688  10.057  70.913  1.00  0.00    -0.329 OA 
HETATM   19  H   UNL     1     -10.078   8.715  69.680  1.00  0.00     0.000 HD 
BRANCH  17  20
HETATM   20  C   UNL     1     -10.854   7.968  71.465  1.00  0.00    -0.232 A  
HETATM   21  C   UNL     1     -10.194   8.239  72.661  1.00  0.00    -0.368 A  
HETATM   22  C   UNL     1     -10.887   6.084  73.459  1.00  0.00    -0.222 A  
HETATM   23  C   UNL     1     -10.225   7.284  73.677  1.00  0.00    -0.393 A  
HETATM   24  C   UNL     1     -11.539   5.915  72.250  1.00  0.00    -0.282 A  
HETATM   25  N   UNL     1     -11.573   6.846  71.269  1.00  0.00    -0.291 NA 
ENDBRANCH  17  20
ENDBRANCH   3  16
TORSDOF 2
ENDMDL
MODEL       49
REMARK 921   NORMALIZED FREE ENERGY PREDICTED BY IDOCK:   -5.25 KCAL/MOL
REMARK 922        TOTAL FREE ENERGY PREDICTED BY IDOCK:   -6.48 KCAL/MOL
REMARK 923 INTER-LIGAND FREE ENERGY PREDICTED BY IDOCK:   -5.94 KCAL/MOL
REMARK 924 INTRA-LIGAND FREE ENERGY PREDICTED BY IDOCK:   -0.54 KCAL/MOL
REMARK 927      BINDING AFFINITY PREDICTED BY RF-SCORE:    0.00 PKD
ROOT
HETATM    1  C   UNL     1     -11.196  11.655  64.694  1.00  0.00    -0.253 C  
HETATM    2  N   UNL     1     -10.651  12.503  65.762  1.00  0.00    -0.264 N  
HETATM    3  C   UNL     1      -9.921  12.058  66.937  1.00  0.00    -0.202 C  
HETATM    4  O   UNL     1     -12.500  14.266  65.639  1.00  0.00    -0.445 OA 
HETATM    5  C   UNL     1      -9.509  12.923  67.905  1.00  0.00    -0.208 C  
HETATM    6  C   UNL     1     -10.140  16.718  68.366  1.00  0.00    -0.285 A  
HETATM    7  O   UNL     1      -8.774  12.550  69.021  1.00  0.00    -0.334 OA 
HETATM    8  C   UNL     1      -9.806  14.322  67.882  1.00  0.00    -0.226 A  
HETATM    9  O   UNL     1     -10.295  14.667  64.463  1.00  0.00    -0.233 OA 
HETATM   10  S   UNL     1     -11.056  14.133  65.559  1.00  0.00    -0.323 S  
HETATM   11  H   UNL     1      -8.487  13.152  69.697  1.00  0.00     0.000 HD 
HETATM   12  S   UNL     1      -9.373  15.424  69.141  1.00  0.00    -0.258 SA 
HETATM   13  C   UNL     1     -10.502  15.000  66.916  1.00  0.00    -0.279 A  
HETATM   14 CL   UNL     1     -10.150  18.270  69.101  1.00  0.00    -0.298 Cl 
HETATM   15  C   UNL     1     -10.712  16.379  67.170  1.00  0.00    -0.233 A  
ENDROOT
BRANCH   3  16
HETATM   16  C   UNL     1      -9.607  10.597  67.198  1.00  0.00    -0.164 C  
HETATM   17  N   UNL     1     -10.509   9.889  67.951  1.00  0.00    -0.219 N  
HETATM   18  O   UNL     1      -8.650  10.077  66.617  1.00  0.00    -0.125 OA 
HETATM   19  H   UNL     1     -11.288  10.397  68.368  1.00  0.00     0.000 HD 
BRANCH  17  20
HETATM   20  C   UNL     1     -10.421   8.511  68.179  1.00  0.00    -0.182 A  
HETATM   21  C   UNL     1     -10.738   7.553  67.218  1.00  0.00    -0.365 A  
HETATM   22  C   UNL     1     -10.341   5.857  68.869  1.00  0.00    -0.290 A  
HETATM   23  C   UNL     1     -10.682   6.204  67.570  1.00  0.00    -0.393 A  
HETATM   24  C   UNL     1     -10.014   6.875  69.748  1.00  0.00    -0.178 A  
HETATM   25  N   UNL     1     -10.005   8.188  69.419  1.00  0.00    -0.183 NA 
ENDBRANCH  17  20
ENDBRANCH   3  16
TORSDOF 2
ENDMDL
MODEL       50
REMARK 921   NORMALIZED FREE ENERGY PREDICTED BY IDOCK:   -5.24 KCAL/MOL
REMARK 922        TOTAL FREE ENERGY PREDICTED BY IDOCK:   -6.46 KCAL/MOL
REMARK 923 INTER-LIGAND FREE ENERGY PREDICTED BY IDOCK:   -5.83 KCAL/MOL
REMARK 924 INTRA-LIGAND FREE ENERGY PREDICTED BY IDOCK:   -0.63 KCAL/MOL
REMARK 927      BINDING AFFINITY PREDICTED BY RF-SCORE:    0.00 PKD
ROOT
HETATM    1  C   UNL     1     -11.402  16.540  68.832  1.00  0.00    -0.206 C  
HETATM    2  N   UNL     1     -10.202  16.858  68.047  1.00  0.00    -0.295 N  
HETATM    3  C   UNL     1      -9.177  15.925  67.611  1.00  0.00    -0.208 C  
HETATM    4  O   UNL     1      -9.878  19.195  69.035  1.00  0.00    -0.410 OA 
HETATM    5  C   UNL     1      -8.065  16.332  66.936  1.00  0.00    -0.235 C  
HETATM    6  C   UNL     1      -6.793  19.877  66.028  1.00  0.00    -0.257 A  
HETATM    7  O   UNL     1      -7.083  15.473  66.465  1.00  0.00    -0.190 OA 
HETATM    8  C   UNL     1      -7.782  17.704  66.651  1.00  0.00    -0.249 A  
HETATM    9  O   UNL     1     -11.031  18.919  66.798  1.00  0.00    -0.295 OA 
HETATM   10  S   UNL     1     -10.042  18.518  67.761  1.00  0.00    -0.384 S  
HETATM   11  H   UNL     1      -6.309  15.756  65.995  1.00  0.00     0.000 HD 
HETATM   12  S   UNL     1      -6.339  18.254  65.877  1.00  0.00    -0.273 SA 
HETATM   13  C   UNL     1      -8.557  18.788  66.973  1.00  0.00    -0.282 A  
HETATM   14 CL   UNL     1      -5.750  21.115  65.455  1.00  0.00    -0.273 Cl 
HETATM   15  C   UNL     1      -8.011  20.051  66.629  1.00  0.00    -0.346 A  
ENDROOT
BRANCH   3  16
HETATM   16  C   UNL     1      -9.241  14.440  67.917  1.00  0.00    -0.195 C  
HETATM   17  N   UNL     1      -9.948  13.653  67.044  1.00  0.00    -0.243 N  
HETATM   18  O   UNL     1      -8.553  13.988  68.836  1.00  0.00    -0.084 OA 
HETATM   19  H   UNL     1     -10.464  14.111  66.294  1.00  0.00     0.000 HD 
BRANCH  17  20
HETATM   20  C   UNL     1     -10.002  12.256  67.124  1.00  0.00    -0.205 A  
HETATM   21  C   UNL     1     -11.090  11.559  67.645  1.00  0.00    -0.324 A  
HETATM   22  C   UNL     1      -9.852   9.525  67.344  1.00  0.00    -0.218 A  
HETATM   23  C   UNL     1     -11.015  10.170  67.742  1.00  0.00    -0.338 A  
HETATM   24  C   UNL     1      -8.833  10.297  66.811  1.00  0.00    -0.133 A  
HETATM   25  N   UNL     1      -8.901  11.639  66.653  1.00  0.00    -0.184 NA 
ENDBRANCH  17  20
ENDBRANCH   3  16
TORSDOF 2
ENDMDL
MODEL       51
REMARK 921   NORMALIZED FREE ENERGY PREDICTED BY IDOCK:   -5.22 KCAL/MOL
REMARK 922        TOTAL FREE ENERGY PREDICTED BY IDOCK:   -6.45 KCAL/MOL
REMARK 923 INTER-LIGAND FREE ENERGY PREDICTED BY IDOCK:   -5.75 KCAL/MOL
REMARK 924 INTRA-LIGAND FREE ENERGY PREDICTED BY IDOCK:   -0.69 KCAL/MOL
REMARK 927      BINDING AFFINITY PREDICTED BY RF-SCORE:    0.00 PKD
ROOT
HETATM    1  C   UNL     1     -11.775  14.542  66.729  1.00  0.00    -0.377 C  
HETATM    2  N   UNL     1     -10.437  15.144  66.685  1.00  0.00    -0.281 N  
HETATM    3  C   UNL     1      -9.169  14.460  66.877  1.00  0.00    -0.254 C  
HETATM    4  O   UNL     1     -11.156  17.407  67.636  1.00  0.00    -0.214 OA 
HETATM    5  C   UNL     1      -7.979  15.122  66.878  1.00  0.00    -0.120 C  
HETATM    6  C   UNL     1      -7.173  18.907  66.685  1.00  0.00    -0.216 A  
HETATM    7  O   UNL     1      -6.745  14.505  67.015  1.00  0.00    -0.340 OA 
HETATM    8  C   UNL     1      -7.876  16.543  66.750  1.00  0.00    -0.261 A  
HETATM    9  O   UNL     1     -10.895  17.115  65.135  1.00  0.00    -0.626 OA 
HETATM   10  S   UNL     1     -10.492  16.823  66.484  1.00  0.00    -0.211 S  
HETATM   11  H   UNL     1      -5.915  14.967  67.016  1.00  0.00     0.000 HD 
HETATM   12  S   UNL     1      -6.387  17.416  66.837  1.00  0.00    -0.202 SA 
HETATM   13  C   UNL     1      -8.906  17.432  66.589  1.00  0.00    -0.254 A  
HETATM   14 CL   UNL     1      -6.261  20.362  66.717  1.00  0.00    -0.220 Cl 
HETATM   15  C   UNL     1      -8.531  18.799  66.552  1.00  0.00    -0.310 A  
ENDROOT
BRANCH   3  16
HETATM   16  C   UNL     1      -9.080  12.968  67.140  1.00  0.00    -0.225 C  
HETATM   17  N   UNL     1      -8.987  12.145  66.047  1.00  0.00    -0.416 N  
HETATM   18  O   UNL     1      -8.952  12.572  68.302  1.00  0.00    -0.194 OA 
HETATM   19  H   UNL     1      -9.074  12.564  65.122  1.00  0.00     0.000 HD 
BRANCH  17  20
HETATM   20  C   UNL     1      -8.780  10.762  66.128  1.00  0.00    -0.180 A  
HETATM   21  C   UNL     1      -7.521  10.171  66.059  1.00  0.00    -0.118 A  
HETATM   22  C   UNL     1      -8.594   8.025  66.143  1.00  0.00    -0.163 A  
HETATM   23  C   UNL     1      -7.431   8.779  66.081  1.00  0.00    -0.090 A  
HETATM   24  C   UNL     1      -9.799   8.701  66.238  1.00  0.00    -0.249 A  
HETATM   25  N   UNL     1      -9.913  10.048  66.276  1.00  0.00    -0.232 NA 
ENDBRANCH  17  20
ENDBRANCH   3  16
TORSDOF 2
ENDMDL
MODEL       52
REMARK 921   NORMALIZED FREE ENERGY PREDICTED BY IDOCK:   -5.21 KCAL/MOL
REMARK 922        TOTAL FREE ENERGY PREDICTED BY IDOCK:   -6.43 KCAL/MOL
REMARK 923 INTER-LIGAND FREE ENERGY PREDICTED BY IDOCK:   -5.80 KCAL/MOL
REMARK 924 INTRA-LIGAND FREE ENERGY PREDICTED BY IDOCK:   -0.63 KCAL/MOL
REMARK 927      BINDING AFFINITY PREDICTED BY RF-SCORE:    0.00 PKD
ROOT
HETATM    1  C   UNL     1      -9.737  10.931  66.146  1.00  0.00    -0.210 C  
HETATM    2  N   UNL     1     -10.347  10.940  67.481  1.00  0.00    -0.193 N  
HETATM    3  C   UNL     1     -10.633   9.783  68.313  1.00  0.00    -0.229 C  
HETATM    4  O   UNL     1     -11.841  12.972  67.054  1.00  0.00    -0.367 OA 
HETATM    5  C   UNL     1     -11.260   9.892  69.518  1.00  0.00    -0.177 C  
HETATM    6  C   UNL     1     -12.832  12.952  71.301  1.00  0.00    -0.270 A  
HETATM    7  O   UNL     1     -11.516   8.822  70.362  1.00  0.00    -0.372 OA 
HETATM    8  C   UNL     1     -11.741  11.135  70.039  1.00  0.00    -0.356 A  
HETATM    9  O   UNL     1      -9.639  13.258  68.271  1.00  0.00    -0.221 OA 
HETATM   10  S   UNL     1     -10.817  12.492  67.965  1.00  0.00    -0.237 S  
HETATM   11  H   UNL     1     -11.954   8.898  71.201  1.00  0.00     0.000 HD 
HETATM   12  S   UNL     1     -12.618  11.288  71.520  1.00  0.00    -0.254 SA 
HETATM   13  C   UNL     1     -11.635  12.369  69.453  1.00  0.00    -0.307 A  
HETATM   14 CL   UNL     1     -13.712  13.862  72.462  1.00  0.00    -0.657 Cl 
HETATM   15  C   UNL     1     -12.256  13.432  70.155  1.00  0.00    -0.385 A  
ENDROOT
BRANCH   3  16
HETATM   16  C   UNL     1     -10.302   8.366  67.882  1.00  0.00    -0.221 C  
HETATM   17  N   UNL     1      -9.463   7.647  68.694  1.00  0.00    -0.151 N  
HETATM   18  O   UNL     1     -10.898   7.879  66.918  1.00  0.00    -0.288 OA 
HETATM   19  H   UNL     1      -9.037   8.124  69.488  1.00  0.00     0.000 HD 
BRANCH  17  20
HETATM   20  C   UNL     1      -9.158   6.294  68.496  1.00  0.00    -0.125 A  
HETATM   21  C   UNL     1      -9.874   5.253  69.082  1.00  0.00    -0.257 A  
HETATM   22  C   UNL     1      -8.305   3.714  68.116  1.00  0.00    -0.095 A  
HETATM   23  C   UNL     1      -9.445   3.942  68.874  1.00  0.00    -0.234 A  
HETATM   24  C   UNL     1      -7.675   4.809  67.550  1.00  0.00    -0.090 A  
HETATM   25  N   UNL     1      -8.101   6.086  67.688  1.00  0.00    -0.105 NA 
ENDBRANCH  17  20
ENDBRANCH   3  16
TORSDOF 2
ENDMDL
MODEL       53
REMARK 921   NORMALIZED FREE ENERGY PREDICTED BY IDOCK:   -5.21 KCAL/MOL
REMARK 922        TOTAL FREE ENERGY PREDICTED BY IDOCK:   -6.43 KCAL/MOL
REMARK 923 INTER-LIGAND FREE ENERGY PREDICTED BY IDOCK:   -5.78 KCAL/MOL
REMARK 924 INTRA-LIGAND FREE ENERGY PREDICTED BY IDOCK:   -0.65 KCAL/MOL
REMARK 927      BINDING AFFINITY PREDICTED BY RF-SCORE:    0.00 PKD
ROOT
HETATM    1  C   UNL     1      -9.757   9.186  69.030  1.00  0.00    -0.166 C  
HETATM    2  N   UNL     1     -10.120   9.834  67.763  1.00  0.00    -0.169 N  
HETATM    3  C   UNL     1      -9.758   9.392  66.427  1.00  0.00    -0.250 C  
HETATM    4  O   UNL     1     -10.085  12.218  68.690  1.00  0.00    -0.212 OA 
HETATM    5  C   UNL     1     -10.094  10.100  65.313  1.00  0.00    -0.274 C  
HETATM    6  C   UNL     1     -11.803  13.554  64.910  1.00  0.00    -0.374 A  
HETATM    7  O   UNL     1      -9.806   9.696  64.018  1.00  0.00    -0.425 OA 
HETATM    8  C   UNL     1     -10.773  11.358  65.361  1.00  0.00    -0.253 A  
HETATM    9  O   UNL     1     -12.284  10.984  68.464  1.00  0.00    -0.582 OA 
HETATM   10  S   UNL     1     -10.957  11.285  67.999  1.00  0.00    -0.271 S  
HETATM   11  H   UNL     1     -10.040  10.190  63.241  1.00  0.00     0.000 HD 
HETATM   12  S   UNL     1     -11.131  12.318  63.970  1.00  0.00    -0.428 SA 
HETATM   13  C   UNL     1     -11.202  12.019  66.482  1.00  0.00    -0.334 A  
HETATM   14 CL   UNL     1     -12.402  14.975  64.155  1.00  0.00    -0.362 Cl 
HETATM   15  C   UNL     1     -11.795  13.287  66.253  1.00  0.00    -0.444 A  
ENDROOT
BRANCH   3  16
HETATM   16  C   UNL     1      -8.939   8.140  66.176  1.00  0.00    -0.178 C  
HETATM   17  N   UNL     1      -9.606   6.942  66.200  1.00  0.00    -0.396 N  
HETATM   18  O   UNL     1      -7.761   8.256  65.826  1.00  0.00    -0.085 OA 
HETATM   19  H   UNL     1     -10.588   6.945  66.472  1.00  0.00     0.000 HD 
BRANCH  17  20
HETATM   20  C   UNL     1      -9.015   5.715  65.872  1.00  0.00    -0.155 A  
HETATM   21  C   UNL     1      -9.016   5.184  64.584  1.00  0.00    -0.034 A  
HETATM   22  C   UNL     1      -7.948   3.221  65.461  1.00  0.00    -0.086 A  
HETATM   23  C   UNL     1      -8.460   3.921  64.378  1.00  0.00    -0.099 A  
HETATM   24  C   UNL     1      -7.964   3.841  66.699  1.00  0.00    -0.096 A  
HETATM   25  N   UNL     1      -8.446   5.086  66.918  1.00  0.00    -0.107 NA 
ENDBRANCH  17  20
ENDBRANCH   3  16
TORSDOF 2
ENDMDL
MODEL       54
REMARK 921   NORMALIZED FREE ENERGY PREDICTED BY IDOCK:   -5.20 KCAL/MOL
REMARK 922        TOTAL FREE ENERGY PREDICTED BY IDOCK:   -6.42 KCAL/MOL
REMARK 923 INTER-LIGAND FREE ENERGY PREDICTED BY IDOCK:   -5.79 KCAL/MOL
REMARK 924 INTRA-LIGAND FREE ENERGY PREDICTED BY IDOCK:   -0.63 KCAL/MOL
REMARK 927      BINDING AFFINITY PREDICTED BY RF-SCORE:    0.00 PKD
ROOT
HETATM    1  C   UNL     1      -7.611  10.589  69.010  1.00  0.00    -0.117 C  
HETATM    2  N   UNL     1      -8.285  11.855  68.694  1.00  0.00    -0.115 N  
HETATM    3  C   UNL     1      -9.719  12.089  68.655  1.00  0.00    -0.096 C  
HETATM    4  O   UNL     1      -6.519  12.663  67.030  1.00  0.00    -0.169 OA 
HETATM    5  C   UNL     1     -10.248  13.290  68.289  1.00  0.00    -0.250 C  
HETATM    6  C   UNL     1      -8.564  16.514  66.954  1.00  0.00    -0.207 A  
HETATM    7  O   UNL     1     -11.607  13.571  68.277  1.00  0.00    -0.301 OA 
HETATM    8  C   UNL     1      -9.451  14.397  67.858  1.00  0.00    -0.214 A  
HETATM    9  O   UNL     1      -6.481  13.504  69.418  1.00  0.00    -0.105 OA 
HETATM   10  S   UNL     1      -7.196  13.071  68.248  1.00  0.00    -0.126 S  
HETATM   11  H   UNL     1     -11.976  14.407  68.021  1.00  0.00     0.000 HD 
HETATM   12  S   UNL     1     -10.101  15.899  67.304  1.00  0.00    -0.265 SA 
HETATM   13  C   UNL     1      -8.085  14.441  67.768  1.00  0.00    -0.168 A  
HETATM   14 CL   UNL     1      -8.404  18.088  66.286  1.00  0.00    -0.261 Cl 
HETATM   15  C   UNL     1      -7.547  15.646  67.248  1.00  0.00    -0.247 A  
ENDROOT
BRANCH   3  16
HETATM   16  C   UNL     1     -10.732  11.004  68.969  1.00  0.00    -0.219 C  
HETATM   17  N   UNL     1     -10.927  10.695  70.291  1.00  0.00    -0.448 N  
HETATM   18  O   UNL     1     -11.428  10.553  68.056  1.00  0.00    -0.383 OA 
HETATM   19  H   UNL     1     -10.323  11.140  70.982  1.00  0.00     0.000 HD 
BRANCH  17  20
HETATM   20  C   UNL     1     -11.906   9.804  70.747  1.00  0.00    -0.319 A  
HETATM   21  C   UNL     1     -13.154  10.211  71.214  1.00  0.00    -0.490 A  
HETATM   22  C   UNL     1     -13.630   7.920  71.749  1.00  0.00    -0.396 A  
HETATM   23  C   UNL     1     -14.033   9.248  71.710  1.00  0.00    -0.324 A  
HETATM   24  C   UNL     1     -12.383   7.606  71.236  1.00  0.00    -0.309 A  
HETATM   25  N   UNL     1     -11.534   8.511  70.698  1.00  0.00    -0.260 NA 
ENDBRANCH  17  20
ENDBRANCH   3  16
TORSDOF 2
ENDMDL
MODEL       55
REMARK 921   NORMALIZED FREE ENERGY PREDICTED BY IDOCK:   -5.07 KCAL/MOL
REMARK 922        TOTAL FREE ENERGY PREDICTED BY IDOCK:   -6.28 KCAL/MOL
REMARK 923 INTER-LIGAND FREE ENERGY PREDICTED BY IDOCK:   -5.69 KCAL/MOL
REMARK 924 INTRA-LIGAND FREE ENERGY PREDICTED BY IDOCK:   -0.58 KCAL/MOL
REMARK 927      BINDING AFFINITY PREDICTED BY RF-SCORE:    0.00 PKD
ROOT
HETATM    1  C   UNL     1      -7.927   8.290  67.726  1.00  0.00    -0.122 C  
HETATM    2  N   UNL     1      -8.845   9.426  67.873  1.00  0.00    -0.124 N  
HETATM    3  C   UNL     1      -9.542   9.829  69.082  1.00  0.00    -0.188 C  
HETATM    4  O   UNL     1      -9.778   9.294  65.495  1.00  0.00    -0.277 OA 
HETATM    5  C   UNL     1     -10.424  10.867  69.100  1.00  0.00    -0.221 C  
HETATM    6  C   UNL     1     -11.805  13.084  66.238  1.00  0.00    -0.408 A  
HETATM    7  O   UNL     1     -11.080  11.312  70.239  1.00  0.00    -0.477 OA 
HETATM    8  C   UNL     1     -10.784  11.607  67.930  1.00  0.00    -0.202 A  
HETATM    9  O   UNL     1      -7.946  10.954  66.041  1.00  0.00    -0.159 OA 
HETATM   10  S   UNL     1      -9.127  10.220  66.405  1.00  0.00    -0.156 S  
HETATM   11  H   UNL     1     -11.695  12.035  70.251  1.00  0.00     0.000 HD 
HETATM   12  S   UNL     1     -11.965  12.868  67.909  1.00  0.00    -0.189 SA 
HETATM   13  C   UNL     1     -10.305  11.422  66.660  1.00  0.00    -0.233 A  
HETATM   14 CL   UNL     1     -12.768  14.254  65.430  1.00  0.00    -0.447 Cl 
HETATM   15  C   UNL     1     -10.878  12.255  65.666  1.00  0.00    -0.321 A  
ENDROOT
BRANCH   3  16
HETATM   16  C   UNL     1      -9.380   9.095  70.401  1.00  0.00    -0.232 C  
HETATM   17  N   UNL     1     -10.295   8.115  70.686  1.00  0.00    -0.197 N  
HETATM   18  O   UNL     1      -8.372   9.304  71.082  1.00  0.00    -0.291 OA 
HETATM   19  H   UNL     1     -11.082   7.992  70.049  1.00  0.00     0.000 HD 
BRANCH  17  20
HETATM   20  C   UNL     1     -10.212   7.272  71.802  1.00  0.00    -0.194 A  
HETATM   21  C   UNL     1     -10.558   7.672  73.091  1.00  0.00    -0.438 A  
HETATM   22  C   UNL     1      -9.826   5.527  73.883  1.00  0.00    -0.180 A  
HETATM   23  C   UNL     1     -10.373   6.776  74.144  1.00  0.00    -0.322 A  
HETATM   24  C   UNL     1      -9.540   5.207  72.567  1.00  0.00    -0.149 A  
HETATM   25  N   UNL     1      -9.761   6.035  71.520  1.00  0.00    -0.163 NA 
ENDBRANCH  17  20
ENDBRANCH   3  16
TORSDOF 2
ENDMDL
MODEL       56
REMARK 921   NORMALIZED FREE ENERGY PREDICTED BY IDOCK:   -5.06 KCAL/MOL
REMARK 922        TOTAL FREE ENERGY PREDICTED BY IDOCK:   -6.26 KCAL/MOL
REMARK 923 INTER-LIGAND FREE ENERGY PREDICTED BY IDOCK:   -5.68 KCAL/MOL
REMARK 924 INTRA-LIGAND FREE ENERGY PREDICTED BY IDOCK:   -0.58 KCAL/MOL
REMARK 927      BINDING AFFINITY PREDICTED BY RF-SCORE:    0.00 PKD
ROOT
HETATM    1  C   UNL     1     -10.505  10.253  65.222  1.00  0.00    -0.029 C  
HETATM    2  N   UNL     1     -10.194  11.567  65.797  1.00  0.00    -0.239 N  
HETATM    3  C   UNL     1      -9.683  11.833  67.131  1.00  0.00    -0.183 C  
HETATM    4  O   UNL     1     -12.037  12.823  64.545  1.00  0.00    -0.368 OA 
HETATM    5  C   UNL     1      -9.485  13.099  67.594  1.00  0.00    -0.207 C  
HETATM    6  C   UNL     1     -10.298  16.543  66.016  1.00  0.00    -0.345 A  
HETATM    7  O   UNL     1      -8.961  13.398  68.843  1.00  0.00    -0.384 OA 
HETATM    8  C   UNL     1      -9.812  14.268  66.837  1.00  0.00    -0.263 A  
HETATM    9  O   UNL     1      -9.662  12.862  63.667  1.00  0.00    -0.078 OA 
HETATM   10  S   UNL     1     -10.600  12.838  64.756  1.00  0.00    -0.345 S  
HETATM   11  H   UNL     1      -8.823  14.281  69.166  1.00  0.00     0.000 HD 
HETATM   12  S   UNL     1      -9.654  15.882  67.434  1.00  0.00    -0.222 SA 
HETATM   13  C   UNL     1     -10.334  14.309  65.571  1.00  0.00    -0.355 A  
HETATM   14 CL   UNL     1     -10.490  18.243  65.874  1.00  0.00    -0.400 Cl 
HETATM   15  C   UNL     1     -10.627  15.604  65.075  1.00  0.00    -0.422 A  
ENDROOT
BRANCH   3  16
HETATM   16  C   UNL     1      -9.382  10.726  68.125  1.00  0.00    -0.155 C  
HETATM   17  N   UNL     1     -10.455  10.103  68.709  1.00  0.00    -0.193 N  
HETATM   18  O   UNL     1      -8.217  10.342  68.258  1.00  0.00    -0.111 OA 
HETATM   19  H   UNL     1     -11.387  10.470  68.518  1.00  0.00     0.000 HD 
BRANCH  17  20
HETATM   20  C   UNL     1     -10.345   8.990  69.553  1.00  0.00    -0.209 A  
HETATM   21  C   UNL     1     -10.360   7.675  69.093  1.00  0.00    -0.217 A  
HETATM   22  C   UNL     1     -10.281   6.943  71.378  1.00  0.00    -0.212 A  
HETATM   23  C   UNL     1     -10.313   6.638  70.024  1.00  0.00    -0.232 A  
HETATM   24  C   UNL     1     -10.240   8.278  71.740  1.00  0.00    -0.230 A  
HETATM   25  N   UNL     1     -10.227   9.304  70.857  1.00  0.00    -0.278 NA 
ENDBRANCH  17  20
ENDBRANCH   3  16
TORSDOF 2
ENDMDL
MODEL       57
REMARK 921   NORMALIZED FREE ENERGY PREDICTED BY IDOCK:   -5.02 KCAL/MOL
REMARK 922        TOTAL FREE ENERGY PREDICTED BY IDOCK:   -6.22 KCAL/MOL
REMARK 923 INTER-LIGAND FREE ENERGY PREDICTED BY IDOCK:   -5.63 KCAL/MOL
REMARK 924 INTRA-LIGAND FREE ENERGY PREDICTED BY IDOCK:   -0.59 KCAL/MOL
REMARK 927      BINDING AFFINITY PREDICTED BY RF-SCORE:    0.00 PKD
ROOT
HETATM    1  C   UNL     1      -6.692  14.065  67.380  1.00  0.00     0.038 C  
HETATM    2  N   UNL     1      -7.921  13.338  67.723  1.00  0.00    -0.151 N  
HETATM    3  C   UNL     1      -9.283  13.826  67.596  1.00  0.00    -0.207 C  
HETATM    4  O   UNL     1      -6.897  12.038  69.674  1.00  0.00    -0.049 OA 
HETATM    5  C   UNL     1     -10.358  13.093  68.002  1.00  0.00    -0.238 C  
HETATM    6  C   UNL     1     -10.570   9.692  69.846  1.00  0.00    -0.249 A  
HETATM    7  O   UNL     1     -11.676  13.501  67.862  1.00  0.00    -0.316 OA 
HETATM    8  C   UNL     1     -10.239  11.817  68.637  1.00  0.00    -0.201 A  
HETATM    9  O   UNL     1      -7.115  10.941  67.402  1.00  0.00    -0.086 OA 
HETATM   10  S   UNL     1      -7.602  11.830  68.422  1.00  0.00    -0.129 S  
HETATM   11  H   UNL     1     -12.425  12.991  68.145  1.00  0.00     0.000 HD 
HETATM   12  S   UNL     1     -11.578  10.908  69.241  1.00  0.00    -0.335 SA 
HETATM   13  C   UNL     1      -9.080  11.138  68.908  1.00  0.00    -0.089 A  
HETATM   14 CL   UNL     1     -11.249   8.350  70.675  1.00  0.00    -0.271 Cl 
HETATM   15  C   UNL     1      -9.240   9.914  69.607  1.00  0.00    -0.246 A  
ENDROOT
BRANCH   3  16
HETATM   16  C   UNL     1      -9.609  15.204  67.050  1.00  0.00    -0.226 C  
HETATM   17  N   UNL     1      -9.334  16.277  67.860  1.00  0.00    -0.209 N  
HETATM   18  O   UNL     1      -9.965  15.313  65.874  1.00  0.00    -0.291 OA 
HETATM   19  H   UNL     1      -9.014  16.092  68.810  1.00  0.00     0.000 HD 
BRANCH  17  20
HETATM   20  C   UNL     1      -9.467  17.611  67.456  1.00  0.00    -0.256 A  
HETATM   21  C   UNL     1     -10.630  18.355  67.642  1.00  0.00    -0.437 A  
HETATM   22  C   UNL     1      -9.590  20.161  66.451  1.00  0.00    -0.511 A  
HETATM   23  C   UNL     1     -10.683  19.656  67.142  1.00  0.00    -0.587 A  
HETATM   24  C   UNL     1      -8.466  19.359  66.341  1.00  0.00    -0.346 A  
HETATM   25  N   UNL     1      -8.367  18.115  66.865  1.00  0.00    -0.238 NA 
ENDBRANCH  17  20
ENDBRANCH   3  16
TORSDOF 2
ENDMDL
MODEL       58
REMARK 921   NORMALIZED FREE ENERGY PREDICTED BY IDOCK:   -5.01 KCAL/MOL
REMARK 922        TOTAL FREE ENERGY PREDICTED BY IDOCK:   -6.21 KCAL/MOL
REMARK 923 INTER-LIGAND FREE ENERGY PREDICTED BY IDOCK:   -5.57 KCAL/MOL
REMARK 924 INTRA-LIGAND FREE ENERGY PREDICTED BY IDOCK:   -0.63 KCAL/MOL
REMARK 927      BINDING AFFINITY PREDICTED BY RF-SCORE:    0.00 PKD
ROOT
HETATM    1  C   UNL     1      -8.547   7.393  67.167  1.00  0.00    -0.118 C  
HETATM    2  N   UNL     1      -9.233   7.203  68.451  1.00  0.00    -0.134 N  
HETATM    3  C   UNL     1      -9.903   8.224  69.237  1.00  0.00    -0.186 C  
HETATM    4  O   UNL     1      -7.679   5.350  69.285  1.00  0.00    -0.082 OA 
HETATM    5  C   UNL     1     -10.460   7.957  70.451  1.00  0.00    -0.218 C  
HETATM    6  C   UNL     1     -10.435   4.740  72.610  1.00  0.00    -0.203 A  
HETATM    7  O   UNL     1     -11.145   8.890  71.216  1.00  0.00    -0.252 OA 
HETATM    8  C   UNL     1     -10.384   6.675  71.081  1.00  0.00    -0.206 A  
HETATM    9  O   UNL     1      -9.902   4.753  68.230  1.00  0.00    -0.150 OA 
HETATM   10  S   UNL     1      -9.084   5.621  69.033  1.00  0.00    -0.112 S  
HETATM   11  H   UNL     1     -11.532   8.703  72.063  1.00  0.00     0.000 HD 
HETATM   12  S   UNL     1     -11.003   6.333  72.657  1.00  0.00    -0.262 SA 
HETATM   13  C   UNL     1      -9.787   5.547  70.581  1.00  0.00    -0.192 A  
HETATM   14 CL   UNL     1     -10.678   3.704  73.958  1.00  0.00    -0.275 Cl 
HETATM   15  C   UNL     1      -9.799   4.420  71.441  1.00  0.00    -0.262 A  
ENDROOT
BRANCH   3  16
HETATM   16  C   UNL     1      -9.990   9.672  68.790  1.00  0.00    -0.173 C  
HETATM   17  N   UNL     1     -11.124  10.052  68.119  1.00  0.00    -0.457 N  
HETATM   18  O   UNL     1      -9.122  10.467  69.164  1.00  0.00    -0.176 OA 
HETATM   19  H   UNL     1     -11.803   9.331  67.877  1.00  0.00     0.000 HD 
BRANCH  17  20
HETATM   20  C   UNL     1     -11.403  11.373  67.747  1.00  0.00    -0.287 A  
HETATM   21  C   UNL     1     -11.790  12.358  68.652  1.00  0.00    -0.348 A  
HETATM   22  C   UNL     1     -12.064  13.862  66.801  1.00  0.00    -0.476 A  
HETATM   23  C   UNL     1     -12.112  13.626  68.168  1.00  0.00    -0.310 A  
HETATM   24  C   UNL     1     -11.640  12.831  65.981  1.00  0.00    -0.383 A  
HETATM   25  N   UNL     1     -11.268  11.609  66.428  1.00  0.00    -0.311 NA 
ENDBRANCH  17  20
ENDBRANCH   3  16
TORSDOF 2
ENDMDL
MODEL       59
REMARK 921   NORMALIZED FREE ENERGY PREDICTED BY IDOCK:   -4.99 KCAL/MOL
REMARK 922        TOTAL FREE ENERGY PREDICTED BY IDOCK:   -6.18 KCAL/MOL
REMARK 923 INTER-LIGAND FREE ENERGY PREDICTED BY IDOCK:   -5.55 KCAL/MOL
REMARK 924 INTRA-LIGAND FREE ENERGY PREDICTED BY IDOCK:   -0.63 KCAL/MOL
REMARK 927      BINDING AFFINITY PREDICTED BY RF-SCORE:    0.00 PKD
ROOT
HETATM    1  C   UNL     1     -10.866   9.312  69.961  1.00  0.00    -0.238 C  
HETATM    2  N   UNL     1     -10.326   8.399  68.946  1.00  0.00    -0.218 N  
HETATM    3  C   UNL     1      -9.912   8.746  67.597  1.00  0.00    -0.193 C  
HETATM    4  O   UNL     1     -11.693   6.370  69.693  1.00  0.00    -0.389 OA 
HETATM    5  C   UNL     1      -9.480   7.809  66.706  1.00  0.00    -0.197 C  
HETATM    6  C   UNL     1      -9.318   3.946  66.953  1.00  0.00    -0.188 A  
HETATM    7  O   UNL     1      -9.037   8.100  65.425  1.00  0.00    -0.388 OA 
HETATM    8  C   UNL     1      -9.452   6.409  66.997  1.00  0.00    -0.139 A  
HETATM    9  O   UNL     1      -9.293   6.626  70.458  1.00  0.00    -0.164 OA 
HETATM   10  S   UNL     1     -10.321   6.789  69.466  1.00  0.00    -0.213 S  
HETATM   11  H   UNL     1      -8.736   7.447  64.804  1.00  0.00     0.000 HD 
HETATM   12  S   UNL     1      -8.993   5.194  65.858  1.00  0.00    -0.147 SA 
HETATM   13  C   UNL     1      -9.814   5.805  68.172  1.00  0.00    -0.135 A  
HETATM   14 CL   UNL     1      -9.101   2.311  66.477  1.00  0.00    -0.116 Cl 
HETATM   15  C   UNL     1      -9.750   4.389  68.175  1.00  0.00    -0.181 A  
ENDROOT
BRANCH   3  16
HETATM   16  C   UNL     1      -9.977  10.165  67.063  1.00  0.00    -0.199 C  
HETATM   17  N   UNL     1     -11.101  10.516  66.359  1.00  0.00     0.057 N  
HETATM   18  O   UNL     1      -9.104  10.971  67.397  1.00  0.00    -0.141 OA 
HETATM   19  H   UNL     1     -11.786   9.789  66.154  1.00  0.00     0.000 HD 
BRANCH  17  20
HETATM   20  C   UNL     1     -11.361  11.815  65.905  1.00  0.00    -0.263 A  
HETATM   21  C   UNL     1     -10.919  12.301  64.677  1.00  0.00    -0.349 A  
HETATM   22  C   UNL     1     -11.835  14.441  65.265  1.00  0.00    -0.373 A  
HETATM   23  C   UNL     1     -11.174  13.633  64.350  1.00  0.00    -0.382 A  
HETATM   24  C   UNL     1     -12.262  13.863  66.448  1.00  0.00    -0.449 A  
HETATM   25  N   UNL     1     -12.078  12.561  66.767  1.00  0.00    -0.546 NA 
ENDBRANCH  17  20
ENDBRANCH   3  16
TORSDOF 2
ENDMDL
MODEL       60
REMARK 921   NORMALIZED FREE ENERGY PREDICTED BY IDOCK:   -4.97 KCAL/MOL
REMARK 922        TOTAL FREE ENERGY PREDICTED BY IDOCK:   -6.16 KCAL/MOL
REMARK 923 INTER-LIGAND FREE ENERGY PREDICTED BY IDOCK:   -5.63 KCAL/MOL
REMARK 924 INTRA-LIGAND FREE ENERGY PREDICTED BY IDOCK:   -0.53 KCAL/MOL
REMARK 927      BINDING AFFINITY PREDICTED BY RF-SCORE:    0.00 PKD
ROOT
HETATM    1  C   UNL     1     -11.082   8.720  72.234  1.00  0.00    -0.270 C  
HETATM    2  N   UNL     1     -10.467   7.770  71.297  1.00  0.00    -0.206 N  
HETATM    3  C   UNL     1      -9.951   8.068  69.972  1.00  0.00    -0.191 C  
HETATM    4  O   UNL     1     -11.888   5.767  72.013  1.00  0.00    -0.210 OA 
HETATM    5  C   UNL     1      -9.453   7.101  69.152  1.00  0.00    -0.147 C  
HETATM    6  C   UNL     1      -9.313   3.249  69.553  1.00  0.00    -0.165 A  
HETATM    7  O   UNL     1      -8.913   7.345  67.898  1.00  0.00    -0.132 OA 
HETATM    8  C   UNL     1      -9.448   5.712  69.496  1.00  0.00    -0.136 A  
HETATM    9  O   UNL     1      -9.554   6.057  72.948  1.00  0.00    -0.155 OA 
HETATM   10  S   UNL     1     -10.503   6.181  71.876  1.00  0.00    -0.220 S  
HETATM   11  H   UNL     1      -8.566   6.670  67.327  1.00  0.00     0.000 HD 
HETATM   12  S   UNL     1      -8.905   4.457  68.440  1.00  0.00    -0.111 SA 
HETATM   13  C   UNL     1      -9.899   5.151  70.661  1.00  0.00    -0.205 A  
HETATM   14 CL   UNL     1      -9.062   1.598  69.155  1.00  0.00    -0.146 Cl 
HETATM   15  C   UNL     1      -9.837   3.736  70.721  1.00  0.00    -0.173 A  
ENDROOT
BRANCH   3  16
HETATM   16  C   UNL     1      -9.974   9.467  69.383  1.00  0.00    -0.183 C  
HETATM   17  N   UNL     1     -11.175   9.921  68.900  1.00  0.00    -0.442 N  
HETATM   18  O   UNL     1      -8.971  10.177  69.489  1.00  0.00    -0.192 OA 
HETATM   19  H   UNL     1     -11.960   9.272  68.879  1.00  0.00     0.000 HD 
BRANCH  17  20
HETATM   20  C   UNL     1     -11.384  11.225  68.435  1.00  0.00    -0.281 A  
HETATM   21  C   UNL     1     -11.542  12.323  69.279  1.00  0.00    -0.383 A  
HETATM   22  C   UNL     1     -11.947  13.676  67.337  1.00  0.00    -0.413 A  
HETATM   23  C   UNL     1     -11.814  13.569  68.715  1.00  0.00    -0.390 A  
HETATM   24  C   UNL     1     -11.744  12.536  66.577  1.00  0.00    -0.391 A  
HETATM   25  N   UNL     1     -11.423  11.327  67.093  1.00  0.00    -0.490 NA 
ENDBRANCH  17  20
ENDBRANCH   3  16
TORSDOF 2
ENDMDL
MODEL       61
REMARK 921   NORMALIZED FREE ENERGY PREDICTED BY IDOCK:   -4.95 KCAL/MOL
REMARK 922        TOTAL FREE ENERGY PREDICTED BY IDOCK:   -6.14 KCAL/MOL
REMARK 923 INTER-LIGAND FREE ENERGY PREDICTED BY IDOCK:   -5.44 KCAL/MOL
REMARK 924 INTRA-LIGAND FREE ENERGY PREDICTED BY IDOCK:   -0.69 KCAL/MOL
REMARK 927      BINDING AFFINITY PREDICTED BY RF-SCORE:    0.00 PKD
ROOT
HETATM    1  C   UNL     1     -11.357  10.652  70.518  1.00  0.00    -0.267 C  
HETATM    2  N   UNL     1     -10.762  10.113  69.289  1.00  0.00    -0.218 N  
HETATM    3  C   UNL     1     -10.112   8.823  69.132  1.00  0.00    -0.198 C  
HETATM    4  O   UNL     1      -9.996  12.376  68.376  1.00  0.00    -0.220 OA 
HETATM    5  C   UNL     1      -9.535   8.439  67.959  1.00  0.00    -0.143 C  
HETATM    6  C   UNL     1      -8.990  10.362  64.640  1.00  0.00    -0.209 A  
HETATM    7  O   UNL     1      -8.941   7.202  67.752  1.00  0.00    -0.123 OA 
HETATM    8  C   UNL     1      -9.466   9.285  66.808  1.00  0.00    -0.175 A  
HETATM    9  O   UNL     1     -12.157  11.348  67.550  1.00  0.00    -0.592 OA 
HETATM   10  S   UNL     1     -10.802  11.223  68.013  1.00  0.00    -0.238 S  
HETATM   11  H   UNL     1      -8.538   6.935  66.934  1.00  0.00     0.000 HD 
HETATM   12  S   UNL     1      -8.663   8.857  65.339  1.00  0.00    -0.187 SA 
HETATM   13  C   UNL     1      -9.967  10.555  66.689  1.00  0.00    -0.211 A  
HETATM   14 CL   UNL     1      -8.428  10.711  63.055  1.00  0.00    -0.170 Cl 
HETATM   15  C   UNL     1      -9.705  11.200  65.454  1.00  0.00    -0.275 A  
ENDROOT
BRANCH   3  16
HETATM   16  C   UNL     1      -9.983   7.830  70.272  1.00  0.00    -0.189 C  
HETATM   17  N   UNL     1     -10.864   6.779  70.288  1.00  0.00    -0.253 N  
HETATM   18  O   UNL     1      -9.023   7.924  71.042  1.00  0.00    -0.139 OA 
HETATM   19  H   UNL     1     -11.610   6.767  69.593  1.00  0.00     0.000 HD 
BRANCH  17  20
HETATM   20  C   UNL     1     -10.798   5.721  71.203  1.00  0.00    -0.248 A  
HETATM   21  C   UNL     1     -11.388   5.761  72.465  1.00  0.00    -0.358 A  
HETATM   22  C   UNL     1     -10.421   3.611  72.916  1.00  0.00    -0.239 A  
HETATM   23  C   UNL     1     -11.205   4.680  73.327  1.00  0.00    -0.411 A  
HETATM   24  C   UNL     1      -9.899   3.646  71.634  1.00  0.00    -0.160 A  
HETATM   25  N   UNL     1     -10.107   4.655  70.757  1.00  0.00    -0.218 NA 
ENDBRANCH  17  20
ENDBRANCH   3  16
TORSDOF 2
ENDMDL
MODEL       62
REMARK 921   NORMALIZED FREE ENERGY PREDICTED BY IDOCK:   -4.85 KCAL/MOL
REMARK 922        TOTAL FREE ENERGY PREDICTED BY IDOCK:   -6.03 KCAL/MOL
REMARK 923 INTER-LIGAND FREE ENERGY PREDICTED BY IDOCK:   -5.39 KCAL/MOL
REMARK 924 INTRA-LIGAND FREE ENERGY PREDICTED BY IDOCK:   -0.63 KCAL/MOL
REMARK 927      BINDING AFFINITY PREDICTED BY RF-SCORE:    0.00 PKD
ROOT
HETATM    1  C   UNL     1      -7.501   9.259  63.990  1.00  0.00    -0.110 C  
HETATM    2  N   UNL     1      -8.299   8.470  64.937  1.00  0.00    -0.164 N  
HETATM    3  C   UNL     1      -9.309   8.973  65.852  1.00  0.00    -0.242 C  
HETATM    4  O   UNL     1      -6.473   6.742  65.412  1.00  0.00    -0.044 OA 
HETATM    5  C   UNL     1      -9.953   8.163  66.739  1.00  0.00    -0.279 C  
HETATM    6  C   UNL     1      -9.447   4.420  67.600  1.00  0.00    -0.165 A  
HETATM    7  O   UNL     1     -10.952   8.592  67.600  1.00  0.00    -0.501 OA 
HETATM    8  C   UNL     1      -9.654   6.772  66.887  1.00  0.00    -0.160 A  
HETATM    9  O   UNL     1      -8.300   6.220  63.739  1.00  0.00    -0.031 OA 
HETATM   10  S   UNL     1      -7.849   6.839  64.955  1.00  0.00    -0.121 S  
HETATM   11  H   UNL     1     -11.401   8.027  68.219  1.00  0.00     0.000 HD 
HETATM   12  S   UNL     1     -10.392   5.744  68.063  1.00  0.00    -0.210 SA 
HETATM   13  C   UNL     1      -8.730   6.049  66.179  1.00  0.00    -0.146 A  
HETATM   14 CL   UNL     1      -9.619   2.918  68.416  1.00  0.00    -0.195 Cl 
HETATM   15  C   UNL     1      -8.587   4.694  66.571  1.00  0.00    -0.112 A  
ENDROOT
BRANCH   3  16
HETATM   16  C   UNL     1      -9.686  10.441  65.925  1.00  0.00    -0.217 C  
HETATM   17  N   UNL     1     -10.499  10.927  64.933  1.00  0.00    -0.305 N  
HETATM   18  O   UNL     1      -9.372  11.090  66.926  1.00  0.00    -0.170 OA 
HETATM   19  H   UNL     1     -10.733  10.308  64.157  1.00  0.00     0.000 HD 
BRANCH  17  20
HETATM   20  C   UNL     1     -11.027  12.224  64.924  1.00  0.00    -0.302 A  
HETATM   21  C   UNL     1     -10.313  13.339  64.491  1.00  0.00    -0.394 A  
HETATM   22  C   UNL     1     -12.179  14.705  65.136  1.00  0.00    -0.282 A  
HETATM   23  C   UNL     1     -10.909  14.597  64.587  1.00  0.00    -0.332 A  
HETATM   24  C   UNL     1     -12.823  13.539  65.513  1.00  0.00    -0.350 A  
HETATM   25  N   UNL     1     -12.292  12.301  65.379  1.00  0.00    -0.563 NA 
ENDBRANCH  17  20
ENDBRANCH   3  16
TORSDOF 2
ENDMDL
MODEL       63
REMARK 921   NORMALIZED FREE ENERGY PREDICTED BY IDOCK:   -4.81 KCAL/MOL
REMARK 922        TOTAL FREE ENERGY PREDICTED BY IDOCK:   -5.99 KCAL/MOL
REMARK 923 INTER-LIGAND FREE ENERGY PREDICTED BY IDOCK:   -5.59 KCAL/MOL
REMARK 924 INTRA-LIGAND FREE ENERGY PREDICTED BY IDOCK:   -0.40 KCAL/MOL
REMARK 927      BINDING AFFINITY PREDICTED BY RF-SCORE:    0.00 PKD
ROOT
HETATM    1  C   UNL     1      -6.570  13.492  67.954  1.00  0.00    -0.152 C  
HETATM    2  N   UNL     1      -7.617  14.522  67.961  1.00  0.00    -0.120 N  
HETATM    3  C   UNL     1      -9.053  14.300  67.938  1.00  0.00    -0.190 C  
HETATM    4  O   UNL     1      -6.274  16.244  66.628  1.00  0.00    -0.286 OA 
HETATM    5  C   UNL     1      -9.945  15.329  67.885  1.00  0.00    -0.228 C  
HETATM    6  C   UNL     1      -9.409  19.147  67.504  1.00  0.00    -0.303 A  
HETATM    7  O   UNL     1     -11.322  15.166  67.903  1.00  0.00    -0.318 OA 
HETATM    8  C   UNL     1      -9.552  16.700  67.788  1.00  0.00    -0.236 A  
HETATM    9  O   UNL     1      -6.374  16.401  69.153  1.00  0.00    -0.153 OA 
HETATM   10  S   UNL     1      -6.980  16.088  67.888  1.00  0.00    -0.147 S  
HETATM   11  H   UNL     1     -11.944  15.883  67.865  1.00  0.00     0.000 HD 
HETATM   12  S   UNL     1     -10.661  18.016  67.629  1.00  0.00    -0.346 SA 
HETATM   13  C   UNL     1      -8.272  17.189  67.758  1.00  0.00    -0.197 A  
HETATM   14 CL   UNL     1      -9.777  20.810  67.281  1.00  0.00    -0.590 Cl 
HETATM   15  C   UNL     1      -8.160  18.593  67.592  1.00  0.00    -0.262 A  
ENDROOT
BRANCH   3  16
HETATM   16  C   UNL     1      -9.664  12.911  67.921  1.00  0.00    -0.218 C  
HETATM   17  N   UNL     1      -9.311  12.061  68.938  1.00  0.00    -0.398 N  
HETATM   18  O   UNL     1     -10.544  12.655  67.095  1.00  0.00    -0.233 OA 
HETATM   19  H   UNL     1      -8.595  12.370  69.595  1.00  0.00     0.000 HD 
BRANCH  17  20
HETATM   20  C   UNL     1      -9.877  10.795  69.126  1.00  0.00    -0.175 A  
HETATM   21  C   UNL     1     -10.884  10.536  70.054  1.00  0.00    -0.320 A  
HETATM   22  C   UNL     1     -10.745   8.214  69.461  1.00  0.00    -0.180 A  
HETATM   23  C   UNL     1     -11.332   9.224  70.210  1.00  0.00    -0.238 A  
HETATM   24  C   UNL     1      -9.771   8.570  68.544  1.00  0.00    -0.163 A  
HETATM   25  N   UNL     1      -9.358   9.841  68.331  1.00  0.00    -0.133 NA 
ENDBRANCH  17  20
ENDBRANCH   3  16
TORSDOF 2
ENDMDL
MODEL       64
REMARK 921   NORMALIZED FREE ENERGY PREDICTED BY IDOCK:   -4.80 KCAL/MOL
REMARK 922        TOTAL FREE ENERGY PREDICTED BY IDOCK:   -5.97 KCAL/MOL
REMARK 923 INTER-LIGAND FREE ENERGY PREDICTED BY IDOCK:   -5.47 KCAL/MOL
REMARK 924 INTRA-LIGAND FREE ENERGY PREDICTED BY IDOCK:   -0.50 KCAL/MOL
REMARK 927      BINDING AFFINITY PREDICTED BY RF-SCORE:    0.00 PKD
ROOT
HETATM    1  C   UNL     1     -11.621  12.201  68.201  1.00  0.00    -0.337 C  
HETATM    2  N   UNL     1     -10.655  13.217  67.765  1.00  0.00    -0.230 N  
HETATM    3  C   UNL     1      -9.214  13.058  67.662  1.00  0.00    -0.200 C  
HETATM    4  O   UNL     1     -11.948  15.208  68.718  1.00  0.00    -0.314 OA 
HETATM    5  C   UNL     1      -8.395  14.085  67.304  1.00  0.00    -0.194 C  
HETATM    6  C   UNL     1      -9.143  17.831  66.651  1.00  0.00    -0.266 A  
HETATM    7  O   UNL     1      -7.021  13.968  67.153  1.00  0.00    -0.394 OA 
HETATM    8  C   UNL     1      -8.867  15.413  67.058  1.00  0.00    -0.228 A  
HETATM    9  O   UNL     1     -12.153  14.628  66.262  1.00  0.00    -0.319 OA 
HETATM   10  S   UNL     1     -11.384  14.716  67.473  1.00  0.00    -0.360 S  
HETATM   11  H   UNL     1      -6.449  14.685  66.903  1.00  0.00     0.000 HD 
HETATM   12  S   UNL     1      -7.839  16.753  66.690  1.00  0.00    -0.301 SA 
HETATM   13  C   UNL     1     -10.165  15.848  67.115  1.00  0.00    -0.278 A  
HETATM   14 CL   UNL     1      -8.866  19.497  66.343  1.00  0.00    -0.378 Cl 
HETATM   15  C   UNL     1     -10.353  17.235  66.888  1.00  0.00    -0.310 A  
ENDROOT
BRANCH   3  16
HETATM   16  C   UNL     1      -8.512  11.754  67.992  1.00  0.00    -0.157 C  
HETATM   17  N   UNL     1      -8.674  11.262  69.262  1.00  0.00    -0.370 N  
HETATM   18  O   UNL     1      -7.953  11.129  67.087  1.00  0.00    -0.127 OA 
HETATM   19  H   UNL     1      -9.177  11.835  69.939  1.00  0.00     0.000 HD 
BRANCH  17  20
HETATM   20  C   UNL     1      -8.189  10.017  69.683  1.00  0.00    -0.175 A  
HETATM   21  C   UNL     1      -6.918   9.833  70.222  1.00  0.00    -0.135 A  
HETATM   22  C   UNL     1      -7.361   7.475  70.299  1.00  0.00    -0.076 A  
HETATM   23  C   UNL     1      -6.506   8.541  70.547  1.00  0.00    -0.037 A  
HETATM   24  C   UNL     1      -8.616   7.758  69.788  1.00  0.00    -0.134 A  
HETATM   25  N   UNL     1      -9.062   9.006  69.517  1.00  0.00    -0.147 NA 
ENDBRANCH  17  20
ENDBRANCH   3  16
TORSDOF 2
ENDMDL
MODEL       65
REMARK 921   NORMALIZED FREE ENERGY PREDICTED BY IDOCK:   -4.79 KCAL/MOL
REMARK 922        TOTAL FREE ENERGY PREDICTED BY IDOCK:   -5.96 KCAL/MOL
REMARK 923 INTER-LIGAND FREE ENERGY PREDICTED BY IDOCK:   -5.84 KCAL/MOL
REMARK 924 INTRA-LIGAND FREE ENERGY PREDICTED BY IDOCK:   -0.12 KCAL/MOL
REMARK 927      BINDING AFFINITY PREDICTED BY RF-SCORE:    0.00 PKD
ROOT
HETATM    1  C   UNL     1      -8.173   8.739  64.804  1.00  0.00    -0.162 C  
HETATM    2  N   UNL     1      -8.990   8.583  66.015  1.00  0.00    -0.174 N  
HETATM    3  C   UNL     1     -10.014   9.495  66.494  1.00  0.00    -0.261 C  
HETATM    4  O   UNL     1      -7.178   7.401  67.380  1.00  0.00    -0.088 OA 
HETATM    5  C   UNL     1     -10.677   9.290  67.667  1.00  0.00    -0.209 C  
HETATM    6  C   UNL     1     -10.197   6.614  70.428  1.00  0.00    -0.188 A  
HETATM    7  O   UNL     1     -11.689  10.110  68.143  1.00  0.00    -0.694 OA 
HETATM    8  C   UNL     1     -10.384   8.203  68.550  1.00  0.00    -0.198 A  
HETATM    9  O   UNL     1      -8.977   6.043  66.226  1.00  0.00    -0.142 OA 
HETATM   10  S   UNL     1      -8.545   7.225  66.921  1.00  0.00    -0.128 S  
HETATM   11  H   UNL     1     -12.150   9.968  68.961  1.00  0.00     0.000 HD 
HETATM   12  S   UNL     1     -11.146   7.971  70.084  1.00  0.00    -0.135 SA 
HETATM   13  C   UNL     1      -9.451   7.218  68.362  1.00  0.00    -0.142 A  
HETATM   14 CL   UNL     1     -10.389   5.792  71.923  1.00  0.00    -0.252 Cl 
HETATM   15  C   UNL     1      -9.319   6.292  69.428  1.00  0.00    -0.145 A  
ENDROOT
BRANCH   3  16
HETATM   16  C   UNL     1     -10.388  10.766  65.754  1.00  0.00    -0.230 C  
HETATM   17  N   UNL     1     -10.515  11.909  66.501  1.00  0.00    -0.216 N  
HETATM   18  O   UNL     1     -10.419  10.752  64.520  1.00  0.00    -0.357 OA 
HETATM   19  H   UNL     1     -10.444  11.830  67.515  1.00  0.00     0.000 HD 
BRANCH  17  20
HETATM   20  C   UNL     1     -10.738  13.177  65.951  1.00  0.00    -0.274 A  
HETATM   21  C   UNL     1     -11.922  13.538  65.312  1.00  0.00    -0.397 A  
HETATM   22  C   UNL     1     -10.923  15.659  64.797  1.00  0.00    -0.418 A  
HETATM   23  C   UNL     1     -12.017  14.806  64.738  1.00  0.00    -0.408 A  
HETATM   24  C   UNL     1      -9.799  15.226  65.479  1.00  0.00    -0.326 A  
HETATM   25  N   UNL     1      -9.700  14.024  66.092  1.00  0.00    -0.295 NA 
ENDBRANCH  17  20
ENDBRANCH   3  16
TORSDOF 2
ENDMDL
MODEL       66
REMARK 921   NORMALIZED FREE ENERGY PREDICTED BY IDOCK:   -4.74 KCAL/MOL
REMARK 922        TOTAL FREE ENERGY PREDICTED BY IDOCK:   -5.90 KCAL/MOL
REMARK 923 INTER-LIGAND FREE ENERGY PREDICTED BY IDOCK:   -5.20 KCAL/MOL
REMARK 924 INTRA-LIGAND FREE ENERGY PREDICTED BY IDOCK:   -0.70 KCAL/MOL
REMARK 927      BINDING AFFINITY PREDICTED BY RF-SCORE:    0.00 PKD
ROOT
HETATM    1  C   UNL     1     -11.247   9.975  68.391  1.00  0.00    -0.127 C  
HETATM    2  N   UNL     1     -10.315   9.783  67.272  1.00  0.00    -0.232 N  
HETATM    3  C   UNL     1      -9.928  10.774  66.283  1.00  0.00    -0.222 C  
HETATM    4  O   UNL     1     -10.909   7.326  66.880  1.00  0.00    -0.355 OA 
HETATM    5  C   UNL     1      -9.100  10.478  65.243  1.00  0.00    -0.190 C  
HETATM    6  C   UNL     1      -7.559   7.113  64.096  1.00  0.00    -0.109 A  
HETATM    7  O   UNL     1      -8.672  11.401  64.301  1.00  0.00    -0.363 OA 
HETATM    8  C   UNL     1      -8.589   9.164  65.002  1.00  0.00    -0.180 A  
HETATM    9  O   UNL     1      -8.856   7.927  68.234  1.00  0.00    -0.130 OA 
HETATM   10  S   UNL     1      -9.771   8.185  67.156  1.00  0.00    -0.221 S  
HETATM   11  H   UNL     1      -8.094  11.194  63.576  1.00  0.00     0.000 HD 
HETATM   12  S   UNL     1      -7.609   8.742  63.642  1.00  0.00    -0.131 SA 
HETATM   13  C   UNL     1      -8.816   8.041  65.753  1.00  0.00    -0.132 A  
HETATM   14 CL   UNL     1      -6.714   5.979  63.122  1.00  0.00    -0.039 Cl 
HETATM   15  C   UNL     1      -8.239   6.846  65.254  1.00  0.00    -0.129 A  
ENDROOT
BRANCH   3  16
HETATM   16  C   UNL     1     -10.457  12.197  66.304  1.00  0.00    -0.239 C  
HETATM   17  N   UNL     1      -9.677  13.143  66.919  1.00  0.00    -0.237 N  
HETATM   18  O   UNL     1     -11.473  12.468  65.659  1.00  0.00    -0.326 OA 
HETATM   19  H   UNL     1      -8.836  12.832  67.404  1.00  0.00     0.000 HD 
BRANCH  17  20
HETATM   20  C   UNL     1      -9.969  14.513  66.919  1.00  0.00    -0.259 A  
HETATM   21  C   UNL     1      -9.569  15.381  65.906  1.00  0.00    -0.386 A  
HETATM   22  C   UNL     1     -10.498  17.192  67.178  1.00  0.00    -0.291 A  
HETATM   23  C   UNL     1      -9.853  16.741  66.036  1.00  0.00    -0.311 A  
HETATM   24  C   UNL     1     -10.884  16.252  68.118  1.00  0.00    -0.342 A  
HETATM   25  N   UNL     1     -10.672  14.922  67.992  1.00  0.00    -0.248 NA 
ENDBRANCH  17  20
ENDBRANCH   3  16
TORSDOF 2
ENDMDL
MODEL       67
REMARK 921   NORMALIZED FREE ENERGY PREDICTED BY IDOCK:   -4.72 KCAL/MOL
REMARK 922        TOTAL FREE ENERGY PREDICTED BY IDOCK:   -5.88 KCAL/MOL
REMARK 923 INTER-LIGAND FREE ENERGY PREDICTED BY IDOCK:   -5.32 KCAL/MOL
REMARK 924 INTRA-LIGAND FREE ENERGY PREDICTED BY IDOCK:   -0.56 KCAL/MOL
REMARK 927      BINDING AFFINITY PREDICTED BY RF-SCORE:    0.00 PKD
ROOT
HETATM    1  C   UNL     1     -10.910   9.523  66.913  1.00  0.00    -0.015 C  
HETATM    2  N   UNL     1     -10.148  10.759  67.132  1.00  0.00    -0.197 N  
HETATM    3  C   UNL     1      -9.150  10.993  68.162  1.00  0.00    -0.155 C  
HETATM    4  O   UNL     1     -12.013  12.334  66.367  1.00  0.00    -0.589 OA 
HETATM    5  C   UNL     1      -8.540  12.201  68.320  1.00  0.00    -0.175 C  
HETATM    6  C   UNL     1      -9.130  15.601  66.558  1.00  0.00    -0.303 A  
HETATM    7  O   UNL     1      -7.554  12.458  69.262  1.00  0.00    -0.324 OA 
HETATM    8  C   UNL     1      -8.866  13.350  67.534  1.00  0.00    -0.210 A  
HETATM    9  O   UNL     1     -10.157  11.703  64.764  1.00  0.00    -0.242 OA 
HETATM   10  S   UNL     1     -10.626  12.003  66.090  1.00  0.00    -0.274 S  
HETATM   11  H   UNL     1      -7.130  13.300  69.372  1.00  0.00     0.000 HD 
HETATM   12  S   UNL     1      -8.173  14.915  67.773  1.00  0.00    -0.169 SA 
HETATM   13  C   UNL     1      -9.786  13.420  66.520  1.00  0.00    -0.282 A  
HETATM   14 CL   UNL     1      -9.002  17.278  66.212  1.00  0.00    -0.273 Cl 
HETATM   15  C   UNL     1      -9.961  14.703  65.943  1.00  0.00    -0.352 A  
ENDROOT
BRANCH   3  16
HETATM   16  C   UNL     1      -8.750   9.929  69.168  1.00  0.00    -0.159 C  
HETATM   17  N   UNL     1      -9.702   9.539  70.075  1.00  0.00    -0.220 N  
HETATM   18  O   UNL     1      -7.659   9.368  69.043  1.00  0.00    -0.072 OA 
HETATM   19  H   UNL     1     -10.589  10.041  70.086  1.00  0.00     0.000 HD 
BRANCH  17  20
HETATM   20  C   UNL     1      -9.526   8.491  70.986  1.00  0.00    -0.186 A  
HETATM   21  C   UNL     1      -9.917   7.178  70.730  1.00  0.00    -0.194 A  
HETATM   22  C   UNL     1      -9.243   6.608  72.962  1.00  0.00    -0.144 A  
HETATM   23  C   UNL     1      -9.758   6.222  71.732  1.00  0.00    -0.168 A  
HETATM   24  C   UNL     1      -8.855   7.928  73.116  1.00  0.00    -0.233 A  
HETATM   25  N   UNL     1      -8.945   8.864  72.142  1.00  0.00    -0.384 NA 
ENDBRANCH  17  20
ENDBRANCH   3  16
TORSDOF 2
ENDMDL
MODEL       68
REMARK 921   NORMALIZED FREE ENERGY PREDICTED BY IDOCK:   -4.70 KCAL/MOL
REMARK 922        TOTAL FREE ENERGY PREDICTED BY IDOCK:   -5.86 KCAL/MOL
REMARK 923 INTER-LIGAND FREE ENERGY PREDICTED BY IDOCK:   -5.19 KCAL/MOL
REMARK 924 INTRA-LIGAND FREE ENERGY PREDICTED BY IDOCK:   -0.68 KCAL/MOL
REMARK 927      BINDING AFFINITY PREDICTED BY RF-SCORE:    0.00 PKD
ROOT
HETATM    1  C   UNL     1      -8.253   7.272  67.392  1.00  0.00    -0.116 C  
HETATM    2  N   UNL     1      -9.137   8.355  67.842  1.00  0.00    -0.133 N  
HETATM    3  C   UNL     1     -10.180   8.263  68.850  1.00  0.00    -0.210 C  
HETATM    4  O   UNL     1      -9.247   9.538  65.577  1.00  0.00    -0.199 OA 
HETATM    5  C   UNL     1     -10.991   9.315  69.154  1.00  0.00    -0.060 C  
HETATM    6  C   UNL     1     -11.300  12.834  67.563  1.00  0.00    -0.312 A  
HETATM    7  O   UNL     1     -11.970   9.285  70.136  1.00  0.00    -0.468 OA 
HETATM    8  C   UNL     1     -10.928  10.572  68.475  1.00  0.00    -0.252 A  
HETATM    9  O   UNL     1      -7.648  10.366  67.357  1.00  0.00    -0.093 OA 
HETATM   10  S   UNL     1      -8.903   9.784  66.966  1.00  0.00    -0.135 S  
HETATM   11  H   UNL     1     -12.535  10.018  70.348  1.00  0.00     0.000 HD 
HETATM   12  S   UNL     1     -12.002  11.891  68.779  1.00  0.00    -0.150 SA 
HETATM   13  C   UNL     1     -10.066  10.921  67.468  1.00  0.00    -0.184 A  
HETATM   14 CL   UNL     1     -11.913  14.404  67.235  1.00  0.00    -0.431 Cl 
HETATM   15  C   UNL     1     -10.260  12.215  66.922  1.00  0.00    -0.228 A  
ENDROOT
BRANCH   3  16
HETATM   16  C   UNL     1     -10.477   6.978  69.602  1.00  0.00    -0.223 C  
HETATM   17  N   UNL     1      -9.822   6.785  70.791  1.00  0.00    -0.183 N  
HETATM   18  O   UNL     1     -11.381   6.243  69.196  1.00  0.00    -0.395 OA 
HETATM   19  H   UNL     1      -9.109   7.462  71.062  1.00  0.00     0.000 HD 
BRANCH  17  20
HETATM   20  C   UNL     1     -10.075   5.712  71.654  1.00  0.00    -0.195 A  
HETATM   21  C   UNL     1     -10.886   5.811  72.782  1.00  0.00    -0.295 A  
HETATM   22  C   UNL     1     -10.319   3.539  73.312  1.00  0.00    -0.243 A  
HETATM   23  C   UNL     1     -11.018   4.699  73.614  1.00  0.00    -0.392 A  
HETATM   24  C   UNL     1      -9.560   3.524  72.154  1.00  0.00    -0.140 A  
HETATM   25  N   UNL     1      -9.458   4.568  71.299  1.00  0.00    -0.148 NA 
ENDBRANCH  17  20
ENDBRANCH   3  16
TORSDOF 2
ENDMDL
MODEL       69
REMARK 921   NORMALIZED FREE ENERGY PREDICTED BY IDOCK:   -4.69 KCAL/MOL
REMARK 922        TOTAL FREE ENERGY PREDICTED BY IDOCK:   -5.85 KCAL/MOL
REMARK 923 INTER-LIGAND FREE ENERGY PREDICTED BY IDOCK:   -5.30 KCAL/MOL
REMARK 924 INTRA-LIGAND FREE ENERGY PREDICTED BY IDOCK:   -0.55 KCAL/MOL
REMARK 927      BINDING AFFINITY PREDICTED BY RF-SCORE:    0.00 PKD
ROOT
HETATM    1  C   UNL     1     -10.954   6.360  70.052  1.00  0.00    -0.337 C  
HETATM    2  N   UNL     1     -10.181   6.981  68.969  1.00  0.00    -0.180 N  
HETATM    3  C   UNL     1      -9.913   8.398  68.795  1.00  0.00    -0.187 C  
HETATM    4  O   UNL     1     -10.856   5.281  67.181  1.00  0.00    -0.154 OA 
HETATM    5  C   UNL     1      -9.233   8.882  67.718  1.00  0.00    -0.141 C  
HETATM    6  C   UNL     1      -7.905   7.107  64.540  1.00  0.00    -0.121 A  
HETATM    7  O   UNL     1      -8.919  10.220  67.532  1.00  0.00    -0.134 OA 
HETATM    8  C   UNL     1      -8.777   8.053  66.645  1.00  0.00    -0.140 A  
HETATM    9  O   UNL     1      -8.634   5.045  68.372  1.00  0.00    -0.098 OA 
HETATM   10  S   UNL     1      -9.679   5.856  67.809  1.00  0.00    -0.124 S  
HETATM   11  H   UNL     1      -8.445  10.557  66.781  1.00  0.00     0.000 HD 
HETATM   12  S   UNL     1      -7.991   8.651  65.227  1.00  0.00    -0.121 SA 
HETATM   13  C   UNL     1      -8.920   6.695  66.537  1.00  0.00    -0.145 A  
HETATM   14 CL   UNL     1      -7.212   6.902  62.982  1.00  0.00    -0.063 Cl 
HETATM   15  C   UNL     1      -8.431   6.124  65.334  1.00  0.00    -0.138 A  
ENDROOT
BRANCH   3  16
HETATM   16  C   UNL     1     -10.413   9.449  69.769  1.00  0.00    -0.226 C  
HETATM   17  N   UNL     1     -11.480  10.212  69.370  1.00  0.00    -0.417 N  
HETATM   18  O   UNL     1      -9.945   9.478  70.911  1.00  0.00    -0.284 OA 
HETATM   19  H   UNL     1     -11.822  10.100  68.416  1.00  0.00     0.000 HD 
BRANCH  17  20
HETATM   20  C   UNL     1     -12.129  11.138  70.198  1.00  0.00    -0.362 A  
HETATM   21  C   UNL     1     -11.984  12.517  70.065  1.00  0.00    -0.372 A  
HETATM   22  C   UNL     1     -13.353  12.785  72.018  1.00  0.00    -0.565 A  
HETATM   23  C   UNL     1     -12.620  13.351  70.985  1.00  0.00    -0.425 A  
HETATM   24  C   UNL     1     -13.466  11.405  72.053  1.00  0.00    -0.183 A  
HETATM   25  N   UNL     1     -12.906  10.575  71.142  1.00  0.00    -0.387 NA 
ENDBRANCH  17  20
ENDBRANCH   3  16
TORSDOF 2
ENDMDL
MODEL       70
REMARK 921   NORMALIZED FREE ENERGY PREDICTED BY IDOCK:   -4.66 KCAL/MOL
REMARK 922        TOTAL FREE ENERGY PREDICTED BY IDOCK:   -5.82 KCAL/MOL
REMARK 923 INTER-LIGAND FREE ENERGY PREDICTED BY IDOCK:   -5.32 KCAL/MOL
REMARK 924 INTRA-LIGAND FREE ENERGY PREDICTED BY IDOCK:   -0.50 KCAL/MOL
REMARK 927      BINDING AFFINITY PREDICTED BY RF-SCORE:    0.00 PKD
ROOT
HETATM    1  C   UNL     1      -7.305  10.327  69.652  1.00  0.00    -0.150 C  
HETATM    2  N   UNL     1      -8.351   9.395  70.091  1.00  0.00    -0.163 N  
HETATM    3  C   UNL     1      -9.763   9.451  69.752  1.00  0.00    -0.199 C  
HETATM    4  O   UNL     1      -7.304   8.916  72.376  1.00  0.00    -0.335 OA 
HETATM    5  C   UNL     1     -10.667   8.570  70.264  1.00  0.00    -0.230 C  
HETATM    6  C   UNL     1     -10.276   5.769  72.912  1.00  0.00    -0.190 A  
HETATM    7  O   UNL     1     -12.015   8.560  69.936  1.00  0.00    -0.192 OA 
HETATM    8  C   UNL     1     -10.322   7.560  71.216  1.00  0.00    -0.192 A  
HETATM    9  O   UNL     1      -6.944   7.301  70.459  1.00  0.00    -0.055 OA 
HETATM   10  S   UNL     1      -7.766   8.237  71.178  1.00  0.00    -0.104 S  
HETATM   11  H   UNL     1     -12.646   7.947  70.293  1.00  0.00     0.000 HD 
HETATM   12  S   UNL     1     -11.465   6.489  71.946  1.00  0.00    -0.315 SA 
HETATM   13  C   UNL     1      -9.078   7.304  71.730  1.00  0.00    -0.130 A  
HETATM   14 CL   UNL     1     -10.707   4.526  74.016  1.00  0.00    -0.333 Cl 
HETATM   15  C   UNL     1      -9.023   6.281  72.711  1.00  0.00    -0.125 A  
ENDROOT
BRANCH   3  16
HETATM   16  C   UNL     1     -10.343  10.522  68.846  1.00  0.00    -0.208 C  
HETATM   17  N   UNL     1     -10.186  11.825  69.242  1.00  0.00    -0.416 N  
HETATM   18  O   UNL     1     -10.794  10.194  67.746  1.00  0.00    -0.259 OA 
HETATM   19  H   UNL     1      -9.774  12.004  70.157  1.00  0.00     0.000 HD 
BRANCH  17  20
HETATM   20  C   UNL     1     -10.560  12.926  68.461  1.00  0.00    -0.253 A  
HETATM   21  C   UNL     1     -11.830  13.496  68.498  1.00  0.00    -0.398 A  
HETATM   22  C   UNL     1     -11.149  14.977  66.736  1.00  0.00    -0.326 A  
HETATM   23  C   UNL     1     -12.121  14.548  67.629  1.00  0.00    -0.266 A  
HETATM   24  C   UNL     1      -9.905  14.370  66.791  1.00  0.00    -0.264 A  
HETATM   25  N   UNL     1      -9.579  13.387  67.662  1.00  0.00    -0.213 NA 
ENDBRANCH  17  20
ENDBRANCH   3  16
TORSDOF 2
ENDMDL
MODEL       71
REMARK 921   NORMALIZED FREE ENERGY PREDICTED BY IDOCK:   -4.64 KCAL/MOL
REMARK 922        TOTAL FREE ENERGY PREDICTED BY IDOCK:   -5.79 KCAL/MOL
REMARK 923 INTER-LIGAND FREE ENERGY PREDICTED BY IDOCK:   -5.12 KCAL/MOL
REMARK 924 INTRA-LIGAND FREE ENERGY PREDICTED BY IDOCK:   -0.67 KCAL/MOL
REMARK 927      BINDING AFFINITY PREDICTED BY RF-SCORE:    0.00 PKD
ROOT
HETATM    1  C   UNL     1     -10.295  13.818  64.530  1.00  0.00    -0.285 C  
HETATM    2  N   UNL     1     -10.274  14.366  65.892  1.00  0.00    -0.310 N  
HETATM    3  C   UNL     1     -10.580  13.653  67.121  1.00  0.00    -0.272 C  
HETATM    4  O   UNL     1     -11.017  16.719  65.218  1.00  0.00    -0.387 OA 
HETATM    5  C   UNL     1     -10.591  14.271  68.335  1.00  0.00    -0.253 C  
HETATM    6  C   UNL     1     -10.159  17.999  69.298  1.00  0.00    -0.086 A  
HETATM    7  O   UNL     1     -10.836  13.623  69.536  1.00  0.00    -0.439 OA 
HETATM    8  C   UNL     1     -10.364  15.674  68.500  1.00  0.00    -0.219 A  
HETATM    9  O   UNL     1      -8.561  16.228  65.586  1.00  0.00    -0.260 OA 
HETATM   10  S   UNL     1      -9.946  16.026  65.912  1.00  0.00    -0.364 S  
HETATM   11  H   UNL     1     -10.845  14.054  70.382  1.00  0.00     0.000 HD 
HETATM   12  S   UNL     1     -10.460  16.497  70.016  1.00  0.00     0.048 SA 
HETATM   13  C   UNL     1     -10.085  16.584  67.515  1.00  0.00    -0.267 A  
HETATM   14 CL   UNL     1     -10.128  19.419  70.264  1.00  0.00     0.590 Cl 
HETATM   15  C   UNL     1      -9.966  17.930  67.944  1.00  0.00    -0.329 A  
ENDROOT
BRANCH   3  16
HETATM   16  C   UNL     1     -10.958  12.184  67.139  1.00  0.00    -0.268 C  
HETATM   17  N   UNL     1      -9.940  11.279  67.304  1.00  0.00    -0.182 N  
HETATM   18  O   UNL     1     -12.152  11.873  67.149  1.00  0.00    -0.590 OA 
HETATM   19  H   UNL     1      -8.983  11.630  67.314  1.00  0.00     0.000 HD 
BRANCH  17  20
HETATM   20  C   UNL     1     -10.140   9.902  67.458  1.00  0.00    -0.197 A  
HETATM   21  C   UNL     1      -9.984   8.984  66.422  1.00  0.00    -0.370 A  
HETATM   22  C   UNL     1     -10.734   7.263  67.918  1.00  0.00    -0.239 A  
HETATM   23  C   UNL     1     -10.273   7.641  66.665  1.00  0.00    -0.272 A  
HETATM   24  C   UNL     1     -10.830   8.240  68.895  1.00  0.00     0.034 A  
HETATM   25  N   UNL     1     -10.502   9.539  68.703  1.00  0.00    -0.206 NA 
ENDBRANCH  17  20
ENDBRANCH   3  16
TORSDOF 2
ENDMDL
MODEL       72
REMARK 921   NORMALIZED FREE ENERGY PREDICTED BY IDOCK:   -4.64 KCAL/MOL
REMARK 922        TOTAL FREE ENERGY PREDICTED BY IDOCK:   -5.79 KCAL/MOL
REMARK 923 INTER-LIGAND FREE ENERGY PREDICTED BY IDOCK:   -5.23 KCAL/MOL
REMARK 924 INTRA-LIGAND FREE ENERGY PREDICTED BY IDOCK:   -0.56 KCAL/MOL
REMARK 927      BINDING AFFINITY PREDICTED BY RF-SCORE:    0.00 PKD
ROOT
HETATM    1  C   UNL     1      -5.570  13.852  67.869  1.00  0.00    -0.100 C  
HETATM    2  N   UNL     1      -6.793  14.655  67.742  1.00  0.00    -0.163 N  
HETATM    3  C   UNL     1      -8.146  14.155  67.572  1.00  0.00    -0.187 C  
HETATM    4  O   UNL     1      -5.676  16.606  66.522  1.00  0.00    -0.333 OA 
HETATM    5  C   UNL     1      -9.211  14.988  67.401  1.00  0.00    -0.195 C  
HETATM    6  C   UNL     1      -9.394  18.837  66.994  1.00  0.00    -0.297 A  
HETATM    7  O   UNL     1     -10.524  14.557  67.276  1.00  0.00    -0.262 OA 
HETATM    8  C   UNL     1      -9.086  16.410  67.315  1.00  0.00    -0.200 A  
HETATM    9  O   UNL     1      -6.079  16.743  69.017  1.00  0.00    -0.152 OA 
HETATM   10  S   UNL     1      -6.471  16.316  67.702  1.00  0.00    -0.173 S  
HETATM   11  H   UNL     1     -11.266  15.137  67.157  1.00  0.00     0.000 HD 
HETATM   12  S   UNL     1     -10.407  17.481  67.010  1.00  0.00    -0.303 SA 
HETATM   13  C   UNL     1      -7.931  17.141  67.411  1.00  0.00    -0.180 A  
HETATM   14 CL   UNL     1     -10.054  20.394  66.696  1.00  0.00    -0.538 Cl 
HETATM   15  C   UNL     1      -8.078  18.540  67.227  1.00  0.00    -0.245 A  
ENDROOT
BRANCH   3  16
HETATM   16  C   UNL     1      -8.469  12.673  67.521  1.00  0.00    -0.176 C  
HETATM   17  N   UNL     1      -8.618  12.109  66.280  1.00  0.00    -0.397 N  
HETATM   18  O   UNL     1      -8.442  12.019  68.567  1.00  0.00    -0.155 OA 
HETATM   19  H   UNL     1      -8.596  12.724  65.467  1.00  0.00     0.000 HD 
BRANCH  17  20
HETATM   20  C   UNL     1      -8.800  10.737  66.065  1.00  0.00    -0.180 A  
HETATM   21  C   UNL     1      -9.964  10.055  66.410  1.00  0.00    -0.300 A  
HETATM   22  C   UNL     1      -8.903   8.019  65.711  1.00  0.00    -0.170 A  
HETATM   23  C   UNL     1     -10.017   8.675  66.215  1.00  0.00    -0.287 A  
HETATM   24  C   UNL     1      -7.800   8.783  65.370  1.00  0.00    -0.100 A  
HETATM   25  N   UNL     1      -7.742  10.129  65.495  1.00  0.00    -0.139 NA 
ENDBRANCH  17  20
ENDBRANCH   3  16
TORSDOF 2
ENDMDL
MODEL       73
REMARK 921   NORMALIZED FREE ENERGY PREDICTED BY IDOCK:   -4.62 KCAL/MOL
REMARK 922        TOTAL FREE ENERGY PREDICTED BY IDOCK:   -5.77 KCAL/MOL
REMARK 923 INTER-LIGAND FREE ENERGY PREDICTED BY IDOCK:   -5.07 KCAL/MOL
REMARK 924 INTRA-LIGAND FREE ENERGY PREDICTED BY IDOCK:   -0.70 KCAL/MOL
REMARK 927      BINDING AFFINITY PREDICTED BY RF-SCORE:    0.00 PKD
ROOT
HETATM    1  C   UNL     1     -13.051   9.609  71.452  1.00  0.00    -0.385 C  
HETATM    2  N   UNL     1     -11.766   9.847  70.783  1.00  0.00    -0.316 N  
HETATM    3  C   UNL     1     -10.528   9.115  70.995  1.00  0.00    -0.298 C  
HETATM    4  O   UNL     1     -12.073  12.376  70.555  1.00  0.00    -0.363 OA 
HETATM    5  C   UNL     1      -9.368   9.454  70.366  1.00  0.00    -0.268 C  
HETATM    6  C   UNL     1      -8.507  12.434  68.045  1.00  0.00    -0.176 A  
HETATM    7  O   UNL     1      -8.175   8.760  70.507  1.00  0.00    -0.104 OA 
HETATM    8  C   UNL     1      -9.251  10.584  69.497  1.00  0.00    -0.048 A  
HETATM    9  O   UNL     1     -12.592  10.860  68.595  1.00  0.00    -0.255 OA 
HETATM   10  S   UNL     1     -11.813  11.191  69.757  1.00  0.00    -0.380 S  
HETATM   11  H   UNL     1      -7.367   8.997  70.069  1.00  0.00     0.000 HD 
HETATM   12  S   UNL     1      -7.773  11.088  68.759  1.00  0.00    -0.140 SA 
HETATM   13  C   UNL     1     -10.246  11.459  69.147  1.00  0.00    -0.059 A  
HETATM   14 CL   UNL     1      -7.571  13.517  67.095  1.00  0.00    -0.056 Cl 
HETATM   15  C   UNL     1      -9.845  12.536  68.316  1.00  0.00    -0.227 A  
ENDROOT
BRANCH   3  16
HETATM   16  C   UNL     1     -10.423   7.954  71.967  1.00  0.00    -0.231 C  
HETATM   17  N   UNL     1     -10.577   6.693  71.452  1.00  0.00    -0.221 N  
HETATM   18  O   UNL     1     -10.068   8.176  73.128  1.00  0.00    -0.290 OA 
HETATM   19  H   UNL     1     -10.842   6.603  70.471  1.00  0.00     0.000 HD 
BRANCH  17  20
HETATM   20  C   UNL     1     -10.392   5.520  72.194  1.00  0.00    -0.213 A  
HETATM   21  C   UNL     1     -11.369   4.978  73.026  1.00  0.00    -0.374 A  
HETATM   22  C   UNL     1      -9.782   3.305  73.693  1.00  0.00    -0.145 A  
HETATM   23  C   UNL     1     -11.058   3.843  73.776  1.00  0.00    -0.291 A  
HETATM   24  C   UNL     1      -8.886   3.894  72.817  1.00  0.00    -0.098 A  
HETATM   25  N   UNL     1      -9.177   4.960  72.037  1.00  0.00    -0.135 NA 
ENDBRANCH  17  20
ENDBRANCH   3  16
TORSDOF 2
ENDMDL
MODEL       74
REMARK 921   NORMALIZED FREE ENERGY PREDICTED BY IDOCK:   -4.61 KCAL/MOL
REMARK 922        TOTAL FREE ENERGY PREDICTED BY IDOCK:   -5.76 KCAL/MOL
REMARK 923 INTER-LIGAND FREE ENERGY PREDICTED BY IDOCK:   -5.09 KCAL/MOL
REMARK 924 INTRA-LIGAND FREE ENERGY PREDICTED BY IDOCK:   -0.66 KCAL/MOL
REMARK 927      BINDING AFFINITY PREDICTED BY RF-SCORE:    0.00 PKD
ROOT
HETATM    1  C   UNL     1     -12.279  10.739  70.601  1.00  0.00    -0.379 C  
HETATM    2  N   UNL     1     -10.971  10.270  70.128  1.00  0.00    -0.298 N  
HETATM    3  C   UNL     1     -10.137  10.896  69.115  1.00  0.00    -0.177 C  
HETATM    4  O   UNL     1     -11.486   7.781  70.416  1.00  0.00    -0.252 OA 
HETATM    5  C   UNL     1      -8.962  10.345  68.701  1.00  0.00    -0.146 C  
HETATM    6  C   UNL     1      -7.284   6.965  69.579  1.00  0.00    -0.081 A  
HETATM    7  O   UNL     1      -8.116  10.928  67.768  1.00  0.00    -0.112 OA 
HETATM    8  C   UNL     1      -8.477   9.087  69.177  1.00  0.00    -0.128 A  
HETATM    9  O   UNL     1     -10.182   9.015  72.201  1.00  0.00    -0.300 OA 
HETATM   10  S   UNL     1     -10.527   8.793  70.823  1.00  0.00    -0.236 S  
HETATM   11  H   UNL     1      -7.297  10.544  67.479  1.00  0.00     0.000 HD 
HETATM   12  S   UNL     1      -7.036   8.325  68.604  1.00  0.00    -0.073 SA 
HETATM   13  C   UNL     1      -9.073   8.274  70.105  1.00  0.00    -0.147 A  
HETATM   14 CL   UNL     1      -6.173   5.657  69.522  1.00  0.00    -0.031 Cl 
HETATM   15  C   UNL     1      -8.411   7.045  70.353  1.00  0.00    -0.129 A  
ENDROOT
BRANCH   3  16
HETATM   16  C   UNL     1     -10.537  12.178  68.408  1.00  0.00    -0.226 C  
HETATM   17  N   UNL     1      -9.846  13.315  68.741  1.00  0.00    -0.421 N  
HETATM   18  O   UNL     1     -11.348  12.122  67.480  1.00  0.00    -0.282 OA 
HETATM   19  H   UNL     1      -9.170  13.261  69.502  1.00  0.00     0.000 HD 
BRANCH  17  20
HETATM   20  C   UNL     1     -10.016  14.547  68.096  1.00  0.00    -0.220 A  
HETATM   21  C   UNL     1      -9.406  14.867  66.885  1.00  0.00    -0.258 A  
HETATM   22  C   UNL     1     -10.341  17.070  67.070  1.00  0.00    -0.304 A  
HETATM   23  C   UNL     1      -9.586  16.147  66.360  1.00  0.00    -0.312 A  
HETATM   24  C   UNL     1     -10.932  16.653  68.250  1.00  0.00    -0.341 A  
HETATM   25  N   UNL     1     -10.821  15.402  68.754  1.00  0.00    -0.242 NA 
ENDBRANCH  17  20
ENDBRANCH   3  16
TORSDOF 2
ENDMDL
MODEL       75
REMARK 921   NORMALIZED FREE ENERGY PREDICTED BY IDOCK:   -4.58 KCAL/MOL
REMARK 922        TOTAL FREE ENERGY PREDICTED BY IDOCK:   -5.72 KCAL/MOL
REMARK 923 INTER-LIGAND FREE ENERGY PREDICTED BY IDOCK:   -5.03 KCAL/MOL
REMARK 924 INTRA-LIGAND FREE ENERGY PREDICTED BY IDOCK:   -0.69 KCAL/MOL
REMARK 927      BINDING AFFINITY PREDICTED BY RF-SCORE:    0.00 PKD
ROOT
HETATM    1  C   UNL     1     -10.733   5.450  71.333  1.00  0.00    -0.188 C  
HETATM    2  N   UNL     1     -10.805   6.729  70.616  1.00  0.00    -0.238 N  
HETATM    3  C   UNL     1     -10.159   7.057  69.357  1.00  0.00    -0.169 C  
HETATM    4  O   UNL     1     -10.968   8.177  72.719  1.00  0.00    -0.369 OA 
HETATM    5  C   UNL     1     -10.237   8.299  68.803  1.00  0.00    -0.210 C  
HETATM    6  C   UNL     1     -11.804  11.585  70.129  1.00  0.00    -0.356 A  
HETATM    7  O   UNL     1      -9.671   8.645  67.584  1.00  0.00    -0.148 OA 
HETATM    8  C   UNL     1     -10.907   9.395  69.432  1.00  0.00    -0.189 A  
HETATM    9  O   UNL     1     -13.067   7.566  71.442  1.00  0.00    -0.351 OA 
HETATM   10  S   UNL     1     -11.669   7.902  71.477  1.00  0.00    -0.294 S  
HETATM   11  H   UNL     1      -9.726   9.511  67.198  1.00  0.00     0.000 HD 
HETATM   12  S   UNL     1     -10.945  11.000  68.794  1.00  0.00    -0.244 SA 
HETATM   13  C   UNL     1     -11.571   9.375  70.630  1.00  0.00    -0.269 A  
HETATM   14 CL   UNL     1     -12.217  13.250  70.219  1.00  0.00    -0.410 Cl 
HETATM   15  C   UNL     1     -12.094  10.622  71.058  1.00  0.00    -0.473 A  
ENDROOT
BRANCH   3  16
HETATM   16  C   UNL     1      -9.307   6.060  68.593  1.00  0.00    -0.117 C  
HETATM   17  N   UNL     1      -9.946   5.275  67.667  1.00  0.00    -0.156 N  
HETATM   18  O   UNL     1      -8.081   6.093  68.727  1.00  0.00    -0.103 OA 
HETATM   19  H   UNL     1     -10.961   5.336  67.604  1.00  0.00     0.000 HD 
BRANCH  17  20
HETATM   20  C   UNL     1      -9.283   4.394  66.803  1.00  0.00    -0.139 A  
HETATM   21  C   UNL     1      -8.731   4.786  65.586  1.00  0.00    -0.131 A  
HETATM   22  C   UNL     1      -8.166   2.489  65.175  1.00  0.00    -0.084 A  
HETATM   23  C   UNL     1      -8.152   3.816  64.768  1.00  0.00    -0.090 A  
HETATM   24  C   UNL     1      -8.711   2.198  66.415  1.00  0.00    -0.120 A  
HETATM   25  N   UNL     1      -9.228   3.126  67.253  1.00  0.00    -0.182 NA 
ENDBRANCH  17  20
ENDBRANCH   3  16
TORSDOF 2
ENDMDL
MODEL       76
REMARK 921   NORMALIZED FREE ENERGY PREDICTED BY IDOCK:   -4.49 KCAL/MOL
REMARK 922        TOTAL FREE ENERGY PREDICTED BY IDOCK:   -5.63 KCAL/MOL
REMARK 923 INTER-LIGAND FREE ENERGY PREDICTED BY IDOCK:   -5.04 KCAL/MOL
REMARK 924 INTRA-LIGAND FREE ENERGY PREDICTED BY IDOCK:   -0.59 KCAL/MOL
REMARK 927      BINDING AFFINITY PREDICTED BY RF-SCORE:    0.00 PKD
ROOT
HETATM    1  C   UNL     1      -5.519  14.386  68.520  1.00  0.00    -0.099 C  
HETATM    2  N   UNL     1      -6.780  14.987  68.068  1.00  0.00    -0.129 N  
HETATM    3  C   UNL     1      -7.986  14.280  67.671  1.00  0.00    -0.180 C  
HETATM    4  O   UNL     1      -5.694  17.000  66.923  1.00  0.00    -0.154 OA 
HETATM    5  C   UNL     1      -9.089  14.931  67.206  1.00  0.00    -0.201 C  
HETATM    6  C   UNL     1      -9.688  18.675  66.406  1.00  0.00    -0.345 A  
HETATM    7  O   UNL     1     -10.275  14.302  66.856  1.00  0.00    -0.260 OA 
HETATM    8  C   UNL     1      -9.138  16.348  67.013  1.00  0.00    -0.214 A  
HETATM    9  O   UNL     1      -6.643  17.237  69.258  1.00  0.00    -0.229 OA 
HETATM   10  S   UNL     1      -6.680  16.671  67.937  1.00  0.00    -0.149 S  
HETATM   11  H   UNL     1     -11.043  14.755  66.531  1.00  0.00     0.000 HD 
HETATM   12  S   UNL     1     -10.491  17.187  66.342  1.00  0.00    -0.200 SA 
HETATM   13  C   UNL     1      -8.139  17.248  67.275  1.00  0.00    -0.192 A  
HETATM   14 CL   UNL     1     -10.467  20.093  65.832  1.00  0.00    -0.502 Cl 
HETATM   15  C   UNL     1      -8.426  18.594  66.931  1.00  0.00    -0.277 A  
ENDROOT
BRANCH   3  16
HETATM   16  C   UNL     1      -8.091  12.766  67.697  1.00  0.00    -0.175 C  
HETATM   17  N   UNL     1      -9.118  12.224  68.426  1.00  0.00    -0.300 N  
HETATM   18  O   UNL     1      -7.354  12.104  66.962  1.00  0.00    -0.136 OA 
HETATM   19  H   UNL     1      -9.697  12.852  68.981  1.00  0.00     0.000 HD 
BRANCH  17  20
HETATM   20  C   UNL     1      -9.416  10.856  68.452  1.00  0.00    -0.178 A  
HETATM   21  C   UNL     1     -10.212  10.227  67.497  1.00  0.00    -0.254 A  
HETATM   22  C   UNL     1     -10.020   8.198  68.765  1.00  0.00    -0.198 A  
HETATM   23  C   UNL     1     -10.505   8.872  67.653  1.00  0.00    -0.320 A  
HETATM   24  C   UNL     1      -9.213   8.898  69.646  1.00  0.00    -0.152 A  
HETATM   25  N   UNL     1      -8.867  10.196  69.490  1.00  0.00    -0.193 NA 
ENDBRANCH  17  20
ENDBRANCH   3  16
TORSDOF 2
ENDMDL
MODEL       77
REMARK 921   NORMALIZED FREE ENERGY PREDICTED BY IDOCK:   -4.47 KCAL/MOL
REMARK 922        TOTAL FREE ENERGY PREDICTED BY IDOCK:   -5.61 KCAL/MOL
REMARK 923 INTER-LIGAND FREE ENERGY PREDICTED BY IDOCK:   -5.15 KCAL/MOL
REMARK 924 INTRA-LIGAND FREE ENERGY PREDICTED BY IDOCK:   -0.46 KCAL/MOL
REMARK 927      BINDING AFFINITY PREDICTED BY RF-SCORE:    0.00 PKD
ROOT
HETATM    1  C   UNL     1      -6.374  11.982  68.596  1.00  0.00    -0.059 C  
HETATM    2  N   UNL     1      -7.498  12.731  68.021  1.00  0.00    -0.109 N  
HETATM    3  C   UNL     1      -8.637  12.178  67.308  1.00  0.00    -0.180 C  
HETATM    4  O   UNL     1      -6.127  14.804  67.417  1.00  0.00    -0.338 OA 
HETATM    5  C   UNL     1      -9.601  12.966  66.756  1.00  0.00    -0.246 C  
HETATM    6  C   UNL     1      -9.872  16.819  66.450  1.00  0.00    -0.297 A  
HETATM    7  O   UNL     1     -10.725  12.480  66.104  1.00  0.00    -0.254 OA 
HETATM    8  C   UNL     1      -9.550  14.395  66.779  1.00  0.00    -0.268 A  
HETATM    9  O   UNL     1      -7.491  14.771  69.549  1.00  0.00    -0.166 OA 
HETATM   10  S   UNL     1      -7.301  14.405  68.172  1.00  0.00    -0.148 S  
HETATM   11  H   UNL     1     -11.397  13.030  65.719  1.00  0.00     0.000 HD 
HETATM   12  S   UNL     1     -10.712  15.418  66.012  1.00  0.00    -0.320 SA 
HETATM   13  C   UNL     1      -8.580  15.175  67.354  1.00  0.00    -0.184 A  
HETATM   14 CL   UNL     1     -10.464  18.358  65.970  1.00  0.00    -0.447 Cl 
HETATM   15  C   UNL     1      -8.738  16.573  67.176  1.00  0.00    -0.216 A  
ENDROOT
BRANCH   3  16
HETATM   16  C   UNL     1      -8.810  10.687  67.079  1.00  0.00    -0.137 C  
HETATM   17  N   UNL     1      -9.344   9.956  68.109  1.00  0.00    -0.131 N  
HETATM   18  O   UNL     1      -8.604  10.227  65.953  1.00  0.00    -0.142 OA 
HETATM   19  H   UNL     1      -9.510  10.427  68.997  1.00  0.00     0.000 HD 
BRANCH  17  20
HETATM   20  C   UNL     1      -9.673   8.598  68.011  1.00  0.00    -0.158 A  
HETATM   21  C   UNL     1     -10.622   8.102  67.120  1.00  0.00    -0.355 A  
HETATM   22  C   UNL     1     -10.297   5.927  68.082  1.00  0.00    -0.259 A  
HETATM   23  C   UNL     1     -10.925   6.741  67.150  1.00  0.00    -0.458 A  
HETATM   24  C   UNL     1      -9.347   6.503  68.908  1.00  0.00    -0.131 A  
HETATM   25  N   UNL     1      -8.992   7.808  68.862  1.00  0.00    -0.142 NA 
ENDBRANCH  17  20
ENDBRANCH   3  16
TORSDOF 2
ENDMDL
MODEL       78
REMARK 921   NORMALIZED FREE ENERGY PREDICTED BY IDOCK:   -4.45 KCAL/MOL
REMARK 922        TOTAL FREE ENERGY PREDICTED BY IDOCK:   -5.58 KCAL/MOL
REMARK 923 INTER-LIGAND FREE ENERGY PREDICTED BY IDOCK:   -5.07 KCAL/MOL
REMARK 924 INTRA-LIGAND FREE ENERGY PREDICTED BY IDOCK:   -0.52 KCAL/MOL
REMARK 927      BINDING AFFINITY PREDICTED BY RF-SCORE:    0.00 PKD
ROOT
HETATM    1  C   UNL     1      -9.218   6.464  72.129  1.00  0.00    -0.140 C  
HETATM    2  N   UNL     1      -9.281   6.325  70.669  1.00  0.00    -0.157 N  
HETATM    3  C   UNL     1      -9.654   7.354  69.713  1.00  0.00    -0.163 C  
HETATM    4  O   UNL     1      -9.997   3.869  70.689  1.00  0.00    -0.173 OA 
HETATM    5  C   UNL     1      -9.741   7.106  68.376  1.00  0.00    -0.142 C  
HETATM    6  C   UNL     1      -9.389   3.810  66.370  1.00  0.00    -0.186 A  
HETATM    7  O   UNL     1     -10.052   8.067  67.425  1.00  0.00    -0.185 OA 
HETATM    8  C   UNL     1      -9.532   5.811  67.807  1.00  0.00    -0.112 A  
HETATM    9  O   UNL     1      -7.564   4.471  70.333  1.00  0.00    -0.052 OA 
HETATM   10  S   UNL     1      -8.965   4.743  70.159  1.00  0.00    -0.104 S  
HETATM   11  H   UNL     1     -10.113   7.894  66.494  1.00  0.00     0.000 HD 
HETATM   12  S   UNL     1      -9.723   5.451  66.128  1.00  0.00    -0.117 SA 
HETATM   13  C   UNL     1      -9.201   4.662  68.475  1.00  0.00    -0.129 A  
HETATM   14 CL   UNL     1      -9.423   2.723  65.041  1.00  0.00    -0.126 Cl 
HETATM   15  C   UNL     1      -9.116   3.494  67.674  1.00  0.00    -0.194 A  
ENDROOT
BRANCH   3  16
HETATM   16  C   UNL     1     -10.023   8.764  70.135  1.00  0.00    -0.184 C  
HETATM   17  N   UNL     1     -11.349   9.108  70.070  1.00  0.00    -0.421 N  
HETATM   18  O   UNL     1      -9.158   9.482  70.645  1.00  0.00    -0.245 OA 
HETATM   19  H   UNL     1     -11.999   8.438  69.660  1.00  0.00     0.000 HD 
BRANCH  17  20
HETATM   20  C   UNL     1     -11.862  10.326  70.533  1.00  0.00    -0.329 A  
HETATM   21  C   UNL     1     -12.665  10.438  71.666  1.00  0.00    -0.560 A  
HETATM   22  C   UNL     1     -12.902  12.779  71.189  1.00  0.00    -0.315 A  
HETATM   23  C   UNL     1     -13.180  11.690  72.003  1.00  0.00    -0.443 A  
HETATM   24  C   UNL     1     -12.071  12.578  70.100  1.00  0.00    -0.292 A  
HETATM   25  N   UNL     1     -11.512  11.387  69.782  1.00  0.00    -0.298 NA 
ENDBRANCH  17  20
ENDBRANCH   3  16
TORSDOF 2
ENDMDL
MODEL       79
REMARK 921   NORMALIZED FREE ENERGY PREDICTED BY IDOCK:   -4.45 KCAL/MOL
REMARK 922        TOTAL FREE ENERGY PREDICTED BY IDOCK:   -5.58 KCAL/MOL
REMARK 923 INTER-LIGAND FREE ENERGY PREDICTED BY IDOCK:   -4.94 KCAL/MOL
REMARK 924 INTRA-LIGAND FREE ENERGY PREDICTED BY IDOCK:   -0.64 KCAL/MOL
REMARK 927      BINDING AFFINITY PREDICTED BY RF-SCORE:    0.00 PKD
ROOT
HETATM    1  C   UNL     1      -9.537   6.416  70.201  1.00  0.00    -0.160 C  
HETATM    2  N   UNL     1      -9.939   7.521  69.322  1.00  0.00    -0.175 N  
HETATM    3  C   UNL     1      -9.752   7.598  67.883  1.00  0.00    -0.148 C  
HETATM    4  O   UNL     1      -9.556   9.364  71.054  1.00  0.00    -0.268 OA 
HETATM    5  C   UNL     1     -10.107   8.698  67.163  1.00  0.00    -0.261 C  
HETATM    6  C   UNL     1     -11.452  12.153  68.289  1.00  0.00    -0.305 A  
HETATM    7  O   UNL     1      -9.985   8.800  65.785  1.00  0.00    -0.459 OA 
HETATM    8  C   UNL     1     -10.636   9.886  67.760  1.00  0.00    -0.261 A  
HETATM    9  O   UNL     1     -11.890   8.461  70.666  1.00  0.00    -0.224 OA 
HETATM   10  S   UNL     1     -10.586   8.826  70.182  1.00  0.00    -0.225 S  
HETATM   11  H   UNL     1     -10.232   9.567  65.283  1.00  0.00     0.000 HD 
HETATM   12  S   UNL     1     -11.011  11.326  66.881  1.00  0.00    -0.272 SA 
HETATM   13  C   UNL     1     -10.885  10.097  69.090  1.00  0.00    -0.226 A  
HETATM   14 CL   UNL     1     -11.957  13.792  68.197  1.00  0.00    -0.409 Cl 
HETATM   15  C   UNL     1     -11.352  11.394  69.424  1.00  0.00    -0.365 A  
ENDROOT
BRANCH   3  16
HETATM   16  C   UNL     1      -9.102   6.483  67.084  1.00  0.00    -0.120 C  
HETATM   17  N   UNL     1      -9.872   5.869  66.129  1.00  0.00    -0.350 N  
HETATM   18  O   UNL     1      -7.894   6.275  67.221  1.00  0.00    -0.105 OA 
HETATM   19  H   UNL     1     -10.856   6.126  66.068  1.00  0.00     0.000 HD 
BRANCH  17  20
HETATM   20  C   UNL     1      -9.384   4.909  65.235  1.00  0.00    -0.120 A  
HETATM   21  C   UNL     1      -9.531   3.537  65.427  1.00  0.00    -0.152 A  
HETATM   22  C   UNL     1      -8.216   3.182  63.451  1.00  0.00    -0.085 A  
HETATM   23  C   UNL     1      -8.948   2.663  64.510  1.00  0.00    -0.121 A  
HETATM   24  C   UNL     1      -8.148   4.559  63.323  1.00  0.00    -0.092 A  
HETATM   25  N   UNL     1      -8.752   5.430  64.166  1.00  0.00    -0.038 NA 
ENDBRANCH  17  20
ENDBRANCH   3  16
TORSDOF 2
ENDMDL
MODEL       80
REMARK 921   NORMALIZED FREE ENERGY PREDICTED BY IDOCK:   -4.42 KCAL/MOL
REMARK 922        TOTAL FREE ENERGY PREDICTED BY IDOCK:   -5.55 KCAL/MOL
REMARK 923 INTER-LIGAND FREE ENERGY PREDICTED BY IDOCK:   -4.91 KCAL/MOL
REMARK 924 INTRA-LIGAND FREE ENERGY PREDICTED BY IDOCK:   -0.63 KCAL/MOL
REMARK 927      BINDING AFFINITY PREDICTED BY RF-SCORE:    0.00 PKD
ROOT
HETATM    1  C   UNL     1     -10.593   9.440  70.783  1.00  0.00    -0.303 C  
HETATM    2  N   UNL     1     -10.010   9.194  69.458  1.00  0.00    -0.182 N  
HETATM    3  C   UNL     1     -10.111  10.053  68.291  1.00  0.00    -0.158 C  
HETATM    4  O   UNL     1     -10.247   6.649  69.558  1.00  0.00    -0.172 OA 
HETATM    5  C   UNL     1      -9.584   9.703  67.084  1.00  0.00    -0.166 C  
HETATM    6  C   UNL     1      -7.874   6.432  65.905  1.00  0.00    -0.102 A  
HETATM    7  O   UNL     1      -9.621  10.508  65.956  1.00  0.00    -0.177 OA 
HETATM    8  C   UNL     1      -8.941   8.447  66.847  1.00  0.00    -0.145 A  
HETATM    9  O   UNL     1      -8.029   7.732  70.119  1.00  0.00    -0.107 OA 
HETATM   10  S   UNL     1      -9.249   7.685  69.361  1.00  0.00    -0.148 S  
HETATM   11  H   UNL     1      -9.253  10.264  65.115  1.00  0.00     0.000 HD 
HETATM   12  S   UNL     1      -8.343   7.943  65.306  1.00  0.00    -0.103 SA 
HETATM   13  C   UNL     1      -8.736   7.443  67.756  1.00  0.00    -0.126 A  
HETATM   14 CL   UNL     1      -7.163   5.277  64.852  1.00  0.00    -0.064 Cl 
HETATM   15  C   UNL     1      -8.128   6.270  67.241  1.00  0.00    -0.109 A  
ENDROOT
BRANCH   3  16
HETATM   16  C   UNL     1     -10.854  11.376  68.313  1.00  0.00    -0.209 C  
HETATM   17  N   UNL     1     -10.150  12.480  68.721  1.00  0.00    -0.412 N  
HETATM   18  O   UNL     1     -11.992  11.432  67.839  1.00  0.00    -0.626 OA 
HETATM   19  H   UNL     1      -9.202  12.343  69.071  1.00  0.00     0.000 HD 
BRANCH  17  20
HETATM   20  C   UNL     1     -10.658  13.785  68.685  1.00  0.00    -0.253 A  
HETATM   21  C   UNL     1     -11.610  14.261  69.583  1.00  0.00    -0.351 A  
HETATM   22  C   UNL     1     -11.648  16.321  68.350  1.00  0.00    -0.154 A  
HETATM   23  C   UNL     1     -12.100  15.557  69.417  1.00  0.00    -0.302 A  
HETATM   24  C   UNL     1     -10.679  15.774  67.526  1.00  0.00    -0.317 A  
HETATM   25  N   UNL     1     -10.145  14.543  67.697  1.00  0.00    -0.228 NA 
ENDBRANCH  17  20
ENDBRANCH   3  16
TORSDOF 2
ENDMDL
MODEL       81
REMARK 921   NORMALIZED FREE ENERGY PREDICTED BY IDOCK:   -4.40 KCAL/MOL
REMARK 922        TOTAL FREE ENERGY PREDICTED BY IDOCK:   -5.53 KCAL/MOL
REMARK 923 INTER-LIGAND FREE ENERGY PREDICTED BY IDOCK:   -4.92 KCAL/MOL
REMARK 924 INTRA-LIGAND FREE ENERGY PREDICTED BY IDOCK:   -0.61 KCAL/MOL
REMARK 927      BINDING AFFINITY PREDICTED BY RF-SCORE:    0.00 PKD
ROOT
HETATM    1  C   UNL     1     -12.486  10.770  70.151  1.00  0.00    -0.285 C  
HETATM    2  N   UNL     1     -11.285  11.303  69.496  1.00  0.00    -0.268 N  
HETATM    3  C   UNL     1      -9.957  10.715  69.505  1.00  0.00    -0.106 C  
HETATM    4  O   UNL     1     -11.913  13.764  69.801  1.00  0.00    -0.305 OA 
HETATM    5  C   UNL     1      -8.890  11.322  68.915  1.00  0.00    -0.047 C  
HETATM    6  C   UNL     1      -8.551  14.789  67.219  1.00  0.00    -0.212 A  
HETATM    7  O   UNL     1      -7.614  10.778  68.864  1.00  0.00    -0.102 OA 
HETATM    8  C   UNL     1      -8.968  12.607  68.290  1.00  0.00    -0.176 A  
HETATM    9  O   UNL     1     -12.369  12.610  67.595  1.00  0.00    -0.279 OA 
HETATM   10  S   UNL     1     -11.562  12.806  68.768  1.00  0.00    -0.330 S  
HETATM   11  H   UNL     1      -6.871  11.202  68.452  1.00  0.00     0.000 HD 
HETATM   12  S   UNL     1      -7.613  13.437  67.613  1.00  0.00    -0.179 SA 
HETATM   13  C   UNL     1     -10.082  13.394  68.166  1.00  0.00    -0.244 A  
HETATM   14 CL   UNL     1      -7.818  16.152  66.475  1.00  0.00    -0.293 Cl 
HETATM   15  C   UNL     1      -9.871  14.657  67.557  1.00  0.00    -0.218 A  
ENDROOT
BRANCH   3  16
HETATM   16  C   UNL     1      -9.647   9.409  70.215  1.00  0.00    -0.249 C  
HETATM   17  N   UNL     1     -10.166   8.264  69.668  1.00  0.00    -0.204 N  
HETATM   18  O   UNL     1      -8.843   9.413  71.150  1.00  0.00    -0.272 OA 
HETATM   19  H   UNL     1     -10.801   8.354  68.875  1.00  0.00     0.000 HD 
BRANCH  17  20
HETATM   20  C   UNL     1      -9.875   6.976  70.136  1.00  0.00    -0.175 A  
HETATM   21  C   UNL     1     -10.579   6.359  71.168  1.00  0.00    -0.282 A  
HETATM   22  C   UNL     1      -9.050   4.514  71.021  1.00  0.00    -0.185 A  
HETATM   23  C   UNL     1     -10.164   5.101  71.605  1.00  0.00    -0.276 A  
HETATM   24  C   UNL     1      -8.432   5.189  69.982  1.00  0.00    -0.096 A  
HETATM   25  N   UNL     1      -8.846   6.384  69.501  1.00  0.00    -0.136 NA 
ENDBRANCH  17  20
ENDBRANCH   3  16
TORSDOF 2
ENDMDL
MODEL       82
REMARK 921   NORMALIZED FREE ENERGY PREDICTED BY IDOCK:   -4.34 KCAL/MOL
REMARK 922        TOTAL FREE ENERGY PREDICTED BY IDOCK:   -5.46 KCAL/MOL
REMARK 923 INTER-LIGAND FREE ENERGY PREDICTED BY IDOCK:   -4.90 KCAL/MOL
REMARK 924 INTRA-LIGAND FREE ENERGY PREDICTED BY IDOCK:   -0.56 KCAL/MOL
REMARK 927      BINDING AFFINITY PREDICTED BY RF-SCORE:    0.00 PKD
ROOT
HETATM    1  C   UNL     1     -12.005  13.688  68.315  1.00  0.00    -0.350 C  
HETATM    2  N   UNL     1     -10.639  14.205  68.166  1.00  0.00    -0.241 N  
HETATM    3  C   UNL     1      -9.428  13.422  67.990  1.00  0.00    -0.218 C  
HETATM    4  O   UNL     1     -10.985  16.243  69.673  1.00  0.00    -0.312 OA 
HETATM    5  C   UNL     1      -8.195  13.998  67.922  1.00  0.00    -0.158 C  
HETATM    6  C   UNL     1      -7.075  17.679  68.379  1.00  0.00    -0.236 A  
HETATM    7  O   UNL     1      -7.018  13.294  67.714  1.00  0.00    -0.120 OA 
HETATM    8  C   UNL     1      -7.979  15.403  68.075  1.00  0.00    -0.130 A  
HETATM    9  O   UNL     1     -11.146  16.492  67.159  1.00  0.00    -0.119 OA 
HETATM   10  S   UNL     1     -10.567  15.888  68.328  1.00  0.00    -0.289 S  
HETATM   11  H   UNL     1      -6.158  13.695  67.667  1.00  0.00     0.000 HD 
HETATM   12  S   UNL     1      -6.420  16.147  68.082  1.00  0.00    -0.133 SA 
HETATM   13  C   UNL     1      -8.933  16.365  68.281  1.00  0.00    -0.206 A  
HETATM   14 CL   UNL     1      -6.036  19.035  68.552  1.00  0.00    -0.225 Cl 
HETATM   15  C   UNL     1      -8.441  17.682  68.463  1.00  0.00    -0.289 A  
ENDROOT
BRANCH   3  16
HETATM   16  C   UNL     1      -9.439  11.906  67.921  1.00  0.00    -0.194 C  
HETATM   17  N   UNL     1      -9.338  11.226  69.107  1.00  0.00    -0.407 N  
HETATM   18  O   UNL     1      -9.678  11.358  66.841  1.00  0.00    -0.189 OA 
HETATM   19  H   UNL     1      -9.171  11.765  69.957  1.00  0.00     0.000 HD 
BRANCH  17  20
HETATM   20  C   UNL     1      -9.452   9.835  69.220  1.00  0.00    -0.194 A  
HETATM   21  C   UNL     1     -10.645   9.186  69.530  1.00  0.00    -0.233 A  
HETATM   22  C   UNL     1      -9.437   7.112  69.555  1.00  0.00    -0.151 A  
HETATM   23  C   UNL     1     -10.635   7.800  69.685  1.00  0.00    -0.242 A  
HETATM   24  C   UNL     1      -8.307   7.838  69.218  1.00  0.00    -0.136 A  
HETATM   25  N   UNL     1      -8.298   9.174  69.005  1.00  0.00    -0.124 NA 
ENDBRANCH  17  20
ENDBRANCH   3  16
TORSDOF 2
ENDMDL
MODEL       83
REMARK 921   NORMALIZED FREE ENERGY PREDICTED BY IDOCK:   -4.31 KCAL/MOL
REMARK 922        TOTAL FREE ENERGY PREDICTED BY IDOCK:   -5.43 KCAL/MOL
REMARK 923 INTER-LIGAND FREE ENERGY PREDICTED BY IDOCK:   -4.78 KCAL/MOL
REMARK 924 INTRA-LIGAND FREE ENERGY PREDICTED BY IDOCK:   -0.64 KCAL/MOL
REMARK 927      BINDING AFFINITY PREDICTED BY RF-SCORE:    0.00 PKD
ROOT
HETATM    1  C   UNL     1      -5.970  13.216  67.650  1.00  0.00    -0.134 C  
HETATM    2  N   UNL     1      -7.196  12.457  67.372  1.00  0.00    -0.144 N  
HETATM    3  C   UNL     1      -8.549  12.984  67.312  1.00  0.00    -0.206 C  
HETATM    4  O   UNL     1      -6.403  10.295  68.484  1.00  0.00    -0.051 OA 
HETATM    5  C   UNL     1      -9.631  12.183  67.106  1.00  0.00    -0.194 C  
HETATM    6  C   UNL     1      -9.933   8.329  66.843  1.00  0.00    -0.273 A  
HETATM    7  O   UNL     1     -10.934  12.646  67.001  1.00  0.00    -0.251 OA 
HETATM    8  C   UNL     1      -9.540  10.760  66.989  1.00  0.00    -0.169 A  
HETATM    9  O   UNL     1      -6.227  10.560  65.973  1.00  0.00    -0.101 OA 
HETATM   10  S   UNL     1      -6.905  10.797  67.218  1.00  0.00    -0.086 S  
HETATM   11  H   UNL     1     -11.689  12.088  66.857  1.00  0.00     0.000 HD 
HETATM   12  S   UNL     1     -10.904   9.714  66.817  1.00  0.00     0.140 SA 
HETATM   13  C   UNL     1      -8.400  10.002  67.039  1.00  0.00    -0.121 A  
HETATM   14 CL   UNL     1     -10.655   6.774  66.734  1.00  0.00    -0.335 Cl 
HETATM   15  C   UNL     1      -8.596   8.600  66.961  1.00  0.00    -0.120 A  
ENDROOT
BRANCH   3  16
HETATM   16  C   UNL     1      -8.862  14.453  67.525  1.00  0.00    -0.193 C  
HETATM   17  N   UNL     1      -8.677  15.293  66.456  1.00  0.00    -0.365 N  
HETATM   18  O   UNL     1      -9.396  14.804  68.581  1.00  0.00    -0.189 OA 
HETATM   19  H   UNL     1      -8.256  14.908  65.611  1.00  0.00     0.000 HD 
BRANCH  17  20
HETATM   20  C   UNL     1      -9.031  16.647  66.459  1.00  0.00    -0.277 A  
HETATM   21  C   UNL     1     -10.300  17.108  66.116  1.00  0.00    -0.327 A  
HETATM   22  C   UNL     1      -9.485  19.351  66.369  1.00  0.00    -0.432 A  
HETATM   23  C   UNL     1     -10.530  18.483  66.085  1.00  0.00    -0.447 A  
HETATM   24  C   UNL     1      -8.266  18.802  66.728  1.00  0.00    -0.278 A  
HETATM   25  N   UNL     1      -8.031  17.473  66.821  1.00  0.00    -0.225 NA 
ENDBRANCH  17  20
ENDBRANCH   3  16
TORSDOF 2
ENDMDL
MODEL       84
REMARK 921   NORMALIZED FREE ENERGY PREDICTED BY IDOCK:   -4.28 KCAL/MOL
REMARK 922        TOTAL FREE ENERGY PREDICTED BY IDOCK:   -5.39 KCAL/MOL
REMARK 923 INTER-LIGAND FREE ENERGY PREDICTED BY IDOCK:   -5.26 KCAL/MOL
REMARK 924 INTRA-LIGAND FREE ENERGY PREDICTED BY IDOCK:   -0.13 KCAL/MOL
REMARK 927      BINDING AFFINITY PREDICTED BY RF-SCORE:    0.00 PKD
ROOT
HETATM    1  C   UNL     1      -6.950  10.614  69.338  1.00  0.00    -0.106 C  
HETATM    2  N   UNL     1      -7.846   9.453  69.270  1.00  0.00    -0.081 N  
HETATM    3  C   UNL     1      -9.116   9.376  68.568  1.00  0.00    -0.131 C  
HETATM    4  O   UNL     1      -7.293   8.582  71.610  1.00  0.00    -0.087 OA 
HETATM    5  C   UNL     1      -9.906   8.267  68.617  1.00  0.00    -0.176 C  
HETATM    6  C   UNL     1      -9.564   4.985  70.648  1.00  0.00    -0.184 A  
HETATM    7  O   UNL     1     -11.104   8.134  67.931  1.00  0.00    -0.467 OA 
HETATM    8  C   UNL     1      -9.589   7.115  69.403  1.00  0.00    -0.153 A  
HETATM    9  O   UNL     1      -6.153   7.575  69.587  1.00  0.00    -0.029 OA 
HETATM   10  S   UNL     1      -7.301   8.163  70.220  1.00  0.00    -0.061 S  
HETATM   11  H   UNL     1     -11.655   7.361  67.966  1.00  0.00     0.000 HD 
HETATM   12  S   UNL     1     -10.615   5.733  69.554  1.00  0.00    -0.331 SA 
HETATM   13  C   UNL     1      -8.477   6.932  70.183  1.00  0.00    -0.140 A  
HETATM   14 CL   UNL     1      -9.968   3.454  71.313  1.00  0.00    -0.185 Cl 
HETATM   15  C   UNL     1      -8.438   5.717  70.913  1.00  0.00    -0.125 A  
ENDROOT
BRANCH   3  16
HETATM   16  C   UNL     1      -9.680  10.538  67.771  1.00  0.00    -0.160 C  
HETATM   17  N   UNL     1      -9.969  10.307  66.450  1.00  0.00    -0.219 N  
HETATM   18  O   UNL     1      -9.984  11.577  68.363  1.00  0.00    -0.194 OA 
HETATM   19  H   UNL     1      -9.709   9.405  66.052  1.00  0.00     0.000 HD 
BRANCH  17  20
HETATM   20  C   UNL     1     -10.601  11.239  65.617  1.00  0.00    -0.244 A  
HETATM   21  C   UNL     1     -11.615  12.090  66.050  1.00  0.00    -0.371 A  
HETATM   22  C   UNL     1     -11.827  12.882  63.795  1.00  0.00    -0.571 A  
HETATM   23  C   UNL     1     -12.226  12.934  65.123  1.00  0.00    -0.519 A  
HETATM   24  C   UNL     1     -10.791  12.026  63.462  1.00  0.00    -0.444 A  
HETATM   25  N   UNL     1     -10.143  11.238  64.351  1.00  0.00    -0.278 NA 
ENDBRANCH  17  20
ENDBRANCH   3  16
TORSDOF 2
ENDMDL
MODEL       85
REMARK 921   NORMALIZED FREE ENERGY PREDICTED BY IDOCK:   -4.27 KCAL/MOL
REMARK 922        TOTAL FREE ENERGY PREDICTED BY IDOCK:   -5.38 KCAL/MOL
REMARK 923 INTER-LIGAND FREE ENERGY PREDICTED BY IDOCK:   -4.73 KCAL/MOL
REMARK 924 INTRA-LIGAND FREE ENERGY PREDICTED BY IDOCK:   -0.65 KCAL/MOL
REMARK 927      BINDING AFFINITY PREDICTED BY RF-SCORE:    0.00 PKD
ROOT
HETATM    1  C   UNL     1     -12.002   9.245  71.896  1.00  0.00    -0.363 C  
HETATM    2  N   UNL     1     -11.512   9.518  70.540  1.00  0.00    -0.271 N  
HETATM    3  C   UNL     1     -10.538   8.739  69.794  1.00  0.00    -0.224 C  
HETATM    4  O   UNL     1     -11.665  12.064  70.734  1.00  0.00    -0.046 OA 
HETATM    5  C   UNL     1     -10.101   9.113  68.559  1.00  0.00    -0.191 C  
HETATM    6  C   UNL     1     -10.807  12.295  66.464  1.00  0.00    -0.259 A  
HETATM    7  O   UNL     1      -9.205   8.379  67.796  1.00  0.00    -0.132 OA 
HETATM    8  C   UNL     1     -10.513  10.323  67.918  1.00  0.00    -0.212 A  
HETATM    9  O   UNL     1     -13.519  10.772  69.594  1.00  0.00     0.347 OA 
HETATM   10  S   UNL     1     -12.130  10.962  69.911  1.00  0.00    -0.348 S  
HETATM   11  H   UNL     1      -8.901   8.640  66.935  1.00  0.00     0.000 HD 
HETATM   12  S   UNL     1      -9.907  10.864  66.393  1.00  0.00    -0.215 SA 
HETATM   13  C   UNL     1     -11.393  11.254  68.404  1.00  0.00    -0.281 A  
HETATM   14 CL   UNL     1     -10.687  13.446  65.196  1.00  0.00    -0.318 Cl 
HETATM   15  C   UNL     1     -11.579  12.400  67.590  1.00  0.00    -0.421 A  
ENDROOT
BRANCH   3  16
HETATM   16  C   UNL     1      -9.898   7.482  70.354  1.00  0.00    -0.183 C  
HETATM   17  N   UNL     1     -10.612   6.316  70.245  1.00  0.00    -0.229 N  
HETATM   18  O   UNL     1      -8.729   7.529  70.747  1.00  0.00    -0.137 OA 
HETATM   19  H   UNL     1     -11.563   6.368  69.880  1.00  0.00     0.000 HD 
BRANCH  17  20
HETATM   20  C   UNL     1     -10.111   5.059  70.606  1.00  0.00    -0.243 A  
HETATM   21  C   UNL     1      -9.445   4.217  69.718  1.00  0.00    -0.265 A  
HETATM   22  C   UNL     1      -9.346   2.566  71.458  1.00  0.00    -0.194 A  
HETATM   23  C   UNL     1      -9.045   2.956  70.161  1.00  0.00    -0.189 A  
HETATM   24  C   UNL     1      -9.985   3.481  72.278  1.00  0.00    -0.166 A  
HETATM   25  N   UNL     1     -10.334   4.731  71.892  1.00  0.00    -0.194 NA 
ENDBRANCH  17  20
ENDBRANCH   3  16
TORSDOF 2
ENDMDL
MODEL       86
REMARK 921   NORMALIZED FREE ENERGY PREDICTED BY IDOCK:   -4.27 KCAL/MOL
REMARK 922        TOTAL FREE ENERGY PREDICTED BY IDOCK:   -5.38 KCAL/MOL
REMARK 923 INTER-LIGAND FREE ENERGY PREDICTED BY IDOCK:   -5.28 KCAL/MOL
REMARK 924 INTRA-LIGAND FREE ENERGY PREDICTED BY IDOCK:   -0.10 KCAL/MOL
REMARK 927      BINDING AFFINITY PREDICTED BY RF-SCORE:    0.00 PKD
ROOT
HETATM    1  C   UNL     1     -10.746  11.290  63.083  1.00  0.00    -0.095 C  
HETATM    2  N   UNL     1     -10.551  11.731  64.470  1.00  0.00    -0.294 N  
HETATM    3  C   UNL     1      -9.642  11.155  65.445  1.00  0.00    -0.229 C  
HETATM    4  O   UNL     1     -12.972  12.475  64.831  1.00  0.00    -0.821 OA 
HETATM    5  C   UNL     1      -9.579  11.600  66.732  1.00  0.00    -0.192 C  
HETATM    6  C   UNL     1     -11.714  14.220  68.625  1.00  0.00    -0.345 A  
HETATM    7  O   UNL     1      -8.699  11.107  67.683  1.00  0.00    -0.127 OA 
HETATM    8  C   UNL     1     -10.435  12.623  67.247  1.00  0.00    -0.228 A  
HETATM    9  O   UNL     1     -11.201  14.186  64.243  1.00  0.00    -0.312 OA 
HETATM   10  S   UNL     1     -11.611  12.977  64.904  1.00  0.00    -0.345 S  
HETATM   11  H   UNL     1      -8.655  11.418  68.580  1.00  0.00     0.000 HD 
HETATM   12  S   UNL     1     -10.437  13.143  68.895  1.00  0.00    -0.016 SA 
HETATM   13  C   UNL     1     -11.400  13.312  66.560  1.00  0.00    -0.322 A  
HETATM   14 CL   UNL     1     -12.335  15.155  69.926  1.00  0.00    -0.335 Cl 
HETATM   15  C   UNL     1     -12.153  14.235  67.329  1.00  0.00    -0.390 A  
ENDROOT
BRANCH   3  16
HETATM   16  C   UNL     1      -8.732   9.984  65.120  1.00  0.00    -0.164 C  
HETATM   17  N   UNL     1      -9.172   8.735  65.477  1.00  0.00    -0.388 N  
HETATM   18  O   UNL     1      -7.724  10.181  64.437  1.00  0.00    -0.143 OA 
HETATM   19  H   UNL     1     -10.034   8.665  66.017  1.00  0.00     0.000 HD 
BRANCH  17  20
HETATM   20  C   UNL     1      -8.504   7.550  65.142  1.00  0.00    -0.031 A  
HETATM   21  C   UNL     1      -7.775   7.387  63.967  1.00  0.00    -0.121 A  
HETATM   22  C   UNL     1      -7.403   5.099  64.589  1.00  0.00    -0.063 A  
HETATM   23  C   UNL     1      -7.205   6.143  63.697  1.00  0.00    -0.061 A  
HETATM   24  C   UNL     1      -8.117   5.362  65.746  1.00  0.00    -0.110 A  
HETATM   25  N   UNL     1      -8.633   6.573  66.060  1.00  0.00    -0.144 NA 
ENDBRANCH  17  20
ENDBRANCH   3  16
TORSDOF 2
ENDMDL
MODEL       87
REMARK 921   NORMALIZED FREE ENERGY PREDICTED BY IDOCK:   -4.25 KCAL/MOL
REMARK 922        TOTAL FREE ENERGY PREDICTED BY IDOCK:   -5.36 KCAL/MOL
REMARK 923 INTER-LIGAND FREE ENERGY PREDICTED BY IDOCK:   -4.88 KCAL/MOL
REMARK 924 INTRA-LIGAND FREE ENERGY PREDICTED BY IDOCK:   -0.48 KCAL/MOL
REMARK 927      BINDING AFFINITY PREDICTED BY RF-SCORE:    0.00 PKD
ROOT
HETATM    1  C   UNL     1     -10.196   9.688  70.382  1.00  0.00    -0.288 C  
HETATM    2  N   UNL     1     -10.355   9.913  68.939  1.00  0.00    -0.196 N  
HETATM    3  C   UNL     1      -9.764   9.130  67.868  1.00  0.00    -0.154 C  
HETATM    4  O   UNL     1     -10.531  12.459  69.108  1.00  0.00    -0.071 OA 
HETATM    5  C   UNL     1      -9.923   9.459  66.555  1.00  0.00    -0.269 C  
HETATM    6  C   UNL     1     -11.618  12.517  64.885  1.00  0.00    -0.341 A  
HETATM    7  O   UNL     1      -9.412   8.719  65.500  1.00  0.00    -0.422 OA 
HETATM    8  C   UNL     1     -10.629  10.625  66.122  1.00  0.00    -0.142 A  
HETATM    9  O   UNL     1     -12.632  11.058  68.924  1.00  0.00    -0.366 OA 
HETATM   10  S   UNL     1     -11.254  11.306  68.600  1.00  0.00    -0.279 S  
HETATM   11  H   UNL     1      -9.522   8.949  64.585  1.00  0.00     0.000 HD 
HETATM   12  S   UNL     1     -10.770  11.113  64.470  1.00  0.00    -0.243 SA 
HETATM   13  C   UNL     1     -11.256  11.550  66.915  1.00  0.00    -0.298 A  
HETATM   14 CL   UNL     1     -12.114  13.611  63.658  1.00  0.00    -0.468 Cl 
HETATM   15  C   UNL     1     -11.830  12.651  66.231  1.00  0.00    -0.471 A  
ENDROOT
BRANCH   3  16
HETATM   16  C   UNL     1      -8.885   7.921  68.130  1.00  0.00    -0.125 C  
HETATM   17  N   UNL     1      -9.458   6.864  68.789  1.00  0.00    -0.136 N  
HETATM   18  O   UNL     1      -7.759   7.879  67.625  1.00  0.00    -0.112 OA 
HETATM   19  H   UNL     1     -10.406   6.978  69.146  1.00  0.00     0.000 HD 
BRANCH  17  20
HETATM   20  C   UNL     1      -8.816   5.637  69.001  1.00  0.00    -0.106 A  
HETATM   21  C   UNL     1      -7.839   5.442  69.975  1.00  0.00    -0.081 A  
HETATM   22  C   UNL     1      -7.559   3.204  69.153  1.00  0.00    -0.048 A  
HETATM   23  C   UNL     1      -7.213   4.198  70.057  1.00  0.00    -0.045 A  
HETATM   24  C   UNL     1      -8.561   3.480  68.238  1.00  0.00    -0.093 A  
HETATM   25  N   UNL     1      -9.225   4.657  68.172  1.00  0.00    -0.121 NA 
ENDBRANCH  17  20
ENDBRANCH   3  16
TORSDOF 2
ENDMDL
MODEL       88
REMARK 921   NORMALIZED FREE ENERGY PREDICTED BY IDOCK:   -4.23 KCAL/MOL
REMARK 922        TOTAL FREE ENERGY PREDICTED BY IDOCK:   -5.34 KCAL/MOL
REMARK 923 INTER-LIGAND FREE ENERGY PREDICTED BY IDOCK:   -5.10 KCAL/MOL
REMARK 924 INTRA-LIGAND FREE ENERGY PREDICTED BY IDOCK:   -0.24 KCAL/MOL
REMARK 927      BINDING AFFINITY PREDICTED BY RF-SCORE:    0.00 PKD
ROOT
HETATM    1  C   UNL     1     -12.486  10.770  70.151  1.00  0.00    -0.285 C  
HETATM    2  N   UNL     1     -11.278  11.293  69.500  1.00  0.00    -0.268 N  
HETATM    3  C   UNL     1      -9.954  10.696  69.519  1.00  0.00    -0.106 C  
HETATM    4  O   UNL     1     -11.891  13.759  69.793  1.00  0.00    -0.293 OA 
HETATM    5  C   UNL     1      -8.880  11.294  68.932  1.00  0.00    -0.047 C  
HETATM    6  C   UNL     1      -8.510  14.753  67.225  1.00  0.00    -0.214 A  
HETATM    7  O   UNL     1      -7.608  10.742  68.889  1.00  0.00    -0.102 OA 
HETATM    8  C   UNL     1      -8.947  12.577  68.302  1.00  0.00    -0.178 A  
HETATM    9  O   UNL     1     -12.344  12.600  67.589  1.00  0.00    -0.279 OA 
HETATM   10  S   UNL     1     -11.542  12.794  68.765  1.00  0.00    -0.330 S  
HETATM   11  H   UNL     1      -6.859  11.159  68.480  1.00  0.00     0.000 HD 
HETATM   12  S   UNL     1      -7.583  13.397  67.629  1.00  0.00    -0.179 SA 
HETATM   13  C   UNL     1     -10.055  13.371  68.169  1.00  0.00    -0.244 A  
HETATM   14 CL   UNL     1      -7.764  16.108  66.479  1.00  0.00    -0.269 Cl 
HETATM   15  C   UNL     1      -9.832  14.630  67.556  1.00  0.00    -0.218 A  
ENDROOT
BRANCH   3  16
HETATM   16  C   UNL     1      -9.657   9.391  70.235  1.00  0.00    -0.249 C  
HETATM   17  N   UNL     1     -10.242   9.205  71.461  1.00  0.00    -0.341 N  
HETATM   18  O   UNL     1      -9.032   8.510  69.638  1.00  0.00    -0.142 OA 
HETATM   19  H   UNL     1     -10.767   9.980  71.865  1.00  0.00     0.000 HD 
BRANCH  17  20
HETATM   20  C   UNL     1     -10.160   8.012  72.189  1.00  0.00    -0.234 A  
HETATM   21  C   UNL     1      -9.113   7.715  73.059  1.00  0.00    -0.240 A  
HETATM   22  C   UNL     1     -10.096   5.552  73.403  1.00  0.00    -0.202 A  
HETATM   23  C   UNL     1      -9.092   6.469  73.685  1.00  0.00    -0.146 A  
HETATM   24  C   UNL     1     -11.112   5.946  72.549  1.00  0.00    -0.283 A  
HETATM   25  N   UNL     1     -11.187   7.168  71.972  1.00  0.00    -0.244 NA 
ENDBRANCH  17  20
ENDBRANCH   3  16
TORSDOF 2
ENDMDL
MODEL       89
REMARK 921   NORMALIZED FREE ENERGY PREDICTED BY IDOCK:   -4.22 KCAL/MOL
REMARK 922        TOTAL FREE ENERGY PREDICTED BY IDOCK:   -5.32 KCAL/MOL
REMARK 923 INTER-LIGAND FREE ENERGY PREDICTED BY IDOCK:   -4.74 KCAL/MOL
REMARK 924 INTRA-LIGAND FREE ENERGY PREDICTED BY IDOCK:   -0.58 KCAL/MOL
REMARK 927      BINDING AFFINITY PREDICTED BY RF-SCORE:    0.00 PKD
ROOT
HETATM    1  C   UNL     1     -11.750  11.426  67.800  1.00  0.00    -0.203 C  
HETATM    2  N   UNL     1     -10.870  12.572  67.534  1.00  0.00    -0.227 N  
HETATM    3  C   UNL     1      -9.445  12.526  67.255  1.00  0.00    -0.193 C  
HETATM    4  O   UNL     1     -12.117  14.197  69.067  1.00  0.00    -0.343 OA 
HETATM    5  C   UNL     1      -8.703  13.656  67.081  1.00  0.00    -0.216 C  
HETATM    6  C   UNL     1      -9.640  17.398  67.443  1.00  0.00    -0.257 A  
HETATM    7  O   UNL     1      -7.351  13.658  66.773  1.00  0.00    -0.258 OA 
HETATM    8  C   UNL     1      -9.242  14.973  67.216  1.00  0.00    -0.201 A  
HETATM    9  O   UNL     1     -12.568  14.213  66.576  1.00  0.00    -0.394 OA 
HETATM   10  S   UNL     1     -11.676  14.052  67.691  1.00  0.00    -0.395 S  
HETATM   11  H   UNL     1      -6.833  14.446  66.652  1.00  0.00     0.000 HD 
HETATM   12  S   UNL     1      -8.305  16.420  67.089  1.00  0.00    -0.203 SA 
HETATM   13  C   UNL     1     -10.540  15.306  67.503  1.00  0.00    -0.273 A  
HETATM   14 CL   UNL     1      -9.453  19.103  67.527  1.00  0.00    -0.350 Cl 
HETATM   15  C   UNL     1     -10.796  16.694  67.643  1.00  0.00    -0.258 A  
ENDROOT
BRANCH   3  16
HETATM   16  C   UNL     1      -8.668  11.224  67.186  1.00  0.00    -0.151 C  
HETATM   17  N   UNL     1      -8.899  10.416  66.102  1.00  0.00    -0.153 N  
HETATM   18  O   UNL     1      -7.776  11.015  68.012  1.00  0.00    -0.100 OA 
HETATM   19  H   UNL     1      -9.638  10.684  65.452  1.00  0.00     0.000 HD 
BRANCH  17  20
HETATM   20  C   UNL     1      -8.179   9.245  65.836  1.00  0.00    -0.116 A  
HETATM   21  C   UNL     1      -7.134   9.180  64.917  1.00  0.00    -0.096 A  
HETATM   22  C   UNL     1      -6.996   6.821  65.336  1.00  0.00    -0.059 A  
HETATM   23  C   UNL     1      -6.526   7.948  64.677  1.00  0.00    -0.048 A  
HETATM   24  C   UNL     1      -8.020   6.986  66.253  1.00  0.00    -0.114 A  
HETATM   25  N   UNL     1      -8.590   8.178  66.547  1.00  0.00    -0.132 NA 
ENDBRANCH  17  20
ENDBRANCH   3  16
TORSDOF 2
ENDMDL
MODEL       90
REMARK 921   NORMALIZED FREE ENERGY PREDICTED BY IDOCK:   -4.18 KCAL/MOL
REMARK 922        TOTAL FREE ENERGY PREDICTED BY IDOCK:   -5.28 KCAL/MOL
REMARK 923 INTER-LIGAND FREE ENERGY PREDICTED BY IDOCK:   -4.78 KCAL/MOL
REMARK 924 INTRA-LIGAND FREE ENERGY PREDICTED BY IDOCK:   -0.49 KCAL/MOL
REMARK 927      BINDING AFFINITY PREDICTED BY RF-SCORE:    0.00 PKD
ROOT
HETATM    1  C   UNL     1      -9.722  11.524  64.859  1.00  0.00    -0.234 C  
HETATM    2  N   UNL     1     -10.117  11.857  66.234  1.00  0.00    -0.215 N  
HETATM    3  C   UNL     1      -9.968  11.016  67.409  1.00  0.00    -0.182 C  
HETATM    4  O   UNL     1     -12.137  13.280  65.568  1.00  0.00    -0.384 OA 
HETATM    5  C   UNL     1     -10.425  11.395  68.635  1.00  0.00    -0.201 C  
HETATM    6  C   UNL     1     -12.473  14.492  69.744  1.00  0.00    -0.215 A  
HETATM    7  O   UNL     1     -10.268  10.644  69.791  1.00  0.00    -0.402 OA 
HETATM    8  C   UNL     1     -11.135  12.616  68.862  1.00  0.00    -0.259 A  
HETATM    9  O   UNL     1      -9.937  14.398  66.135  1.00  0.00    -0.286 OA 
HETATM   10  S   UNL     1     -10.904  13.353  66.332  1.00  0.00    -0.291 S  
HETATM   11  H   UNL     1     -10.586  10.908  70.645  1.00  0.00     0.000 HD 
HETATM   12  S   UNL     1     -11.801  13.078  70.388  1.00  0.00    -0.048 SA 
HETATM   13  C   UNL     1     -11.440  13.575  67.933  1.00  0.00    -0.318 A  
HETATM   14 CL   UNL     1     -13.386  15.541  70.751  1.00  0.00    -0.443 Cl 
HETATM   15  C   UNL     1     -12.213  14.664  68.411  1.00  0.00    -0.129 A  
ENDROOT
BRANCH   3  16
HETATM   16  C   UNL     1      -9.342   9.635  67.350  1.00  0.00    -0.134 C  
HETATM   17  N   UNL     1      -9.925   8.720  66.511  1.00  0.00    -0.275 N  
HETATM   18  O   UNL     1      -8.274   9.437  67.935  1.00  0.00    -0.113 OA 
HETATM   19  H   UNL     1     -10.793   8.982  66.044  1.00  0.00     0.000 HD 
BRANCH  17  20
HETATM   20  C   UNL     1      -9.398   7.448  66.258  1.00  0.00    -0.111 A  
HETATM   21  C   UNL     1      -9.691   6.329  67.035  1.00  0.00    -0.173 A  
HETATM   22  C   UNL     1      -8.138   5.075  65.701  1.00  0.00    -0.113 A  
HETATM   23  C   UNL     1      -9.059   5.122  66.739  1.00  0.00    -0.118 A  
HETATM   24  C   UNL     1      -7.933   6.230  64.965  1.00  0.00    -0.120 A  
HETATM   25  N   UNL     1      -8.574   7.400  65.194  1.00  0.00    -0.019 NA 
ENDBRANCH  17  20
ENDBRANCH   3  16
TORSDOF 2
ENDMDL
MODEL       91
REMARK 921   NORMALIZED FREE ENERGY PREDICTED BY IDOCK:   -4.13 KCAL/MOL
REMARK 922        TOTAL FREE ENERGY PREDICTED BY IDOCK:   -5.22 KCAL/MOL
REMARK 923 INTER-LIGAND FREE ENERGY PREDICTED BY IDOCK:   -4.58 KCAL/MOL
REMARK 924 INTRA-LIGAND FREE ENERGY PREDICTED BY IDOCK:   -0.64 KCAL/MOL
REMARK 927      BINDING AFFINITY PREDICTED BY RF-SCORE:    0.00 PKD
ROOT
HETATM    1  C   UNL     1     -10.018   6.428  70.779  1.00  0.00    -0.185 C  
HETATM    2  N   UNL     1     -10.331   7.512  69.840  1.00  0.00    -0.217 N  
HETATM    3  C   UNL     1     -10.091   7.517  68.407  1.00  0.00    -0.180 C  
HETATM    4  O   UNL     1      -9.910   9.407  71.506  1.00  0.00    -0.245 OA 
HETATM    5  C   UNL     1     -10.362   8.602  67.629  1.00  0.00    -0.254 C  
HETATM    6  C   UNL     1     -11.560  12.167  68.560  1.00  0.00    -0.315 A  
HETATM    7  O   UNL     1     -10.188   8.636  66.253  1.00  0.00    -0.403 OA 
HETATM    8  C   UNL     1     -10.848   9.840  68.156  1.00  0.00    -0.214 A  
HETATM    9  O   UNL     1     -12.274   8.610  71.072  1.00  0.00    -0.273 OA 
HETATM   10  S   UNL     1     -10.937   8.886  70.621  1.00  0.00    -0.252 S  
HETATM   11  H   UNL     1     -10.377   9.393  65.711  1.00  0.00     0.000 HD 
HETATM   12  S   UNL     1     -11.115  11.257  67.205  1.00  0.00    -0.276 SA 
HETATM   13  C   UNL     1     -11.130  10.122  69.466  1.00  0.00    -0.250 A  
HETATM   14 CL   UNL     1     -11.974  13.824  68.381  1.00  0.00    -0.403 Cl 
HETATM   15  C   UNL     1     -11.539  11.454  69.729  1.00  0.00    -0.407 A  
ENDROOT
BRANCH   3  16
HETATM   16  C   UNL     1      -9.474   6.336  67.679  1.00  0.00    -0.115 C  
HETATM   17  N   UNL     1      -8.131   6.401  67.411  1.00  0.00    -0.115 N  
HETATM   18  O   UNL     1     -10.158   5.327  67.490  1.00  0.00    -0.163 OA 
HETATM   19  H   UNL     1      -7.639   7.266  67.630  1.00  0.00     0.000 HD 
BRANCH  17  20
HETATM   20  C   UNL     1      -7.397   5.346  66.854  1.00  0.00    -0.083 A  
HETATM   21  C   UNL     1      -7.284   5.132  65.483  1.00  0.00    -0.068 A  
HETATM   22  C   UNL     1      -6.047   3.131  65.961  1.00  0.00    -0.024 A  
HETATM   23  C   UNL     1      -6.585   4.012  65.033  1.00  0.00    -0.047 A  
HETATM   24  C   UNL     1      -6.184   3.442  67.304  1.00  0.00    -0.035 A  
HETATM   25  N   UNL     1      -6.808   4.550  67.766  1.00  0.00    -0.054 NA 
ENDBRANCH  17  20
ENDBRANCH   3  16
TORSDOF 2
ENDMDL
MODEL       92
REMARK 921   NORMALIZED FREE ENERGY PREDICTED BY IDOCK:   -4.11 KCAL/MOL
REMARK 922        TOTAL FREE ENERGY PREDICTED BY IDOCK:   -5.20 KCAL/MOL
REMARK 923 INTER-LIGAND FREE ENERGY PREDICTED BY IDOCK:   -4.54 KCAL/MOL
REMARK 924 INTRA-LIGAND FREE ENERGY PREDICTED BY IDOCK:   -0.66 KCAL/MOL
REMARK 927      BINDING AFFINITY PREDICTED BY RF-SCORE:    0.00 PKD
ROOT
HETATM    1  C   UNL     1      -6.657  13.555  69.316  1.00  0.00    -0.103 C  
HETATM    2  N   UNL     1      -7.890  13.366  68.541  1.00  0.00    -0.133 N  
HETATM    3  C   UNL     1      -8.594  12.114  68.322  1.00  0.00    -0.175 C  
HETATM    4  O   UNL     1      -7.389  15.204  66.834  1.00  0.00    -0.119 OA 
HETATM    5  C   UNL     1      -9.702  12.034  67.533  1.00  0.00    -0.187 C  
HETATM    6  C   UNL     1     -11.441  14.686  65.308  1.00  0.00    -0.361 A  
HETATM    7  O   UNL     1     -10.429  10.870  67.329  1.00  0.00    -0.208 OA 
HETATM    8  C   UNL     1     -10.230  13.150  66.810  1.00  0.00    -0.252 A  
HETATM    9  O   UNL     1      -8.922  15.683  68.790  1.00  0.00    -0.179 OA 
HETATM   10  S   UNL     1      -8.402  14.792  67.789  1.00  0.00    -0.172 S  
HETATM   11  H   UNL     1     -11.201  10.814  66.778  1.00  0.00     0.000 HD 
HETATM   12  S   UNL     1     -11.578  13.055  65.734  1.00  0.00    -0.377 SA 
HETATM   13  C   UNL     1      -9.748  14.432  66.810  1.00  0.00    -0.270 A  
HETATM   14 CL   UNL     1     -12.522  15.365  64.159  1.00  0.00    -0.149 Cl 
HETATM   15  C   UNL     1     -10.423  15.337  65.952  1.00  0.00    -0.345 A  
ENDROOT
BRANCH   3  16
HETATM   16  C   UNL     1      -8.123  10.798  68.912  1.00  0.00    -0.145 C  
HETATM   17  N   UNL     1      -8.773  10.347  70.032  1.00  0.00    -0.318 N  
HETATM   18  O   UNL     1      -7.289  10.130  68.294  1.00  0.00    -0.079 OA 
HETATM   19  H   UNL     1      -9.471  10.955  70.459  1.00  0.00     0.000 HD 
BRANCH  17  20
HETATM   20  C   UNL     1      -8.534   9.099  70.622  1.00  0.00    -0.209 A  
HETATM   21  C   UNL     1      -9.350   7.988  70.420  1.00  0.00    -0.158 A  
HETATM   22  C   UNL     1      -7.993   6.787  71.994  1.00  0.00    -0.097 A  
HETATM   23  C   UNL     1      -9.062   6.810  71.109  1.00  0.00    -0.151 A  
HETATM   24  C   UNL     1      -7.221   7.931  72.108  1.00  0.00    -0.081 A  
HETATM   25  N   UNL     1      -7.443   9.068  71.410  1.00  0.00    -0.277 NA 
ENDBRANCH  17  20
ENDBRANCH   3  16
TORSDOF 2
ENDMDL
MODEL       93
REMARK 921   NORMALIZED FREE ENERGY PREDICTED BY IDOCK:   -4.10 KCAL/MOL
REMARK 922        TOTAL FREE ENERGY PREDICTED BY IDOCK:   -5.19 KCAL/MOL
REMARK 923 INTER-LIGAND FREE ENERGY PREDICTED BY IDOCK:   -4.70 KCAL/MOL
REMARK 924 INTRA-LIGAND FREE ENERGY PREDICTED BY IDOCK:   -0.49 KCAL/MOL
REMARK 927      BINDING AFFINITY PREDICTED BY RF-SCORE:    0.00 PKD
ROOT
HETATM    1  C   UNL     1      -9.843   9.887  69.179  1.00  0.00    -0.198 C  
HETATM    2  N   UNL     1     -10.210  10.513  67.903  1.00  0.00    -0.175 N  
HETATM    3  C   UNL     1     -10.083   9.928  66.579  1.00  0.00    -0.232 C  
HETATM    4  O   UNL     1      -9.631  12.897  68.627  1.00  0.00    -0.146 OA 
HETATM    5  C   UNL     1     -10.396  10.619  65.447  1.00  0.00    -0.233 C  
HETATM    6  C   UNL     1     -11.461  14.308  64.928  1.00  0.00    -0.378 A  
HETATM    7  O   UNL     1     -10.329  10.087  64.168  1.00  0.00    -0.391 OA 
HETATM    8  C   UNL     1     -10.819  11.985  65.457  1.00  0.00    -0.292 A  
HETATM    9  O   UNL     1     -12.033  12.103  68.707  1.00  0.00    -0.306 OA 
HETATM   10  S   UNL     1     -10.731  12.112  68.097  1.00  0.00    -0.221 S  
HETATM   11  H   UNL     1     -10.547  10.569  63.379  1.00  0.00     0.000 HD 
HETATM   12  S   UNL     1     -11.137  12.909  64.032  1.00  0.00    -0.409 SA 
HETATM   13  C   UNL     1     -10.994  12.784  66.556  1.00  0.00    -0.262 A  
HETATM   14 CL   UNL     1     -11.860  15.769  64.119  1.00  0.00    -0.217 Cl 
HETATM   15  C   UNL     1     -11.360  14.127  66.281  1.00  0.00    -0.340 A  
ENDROOT
BRANCH   3  16
HETATM   16  C   UNL     1      -9.544   8.527  66.355  1.00  0.00    -0.245 C  
HETATM   17  N   UNL     1      -8.198   8.406  66.122  1.00  0.00    -0.108 N  
HETATM   18  O   UNL     1     -10.294   7.563  66.529  1.00  0.00    -0.204 OA 
HETATM   19  H   UNL     1      -7.649   9.260  66.023  1.00  0.00     0.000 HD 
BRANCH  17  20
HETATM   20  C   UNL     1      -7.533   7.178  66.014  1.00  0.00    -0.080 A  
HETATM   21  C   UNL     1      -6.633   6.707  66.967  1.00  0.00    -0.048 A  
HETATM   22  C   UNL     1      -6.210   4.822  65.543  1.00  0.00    -0.034 A  
HETATM   23  C   UNL     1      -5.973   5.502  66.730  1.00  0.00    -0.019 A  
HETATM   24  C   UNL     1      -7.143   5.351  64.668  1.00  0.00    -0.054 A  
HETATM   25  N   UNL     1      -7.839   6.489  64.898  1.00  0.00    -0.109 NA 
ENDBRANCH  17  20
ENDBRANCH   3  16
TORSDOF 2
ENDMDL
MODEL       94
REMARK 921   NORMALIZED FREE ENERGY PREDICTED BY IDOCK:   -4.07 KCAL/MOL
REMARK 922        TOTAL FREE ENERGY PREDICTED BY IDOCK:   -5.16 KCAL/MOL
REMARK 923 INTER-LIGAND FREE ENERGY PREDICTED BY IDOCK:   -4.55 KCAL/MOL
REMARK 924 INTRA-LIGAND FREE ENERGY PREDICTED BY IDOCK:   -0.61 KCAL/MOL
REMARK 927      BINDING AFFINITY PREDICTED BY RF-SCORE:    0.00 PKD
ROOT
HETATM    1  C   UNL     1      -7.174   8.716  68.193  1.00  0.00    -0.087 C  
HETATM    2  N   UNL     1      -8.386   8.253  68.880  1.00  0.00    -0.126 N  
HETATM    3  C   UNL     1      -9.073   6.990  68.672  1.00  0.00    -0.132 C  
HETATM    4  O   UNL     1      -9.421  10.577  69.144  1.00  0.00    -0.195 OA 
HETATM    5  C   UNL     1     -10.231   6.678  69.320  1.00  0.00    -0.183 C  
HETATM    6  C   UNL     1     -12.460   8.772  71.698  1.00  0.00    -0.339 A  
HETATM    7  O   UNL     1     -10.898   5.470  69.183  1.00  0.00    -0.251 OA 
HETATM    8  C   UNL     1     -10.896   7.580  70.208  1.00  0.00    -0.246 A  
HETATM    9  O   UNL     1      -8.159   9.531  71.074  1.00  0.00    -0.312 OA 
HETATM   10  S   UNL     1      -9.019   9.421  69.927  1.00  0.00    -0.217 S  
HETATM   11  H   UNL     1     -11.705   5.253  69.634  1.00  0.00     0.000 HD 
HETATM   12  S   UNL     1     -12.409   7.244  70.972  1.00  0.00    -0.257 SA 
HETATM   13  C   UNL     1     -10.489   8.840  70.560  1.00  0.00    -0.209 A  
HETATM   14 CL   UNL     1     -13.802   9.210  72.676  1.00  0.00    -0.481 Cl 
HETATM   15  C   UNL     1     -11.371   9.550  71.413  1.00  0.00    -0.462 A  
ENDROOT
BRANCH   3  16
HETATM   16  C   UNL     1      -8.584   5.948  67.683  1.00  0.00    -0.102 C  
HETATM   17  N   UNL     1      -9.322   5.777  66.540  1.00  0.00    -0.148 N  
HETATM   18  O   UNL     1      -7.490   5.409  67.874  1.00  0.00    -0.075 OA 
HETATM   19  H   UNL     1     -10.200   6.287  66.455  1.00  0.00     0.000 HD 
BRANCH  17  20
HETATM   20  C   UNL     1      -8.938   4.943  65.482  1.00  0.00    -0.149 A  
HETATM   21  C   UNL     1      -8.107   5.356  64.443  1.00  0.00    -0.123 A  
HETATM   22  C   UNL     1      -8.431   3.210  63.416  1.00  0.00    -0.086 A  
HETATM   23  C   UNL     1      -7.841   4.467  63.402  1.00  0.00    -0.076 A  
HETATM   24  C   UNL     1      -9.219   2.877  64.505  1.00  0.00    -0.135 A  
HETATM   25  N   UNL     1      -9.448   3.699  65.556  1.00  0.00    -0.160 NA 
ENDBRANCH  17  20
ENDBRANCH   3  16
TORSDOF 2
ENDMDL
MODEL       95
REMARK 921   NORMALIZED FREE ENERGY PREDICTED BY IDOCK:   -4.05 KCAL/MOL
REMARK 922        TOTAL FREE ENERGY PREDICTED BY IDOCK:   -5.13 KCAL/MOL
REMARK 923 INTER-LIGAND FREE ENERGY PREDICTED BY IDOCK:   -4.45 KCAL/MOL
REMARK 924 INTRA-LIGAND FREE ENERGY PREDICTED BY IDOCK:   -0.68 KCAL/MOL
REMARK 927      BINDING AFFINITY PREDICTED BY RF-SCORE:    0.00 PKD
ROOT
HETATM    1  C   UNL     1      -8.660   9.563  70.277  1.00  0.00    -0.226 C  
HETATM    2  N   UNL     1      -8.557   8.844  69.000  1.00  0.00    -0.136 N  
HETATM    3  C   UNL     1      -9.287   9.135  67.778  1.00  0.00    -0.136 C  
HETATM    4  O   UNL     1      -8.096   6.555  70.046  1.00  0.00    -0.117 OA 
HETATM    5  C   UNL     1      -9.165   8.367  66.660  1.00  0.00    -0.180 C  
HETATM    6  C   UNL     1      -7.242   5.061  66.038  1.00  0.00    -0.076 A  
HETATM    7  O   UNL     1      -9.811   8.630  65.460  1.00  0.00    -0.412 OA 
HETATM    8  C   UNL     1      -8.361   7.185  66.607  1.00  0.00    -0.114 A  
HETATM    9  O   UNL     1      -6.173   7.961  69.188  1.00  0.00    -0.034 OA 
HETATM   10  S   UNL     1      -7.532   7.501  69.098  1.00  0.00    -0.100 S  
HETATM   11  H   UNL     1      -9.726   8.095  64.681  1.00  0.00     0.000 HD 
HETATM   12  S   UNL     1      -8.259   6.146  65.230  1.00  0.00    -0.138 SA 
HETATM   13  C   UNL     1      -7.596   6.665  67.617  1.00  0.00    -0.106 A  
HETATM   14 CL   UNL     1      -6.698   3.641  65.240  1.00  0.00    -0.044 Cl 
HETATM   15  C   UNL     1      -6.943   5.442  67.319  1.00  0.00    -0.065 A  
ENDROOT
BRANCH   3  16
HETATM   16  C   UNL     1     -10.277  10.281  67.672  1.00  0.00    -0.205 C  
HETATM   17  N   UNL     1      -9.920  11.342  66.880  1.00  0.00    -0.203 N  
HETATM   18  O   UNL     1     -11.397  10.153  68.174  1.00  0.00    -0.237 OA 
HETATM   19  H   UNL     1      -8.982  11.349  66.481  1.00  0.00     0.000 HD 
BRANCH  17  20
HETATM   20  C   UNL     1     -10.769  12.417  66.589  1.00  0.00    -0.235 A  
HETATM   21  C   UNL     1     -11.538  12.493  65.429  1.00  0.00    -0.416 A  
HETATM   22  C   UNL     1     -12.249  14.679  66.120  1.00  0.00    -0.167 A  
HETATM   23  C   UNL     1     -12.300  13.639  65.202  1.00  0.00    -0.486 A  
HETATM   24  C   UNL     1     -11.479  14.502  67.257  1.00  0.00    -0.365 A  
HETATM   25  N   UNL     1     -10.776  13.379  67.531  1.00  0.00    -0.253 NA 
ENDBRANCH  17  20
ENDBRANCH   3  16
TORSDOF 2
ENDMDL
MODEL       96
REMARK 921   NORMALIZED FREE ENERGY PREDICTED BY IDOCK:   -4.04 KCAL/MOL
REMARK 922        TOTAL FREE ENERGY PREDICTED BY IDOCK:   -5.12 KCAL/MOL
REMARK 923 INTER-LIGAND FREE ENERGY PREDICTED BY IDOCK:   -4.45 KCAL/MOL
REMARK 924 INTRA-LIGAND FREE ENERGY PREDICTED BY IDOCK:   -0.68 KCAL/MOL
REMARK 927      BINDING AFFINITY PREDICTED BY RF-SCORE:    0.00 PKD
ROOT
HETATM    1  C   UNL     1      -7.750   9.038  70.975  1.00  0.00    -0.125 C  
HETATM    2  N   UNL     1      -8.352   8.175  69.951  1.00  0.00    -0.121 N  
HETATM    3  C   UNL     1      -9.425   8.530  69.038  1.00  0.00    -0.150 C  
HETATM    4  O   UNL     1      -8.068   6.000  71.267  1.00  0.00    -0.114 OA 
HETATM    5  C   UNL     1      -9.958   7.634  68.161  1.00  0.00    -0.175 C  
HETATM    6  C   UNL     1      -9.309   3.844  67.685  1.00  0.00    -0.189 A  
HETATM    7  O   UNL     1     -10.953   7.939  67.244  1.00  0.00    -0.518 OA 
HETATM    8  C   UNL     1      -9.554   6.263  68.102  1.00  0.00    -0.115 A  
HETATM    9  O   UNL     1      -6.388   6.622  69.478  1.00  0.00    -0.039 OA 
HETATM   10  S   UNL     1      -7.731   6.602  69.989  1.00  0.00    -0.104 S  
HETATM   11  H   UNL     1     -11.325   7.314  66.633  1.00  0.00     0.000 HD 
HETATM   12  S   UNL     1     -10.275   5.086  67.063  1.00  0.00    -0.187 SA 
HETATM   13  C   UNL     1      -8.592   5.655  68.865  1.00  0.00    -0.101 A  
HETATM   14 CL   UNL     1      -9.495   2.240  67.100  1.00  0.00    -0.040 Cl 
HETATM   15  C   UNL     1      -8.432   4.263  68.649  1.00  0.00    -0.096 A  
ENDROOT
BRANCH   3  16
HETATM   16  C   UNL     1     -10.066   9.906  69.026  1.00  0.00    -0.189 C  
HETATM   17  N   UNL     1      -9.847  10.688  67.921  1.00  0.00    -0.159 N  
HETATM   18  O   UNL     1     -10.857  10.205  69.925  1.00  0.00    -0.257 OA 
HETATM   19  H   UNL     1      -9.198  10.346  67.212  1.00  0.00     0.000 HD 
BRANCH  17  20
HETATM   20  C   UNL     1     -10.462  11.928  67.710  1.00  0.00    -0.202 A  
HETATM   21  C   UNL     1     -10.015  13.113  68.289  1.00  0.00    -0.236 A  
HETATM   22  C   UNL     1     -11.897  14.230  67.304  1.00  0.00    -0.444 A  
HETATM   23  C   UNL     1     -10.741  14.284  68.069  1.00  0.00    -0.242 A  
HETATM   24  C   UNL     1     -12.248  13.013  66.744  1.00  0.00    -0.194 A  
HETATM   25  N   UNL     1     -11.532  11.874  66.895  1.00  0.00    -0.452 NA 
ENDBRANCH  17  20
ENDBRANCH   3  16
TORSDOF 2
ENDMDL
MODEL       97
REMARK 921   NORMALIZED FREE ENERGY PREDICTED BY IDOCK:   -3.91 KCAL/MOL
REMARK 922        TOTAL FREE ENERGY PREDICTED BY IDOCK:   -4.98 KCAL/MOL
REMARK 923 INTER-LIGAND FREE ENERGY PREDICTED BY IDOCK:   -4.28 KCAL/MOL
REMARK 924 INTRA-LIGAND FREE ENERGY PREDICTED BY IDOCK:   -0.70 KCAL/MOL
REMARK 927      BINDING AFFINITY PREDICTED BY RF-SCORE:    0.00 PKD
ROOT
HETATM    1  C   UNL     1     -10.707   9.062  67.316  1.00  0.00    -0.151 C  
HETATM    2  N   UNL     1     -10.099  10.396  67.380  1.00  0.00    -0.187 N  
HETATM    3  C   UNL     1      -9.155  10.874  68.376  1.00  0.00    -0.164 C  
HETATM    4  O   UNL     1     -12.120  11.633  66.416  1.00  0.00    -0.371 OA 
HETATM    5  C   UNL     1      -8.693  12.155  68.383  1.00  0.00    -0.141 C  
HETATM    6  C   UNL     1      -9.642  15.215  66.204  1.00  0.00    -0.313 A  
HETATM    7  O   UNL     1      -7.761  12.642  69.288  1.00  0.00    -0.315 OA 
HETATM    8  C   UNL     1      -9.136  13.151  67.457  1.00  0.00    -0.205 A  
HETATM    9  O   UNL     1     -10.174  11.030  64.912  1.00  0.00    -0.271 OA 
HETATM   10  S   UNL     1     -10.699  11.436  66.187  1.00  0.00    -0.247 S  
HETATM   11  H   UNL     1      -7.440  13.536  69.293  1.00  0.00     0.000 HD 
HETATM   12  S   UNL     1      -8.634  14.804  67.499  1.00  0.00    -0.200 SA 
HETATM   13  C   UNL     1     -10.038  12.984  66.439  1.00  0.00    -0.279 A  
HETATM   14 CL   UNL     1      -9.703  16.839  65.650  1.00  0.00    -0.143 Cl 
HETATM   15  C   UNL     1     -10.351  14.156  65.704  1.00  0.00    -0.348 A  
ENDROOT
BRANCH   3  16
HETATM   16  C   UNL     1      -8.653   9.998  69.510  1.00  0.00    -0.186 C  
HETATM   17  N   UNL     1      -7.357   9.556  69.430  1.00  0.00    -0.079 N  
HETATM   18  O   UNL     1      -9.365   9.841  70.505  1.00  0.00    -0.219 OA 
HETATM   19  H   UNL     1      -6.832   9.759  68.580  1.00  0.00     0.000 HD 
BRANCH  17  20
HETATM   20  C   UNL     1      -6.714   8.841  70.449  1.00  0.00    -0.043 A  
HETATM   21  C   UNL     1      -6.748   7.453  70.550  1.00  0.00    -0.047 A  
HETATM   22  C   UNL     1      -5.527   7.635  72.608  1.00  0.00    -0.036 A  
HETATM   23  C   UNL     1      -6.131   6.843  71.642  1.00  0.00    -0.038 A  
HETATM   24  C   UNL     1      -5.517   9.005  72.408  1.00  0.00    -0.068 A  
HETATM   25  N   UNL     1      -6.058   9.619  71.331  1.00  0.00    -0.229 NA 
ENDBRANCH  17  20
ENDBRANCH   3  16
TORSDOF 2
ENDMDL
MODEL       98
REMARK 921   NORMALIZED FREE ENERGY PREDICTED BY IDOCK:   -3.80 KCAL/MOL
REMARK 922        TOTAL FREE ENERGY PREDICTED BY IDOCK:   -4.86 KCAL/MOL
REMARK 923 INTER-LIGAND FREE ENERGY PREDICTED BY IDOCK:   -4.70 KCAL/MOL
REMARK 924 INTRA-LIGAND FREE ENERGY PREDICTED BY IDOCK:   -0.16 KCAL/MOL
REMARK 927      BINDING AFFINITY PREDICTED BY RF-SCORE:    0.00 PKD
ROOT
HETATM    1  C   UNL     1     -11.763  14.866  66.846  1.00  0.00    -0.248 C  
HETATM    2  N   UNL     1     -10.373  15.316  66.695  1.00  0.00    -0.273 N  
HETATM    3  C   UNL     1      -9.175  14.533  66.943  1.00  0.00    -0.250 C  
HETATM    4  O   UNL     1     -10.828  17.742  67.366  1.00  0.00    -0.318 OA 
HETATM    5  C   UNL     1      -7.925  15.063  66.831  1.00  0.00    -0.074 C  
HETATM    6  C   UNL     1      -6.751  18.691  66.139  1.00  0.00    -0.233 A  
HETATM    7  O   UNL     1      -6.754  14.343  67.018  1.00  0.00    -0.347 OA 
HETATM    8  C   UNL     1      -7.684  16.439  66.521  1.00  0.00    -0.260 A  
HETATM    9  O   UNL     1     -10.687  17.115  64.917  1.00  0.00    -0.737 OA 
HETATM   10  S   UNL     1     -10.268  16.954  66.282  1.00  0.00    -0.319 S  
HETATM   11  H   UNL     1      -5.883  14.713  66.941  1.00  0.00     0.000 HD 
HETATM   12  S   UNL     1      -6.114  17.157  66.462  1.00  0.00    -0.147 SA 
HETATM   13  C   UNL     1      -8.625  17.403  66.272  1.00  0.00    -0.211 A  
HETATM   14 CL   UNL     1      -5.698  20.035  65.964  1.00  0.00    -0.180 Cl 
HETATM   15  C   UNL     1      -8.117  18.708  66.052  1.00  0.00    -0.122 A  
ENDROOT
BRANCH   3  16
HETATM   16  C   UNL     1      -9.225  13.084  67.392  1.00  0.00    -0.208 C  
HETATM   17  N   UNL     1     -10.125  12.767  68.377  1.00  0.00    -0.246 N  
HETATM   18  O   UNL     1      -8.573  12.241  66.770  1.00  0.00    -0.194 OA 
HETATM   19  H   UNL     1     -10.644  13.527  68.816  1.00  0.00     0.000 HD 
BRANCH  17  20
HETATM   20  C   UNL     1     -10.373  11.460  68.815  1.00  0.00    -0.204 A  
HETATM   21  C   UNL     1      -9.416  10.670  69.446  1.00  0.00    -0.101 A  
HETATM   22  C   UNL     1     -11.001   8.867  69.453  1.00  0.00    -0.064 A  
HETATM   23  C   UNL     1      -9.744   9.356  69.782  1.00  0.00    -0.215 A  
HETATM   24  C   UNL     1     -11.897   9.735  68.853  1.00  0.00     0.625 A  
HETATM   25  N   UNL     1     -11.625  11.030  68.568  1.00  0.00    -0.370 NA 
ENDBRANCH  17  20
ENDBRANCH   3  16
TORSDOF 2
ENDMDL
MODEL       99
REMARK 921   NORMALIZED FREE ENERGY PREDICTED BY IDOCK:   -3.78 KCAL/MOL
REMARK 922        TOTAL FREE ENERGY PREDICTED BY IDOCK:   -4.83 KCAL/MOL
REMARK 923 INTER-LIGAND FREE ENERGY PREDICTED BY IDOCK:   -4.49 KCAL/MOL
REMARK 924 INTRA-LIGAND FREE ENERGY PREDICTED BY IDOCK:   -0.35 KCAL/MOL
REMARK 927      BINDING AFFINITY PREDICTED BY RF-SCORE:    0.00 PKD
ROOT
HETATM    1  C   UNL     1     -11.641  11.633  70.345  1.00  0.00    -0.063 C  
HETATM    2  N   UNL     1     -11.195  12.413  69.184  1.00  0.00    -0.248 N  
HETATM    3  C   UNL     1     -10.407  11.930  68.064  1.00  0.00    -0.196 C  
HETATM    4  O   UNL     1     -10.921  14.614  70.460  1.00  0.00    -0.101 OA 
HETATM    5  C   UNL     1      -9.990  12.752  67.061  1.00  0.00    -0.231 C  
HETATM    6  C   UNL     1     -10.295  16.590  66.623  1.00  0.00    -0.298 A  
HETATM    7  O   UNL     1      -9.272  12.327  65.952  1.00  0.00    -0.401 OA 
HETATM    8  C   UNL     1     -10.238  14.161  67.051  1.00  0.00    -0.260 A  
HETATM    9  O   UNL     1     -13.026  14.186  69.120  1.00  0.00     0.524 OA 
HETATM   10  S   UNL     1     -11.607  14.050  69.311  1.00  0.00    -0.329 S  
HETATM   11  H   UNL     1      -8.982  12.901  65.254  1.00  0.00     0.000 HD 
HETATM   12  S   UNL     1      -9.645  15.240  65.839  1.00  0.00    -0.316 SA 
HETATM   13  C   UNL     1     -10.924  14.882  67.993  1.00  0.00    -0.279 A  
HETATM   14 CL   UNL     1     -10.066  18.158  65.961  1.00  0.00    -0.313 Cl 
HETATM   15  C   UNL     1     -10.970  16.282  67.774  1.00  0.00    -0.281 A  
ENDROOT
BRANCH   3  16
HETATM   16  C   UNL     1      -9.947  10.488  67.951  1.00  0.00    -0.169 C  
HETATM   17  N   UNL     1     -10.919   9.521  67.948  1.00  0.00    -0.503 N  
HETATM   18  O   UNL     1      -8.756  10.256  67.728  1.00  0.00    -0.121 OA 
HETATM   19  H   UNL     1     -11.884   9.809  68.110  1.00  0.00     0.000 HD 
BRANCH  17  20
HETATM   20  C   UNL     1     -10.664   8.161  67.734  1.00  0.00    -0.096 A  
HETATM   21  C   UNL     1     -10.771   7.195  68.732  1.00  0.00    -0.199 A  
HETATM   22  C   UNL     1      -9.966   5.571  67.159  1.00  0.00    -0.193 A  
HETATM   23  C   UNL     1     -10.428   5.877  68.431  1.00  0.00    -0.294 A  
HETATM   24  C   UNL     1      -9.920   6.590  66.223  1.00  0.00     0.070 A  
HETATM   25  N   UNL     1     -10.300   7.865  66.472  1.00  0.00    -0.187 NA 
ENDBRANCH  17  20
ENDBRANCH   3  16
TORSDOF 2
ENDMDL
MODEL      100
REMARK 921   NORMALIZED FREE ENERGY PREDICTED BY IDOCK:   -3.74 KCAL/MOL
REMARK 922        TOTAL FREE ENERGY PREDICTED BY IDOCK:   -4.79 KCAL/MOL
REMARK 923 INTER-LIGAND FREE ENERGY PREDICTED BY IDOCK:   -4.18 KCAL/MOL
REMARK 924 INTRA-LIGAND FREE ENERGY PREDICTED BY IDOCK:   -0.61 KCAL/MOL
REMARK 927      BINDING AFFINITY PREDICTED BY RF-SCORE:    0.00 PKD
ROOT
HETATM    1  C   UNL     1     -10.773   9.594  70.559  1.00  0.00    -0.311 C  
HETATM    2  N   UNL     1     -10.395   9.376  69.158  1.00  0.00    -0.205 N  
HETATM    3  C   UNL     1      -9.728   8.208  68.609  1.00  0.00    -0.153 C  
HETATM    4  O   UNL     1      -9.917  11.837  68.649  1.00  0.00    -0.212 OA 
HETATM    5  C   UNL     1      -9.363   8.128  67.299  1.00  0.00    -0.141 C  
HETATM    6  C   UNL     1      -9.537  10.743  64.445  1.00  0.00    -0.279 A  
HETATM    7  O   UNL     1      -8.762   7.018  66.724  1.00  0.00    -0.115 OA 
HETATM    8  C   UNL     1      -9.549   9.199  66.370  1.00  0.00    -0.245 A  
HETATM    9  O   UNL     1     -12.145  10.825  68.003  1.00  0.00    -0.474 OA 
HETATM   10  S   UNL     1     -10.723  10.722  68.186  1.00  0.00    -0.235 S  
HETATM   11  H   UNL     1      -8.508   6.962  65.811  1.00  0.00     0.000 HD 
HETATM   12  S   UNL     1      -9.016   9.158  64.727  1.00  0.00    -0.061 SA 
HETATM   13  C   UNL     1     -10.120  10.418  66.623  1.00  0.00    -0.224 A  
HETATM   14 CL   UNL     1      -9.297  11.461  62.904  1.00  0.00    -0.379 Cl 
HETATM   15  C   UNL     1     -10.123  11.328  65.535  1.00  0.00    -0.306 A  
ENDROOT
BRANCH   3  16
HETATM   16  C   UNL     1      -9.342   7.013  69.462  1.00  0.00    -0.148 C  
HETATM   17  N   UNL     1      -8.055   6.970  69.931  1.00  0.00    -0.123 N  
HETATM   18  O   UNL     1     -10.220   6.219  69.811  1.00  0.00    -0.171 OA 
HETATM   19  H   UNL     1      -7.404   7.687  69.613  1.00  0.00     0.000 HD 
BRANCH  17  20
HETATM   20  C   UNL     1      -7.582   5.999  70.823  1.00  0.00    -0.093 A  
HETATM   21  C   UNL     1      -7.230   4.708  70.434  1.00  0.00    -0.049 A  
HETATM   22  C   UNL     1      -6.832   4.189  72.743  1.00  0.00    -0.048 A  
HETATM   23  C   UNL     1      -6.836   3.796  71.412  1.00  0.00    -0.031 A  
HETATM   24  C   UNL     1      -7.170   5.500  73.032  1.00  0.00    -0.091 A  
HETATM   25  N   UNL     1      -7.501   6.422  72.099  1.00  0.00    -0.092 NA 
ENDBRANCH  17  20
ENDBRANCH   3  16
TORSDOF 2
ENDMDL
MODEL      101
REMARK 921   NORMALIZED FREE ENERGY PREDICTED BY IDOCK:   -3.62 KCAL/MOL
REMARK 922        TOTAL FREE ENERGY PREDICTED BY IDOCK:   -4.66 KCAL/MOL
REMARK 923 INTER-LIGAND FREE ENERGY PREDICTED BY IDOCK:   -4.16 KCAL/MOL
REMARK 924 INTRA-LIGAND FREE ENERGY PREDICTED BY IDOCK:   -0.50 KCAL/MOL
REMARK 927      BINDING AFFINITY PREDICTED BY RF-SCORE:    0.00 PKD
ROOT
HETATM    1  C   UNL     1      -7.752  14.378  67.117  1.00  0.00    -0.034 C  
HETATM    2  N   UNL     1      -8.849  13.926  67.983  1.00  0.00    -0.175 N  
HETATM    3  C   UNL     1      -9.287  12.556  68.185  1.00  0.00    -0.210 C  
HETATM    4  O   UNL     1     -10.301  16.004  67.641  1.00  0.00    -0.270 OA 
HETATM    5  C   UNL     1     -10.360  12.245  68.966  1.00  0.00     0.038 C  
HETATM    6  C   UNL     1     -12.924  14.507  70.788  1.00  0.00    -0.343 A  
HETATM    7  O   UNL     1     -10.788  10.950  69.220  1.00  0.00    -0.214 OA 
HETATM    8  C   UNL     1     -11.176  13.232  69.603  1.00  0.00    -0.032 A  
HETATM    9  O   UNL     1      -8.848  15.806  69.705  1.00  0.00    -0.232 OA 
HETATM   10  S   UNL     1      -9.682  15.216  68.693  1.00  0.00    -0.223 S  
HETATM   11  H   UNL     1     -11.536  10.734  69.765  1.00  0.00     0.000 HD 
HETATM   12  S   UNL     1     -12.592  12.869  70.524  1.00  0.00    -0.053 SA 
HETATM   13  C   UNL     1     -11.010  14.591  69.556  1.00  0.00    -0.224 A  
HETATM   14 CL   UNL     1     -14.315  14.965  71.684  1.00  0.00    -0.602 Cl 
HETATM   15  C   UNL     1     -12.003  15.350  70.226  1.00  0.00    -0.386 A  
ENDROOT
BRANCH   3  16
HETATM   16  C   UNL     1      -8.619  11.376  67.504  1.00  0.00    -0.137 C  
HETATM   17  N   UNL     1      -8.639  11.353  66.133  1.00  0.00    -0.274 N  
HETATM   18  O   UNL     1      -7.974  10.577  68.188  1.00  0.00    -0.106 OA 
HETATM   19  H   UNL     1      -9.174  12.073  65.649  1.00  0.00     0.000 HD 
BRANCH  17  20
HETATM   20  C   UNL     1      -7.967  10.398  65.360  1.00  0.00    -0.147 A  
HETATM   21  C   UNL     1      -8.579   9.252  64.856  1.00  0.00    -0.204 A  
HETATM   22  C   UNL     1      -6.443   8.564  64.003  1.00  0.00    -0.072 A  
HETATM   23  C   UNL     1      -7.803   8.330  64.154  1.00  0.00    -0.145 A  
HETATM   24  C   UNL     1      -5.929   9.744  64.513  1.00  0.00    -0.094 A  
HETATM   25  N   UNL     1      -6.668  10.683  65.148  1.00  0.00    -0.017 NA 
ENDBRANCH  17  20
ENDBRANCH   3  16
TORSDOF 2
ENDMDL
MODEL      102
REMARK 921   NORMALIZED FREE ENERGY PREDICTED BY IDOCK:   -3.61 KCAL/MOL
REMARK 922        TOTAL FREE ENERGY PREDICTED BY IDOCK:   -4.64 KCAL/MOL
REMARK 923 INTER-LIGAND FREE ENERGY PREDICTED BY IDOCK:   -4.07 KCAL/MOL
REMARK 924 INTRA-LIGAND FREE ENERGY PREDICTED BY IDOCK:   -0.58 KCAL/MOL
REMARK 927      BINDING AFFINITY PREDICTED BY RF-SCORE:    0.00 PKD
ROOT
HETATM    1  C   UNL     1      -9.119   5.115  68.706  1.00  0.00    -0.114 C  
HETATM    2  N   UNL     1      -8.647   6.414  68.211  1.00  0.00    -0.115 N  
HETATM    3  C   UNL     1      -8.979   7.722  68.749  1.00  0.00    -0.141 C  
HETATM    4  O   UNL     1      -8.533   5.711  65.754  1.00  0.00    -0.128 OA 
HETATM    5  C   UNL     1      -8.536   8.877  68.176  1.00  0.00    -0.130 C  
HETATM    6  C   UNL     1      -6.538   9.498  64.915  1.00  0.00    -0.086 A  
HETATM    7  O   UNL     1      -8.794  10.144  68.679  1.00  0.00    -0.125 OA 
HETATM    8  C   UNL     1      -7.761   8.906  66.975  1.00  0.00    -0.098 A  
HETATM    9  O   UNL     1      -6.432   5.704  67.166  1.00  0.00    -0.041 OA 
HETATM   10  S   UNL     1      -7.707   6.267  66.811  1.00  0.00    -0.101 S  
HETATM   11  H   UNL     1      -8.485  10.948  68.280  1.00  0.00     0.000 HD 
HETATM   12  S   UNL     1      -7.262  10.357  66.180  1.00  0.00    -0.136 SA 
HETATM   13  C   UNL     1      -7.333   7.828  66.245  1.00  0.00    -0.079 A  
HETATM   14 CL   UNL     1      -5.792  10.345  63.622  1.00  0.00    -0.143 Cl 
HETATM   15  C   UNL     1      -6.631   8.139  65.053  1.00  0.00    -0.052 A  
ENDROOT
BRANCH   3  16
HETATM   16  C   UNL     1      -9.884   7.903  69.953  1.00  0.00    -0.182 C  
HETATM   17  N   UNL     1     -11.126   8.439  69.727  1.00  0.00    -0.433 N  
HETATM   18  O   UNL     1      -9.531   7.440  71.042  1.00  0.00    -0.158 OA 
HETATM   19  H   UNL     1     -11.343   8.768  68.786  1.00  0.00     0.000 HD 
BRANCH  17  20
HETATM   20  C   UNL     1     -12.114   8.558  70.712  1.00  0.00    -0.061 A  
HETATM   21  C   UNL     1     -12.946   7.508  71.094  1.00  0.00    -0.251 A  
HETATM   22  C   UNL     1     -14.099   9.034  72.545  1.00  0.00    -0.428 A  
HETATM   23  C   UNL     1     -13.945   7.752  72.037  1.00  0.00    -0.329 A  
HETATM   24  C   UNL     1     -13.207  10.007  72.128  1.00  0.00    -0.390 A  
HETATM   25  N   UNL     1     -12.194   9.786  71.258  1.00  0.00    -0.347 NA 
ENDBRANCH  17  20
ENDBRANCH   3  16
TORSDOF 2
ENDMDL
MODEL      103
REMARK 921   NORMALIZED FREE ENERGY PREDICTED BY IDOCK:   -3.59 KCAL/MOL
REMARK 922        TOTAL FREE ENERGY PREDICTED BY IDOCK:   -4.62 KCAL/MOL
REMARK 923 INTER-LIGAND FREE ENERGY PREDICTED BY IDOCK:   -3.93 KCAL/MOL
REMARK 924 INTRA-LIGAND FREE ENERGY PREDICTED BY IDOCK:   -0.68 KCAL/MOL
REMARK 927      BINDING AFFINITY PREDICTED BY RF-SCORE:    0.00 PKD
ROOT
HETATM    1  C   UNL     1      -9.335   3.176  67.844  1.00  0.00    -0.201 C  
HETATM    2  N   UNL     1      -9.049   4.526  67.343  1.00  0.00    -0.121 N  
HETATM    3  C   UNL     1      -9.333   5.782  68.017  1.00  0.00    -0.109 C  
HETATM    4  O   UNL     1      -9.414   3.954  64.877  1.00  0.00    -0.148 OA 
HETATM    5  C   UNL     1      -9.084   6.989  67.439  1.00  0.00    -0.123 C  
HETATM    6  C   UNL     1      -7.850   7.901  63.881  1.00  0.00    -0.141 A  
HETATM    7  O   UNL     1      -9.300   8.210  68.061  1.00  0.00    -0.136 OA 
HETATM    8  C   UNL     1      -8.580   7.129  66.107  1.00  0.00    -0.146 A  
HETATM    9  O   UNL     1      -7.067   4.018  65.823  1.00  0.00    -0.064 OA 
HETATM   10  S   UNL     1      -8.417   4.510  65.774  1.00  0.00    -0.117 S  
HETATM   11  H   UNL     1      -9.127   9.052  67.657  1.00  0.00     0.000 HD 
HETATM   12  S   UNL     1      -8.339   8.647  65.319  1.00  0.00    -0.176 SA 
HETATM   13  C   UNL     1      -8.256   6.119  65.240  1.00  0.00    -0.142 A  
HETATM   14 CL   UNL     1      -7.439   8.859  62.516  1.00  0.00    -0.100 Cl 
HETATM   15  C   UNL     1      -7.837   6.534  63.951  1.00  0.00    -0.109 A  
ENDROOT
BRANCH   3  16
HETATM   16  C   UNL     1      -9.975   5.842  69.392  1.00  0.00    -0.178 C  
HETATM   17  N   UNL     1      -9.136   5.780  70.475  1.00  0.00    -0.145 N  
HETATM   18  O   UNL     1     -11.181   6.085  69.479  1.00  0.00    -0.398 OA 
HETATM   19  H   UNL     1      -8.146   5.606  70.307  1.00  0.00     0.000 HD 
BRANCH  17  20
HETATM   20  C   UNL     1      -9.562   5.941  71.800  1.00  0.00    -0.151 A  
HETATM   21  C   UNL     1      -9.535   7.162  72.470  1.00  0.00    -0.167 A  
HETATM   22  C   UNL     1     -10.285   6.022  74.445  1.00  0.00    -0.309 A  
HETATM   23  C   UNL     1      -9.917   7.201  73.811  1.00  0.00    -0.373 A  
HETATM   24  C   UNL     1     -10.309   4.861  73.691  1.00  0.00    -0.214 A  
HETATM   25  N   UNL     1      -9.998   4.804  72.375  1.00  0.00    -0.167 NA 
ENDBRANCH  17  20
ENDBRANCH   3  16
TORSDOF 2
ENDMDL
MODEL      104
REMARK 921   NORMALIZED FREE ENERGY PREDICTED BY IDOCK:   -3.49 KCAL/MOL
REMARK 922        TOTAL FREE ENERGY PREDICTED BY IDOCK:   -4.51 KCAL/MOL
REMARK 923 INTER-LIGAND FREE ENERGY PREDICTED BY IDOCK:   -3.87 KCAL/MOL
REMARK 924 INTRA-LIGAND FREE ENERGY PREDICTED BY IDOCK:   -0.64 KCAL/MOL
REMARK 927      BINDING AFFINITY PREDICTED BY RF-SCORE:    0.00 PKD
ROOT
HETATM    1  C   UNL     1      -8.152   2.753  70.668  1.00  0.00    -0.045 C  
HETATM    2  N   UNL     1      -9.121   3.839  70.473  1.00  0.00    -0.106 N  
HETATM    3  C   UNL     1      -9.484   4.465  69.213  1.00  0.00    -0.179 C  
HETATM    4  O   UNL     1      -8.658   4.981  72.715  1.00  0.00    -0.118 OA 
HETATM    5  C   UNL     1     -10.353   5.512  69.147  1.00  0.00    -0.248 C  
HETATM    6  C   UNL     1     -12.086   7.564  71.939  1.00  0.00    -0.305 A  
HETATM    7  O   UNL     1     -10.759   6.112  67.964  1.00  0.00    -0.239 OA 
HETATM    8  C   UNL     1     -10.934   6.121  70.303  1.00  0.00    -0.349 A  
HETATM    9  O   UNL     1     -10.644   3.429  72.476  1.00  0.00    -0.112 OA 
HETATM   10  S   UNL     1      -9.746   4.414  71.937  1.00  0.00    -0.178 S  
HETATM   11  H   UNL     1     -11.364   6.842  67.917  1.00  0.00     0.000 HD 
HETATM   12  S   UNL     1     -11.967   7.504  70.252  1.00  0.00     0.235 SA 
HETATM   13  C   UNL     1     -10.742   5.755  71.609  1.00  0.00    -0.256 A  
HETATM   14 CL   UNL     1     -13.010   8.802  72.689  1.00  0.00    -0.392 Cl 
HETATM   15  C   UNL     1     -11.390   6.570  72.572  1.00  0.00    -0.299 A  
ENDROOT
BRANCH   3  16
HETATM   16  C   UNL     1      -8.886   4.034  67.886  1.00  0.00    -0.111 C  
HETATM   17  N   UNL     1      -9.757   3.589  66.925  1.00  0.00    -0.384 N  
HETATM   18  O   UNL     1      -7.686   4.231  67.679  1.00  0.00    -0.082 OA 
HETATM   19  H   UNL     1     -10.739   3.485  67.177  1.00  0.00     0.000 HD 
BRANCH  17  20
HETATM   20  C   UNL     1      -9.374   3.269  65.616  1.00  0.00    -0.128 A  
HETATM   21  C   UNL     1      -8.899   2.014  65.242  1.00  0.00    -0.120 A  
HETATM   22  C   UNL     1      -8.522   2.885  63.037  1.00  0.00    -0.085 A  
HETATM   23  C   UNL     1      -8.480   1.820  63.926  1.00  0.00    -0.077 A  
HETATM   24  C   UNL     1      -9.037   4.087  63.491  1.00  0.00    -0.128 A  
HETATM   25  N   UNL     1      -9.503   4.288  64.745  1.00  0.00    -0.162 NA 
ENDBRANCH  17  20
ENDBRANCH   3  16
TORSDOF 2
ENDMDL
MODEL      105
REMARK 921   NORMALIZED FREE ENERGY PREDICTED BY IDOCK:   -3.40 KCAL/MOL
REMARK 922        TOTAL FREE ENERGY PREDICTED BY IDOCK:   -4.41 KCAL/MOL
REMARK 923 INTER-LIGAND FREE ENERGY PREDICTED BY IDOCK:   -3.82 KCAL/MOL
REMARK 924 INTRA-LIGAND FREE ENERGY PREDICTED BY IDOCK:   -0.59 KCAL/MOL
REMARK 927      BINDING AFFINITY PREDICTED BY RF-SCORE:    0.00 PKD
ROOT
HETATM    1  C   UNL     1      -8.586   9.986  65.683  1.00  0.00    -0.155 C  
HETATM    2  N   UNL     1      -8.760   9.506  67.059  1.00  0.00    -0.127 N  
HETATM    3  C   UNL     1      -8.290  10.154  68.271  1.00  0.00    -0.115 C  
HETATM    4  O   UNL     1      -8.649   7.020  66.466  1.00  0.00    -0.119 OA 
HETATM    5  C   UNL     1      -8.449   9.594  69.503  1.00  0.00    -0.159 C  
HETATM    6  C   UNL     1      -9.844   6.140  70.568  1.00  0.00    -0.178 A  
HETATM    7  O   UNL     1      -8.053  10.196  70.689  1.00  0.00    -0.390 OA 
HETATM    8  C   UNL     1      -9.035   8.305  69.706  1.00  0.00    -0.146 A  
HETATM    9  O   UNL     1     -10.896   8.144  66.780  1.00  0.00    -0.197 OA 
HETATM   10  S   UNL     1      -9.509   7.990  67.123  1.00  0.00    -0.174 S  
HETATM   11  H   UNL     1      -8.164   9.805  71.547  1.00  0.00     0.000 HD 
HETATM   12  S   UNL     1      -9.168   7.535  71.246  1.00  0.00    -0.149 SA 
HETATM   13  C   UNL     1      -9.533   7.467  68.743  1.00  0.00    -0.148 A  
HETATM   14 CL   UNL     1     -10.251   4.809  71.574  1.00  0.00    -0.267 Cl 
HETATM   15  C   UNL     1     -10.001   6.213  69.210  1.00  0.00    -0.196 A  
ENDROOT
BRANCH   3  16
HETATM   16  C   UNL     1      -7.542  11.475  68.253  1.00  0.00    -0.115 C  
HETATM   17  N   UNL     1      -8.294  12.619  68.335  1.00  0.00    -0.253 N  
HETATM   18  O   UNL     1      -6.310  11.466  68.309  1.00  0.00    -0.046 OA 
HETATM   19  H   UNL     1      -9.310  12.529  68.312  1.00  0.00     0.000 HD 
BRANCH  17  20
HETATM   20  C   UNL     1      -7.748  13.904  68.447  1.00  0.00    -0.139 A  
HETATM   21  C   UNL     1      -7.077  14.354  69.582  1.00  0.00    -0.049 A  
HETATM   22  C   UNL     1      -6.891  16.508  68.539  1.00  0.00    -0.151 A  
HETATM   23  C   UNL     1      -6.631  15.675  69.618  1.00  0.00    -0.181 A  
HETATM   24  C   UNL     1      -7.540  15.965  67.443  1.00  0.00    -0.179 A  
HETATM   25  N   UNL     1      -7.933  14.673  67.358  1.00  0.00    -0.190 NA 
ENDBRANCH  17  20
ENDBRANCH   3  16
TORSDOF 2
ENDMDL
MODEL      106
REMARK 921   NORMALIZED FREE ENERGY PREDICTED BY IDOCK:   -3.36 KCAL/MOL
REMARK 922        TOTAL FREE ENERGY PREDICTED BY IDOCK:   -4.37 KCAL/MOL
REMARK 923 INTER-LIGAND FREE ENERGY PREDICTED BY IDOCK:   -4.42 KCAL/MOL
REMARK 924 INTRA-LIGAND FREE ENERGY PREDICTED BY IDOCK:    0.05 KCAL/MOL
REMARK 927      BINDING AFFINITY PREDICTED BY RF-SCORE:    0.00 PKD
ROOT
HETATM    1  C   UNL     1      -6.632  11.402  68.662  1.00  0.00    -0.062 C  
HETATM    2  N   UNL     1      -7.605  10.321  68.458  1.00  0.00    -0.086 N  
HETATM    3  C   UNL     1      -9.018  10.469  68.156  1.00  0.00    -0.138 C  
HETATM    4  O   UNL     1      -6.515   8.699  70.110  1.00  0.00    -0.037 OA 
HETATM    5  C   UNL     1      -9.853   9.398  68.046  1.00  0.00    -0.164 C  
HETATM    6  C   UNL     1      -9.244   5.621  68.660  1.00  0.00    -0.122 A  
HETATM    7  O   UNL     1     -11.198   9.490  67.718  1.00  0.00    -0.500 OA 
HETATM    8  C   UNL     1      -9.430   8.050  68.272  1.00  0.00    -0.141 A  
HETATM    9  O   UNL     1      -6.045   8.481  67.632  1.00  0.00    -0.046 OA 
HETATM   10  S   UNL     1      -6.931   8.791  68.721  1.00  0.00    -0.063 S  
HETATM   11  H   UNL     1     -11.779   8.743  67.642  1.00  0.00     0.000 HD 
HETATM   12  S   UNL     1     -10.486   6.684  68.225  1.00  0.00    -0.232 SA 
HETATM   13  C   UNL     1      -8.168   7.628  68.599  1.00  0.00    -0.128 A  
HETATM   14 CL   UNL     1      -9.576   3.947  68.851  1.00  0.00    -0.231 Cl 
HETATM   15  C   UNL     1      -8.032   6.236  68.831  1.00  0.00    -0.109 A  
ENDROOT
BRANCH   3  16
HETATM   16  C   UNL     1      -9.680  11.825  67.992  1.00  0.00    -0.185 C  
HETATM   17  N   UNL     1     -10.297  12.355  69.096  1.00  0.00    -0.424 N  
HETATM   18  O   UNL     1      -9.517  12.447  66.939  1.00  0.00    -0.207 OA 
HETATM   19  H   UNL     1     -10.359  11.780  69.935  1.00  0.00     0.000 HD 
BRANCH  17  20
HETATM   20  C   UNL     1     -10.848  13.642  69.137  1.00  0.00    -0.152 A  
HETATM   21  C   UNL     1     -11.934  13.986  69.939  1.00  0.00    -0.399 A  
HETATM   22  C   UNL     1     -11.885  16.176  68.957  1.00  0.00    -0.181 A  
HETATM   23  C   UNL     1     -12.448  15.280  69.854  1.00  0.00    -0.275 A  
HETATM   24  C   UNL     1     -10.789  15.754  68.222  1.00  0.00    -0.305 A  
HETATM   25  N   UNL     1     -10.234  14.525  68.325  1.00  0.00    -0.229 NA 
ENDBRANCH  17  20
ENDBRANCH   3  16
TORSDOF 2
ENDMDL
MODEL      107
REMARK 921   NORMALIZED FREE ENERGY PREDICTED BY IDOCK:   -3.30 KCAL/MOL
REMARK 922        TOTAL FREE ENERGY PREDICTED BY IDOCK:   -4.30 KCAL/MOL
REMARK 923 INTER-LIGAND FREE ENERGY PREDICTED BY IDOCK:   -3.67 KCAL/MOL
REMARK 924 INTRA-LIGAND FREE ENERGY PREDICTED BY IDOCK:   -0.63 KCAL/MOL
REMARK 927      BINDING AFFINITY PREDICTED BY RF-SCORE:    0.00 PKD
ROOT
HETATM    1  C   UNL     1     -12.917   8.797  72.881  1.00  0.00     0.101 C  
HETATM    2  N   UNL     1     -11.685   8.777  72.082  1.00  0.00    -0.369 N  
HETATM    3  C   UNL     1     -11.291   9.741  71.068  1.00  0.00    -0.387 C  
HETATM    4  O   UNL     1     -11.504   6.228  71.978  1.00  0.00    -0.282 OA 
HETATM    5  C   UNL     1     -10.151   9.599  70.336  1.00  0.00    -0.276 C  
HETATM    6  C   UNL     1      -7.551   6.729  70.204  1.00  0.00    -0.099 A  
HETATM    7  O   UNL     1      -9.715  10.514  69.389  1.00  0.00    -0.280 OA 
HETATM    8  C   UNL     1      -9.279   8.472  70.458  1.00  0.00    -0.156 A  
HETATM    9  O   UNL     1     -10.149   7.521  73.682  1.00  0.00    -0.327 OA 
HETATM   10  S   UNL     1     -10.747   7.401  72.380  1.00  0.00    -0.276 S  
HETATM   11  H   UNL     1      -8.921  10.414  68.878  1.00  0.00     0.000 HD 
HETATM   12  S   UNL     1      -7.876   8.224  69.481  1.00  0.00    -0.105 SA 
HETATM   13  C   UNL     1      -9.424   7.407  71.308  1.00  0.00    -0.154 A  
HETATM   14 CL   UNL     1      -6.204   5.800  69.682  1.00  0.00    -0.031 Cl 
HETATM   15  C   UNL     1      -8.447   6.388  71.181  1.00  0.00    -0.124 A  
ENDROOT
BRANCH   3  16
HETATM   16  C   UNL     1     -12.143  10.946  70.713  1.00  0.00    -0.368 C  
HETATM   17  N   UNL     1     -11.871  12.118  71.372  1.00  0.00     0.365 N  
HETATM   18  O   UNL     1     -12.931  10.864  69.767  1.00  0.00    -0.121 OA 
HETATM   19  H   UNL     1     -11.181  12.098  72.122  1.00  0.00     0.000 HD 
BRANCH  17  20
HETATM   20  C   UNL     1     -12.487  13.339  71.073  1.00  0.00    -0.336 A  
HETATM   21  C   UNL     1     -13.458  13.926  71.882  1.00  0.00    -0.511 A  
HETATM   22  C   UNL     1     -13.693  15.657  70.235  1.00  0.00     0.906 A  
HETATM   23  C   UNL     1     -14.058  15.112  71.458  1.00  0.00    -0.636 A  
HETATM   24  C   UNL     1     -12.698  15.020  69.513  1.00  0.00     0.123 A  
HETATM   25  N   UNL     1     -12.059  13.900  69.926  1.00  0.00    -0.328 NA 
ENDBRANCH  17  20
ENDBRANCH   3  16
TORSDOF 2
ENDMDL
MODEL      108
REMARK 921   NORMALIZED FREE ENERGY PREDICTED BY IDOCK:   -3.26 KCAL/MOL
REMARK 922        TOTAL FREE ENERGY PREDICTED BY IDOCK:   -4.25 KCAL/MOL
REMARK 923 INTER-LIGAND FREE ENERGY PREDICTED BY IDOCK:   -4.20 KCAL/MOL
REMARK 924 INTRA-LIGAND FREE ENERGY PREDICTED BY IDOCK:   -0.06 KCAL/MOL
REMARK 927      BINDING AFFINITY PREDICTED BY RF-SCORE:    0.00 PKD
ROOT
HETATM    1  C   UNL     1      -6.021  14.471  67.448  1.00  0.00     0.281 C  
HETATM    2  N   UNL     1      -7.461  14.267  67.648  1.00  0.00    -0.165 N  
HETATM    3  C   UNL     1      -8.496  15.286  67.614  1.00  0.00    -0.161 C  
HETATM    4  O   UNL     1      -7.205  12.346  69.318  1.00  0.00    -0.002 OA 
HETATM    5  C   UNL     1      -9.803  15.002  67.874  1.00  0.00    -0.217 C  
HETATM    6  C   UNL     1     -11.513  11.727  69.042  1.00  0.00    -0.297 A  
HETATM    7  O   UNL     1     -10.829  15.933  67.813  1.00  0.00    -0.311 OA 
HETATM    8  C   UNL     1     -10.259  13.701  68.256  1.00  0.00    -0.243 A  
HETATM    9  O   UNL     1      -7.669  11.845  66.880  1.00  0.00    -0.154 OA 
HETATM   10  S   UNL     1      -7.834  12.666  68.049  1.00  0.00    -0.162 S  
HETATM   11  H   UNL     1     -11.740  15.735  67.995  1.00  0.00     0.000 HD 
HETATM   12  S   UNL     1     -11.894  13.335  68.677  1.00  0.00    -0.322 SA 
HETATM   13  C   UNL     1      -9.498  12.570  68.395  1.00  0.00    -0.167 A  
HETATM   14 CL   UNL     1     -12.739  10.663  69.603  1.00  0.00    -0.046 Cl 
HETATM   15  C   UNL     1     -10.193  11.421  68.850  1.00  0.00    -0.184 A  
ENDROOT
BRANCH   3  16
HETATM   16  C   UNL     1      -8.194  16.747  67.339  1.00  0.00    -0.177 C  
HETATM   17  N   UNL     1      -6.991  17.231  67.787  1.00  0.00    -0.158 N  
HETATM   18  O   UNL     1      -8.958  17.390  66.614  1.00  0.00    -0.235 OA 
HETATM   19  H   UNL     1      -6.408  16.617  68.355  1.00  0.00     0.000 HD 
BRANCH  17  20
HETATM   20  C   UNL     1      -6.518  18.520  67.510  1.00  0.00    -0.196 A  
HETATM   21  C   UNL     1      -6.893  19.647  68.238  1.00  0.00    -0.324 A  
HETATM   22  C   UNL     1      -5.610  20.982  66.711  1.00  0.00    -0.271 A  
HETATM   23  C   UNL     1      -6.417  20.895  67.837  1.00  0.00    -0.382 A  
HETATM   24  C   UNL     1      -5.266  19.805  66.067  1.00  0.00    -0.156 A  
HETATM   25  N   UNL     1      -5.667  18.576  66.468  1.00  0.00    -0.149 NA 
ENDBRANCH  17  20
ENDBRANCH   3  16
TORSDOF 2
ENDMDL
MODEL      109
REMARK 921   NORMALIZED FREE ENERGY PREDICTED BY IDOCK:   -3.21 KCAL/MOL
REMARK 922        TOTAL FREE ENERGY PREDICTED BY IDOCK:   -4.19 KCAL/MOL
REMARK 923 INTER-LIGAND FREE ENERGY PREDICTED BY IDOCK:   -3.89 KCAL/MOL
REMARK 924 INTRA-LIGAND FREE ENERGY PREDICTED BY IDOCK:   -0.30 KCAL/MOL
REMARK 927      BINDING AFFINITY PREDICTED BY RF-SCORE:    0.00 PKD
ROOT
HETATM    1  C   UNL     1      -7.995   8.739  67.155  1.00  0.00    -0.096 C  
HETATM    2  N   UNL     1      -8.939   8.240  68.163  1.00  0.00    -0.139 N  
HETATM    3  C   UNL     1      -9.330   6.858  68.379  1.00  0.00    -0.129 C  
HETATM    4  O   UNL     1     -10.445  10.308  68.130  1.00  0.00    -0.167 OA 
HETATM    5  C   UNL     1     -10.265   6.503  69.304  1.00  0.00    -0.187 C  
HETATM    6  C   UNL     1     -12.532   8.662  71.587  1.00  0.00    -0.335 A  
HETATM    7  O   UNL     1     -10.638   5.194  69.573  1.00  0.00    -0.239 OA 
HETATM    8  C   UNL     1     -10.980   7.456  70.097  1.00  0.00    -0.255 A  
HETATM    9  O   UNL     1      -8.686  10.056  69.933  1.00  0.00    -0.197 OA 
HETATM   10  S   UNL     1      -9.663   9.492  69.042  1.00  0.00    -0.177 S  
HETATM   11  H   UNL     1     -11.289   4.948  70.218  1.00  0.00     0.000 HD 
HETATM   12  S   UNL     1     -12.232   7.040  71.213  1.00  0.00    -0.386 SA 
HETATM   13  C   UNL     1     -10.835   8.818  70.076  1.00  0.00    -0.223 A  
HETATM   14 CL   UNL     1     -13.771   9.067  72.705  1.00  0.00    -0.481 Cl 
HETATM   15  C   UNL     1     -11.717   9.537  70.921  1.00  0.00    -0.391 A  
ENDROOT
BRANCH   3  16
HETATM   16  C   UNL     1      -8.766   5.712  67.558  1.00  0.00    -0.107 C  
HETATM   17  N   UNL     1      -7.402   5.644  67.436  1.00  0.00    -0.076 N  
HETATM   18  O   UNL     1      -9.529   4.828  67.161  1.00  0.00    -0.131 OA 
HETATM   19  H   UNL     1      -6.846   6.407  67.822  1.00  0.00     0.000 HD 
BRANCH  17  20
HETATM   20  C   UNL     1      -6.727   4.587  66.813  1.00  0.00    -0.051 A  
HETATM   21  C   UNL     1      -6.187   3.507  67.507  1.00  0.00    -0.036 A  
HETATM   22  C   UNL     1      -5.300   2.696  65.430  1.00  0.00    -0.009 A  
HETATM   23  C   UNL     1      -5.474   2.541  66.798  1.00  0.00    -0.017 A  
HETATM   24  C   UNL     1      -5.897   3.786  64.820  1.00  0.00    -0.022 A  
HETATM   25  N   UNL     1      -6.641   4.708  65.474  1.00  0.00    -0.040 NA 
ENDBRANCH  17  20
ENDBRANCH   3  16
TORSDOF 2
ENDMDL
MODEL      110
REMARK 921   NORMALIZED FREE ENERGY PREDICTED BY IDOCK:   -3.04 KCAL/MOL
REMARK 922        TOTAL FREE ENERGY PREDICTED BY IDOCK:   -4.00 KCAL/MOL
REMARK 923 INTER-LIGAND FREE ENERGY PREDICTED BY IDOCK:   -3.53 KCAL/MOL
REMARK 924 INTRA-LIGAND FREE ENERGY PREDICTED BY IDOCK:   -0.47 KCAL/MOL
REMARK 927      BINDING AFFINITY PREDICTED BY RF-SCORE:    0.00 PKD
ROOT
HETATM    1  C   UNL     1     -10.470   5.897  69.162  1.00  0.00    -0.270 C  
HETATM    2  N   UNL     1      -9.783   6.906  68.346  1.00  0.00    -0.136 N  
HETATM    3  C   UNL     1      -9.169   6.699  67.046  1.00  0.00    -0.135 C  
HETATM    4  O   UNL     1      -8.854   8.230  70.327  1.00  0.00    -0.137 OA 
HETATM    5  C   UNL     1      -8.499   7.690  66.394  1.00  0.00    -0.137 C  
HETATM    6  C   UNL     1      -7.577  11.290  67.493  1.00  0.00    -0.110 A  
HETATM    7  O   UNL     1      -7.933   7.550  65.135  1.00  0.00    -0.115 OA 
HETATM    8  C   UNL     1      -8.292   8.991  66.951  1.00  0.00    -0.119 A  
HETATM    9  O   UNL     1     -10.964   9.010  69.166  1.00  0.00    -0.140 OA 
HETATM   10  S   UNL     1      -9.664   8.399  69.133  1.00  0.00    -0.174 S  
HETATM   11  H   UNL     1      -7.466   8.241  64.681  1.00  0.00     0.000 HD 
HETATM   12  S   UNL     1      -7.371  10.237  66.185  1.00  0.00    -0.127 SA 
HETATM   13  C   UNL     1      -8.733   9.446  68.166  1.00  0.00    -0.124 A  
HETATM   14 CL   UNL     1      -6.857  12.848  67.459  1.00  0.00    -0.154 Cl 
HETATM   15  C   UNL     1      -8.334  10.763  68.505  1.00  0.00    -0.138 A  
ENDROOT
BRANCH   3  16
HETATM   16  C   UNL     1      -9.182   5.355  66.341  1.00  0.00    -0.147 C  
HETATM   17  N   UNL     1      -9.651   5.331  65.052  1.00  0.00    -0.354 N  
HETATM   18  O   UNL     1      -8.651   4.386  66.890  1.00  0.00    -0.105 OA 
HETATM   19  H   UNL     1     -10.046   6.189  64.668  1.00  0.00     0.000 HD 
BRANCH  17  20
HETATM   20  C   UNL     1      -9.618   4.196  64.232  1.00  0.00    -0.155 A  
HETATM   21  C   UNL     1      -8.445   3.680  63.686  1.00  0.00    -0.091 A  
HETATM   22  C   UNL     1      -9.777   2.059  62.519  1.00  0.00    -0.089 A  
HETATM   23  C   UNL     1      -8.529   2.584  62.827  1.00  0.00    -0.074 A  
HETATM   24  C   UNL     1     -10.884   2.619  63.132  1.00  0.00    -0.230 A  
HETATM   25  N   UNL     1     -10.827   3.645  64.013  1.00  0.00    -0.268 NA 
ENDBRANCH  17  20
ENDBRANCH   3  16
TORSDOF 2
ENDMDL
MODEL      111
REMARK 921   NORMALIZED FREE ENERGY PREDICTED BY IDOCK:   -2.97 KCAL/MOL
REMARK 922        TOTAL FREE ENERGY PREDICTED BY IDOCK:   -3.93 KCAL/MOL
REMARK 923 INTER-LIGAND FREE ENERGY PREDICTED BY IDOCK:   -3.25 KCAL/MOL
REMARK 924 INTRA-LIGAND FREE ENERGY PREDICTED BY IDOCK:   -0.68 KCAL/MOL
REMARK 927      BINDING AFFINITY PREDICTED BY RF-SCORE:    0.00 PKD
ROOT
HETATM    1  C   UNL     1     -11.158   6.039  69.286  1.00  0.00    -0.354 C  
HETATM    2  N   UNL     1      -9.967   6.821  68.932  1.00  0.00    -0.151 N  
HETATM    3  C   UNL     1      -9.024   6.533  67.865  1.00  0.00    -0.115 C  
HETATM    4  O   UNL     1      -9.450   7.570  71.322  1.00  0.00    -0.151 OA 
HETATM    5  C   UNL     1      -7.911   7.290  67.656  1.00  0.00    -0.113 C  
HETATM    6  C   UNL     1      -6.430  10.249  69.672  1.00  0.00    -0.069 A  
HETATM    7  O   UNL     1      -7.007   7.077  66.626  1.00  0.00    -0.068 OA 
HETATM    8  C   UNL     1      -7.544   8.389  68.495  1.00  0.00    -0.096 A  
HETATM    9  O   UNL     1     -10.695   9.121  69.756  1.00  0.00    -0.224 OA 
HETATM   10  S   UNL     1      -9.703   8.109  69.998  1.00  0.00    -0.173 S  
HETATM   11  H   UNL     1      -6.231   7.605  66.481  1.00  0.00     0.000 HD 
HETATM   12  S   UNL     1      -6.093   9.308  68.306  1.00  0.00    -0.053 SA 
HETATM   13  C   UNL     1      -8.231   8.857  69.585  1.00  0.00    -0.114 A  
HETATM   14 CL   UNL     1      -5.324  11.466  70.166  1.00  0.00    -0.079 Cl 
HETATM   15  C   UNL     1      -7.611   9.925  70.283  1.00  0.00    -0.172 A  
ENDROOT
BRANCH   3  16
HETATM   16  C   UNL     1      -9.180   5.342  66.938  1.00  0.00    -0.121 C  
HETATM   17  N   UNL     1      -9.434   5.608  65.616  1.00  0.00    -0.357 N  
HETATM   18  O   UNL     1      -8.935   4.212  67.369  1.00  0.00    -0.111 OA 
HETATM   19  H   UNL     1      -9.594   6.577  65.344  1.00  0.00     0.000 HD 
BRANCH  17  20
HETATM   20  C   UNL     1      -9.487   4.625  64.620  1.00  0.00    -0.046 A  
HETATM   21  C   UNL     1     -10.665   3.993  64.228  1.00  0.00    -0.191 A  
HETATM   22  C   UNL     1      -9.361   2.609  62.763  1.00  0.00    -0.090 A  
HETATM   23  C   UNL     1     -10.597   2.979  63.274  1.00  0.00    -0.228 A  
HETATM   24  C   UNL     1      -8.247   3.313  63.190  1.00  0.00    -0.081 A  
HETATM   25  N   UNL     1      -8.290   4.339  64.072  1.00  0.00    -0.099 NA 
ENDBRANCH  17  20
ENDBRANCH   3  16
TORSDOF 2
ENDMDL
MODEL      112
REMARK 921   NORMALIZED FREE ENERGY PREDICTED BY IDOCK:   -2.88 KCAL/MOL
REMARK 922        TOTAL FREE ENERGY PREDICTED BY IDOCK:   -3.82 KCAL/MOL
REMARK 923 INTER-LIGAND FREE ENERGY PREDICTED BY IDOCK:   -3.40 KCAL/MOL
REMARK 924 INTRA-LIGAND FREE ENERGY PREDICTED BY IDOCK:   -0.43 KCAL/MOL
REMARK 927      BINDING AFFINITY PREDICTED BY RF-SCORE:    0.00 PKD
ROOT
HETATM    1  C   UNL     1      -9.277   2.727  68.830  1.00  0.00    -0.161 C  
HETATM    2  N   UNL     1      -9.270   4.062  69.441  1.00  0.00    -0.132 N  
HETATM    3  C   UNL     1      -9.448   5.331  68.756  1.00  0.00    -0.128 C  
HETATM    4  O   UNL     1      -7.569   3.488  71.263  1.00  0.00    -0.046 OA 
HETATM    5  C   UNL     1      -9.362   6.525  69.407  1.00  0.00    -0.143 C  
HETATM    6  C   UNL     1      -8.413   7.368  73.067  1.00  0.00    -0.120 A  
HETATM    7  O   UNL     1      -9.566   7.757  68.802  1.00  0.00    -0.152 OA 
HETATM    8  C   UNL     1      -9.036   6.637  70.795  1.00  0.00    -0.151 A  
HETATM    9  O   UNL     1     -10.044   3.470  71.796  1.00  0.00    -0.163 OA 
HETATM   10  S   UNL     1      -8.913   4.012  71.094  1.00  0.00    -0.114 S  
HETATM   11  H   UNL     1      -9.506   8.590  69.256  1.00  0.00     0.000 HD 
HETATM   12  S   UNL     1      -8.835   8.141  71.623  1.00  0.00    -0.172 SA 
HETATM   13  C   UNL     1      -8.790   5.611  71.668  1.00  0.00    -0.136 A  
HETATM   14 CL   UNL     1      -8.014   8.301  74.453  1.00  0.00    -0.307 Cl 
HETATM   15  C   UNL     1      -8.425   6.001  72.981  1.00  0.00    -0.119 A  
ENDROOT
BRANCH   3  16
HETATM   16  C   UNL     1      -9.690   5.425  67.261  1.00  0.00    -0.144 C  
HETATM   17  N   UNL     1      -8.702   4.948  66.437  1.00  0.00    -0.113 N  
HETATM   18  O   UNL     1     -10.798   5.785  66.855  1.00  0.00    -0.295 OA 
HETATM   19  H   UNL     1      -7.828   4.642  66.864  1.00  0.00     0.000 HD 
BRANCH  17  20
HETATM   20  C   UNL     1      -8.825   4.857  65.045  1.00  0.00    -0.154 A  
HETATM   21  C   UNL     1      -8.158   5.701  64.160  1.00  0.00    -0.129 A  
HETATM   22  C   UNL     1      -9.321   4.625  62.357  1.00  0.00    -0.095 A  
HETATM   23  C   UNL     1      -8.403   5.570  62.793  1.00  0.00    -0.097 A  
HETATM   24  C   UNL     1      -9.913   3.810  63.307  1.00  0.00    -0.162 A  
HETATM   25  N   UNL     1      -9.652   3.877  64.633  1.00  0.00    -0.164 NA 
ENDBRANCH  17  20
ENDBRANCH   3  16
TORSDOF 2
ENDMDL
MODEL      113
REMARK 921   NORMALIZED FREE ENERGY PREDICTED BY IDOCK:   -2.83 KCAL/MOL
REMARK 922        TOTAL FREE ENERGY PREDICTED BY IDOCK:   -3.77 KCAL/MOL
REMARK 923 INTER-LIGAND FREE ENERGY PREDICTED BY IDOCK:   -3.30 KCAL/MOL
REMARK 924 INTRA-LIGAND FREE ENERGY PREDICTED BY IDOCK:   -0.47 KCAL/MOL
REMARK 927      BINDING AFFINITY PREDICTED BY RF-SCORE:    0.00 PKD
ROOT
HETATM    1  C   UNL     1     -11.496   9.380  68.873  1.00  0.00     0.410 C  
HETATM    2  N   UNL     1     -10.425   8.687  68.145  1.00  0.00    -0.211 N  
HETATM    3  C   UNL     1      -9.934   7.343  68.395  1.00  0.00    -0.164 C  
HETATM    4  O   UNL     1      -9.055  10.793  67.663  1.00  0.00    -0.145 OA 
HETATM    5  C   UNL     1      -8.890   6.811  67.701  1.00  0.00    -0.117 C  
HETATM    6  C   UNL     1      -6.530   8.375  65.056  1.00  0.00    -0.060 A  
HETATM    7  O   UNL     1      -8.415   5.519  67.878  1.00  0.00    -0.100 OA 
HETATM    8  C   UNL     1      -8.154   7.540  66.715  1.00  0.00    -0.123 A  
HETATM    9  O   UNL     1     -10.601   9.860  65.889  1.00  0.00    -0.079 OA 
HETATM   10  S   UNL     1      -9.690   9.676  66.986  1.00  0.00    -0.192 S  
HETATM   11  H   UNL     1      -7.687   5.148  67.394  1.00  0.00     0.000 HD 
HETATM   12  S   UNL     1      -6.772   6.920  65.885  1.00  0.00    -0.053 SA 
HETATM   13  C   UNL     1      -8.380   8.828  66.305  1.00  0.00    -0.118 A  
HETATM   14 CL   UNL     1      -5.208   8.533  63.971  1.00  0.00    -0.048 Cl 
HETATM   15  C   UNL     1      -7.459   9.335  65.354  1.00  0.00    -0.098 A  
ENDROOT
BRANCH   3  16
HETATM   16  C   UNL     1     -10.512   6.452  69.480  1.00  0.00    -0.230 C  
HETATM   17  N   UNL     1      -9.649   6.010  70.450  1.00  0.00    -0.162 N  
HETATM   18  O   UNL     1     -11.733   6.282  69.527  1.00  0.00    -0.360 OA 
HETATM   19  H   UNL     1      -8.657   6.224  70.345  1.00  0.00     0.000 HD 
BRANCH  17  20
HETATM   20  C   UNL     1     -10.050   5.281  71.576  1.00  0.00    -0.192 A  
HETATM   21  C   UNL     1     -10.599   5.870  72.714  1.00  0.00    -0.257 A  
HETATM   22  C   UNL     1     -10.625   3.702  73.745  1.00  0.00    -0.287 A  
HETATM   23  C   UNL     1     -10.903   5.061  73.809  1.00  0.00    -0.366 A  
HETATM   24  C   UNL     1     -10.106   3.202  72.563  1.00  0.00    -0.161 A  
HETATM   25  N   UNL     1      -9.855   3.954  71.466  1.00  0.00    -0.186 NA 
ENDBRANCH  17  20
ENDBRANCH   3  16
TORSDOF 2
ENDMDL
MODEL      114
REMARK 921   NORMALIZED FREE ENERGY PREDICTED BY IDOCK:   -2.83 KCAL/MOL
REMARK 922        TOTAL FREE ENERGY PREDICTED BY IDOCK:   -3.77 KCAL/MOL
REMARK 923 INTER-LIGAND FREE ENERGY PREDICTED BY IDOCK:   -3.62 KCAL/MOL
REMARK 924 INTRA-LIGAND FREE ENERGY PREDICTED BY IDOCK:   -0.15 KCAL/MOL
REMARK 927      BINDING AFFINITY PREDICTED BY RF-SCORE:    0.00 PKD
ROOT
HETATM    1  C   UNL     1     -10.617   8.115  66.878  1.00  0.00    -0.241 C  
HETATM    2  N   UNL     1      -9.685   9.243  67.006  1.00  0.00    -0.172 N  
HETATM    3  C   UNL     1      -8.354   9.208  67.587  1.00  0.00    -0.116 C  
HETATM    4  O   UNL     1     -11.496  11.019  67.340  1.00  0.00    -0.475 OA 
HETATM    5  C   UNL     1      -7.588  10.327  67.715  1.00  0.00    -0.089 C  
HETATM    6  C   UNL     1      -8.380  14.050  66.990  1.00  0.00    -0.104 A  
HETATM    7  O   UNL     1      -6.298  10.333  68.225  1.00  0.00    -0.048 OA 
HETATM    8  C   UNL     1      -8.044  11.632  67.348  1.00  0.00    -0.153 A  
HETATM    9  O   UNL     1     -10.467  10.680  65.052  1.00  0.00    -0.295 OA 
HETATM   10  S   UNL     1     -10.365  10.702  66.486  1.00  0.00    -0.226 S  
HETATM   11  H   UNL     1      -5.764  11.114  68.315  1.00  0.00     0.000 HD 
HETATM   12  S   UNL     1      -7.127  13.078  67.582  1.00  0.00    -0.157 SA 
HETATM   13  C   UNL     1      -9.260  11.957  66.808  1.00  0.00    -0.194 A  
HETATM   14 CL   UNL     1      -8.189  15.756  66.940  1.00  0.00    -0.265 Cl 
HETATM   15  C   UNL     1      -9.482  13.341  66.595  1.00  0.00    -0.262 A  
ENDROOT
BRANCH   3  16
HETATM   16  C   UNL     1      -7.738   7.935  68.140  1.00  0.00    -0.125 C  
HETATM   17  N   UNL     1      -8.373   7.345  69.202  1.00  0.00    -0.131 N  
HETATM   18  O   UNL     1      -6.795   7.416  67.536  1.00  0.00    -0.072 OA 
HETATM   19  H   UNL     1      -9.164   7.833  69.620  1.00  0.00     0.000 HD 
BRANCH  17  20
HETATM   20  C   UNL     1      -7.997   6.110  69.746  1.00  0.00    -0.110 A  
HETATM   21  C   UNL     1      -7.701   4.990  68.972  1.00  0.00    -0.080 A  
HETATM   22  C   UNL     1      -7.437   3.736  71.002  1.00  0.00    -0.040 A  
HETATM   23  C   UNL     1      -7.404   3.789  69.615  1.00  0.00    -0.049 A  
HETATM   24  C   UNL     1      -7.712   4.907  71.688  1.00  0.00    -0.097 A  
HETATM   25  N   UNL     1      -7.949   6.098  71.092  1.00  0.00    -0.114 NA 
ENDBRANCH  17  20
ENDBRANCH   3  16
TORSDOF 2
ENDMDL
MODEL      115
REMARK 921   NORMALIZED FREE ENERGY PREDICTED BY IDOCK:   -2.32 KCAL/MOL
REMARK 922        TOTAL FREE ENERGY PREDICTED BY IDOCK:   -3.21 KCAL/MOL
REMARK 923 INTER-LIGAND FREE ENERGY PREDICTED BY IDOCK:   -2.53 KCAL/MOL
REMARK 924 INTRA-LIGAND FREE ENERGY PREDICTED BY IDOCK:   -0.68 KCAL/MOL
REMARK 927      BINDING AFFINITY PREDICTED BY RF-SCORE:    0.00 PKD
ROOT
HETATM    1  C   UNL     1      -6.916   3.596  69.602  1.00  0.00    -0.042 C  
HETATM    2  N   UNL     1      -7.939   4.649  69.557  1.00  0.00    -0.062 N  
HETATM    3  C   UNL     1      -8.000   5.763  68.627  1.00  0.00    -0.101 C  
HETATM    4  O   UNL     1      -8.357   4.688  72.081  1.00  0.00    -0.113 OA 
HETATM    5  C   UNL     1      -8.961   6.725  68.708  1.00  0.00    -0.130 C  
HETATM    6  C   UNL     1     -11.752   7.321  71.328  1.00  0.00    -0.296 A  
HETATM    7  O   UNL     1      -9.081   7.782  67.818  1.00  0.00    -0.134 OA 
HETATM    8  C   UNL     1      -9.950   6.757  69.740  1.00  0.00    -0.177 A  
HETATM    9  O   UNL     1      -9.910   3.385  70.565  1.00  0.00    -0.147 OA 
HETATM   10  S   UNL     1      -9.057   4.513  70.820  1.00  0.00    -0.135 S  
HETATM   11  H   UNL     1      -9.751   8.453  67.875  1.00  0.00     0.000 HD 
HETATM   12  S   UNL     1     -11.124   8.012  69.918  1.00  0.00    -0.031 SA 
HETATM   13  C   UNL     1     -10.105   5.853  70.759  1.00  0.00    -0.199 A  
HETATM   14 CL   UNL     1     -13.041   8.093  72.159  1.00  0.00    -0.290 Cl 
HETATM   15  C   UNL     1     -11.132   6.155  71.689  1.00  0.00    -0.330 A  
ENDROOT
BRANCH   3  16
HETATM   16  C   UNL     1      -6.971   5.967  67.530  1.00  0.00    -0.069 C  
HETATM   17  N   UNL     1      -7.401   5.825  66.236  1.00  0.00    -0.077 N  
HETATM   18  O   UNL     1      -5.849   6.383  67.832  1.00  0.00    -0.015 OA 
HETATM   19  H   UNL     1      -8.357   5.505  66.080  1.00  0.00     0.000 HD 
BRANCH  17  20
HETATM   20  C   UNL     1      -6.605   6.095  65.116  1.00  0.00    -0.043 A  
HETATM   21  C   UNL     1      -6.454   7.368  64.572  1.00  0.00    -0.040 A  
HETATM   22  C   UNL     1      -5.131   6.395  62.822  1.00  0.00    -0.021 A  
HETATM   23  C   UNL     1      -5.692   7.518  63.413  1.00  0.00    -0.045 A  
HETATM   24  C   UNL     1      -5.310   5.174  63.450  1.00  0.00    -0.013 A  
HETATM   25  N   UNL     1      -5.997   5.008  64.604  1.00  0.00    -0.021 NA 
ENDBRANCH  17  20
ENDBRANCH   3  16
TORSDOF 2
ENDMDL
MODEL      116
REMARK 921   NORMALIZED FREE ENERGY PREDICTED BY IDOCK:   -1.88 KCAL/MOL
REMARK 922        TOTAL FREE ENERGY PREDICTED BY IDOCK:   -2.71 KCAL/MOL
REMARK 923 INTER-LIGAND FREE ENERGY PREDICTED BY IDOCK:   -2.30 KCAL/MOL
REMARK 924 INTRA-LIGAND FREE ENERGY PREDICTED BY IDOCK:   -0.41 KCAL/MOL
REMARK 927      BINDING AFFINITY PREDICTED BY RF-SCORE:    0.00 PKD
ROOT
HETATM    1  C   UNL     1     -10.511   6.066  68.171  1.00  0.00    -0.236 C  
HETATM    2  N   UNL     1      -9.420   7.035  68.012  1.00  0.00    -0.126 N  
HETATM    3  C   UNL     1      -8.319   6.957  67.067  1.00  0.00    -0.121 C  
HETATM    4  O   UNL     1      -9.324   7.701  70.480  1.00  0.00    -0.163 OA 
HETATM    5  C   UNL     1      -7.319   7.882  67.040  1.00  0.00    -0.091 C  
HETATM    6  C   UNL     1      -6.572  10.894  69.359  1.00  0.00    -0.095 A  
HETATM    7  O   UNL     1      -6.272   7.869  66.129  1.00  0.00    -0.044 OA 
HETATM    8  C   UNL     1      -7.232   8.967  67.967  1.00  0.00    -0.080 A  
HETATM    9  O   UNL     1     -10.590   9.147  68.831  1.00  0.00    -0.222 OA 
HETATM   10  S   UNL     1      -9.491   8.279  69.158  1.00  0.00    -0.156 S  
HETATM   11  H   UNL     1      -5.575   8.514  66.111  1.00  0.00     0.000 HD 
HETATM   12  S   UNL     1      -5.929  10.101  68.011  1.00  0.00    -0.041 SA 
HETATM   13  C   UNL     1      -8.112   9.260  68.975  1.00  0.00    -0.106 A  
HETATM   14 CL   UNL     1      -5.737  12.227  70.047  1.00  0.00    -0.126 Cl 
HETATM   15  C   UNL     1      -7.756  10.361  69.794  1.00  0.00    -0.126 A  
ENDROOT
BRANCH   3  16
HETATM   16  C   UNL     1      -8.173   5.817  66.076  1.00  0.00    -0.114 C  
HETATM   17  N   UNL     1      -7.174   4.908  66.313  1.00  0.00    -0.075 N  
HETATM   18  O   UNL     1      -9.029   5.674  65.198  1.00  0.00    -0.105 OA 
HETATM   19  H   UNL     1      -6.530   5.092  67.082  1.00  0.00     0.000 HD 
BRANCH  17  20
HETATM   20  C   UNL     1      -6.988   3.741  65.561  1.00  0.00    -0.061 A  
HETATM   21  C   UNL     1      -5.839   3.486  64.816  1.00  0.00    -0.022 A  
HETATM   22  C   UNL     1      -6.877   1.472  64.023  1.00  0.00    -0.030 A  
HETATM   23  C   UNL     1      -5.782   2.324  64.046  1.00  0.00    -0.009 A  
HETATM   24  C   UNL     1      -7.964   1.793  64.819  1.00  0.00    -0.069 A  
HETATM   25  N   UNL     1      -8.024   2.883  65.618  1.00  0.00    -0.085 NA 
ENDBRANCH  17  20
ENDBRANCH   3  16
TORSDOF 2
ENDMDL
MODEL      117
REMARK 921   NORMALIZED FREE ENERGY PREDICTED BY IDOCK:   -1.69 KCAL/MOL
REMARK 922        TOTAL FREE ENERGY PREDICTED BY IDOCK:   -2.50 KCAL/MOL
REMARK 923 INTER-LIGAND FREE ENERGY PREDICTED BY IDOCK:   -1.86 KCAL/MOL
REMARK 924 INTRA-LIGAND FREE ENERGY PREDICTED BY IDOCK:   -0.64 KCAL/MOL
REMARK 927      BINDING AFFINITY PREDICTED BY RF-SCORE:    0.00 PKD
ROOT
HETATM    1  C   UNL     1      -8.369   1.815  68.039  1.00  0.00    -0.060 C  
HETATM    2  N   UNL     1      -8.148   3.161  67.495  1.00  0.00    -0.080 N  
HETATM    3  C   UNL     1      -8.035   4.396  68.252  1.00  0.00    -0.079 C  
HETATM    4  O   UNL     1      -9.448   2.763  65.328  1.00  0.00    -0.129 OA 
HETATM    5  C   UNL     1      -7.892   5.608  67.646  1.00  0.00    -0.097 C  
HETATM    6  C   UNL     1      -7.959   6.607  63.903  1.00  0.00    -0.075 A  
HETATM    7  O   UNL     1      -7.738   6.806  68.328  1.00  0.00    -0.102 OA 
HETATM    8  C   UNL     1      -7.899   5.777  66.226  1.00  0.00    -0.101 A  
HETATM    9  O   UNL     1      -6.924   2.565  65.340  1.00  0.00    -0.049 OA 
HETATM   10  S   UNL     1      -8.140   3.177  65.803  1.00  0.00    -0.087 S  
HETATM   11  H   UNL     1      -7.639   7.650  67.906  1.00  0.00     0.000 HD 
HETATM   12  S   UNL     1      -7.808   7.310  65.434  1.00  0.00    -0.125 SA 
HETATM   13  C   UNL     1      -8.021   4.793  65.280  1.00  0.00    -0.096 A  
HETATM   14 CL   UNL     1      -7.980   7.600  62.502  1.00  0.00    -0.133 Cl 
HETATM   15  C   UNL     1      -8.062   5.242  63.936  1.00  0.00    -0.117 A  
ENDROOT
BRANCH   3  16
HETATM   16  C   UNL     1      -8.119   4.435  69.767  1.00  0.00    -0.060 C  
HETATM   17  N   UNL     1      -6.954   4.672  70.450  1.00  0.00    -0.040 N  
HETATM   18  O   UNL     1      -9.228   4.397  70.306  1.00  0.00    -0.102 OA 
HETATM   19  H   UNL     1      -6.085   4.719  69.918  1.00  0.00     0.000 HD 
BRANCH  17  20
HETATM   20  C   UNL     1      -6.888   4.854  71.837  1.00  0.00    -0.052 A  
HETATM   21  C   UNL     1      -7.264   6.034  72.474  1.00  0.00    -0.086 A  
HETATM   22  C   UNL     1      -6.533   5.074  74.549  1.00  0.00    -0.065 A  
HETATM   23  C   UNL     1      -7.095   6.136  73.855  1.00  0.00    -0.084 A  
HETATM   24  C   UNL     1      -6.216   3.930  73.836  1.00  0.00    -0.024 A  
HETATM   25  N   UNL     1      -6.421   3.783  72.507  1.00  0.00    -0.017 NA 
ENDBRANCH  17  20
ENDBRANCH   3  16
TORSDOF 2
ENDMDL
MODEL      118
REMARK 921   NORMALIZED FREE ENERGY PREDICTED BY IDOCK:   -0.38 KCAL/MOL
REMARK 922        TOTAL FREE ENERGY PREDICTED BY IDOCK:   -1.04 KCAL/MOL
REMARK 923 INTER-LIGAND FREE ENERGY PREDICTED BY IDOCK:   -0.82 KCAL/MOL
REMARK 924 INTRA-LIGAND FREE ENERGY PREDICTED BY IDOCK:   -0.22 KCAL/MOL
REMARK 927      BINDING AFFINITY PREDICTED BY RF-SCORE:    0.00 PKD
ROOT
HETATM    1  C   UNL     1      -8.098   4.912  72.565  1.00  0.00    -0.115 C  
HETATM    2  N   UNL     1      -7.636   5.997  71.689  1.00  0.00    -0.098 N  
HETATM    3  C   UNL     1      -7.325   5.898  70.273  1.00  0.00    -0.080 C  
HETATM    4  O   UNL     1      -6.317   7.228  73.502  1.00  0.00    -0.064 OA 
HETATM    5  C   UNL     1      -6.843   6.954  69.561  1.00  0.00    -0.051 C  
HETATM    6  C   UNL     1      -5.783  10.509  70.679  1.00  0.00    -0.101 A  
HETATM    7  O   UNL     1      -6.572   6.916  68.201  1.00  0.00    -0.054 OA 
HETATM    8  C   UNL     1      -6.547   8.224  70.148  1.00  0.00    -0.036 A  
HETATM    9  O   UNL     1      -8.652   7.997  72.899  1.00  0.00    -0.157 OA 
HETATM   10  S   UNL     1      -7.378   7.440  72.534  1.00  0.00    -0.075 S  
HETATM   11  H   UNL     1      -6.235   7.652  67.704  1.00  0.00     0.000 HD 
HETATM   12  S   UNL     1      -5.851   9.550  69.287  1.00  0.00    -0.034 SA 
HETATM   13  C   UNL     1      -6.714   8.582  71.460  1.00  0.00    -0.073 A  
HETATM   14 CL   UNL     1      -5.126  12.093  70.596  1.00  0.00    -0.107 Cl 
HETATM   15  C   UNL     1      -6.279   9.890  71.795  1.00  0.00     0.357 A  
ENDROOT
BRANCH   3  16
HETATM   16  C   UNL     1      -7.466   4.602  69.496  1.00  0.00    -0.052 C  
HETATM   17  N   UNL     1      -8.111   4.666  68.288  1.00  0.00    -0.084 N  
HETATM   18  O   UNL     1      -6.882   3.594  69.903  1.00  0.00    -0.033 OA 
HETATM   19  H   UNL     1      -8.539   5.551  68.018  1.00  0.00     0.000 HD 
BRANCH  17  20
HETATM   20  C   UNL     1      -8.217   3.585  67.403  1.00  0.00    -0.090 A  
HETATM   21  C   UNL     1      -7.115   2.939  66.848  1.00  0.00    -0.053 A  
HETATM   22  C   UNL     1      -8.631   1.592  65.564  1.00  0.00    -0.108 A  
HETATM   23  C   UNL     1      -7.331   1.917  65.924  1.00  0.00    -0.061 A  
HETATM   24  C   UNL     1      -9.664   2.268  66.190  1.00  0.00     0.533 A  
HETATM   25  N   UNL     1      -9.485   3.224  67.131  1.00  0.00    -0.185 NA 
ENDBRANCH  17  20
ENDBRANCH   3  16
TORSDOF 2
ENDMDL
MODEL      119
REMARK 921   NORMALIZED FREE ENERGY PREDICTED BY IDOCK:    2.96 KCAL/MOL
REMARK 922        TOTAL FREE ENERGY PREDICTED BY IDOCK:    2.69 KCAL/MOL
REMARK 923 INTER-LIGAND FREE ENERGY PREDICTED BY IDOCK:    2.47 KCAL/MOL
REMARK 924 INTRA-LIGAND FREE ENERGY PREDICTED BY IDOCK:    0.22 KCAL/MOL
REMARK 927      BINDING AFFINITY PREDICTED BY RF-SCORE:    0.00 PKD
ROOT
HETATM    1  C   UNL     1     -11.159  13.159  71.196  1.00  0.00     3.001 C  
HETATM    2  N   UNL     1     -11.568  12.803  69.831  1.00  0.00    -0.226 N  
HETATM    3  C   UNL     1     -11.670  11.465  69.275  1.00  0.00    -0.337 C  
HETATM    4  O   UNL     1     -10.575  14.887  68.729  1.00  0.00    -0.232 OA 
HETATM    5  C   UNL     1     -12.001  11.243  67.972  1.00  0.00    -0.057 C  
HETATM    6  C   UNL     1     -12.569  13.704  65.035  1.00  0.00    -0.390 A  
HETATM    7  O   UNL     1     -12.149   9.983  67.411  1.00  0.00     0.867 OA 
HETATM    8  C   UNL     1     -12.217  12.297  67.030  1.00  0.00     0.311 A  
HETATM    9  O   UNL     1     -13.044  14.807  69.281  1.00  0.00     0.549 OA 
HETATM   10  S   UNL     1     -11.828  14.166  68.861  1.00  0.00    -0.346 S  
HETATM   11  H   UNL     1     -12.380   9.828  66.503  1.00  0.00     0.000 HD 
HETATM   12  S   UNL     1     -12.550  12.043  65.354  1.00  0.00     1.233 SA 
HETATM   13  C   UNL     1     -12.156  13.644  67.274  1.00  0.00    -0.345 A  
HETATM   14 CL   UNL     1     -12.838  14.266  63.435  1.00  0.00     0.830 Cl 
HETATM   15  C   UNL     1     -12.351  14.477  66.144  1.00  0.00    -0.229 A  
ENDROOT
BRANCH   3  16
HETATM   16  C   UNL     1     -11.367  10.219  70.088  1.00  0.00    -0.316 C  
HETATM   17  N   UNL     1     -10.693   9.208  69.452  1.00  0.00    -0.283 N  
HETATM   18  O   UNL     1     -11.605  10.222  71.298  1.00  0.00    -0.344 OA 
HETATM   19  H   UNL     1     -10.512   9.305  68.453  1.00  0.00     0.000 HD 
BRANCH  17  20
HETATM   20  C   UNL     1     -10.239   8.050  70.095  1.00  0.00    -0.203 A  
HETATM   21  C   UNL     1      -8.909   7.635  70.079  1.00  0.00    -0.143 A  
HETATM   22  C   UNL     1      -9.574   5.665  71.278  1.00  0.00    -0.198 A  
HETATM   23  C   UNL     1      -8.573   6.429  70.694  1.00  0.00    -0.139 A  
HETATM   24  C   UNL     1     -10.863   6.171  71.271  1.00  0.00    -0.266 A  
HETATM   25  N   UNL     1     -11.207   7.364  70.732  1.00  0.00    -0.266 NA 
ENDBRANCH  17  20
ENDBRANCH   3  16
TORSDOF 2
ENDMDL
MODEL      120
REMARK 921   NORMALIZED FREE ENERGY PREDICTED BY IDOCK:    3.18 KCAL/MOL
REMARK 922        TOTAL FREE ENERGY PREDICTED BY IDOCK:    2.95 KCAL/MOL
REMARK 923 INTER-LIGAND FREE ENERGY PREDICTED BY IDOCK:    2.83 KCAL/MOL
REMARK 924 INTRA-LIGAND FREE ENERGY PREDICTED BY IDOCK:    0.12 KCAL/MOL
REMARK 927      BINDING AFFINITY PREDICTED BY RF-SCORE:    0.00 PKD
ROOT
HETATM    1  C   UNL     1      -6.824  14.271  69.839  1.00  0.00    -0.019 C  
HETATM    2  N   UNL     1      -7.719  14.079  68.691  1.00  0.00    -0.136 N  
HETATM    3  C   UNL     1      -8.760  14.987  68.240  1.00  0.00    -0.166 C  
HETATM    4  O   UNL     1      -7.842  11.533  68.901  1.00  0.00    -0.131 OA 
HETATM    5  C   UNL     1      -9.581  14.687  67.195  1.00  0.00    -0.233 C  
HETATM    6  C   UNL     1      -9.927  11.465  65.071  1.00  0.00    -0.266 A  
HETATM    7  O   UNL     1     -10.559  15.540  66.704  1.00  0.00    -0.299 OA 
HETATM    8  C   UNL     1      -9.532  13.441  66.494  1.00  0.00    -0.245 A  
HETATM    9  O   UNL     1      -6.251  12.586  67.238  1.00  0.00    -0.156 OA 
HETATM   10  S   UNL     1      -7.500  12.574  67.949  1.00  0.00    -0.136 S  
HETATM   11  H   UNL     1     -11.132  15.331  65.976  1.00  0.00     0.000 HD 
HETATM   12  S   UNL     1     -10.619  13.001  65.225  1.00  0.00    -0.313 SA 
HETATM   13  C   UNL     1      -8.674  12.399  66.729  1.00  0.00    -0.160 A  
HETATM   14 CL   UNL     1     -10.557  10.353  63.924  1.00  0.00     0.231 Cl 
HETATM   15  C   UNL     1      -8.881  11.247  65.927  1.00  0.00    -0.174 A  
ENDROOT
BRANCH   3  16
HETATM   16  C   UNL     1      -9.043  16.310  68.927  1.00  0.00    -0.250 C  
HETATM   17  N   UNL     1      -8.113  17.305  68.773  1.00  0.00    -0.263 N  
HETATM   18  O   UNL     1     -10.141  16.481  69.465  1.00  0.00    -0.237 OA 
HETATM   19  H   UNL     1      -7.246  17.081  68.287  1.00  0.00     0.000 HD 
BRANCH  17  20
HETATM   20  C   UNL     1      -8.285  18.612  69.245  1.00  0.00     0.166 A  
HETATM   21  C   UNL     1      -7.225  19.459  69.560  1.00  0.00    -0.199 A  
HETATM   22  C   UNL     1      -8.828  21.082  70.310  1.00  0.00     3.382 A  
HETATM   23  C   UNL     1      -7.506  20.719  70.088  1.00  0.00     2.037 A  
HETATM   24  C   UNL     1      -9.816  20.186  69.938  1.00  0.00     0.479 A  
HETATM   25  N   UNL     1      -9.574  18.981  69.373  1.00  0.00    -0.082 NA 
ENDBRANCH  17  20
ENDBRANCH   3  16
TORSDOF 2
ENDMDL
MODEL      121
REMARK 921   NORMALIZED FREE ENERGY PREDICTED BY IDOCK:   11.05 KCAL/MOL
REMARK 922        TOTAL FREE ENERGY PREDICTED BY IDOCK:   11.73 KCAL/MOL
REMARK 923 INTER-LIGAND FREE ENERGY PREDICTED BY IDOCK:   11.95 KCAL/MOL
REMARK 924 INTRA-LIGAND FREE ENERGY PREDICTED BY IDOCK:   -0.21 KCAL/MOL
REMARK 927      BINDING AFFINITY PREDICTED BY RF-SCORE:    0.00 PKD
ROOT
HETATM    1  C   UNL     1     -14.203   8.331  72.299  1.00  0.00    -0.306 C  
HETATM    2  N   UNL     1     -12.951   7.825  71.722  1.00  0.00    -0.328 N  
HETATM    3  C   UNL     1     -11.827   8.617  71.254  1.00  0.00    -0.295 C  
HETATM    4  O   UNL     1     -14.010   5.786  70.597  1.00  0.00     4.174 OA 
HETATM    5  C   UNL     1     -10.731   8.051  70.675  1.00  0.00    -0.228 C  
HETATM    6  C   UNL     1      -9.983   4.379  69.689  1.00  0.00    -0.138 A  
HETATM    7  O   UNL     1      -9.619   8.764  70.251  1.00  0.00    -0.165 OA 
HETATM    8  C   UNL     1     -10.616   6.647  70.426  1.00  0.00    -0.223 A  
HETATM    9  O   UNL     1     -12.854   5.533  72.835  1.00  0.00     0.260 OA 
HETATM   10  S   UNL     1     -12.963   6.143  71.537  1.00  0.00     1.040 S  
HETATM   11  H   UNL     1      -8.855   8.369  69.848  1.00  0.00     0.000 HD 
HETATM   12  S   UNL     1      -9.278   5.915  69.614  1.00  0.00    -0.137 SA 
HETATM   13  C   UNL     1     -11.534   5.679  70.735  1.00  0.00     0.268 A  
HETATM   14 CL   UNL     1      -9.174   3.031  68.999  1.00  0.00    -0.208 Cl 
HETATM   15  C   UNL     1     -11.198   4.365  70.320  1.00  0.00     3.170 A  
ENDROOT
BRANCH   3  16
HETATM   16  C   UNL     1     -11.810  10.133  71.327  1.00  0.00    -0.360 C  
HETATM   17  N   UNL     1     -12.711  10.805  70.542  1.00  0.00    -0.329 N  
HETATM   18  O   UNL     1     -11.103  10.683  72.175  1.00  0.00     2.474 OA 
HETATM   19  H   UNL     1     -13.277  10.264  69.889  1.00  0.00     0.000 HD 
BRANCH  17  20
HETATM   20  C   UNL     1     -12.898  12.193  70.585  1.00  0.00     0.051 A  
HETATM   21  C   UNL     1     -14.148  12.793  70.725  1.00  0.00     2.839 A  
HETATM   22  C   UNL     1     -13.077  14.928  70.485  1.00  0.00    -0.299 A  
HETATM   23  C   UNL     1     -14.232  14.185  70.687  1.00  0.00     1.049 A  
HETATM   24  C   UNL     1     -11.877  14.246  70.385  1.00  0.00    -0.305 A  
HETATM   25  N   UNL     1     -11.759  12.901  70.474  1.00  0.00    -0.059 NA 
ENDBRANCH  17  20
ENDBRANCH   3  16
TORSDOF 2
ENDMDL
MODEL      122
REMARK 921   NORMALIZED FREE ENERGY PREDICTED BY IDOCK:   17.42 KCAL/MOL
REMARK 922        TOTAL FREE ENERGY PREDICTED BY IDOCK:   18.85 KCAL/MOL
REMARK 923 INTER-LIGAND FREE ENERGY PREDICTED BY IDOCK:   18.69 KCAL/MOL
REMARK 924 INTRA-LIGAND FREE ENERGY PREDICTED BY IDOCK:    0.16 KCAL/MOL
REMARK 927      BINDING AFFINITY PREDICTED BY RF-SCORE:    0.00 PKD
ROOT
HETATM    1  C   UNL     1      -7.371  14.476  70.445  1.00  0.00     0.623 C  
HETATM    2  N   UNL     1      -7.677  13.258  69.685  1.00  0.00     0.759 N  
HETATM    3  C   UNL     1      -8.326  13.185  68.387  1.00  0.00    -0.122 C  
HETATM    4  O   UNL     1      -8.102  11.791  71.736  1.00  0.00     9.998 OA 
HETATM    5  C   UNL     1      -8.622  11.997  67.790  1.00  0.00    -0.157 C  
HETATM    6  C   UNL     1      -8.272   8.352  69.059  1.00  0.00    -0.118 A  
HETATM    7  O   UNL     1      -9.203  11.879  66.536  1.00  0.00    -0.205 OA 
HETATM    8  C   UNL     1      -8.377  10.729  68.406  1.00  0.00    -0.132 A  
HETATM    9  O   UNL     1      -5.853  11.717  70.576  1.00  0.00    -0.158 OA 
HETATM   10  S   UNL     1      -7.284  11.851  70.538  1.00  0.00     2.938 S  
HETATM   11  H   UNL     1      -9.410  11.051  66.120  1.00  0.00     0.000 HD 
HETATM   12  S   UNL     1      -8.823   9.212  67.710  1.00  0.00    -0.123 SA 
HETATM   13  C   UNL     1      -7.807  10.508  69.632  1.00  0.00    -0.086 A  
HETATM   14 CL   UNL     1      -8.423   6.643  69.104  1.00  0.00    -0.123 Cl 
HETATM   15  C   UNL     1      -7.737   9.150  70.035  1.00  0.00    -0.088 A  
ENDROOT
BRANCH   3  16
HETATM   16  C   UNL     1      -8.768  14.420  67.624  1.00  0.00    -0.189 C  
HETATM   17  N   UNL     1      -7.839  15.414  67.454  1.00  0.00    -0.171 N  
HETATM   18  O   UNL     1      -9.874  14.422  67.077  1.00  0.00    -0.241 OA 
HETATM   19  H   UNL     1      -6.938  15.314  67.920  1.00  0.00     0.000 HD 
BRANCH  17  20
HETATM   20  C   UNL     1      -8.056  16.559  66.676  1.00  0.00    -0.278 A  
HETATM   21  C   UNL     1      -7.664  17.837  67.068  1.00  0.00    -0.233 A  
HETATM   22  C   UNL     1      -8.715  18.697  65.089  1.00  0.00     2.409 A  
HETATM   23  C   UNL     1      -7.989  18.919  66.251  1.00  0.00    -0.291 A  
HETATM   24  C   UNL     1      -9.036  17.389  64.766  1.00  0.00     4.678 A  
HETATM   25  N   UNL     1      -8.685  16.316  65.511  1.00  0.00    -0.005 NA 
ENDBRANCH  17  20
ENDBRANCH   3  16
TORSDOF 2
ENDMDL
MODEL      123
REMARK 921   NORMALIZED FREE ENERGY PREDICTED BY IDOCK:   20.48 KCAL/MOL
REMARK 922        TOTAL FREE ENERGY PREDICTED BY IDOCK:   22.26 KCAL/MOL
REMARK 923 INTER-LIGAND FREE ENERGY PREDICTED BY IDOCK:   22.04 KCAL/MOL
REMARK 924 INTRA-LIGAND FREE ENERGY PREDICTED BY IDOCK:    0.22 KCAL/MOL
REMARK 927      BINDING AFFINITY PREDICTED BY RF-SCORE:    0.00 PKD
ROOT
HETATM    1  C   UNL     1      -6.660  14.099  71.161  1.00  0.00     0.622 C  
HETATM    2  N   UNL     1      -7.242  12.767  70.957  1.00  0.00     3.818 N  
HETATM    3  C   UNL     1      -8.340  12.425  70.068  1.00  0.00     3.177 C  
HETATM    4  O   UNL     1      -6.858  11.963  73.355  1.00  0.00     5.955 OA 
HETATM    5  C   UNL     1      -8.850  11.164  69.997  1.00  0.00     1.620 C  
HETATM    6  C   UNL     1      -8.064   7.978  72.057  1.00  0.00    -0.131 A  
HETATM    7  O   UNL     1      -9.869  10.784  69.134  1.00  0.00    -0.232 OA 
HETATM    8  C   UNL     1      -8.396  10.089  70.823  1.00  0.00     0.828 A  
HETATM    9  O   UNL     1      -5.226  11.316  71.530  1.00  0.00    -0.264 OA 
HETATM   10  S   UNL     1      -6.561  11.603  71.980  1.00  0.00     5.289 S  
HETATM   11  H   UNL     1     -10.224   9.905  69.085  1.00  0.00     0.000 HD 
HETATM   12  S   UNL     1      -9.085   8.504  70.814  1.00  0.00    -0.180 SA 
HETATM   13  C   UNL     1      -7.401  10.138  71.763  1.00  0.00     2.379 A  
HETATM   14 CL   UNL     1      -8.197   6.373  72.652  1.00  0.00    -0.108 Cl 
HETATM   15  C   UNL     1      -7.191   8.939  72.491  1.00  0.00     0.184 A  
ENDROOT
BRANCH   3  16
HETATM   16  C   UNL     1      -9.032  13.455  69.194  1.00  0.00     0.606 C  
HETATM   17  N   UNL     1      -8.232  14.258  68.423  1.00  0.00    -0.139 N  
HETATM   18  O   UNL     1     -10.263  13.433  69.105  1.00  0.00    -0.010 OA 
HETATM   19  H   UNL     1      -7.222  14.186  68.542  1.00  0.00     0.000 HD 
BRANCH  17  20
HETATM   20  C   UNL     1      -8.722  15.171  67.481  1.00  0.00    -0.177 A  
HETATM   21  C   UNL     1      -8.176  16.437  67.285  1.00  0.00    -0.193 A  
HETATM   22  C   UNL     1      -9.924  16.878  65.700  1.00  0.00    -0.127 A  
HETATM   23  C   UNL     1      -8.782  17.296  66.368  1.00  0.00    -0.285 A  
HETATM   24  C   UNL     1     -10.379  15.591  65.938  1.00  0.00    -0.347 A  
HETATM   25  N   UNL     1      -9.778  14.718  66.779  1.00  0.00    -0.244 NA 
ENDBRANCH  17  20
ENDBRANCH   3  16
TORSDOF 2
ENDMDL
MODEL      124
REMARK 921   NORMALIZED FREE ENERGY PREDICTED BY IDOCK:   21.55 KCAL/MOL
REMARK 922        TOTAL FREE ENERGY PREDICTED BY IDOCK:   23.46 KCAL/MOL
REMARK 923 INTER-LIGAND FREE ENERGY PREDICTED BY IDOCK:   24.03 KCAL/MOL
REMARK 924 INTRA-LIGAND FREE ENERGY PREDICTED BY IDOCK:   -0.57 KCAL/MOL
REMARK 927      BINDING AFFINITY PREDICTED BY RF-SCORE:    0.00 PKD
ROOT
HETATM    1  C   UNL     1      -7.597   8.058  73.967  1.00  0.00    -0.182 C  
HETATM    2  N   UNL     1      -7.321   8.923  72.812  1.00  0.00     0.211 N  
HETATM    3  C   UNL     1      -7.170   8.503  71.429  1.00  0.00    -0.092 C  
HETATM    4  O   UNL     1      -5.896  10.608  74.104  1.00  0.00     0.178 OA 
HETATM    5  C   UNL     1      -6.853   9.379  70.435  1.00  0.00    -0.089 C  
HETATM    6  C   UNL     1      -5.938  13.142  70.555  1.00  0.00    -0.093 A  
HETATM    7  O   UNL     1      -6.740   9.031  69.097  1.00  0.00    -0.049 OA 
HETATM    8  C   UNL     1      -6.586  10.765  70.671  1.00  0.00     0.241 A  
HETATM    9  O   UNL     1      -8.336  11.106  73.649  1.00  0.00    12.917 OA 
HETATM   10  S   UNL     1      -7.075  10.536  73.260  1.00  0.00     6.139 S  
HETATM   11  H   UNL     1      -6.519   9.642  68.405  1.00  0.00     0.000 HD 
HETATM   12  S   UNL     1      -6.096  11.877  69.443  1.00  0.00    -0.108 SA 
HETATM   13  C   UNL     1      -6.626  11.417  71.874  1.00  0.00     3.900 A  
HETATM   14 CL   UNL     1      -5.415  14.689  70.024  1.00  0.00    -0.102 Cl 
HETATM   15  C   UNL     1      -6.254  12.785  71.838  1.00  0.00     2.273 A  
ENDROOT
BRANCH   3  16
HETATM   16  C   UNL     1      -7.303   7.054  70.997  1.00  0.00    -0.077 C  
HETATM   17  N   UNL     1      -8.518   6.661  70.497  1.00  0.00    -0.136 N  
HETATM   18  O   UNL     1      -6.297   6.341  70.978  1.00  0.00    -0.044 OA 
HETATM   19  H   UNL     1      -9.288   7.329  70.525  1.00  0.00     0.000 HD 
BRANCH  17  20
HETATM   20  C   UNL     1      -8.762   5.395  69.950  1.00  0.00    -0.121 A  
HETATM   21  C   UNL     1      -8.690   4.215  70.687  1.00  0.00    -0.117 A  
HETATM   22  C   UNL     1      -9.116   2.999  68.661  1.00  0.00    -0.212 A  
HETATM   23  C   UNL     1      -8.885   3.000  70.030  1.00  0.00    -0.151 A  
HETATM   24  C   UNL     1      -9.199   4.222  68.018  1.00  0.00    -0.142 A  
HETATM   25  N   UNL     1      -9.071   5.417  68.639  1.00  0.00    -0.113 NA 
ENDBRANCH  17  20
ENDBRANCH   3  16
TORSDOF 2
ENDMDL
MODEL      125
REMARK 921   NORMALIZED FREE ENERGY PREDICTED BY IDOCK:   75.47 KCAL/MOL
REMARK 922        TOTAL FREE ENERGY PREDICTED BY IDOCK:   83.68 KCAL/MOL
REMARK 923 INTER-LIGAND FREE ENERGY PREDICTED BY IDOCK:   82.25 KCAL/MOL
REMARK 924 INTRA-LIGAND FREE ENERGY PREDICTED BY IDOCK:    1.43 KCAL/MOL
REMARK 927      BINDING AFFINITY PREDICTED BY RF-SCORE:    0.00 PKD
ROOT
HETATM    1  C   UNL     1     -12.108  14.430  73.157  1.00  0.00     0.122 C  
HETATM    2  N   UNL     1     -11.213  14.843  72.068  1.00  0.00    -0.058 N  
HETATM    3  C   UNL     1     -11.153  14.277  70.731  1.00  0.00     0.423 C  
HETATM    4  O   UNL     1      -9.260  15.486  73.589  1.00  0.00     9.302 OA 
HETATM    5  C   UNL     1     -10.241  14.691  69.808  1.00  0.00     0.121 C  
HETATM    6  C   UNL     1      -7.286  17.181  70.089  1.00  0.00     1.375 A  
HETATM    7  O   UNL     1     -10.174  14.209  68.509  1.00  0.00    -0.237 OA 
HETATM    8  C   UNL     1      -9.235  15.669  70.088  1.00  0.00     0.494 A  
HETATM    9  O   UNL     1     -10.825  17.276  72.721  1.00  0.00     2.054 OA 
HETATM   10  S   UNL     1     -10.117  16.037  72.554  1.00  0.00     6.064 S  
HETATM   11  H   UNL     1      -9.538  14.498  67.866  1.00  0.00     0.000 HD 
HETATM   12  S   UNL     1      -8.012  16.147  68.964  1.00  0.00    -0.234 SA 
HETATM   13  C   UNL     1      -9.043  16.338  71.267  1.00  0.00     5.202 A  
HETATM   14 CL   UNL     1      -5.874  18.059  69.657  1.00  0.00    -0.236 Cl 
HETATM   15  C   UNL     1      -7.927  17.212  71.298  1.00  0.00     7.716 A  
ENDROOT
BRANCH   3  16
HETATM   16  C   UNL     1     -12.064  13.150  70.281  1.00  0.00    -0.328 C  
HETATM   17  N   UNL     1     -11.991  12.777  68.963  1.00  0.00    -0.277 N  
HETATM   18  O   UNL     1     -12.714  12.531  71.128  1.00  0.00    -0.354 OA 
HETATM   19  H   UNL     1     -11.402  13.329  68.340  1.00  0.00     0.000 HD 
BRANCH  17  20
HETATM   20  C   UNL     1     -12.678  11.682  68.424  1.00  0.00     1.798 A  
HETATM   21  C   UNL     1     -12.660  11.358  67.070  1.00  0.00     3.070 A  
HETATM   22  C   UNL     1     -14.218   9.593  67.536  1.00  0.00    21.257 A  
HETATM   23  C   UNL     1     -13.434  10.286  66.625  1.00  0.00    16.231 A  
HETATM   24  C   UNL     1     -14.150   9.968  68.867  1.00  0.00     7.911 A  
HETATM   25  N   UNL     1     -13.365  10.967  69.335  1.00  0.00     0.835 NA 
ENDBRANCH  17  20
ENDBRANCH   3  16
TORSDOF 2
ENDMDL
