MODEL        1
REMARK 921   NORMALIZED FREE ENERGY PREDICTED BY IDOCK:   -8.27 KCAL/MOL
REMARK 922        TOTAL FREE ENERGY PREDICTED BY IDOCK:  -10.79 KCAL/MOL
REMARK 923 INTER-LIGAND FREE ENERGY PREDICTED BY IDOCK:  -10.20 KCAL/MOL
REMARK 924 INTRA-LIGAND FREE ENERGY PREDICTED BY IDOCK:   -0.59 KCAL/MOL
REMARK 927      BINDING AFFINITY PREDICTED BY RF-SCORE:    0.00 PKD
ROOT
HETATM    1  C   UNL     1      -8.345  17.687  67.164  1.00  0.00    -0.233 C  
HETATM    2  C   UNL     1      -7.546  18.865  67.779  1.00  0.00    -0.255 C  
HETATM    3  C   UNL     1      -8.570  19.652  68.613  1.00  0.00    -0.304 C  
HETATM    4  C   UNL     1      -9.917  19.400  67.923  1.00  0.00    -0.483 C  
HETATM    5  C   UNL     1      -9.497  18.670  66.663  1.00  0.00    -0.328 C  
HETATM    6  C   UNL     1     -10.443  17.791  65.964  1.00  0.00    -0.286 A  
HETATM    7  N   UNL     1     -11.100  17.831  64.833  1.00  0.00    -0.638 NA 
HETATM    8  N   UNL     1     -11.245  16.509  64.411  1.00  0.00    -0.980 NA 
HETATM    9  C   UNL     1     -10.608  15.734  65.259  1.00  0.00    -0.423 A  
HETATM   10  C   UNL     1      -9.218  16.387  67.338  1.00  0.00    -0.208 C  
HETATM   11  N   UNL     1     -10.211  16.501  66.297  1.00  0.00    -0.319 NA 
ENDROOT
BRANCH   9  12
HETATM   12  C   UNL     1     -10.323  14.281  65.156  1.00  0.00    -0.440 C  
BRANCH  12  13
HETATM   13  C   UNL     1     -11.082  13.468  66.226  1.00  0.00    -0.300 C  
BRANCH  13  14
HETATM   14  N   UNL     1     -10.196  13.042  67.330  1.00  0.00    -0.229 NA 
HETATM   15  C   UNL     1     -10.707  13.434  68.669  1.00  0.00    -0.255 C  
HETATM   16  C   UNL     1     -11.945  12.643  69.143  1.00  0.00    -0.243 C  
HETATM   17  N   UNL     1     -11.622  11.209  69.165  1.00  0.00    -0.294 NA 
HETATM   18  C   UNL     1      -9.980  11.571  67.332  1.00  0.00    -0.190 C  
HETATM   19  C   UNL     1     -11.143  10.691  67.872  1.00  0.00    -0.308 C  
BRANCH  17  20
HETATM   20  C   UNL     1     -11.866  10.410  70.266  1.00  0.00    -0.312 A  
HETATM   21  C   UNL     1     -13.130  10.365  70.881  1.00  0.00    -0.412 A  
HETATM   22  C   UNL     1     -13.390   9.580  72.013  1.00  0.00    -0.535 A  
HETATM   23  C   UNL     1     -12.377   8.812  72.567  1.00  0.00    -0.358 A  
HETATM   24  C   UNL     1     -11.100   8.832  72.000  1.00  0.00    -0.441 A  
HETATM   25  C   UNL     1      -9.970   8.034  72.592  1.00  0.00    -0.290 C  
HETATM   26  C   UNL     1     -10.867   9.619  70.851  1.00  0.00    -0.409 A  
HETATM   27  F   UNL     1      -8.923   8.816  72.977  1.00  0.00    -0.272 F  
HETATM   28  F   UNL     1      -9.453   7.123  71.723  1.00  0.00    -0.151 F  
HETATM   29  F   UNL     1     -10.325   7.322  73.703  1.00  0.00    -0.305 F  
ENDBRANCH  17  20
ENDBRANCH  13  14
ENDBRANCH  12  13
ENDBRANCH   9  12
TORSDOF 4
ENDMDL
MODEL        2
REMARK 921   NORMALIZED FREE ENERGY PREDICTED BY IDOCK:   -7.96 KCAL/MOL
REMARK 922        TOTAL FREE ENERGY PREDICTED BY IDOCK:  -10.41 KCAL/MOL
REMARK 923 INTER-LIGAND FREE ENERGY PREDICTED BY IDOCK:   -9.93 KCAL/MOL
REMARK 924 INTRA-LIGAND FREE ENERGY PREDICTED BY IDOCK:   -0.48 KCAL/MOL
REMARK 927      BINDING AFFINITY PREDICTED BY RF-SCORE:    0.00 PKD
ROOT
HETATM    1  C   UNL     1      -8.823  18.532  66.793  1.00  0.00    -0.285 C  
HETATM    2  C   UNL     1      -8.467  20.021  67.038  1.00  0.00    -0.390 C  
HETATM    3  C   UNL     1      -9.741  20.645  67.634  1.00  0.00    -0.445 C  
HETATM    4  C   UNL     1     -10.893  19.808  67.065  1.00  0.00    -0.465 C  
HETATM    5  C   UNL     1     -10.180  18.931  66.054  1.00  0.00    -0.437 C  
HETATM    6  C   UNL     1     -10.760  17.645  65.646  1.00  0.00    -0.084 A  
HETATM    7  N   UNL     1     -11.314  17.169  64.560  1.00  0.00    -0.926 NA 
HETATM    8  N   UNL     1     -11.019  15.806  64.530  1.00  0.00    -0.460 NA 
HETATM    9  C   UNL     1     -10.240  15.529  65.551  1.00  0.00    -0.386 A  
HETATM   10  C   UNL     1      -9.270  17.124  67.339  1.00  0.00    -0.232 C  
HETATM   11  N   UNL     1     -10.172  16.634  66.325  1.00  0.00    -0.322 NA 
ENDROOT
BRANCH   9  12
HETATM   12  C   UNL     1      -9.520  14.268  65.857  1.00  0.00    -0.159 C  
BRANCH  12  13
HETATM   13  C   UNL     1      -9.861  13.736  67.264  1.00  0.00    -0.241 C  
BRANCH  13  14
HETATM   14  N   UNL     1     -11.096  12.924  67.266  1.00  0.00    -0.265 NA 
HETATM   15  C   UNL     1     -10.831  11.464  67.329  1.00  0.00    -0.263 C  
HETATM   16  C   UNL     1     -10.308  10.962  68.692  1.00  0.00    -0.191 C  
HETATM   17  N   UNL     1     -11.279  11.308  69.739  1.00  0.00    -0.247 NA 
HETATM   18  C   UNL     1     -11.991  13.279  68.398  1.00  0.00    -0.301 C  
HETATM   19  C   UNL     1     -11.591  12.747  69.804  1.00  0.00    -0.218 C  
BRANCH  17  20
HETATM   20  C   UNL     1     -11.753  10.381  70.648  1.00  0.00    -0.351 A  
HETATM   21  C   UNL     1     -13.105  10.346  71.031  1.00  0.00    -0.450 A  
HETATM   22  C   UNL     1     -13.600   9.430  71.969  1.00  0.00    -0.505 A  
HETATM   23  C   UNL     1     -12.740   8.513  72.557  1.00  0.00    -0.329 A  
HETATM   24  C   UNL     1     -11.384   8.516  72.218  1.00  0.00    -0.441 A  
HETATM   25  C   UNL     1     -10.419   7.555  72.858  1.00  0.00    -0.318 C  
HETATM   26  C   UNL     1     -10.914   9.439  71.260  1.00  0.00    -0.440 A  
HETATM   27  F   UNL     1      -9.416   8.190  73.527  1.00  0.00    -0.325 F  
HETATM   28  F   UNL     1      -9.806   6.742  71.955  1.00  0.00    -0.160 F  
HETATM   29  F   UNL     1     -10.999   6.721  73.771  1.00  0.00    -0.297 F  
ENDBRANCH  17  20
ENDBRANCH  13  14
ENDBRANCH  12  13
ENDBRANCH   9  12
TORSDOF 4
ENDMDL
MODEL        3
REMARK 921   NORMALIZED FREE ENERGY PREDICTED BY IDOCK:   -7.88 KCAL/MOL
REMARK 922        TOTAL FREE ENERGY PREDICTED BY IDOCK:  -10.30 KCAL/MOL
REMARK 923 INTER-LIGAND FREE ENERGY PREDICTED BY IDOCK:   -9.89 KCAL/MOL
REMARK 924 INTRA-LIGAND FREE ENERGY PREDICTED BY IDOCK:   -0.41 KCAL/MOL
REMARK 927      BINDING AFFINITY PREDICTED BY RF-SCORE:    0.00 PKD
ROOT
HETATM    1  C   UNL     1     -10.536  18.748  67.139  1.00  0.00    -0.491 C  
HETATM    2  C   UNL     1     -10.523  19.998  68.056  1.00  0.00    -0.448 C  
HETATM    3  C   UNL     1      -9.322  20.833  67.578  1.00  0.00    -0.376 C  
HETATM    4  C   UNL     1      -8.336  19.809  67.001  1.00  0.00    -0.349 C  
HETATM    5  C   UNL     1      -8.981  18.493  67.389  1.00  0.00    -0.280 C  
HETATM    6  C   UNL     1      -8.689  17.271  66.629  1.00  0.00    -0.257 A  
HETATM    7  N   UNL     1      -8.029  16.163  66.853  1.00  0.00    -0.218 NA 
HETATM    8  N   UNL     1      -8.666  15.166  66.113  1.00  0.00    -0.100 NA 
HETATM    9  C   UNL     1      -9.724  15.691  65.537  1.00  0.00    -0.251 A  
HETATM   10  C   UNL     1     -10.643  18.101  65.707  1.00  0.00    -0.175 C  
HETATM   11  N   UNL     1      -9.682  17.025  65.744  1.00  0.00    -0.547 NA 
ENDROOT
BRANCH   9  12
HETATM   12  C   UNL     1     -10.813  15.010  64.794  1.00  0.00    -0.375 C  
BRANCH  12  13
HETATM   13  C   UNL     1     -10.517  13.510  64.584  1.00  0.00    -0.421 C  
BRANCH  13  14
HETATM   14  N   UNL     1     -11.548  12.650  65.200  1.00  0.00    -0.332 NA 
HETATM   15  C   UNL     1     -10.995  11.715  66.213  1.00  0.00    -0.289 C  
HETATM   16  C   UNL     1     -10.540  12.385  67.528  1.00  0.00    -0.219 C  
HETATM   17  N   UNL     1     -11.676  13.103  68.123  1.00  0.00    -0.336 NA 
HETATM   18  C   UNL     1     -12.622  13.448  65.848  1.00  0.00    -0.348 C  
HETATM   19  C   UNL     1     -12.285  14.096  67.221  1.00  0.00    -0.279 C  
BRANCH  17  20
HETATM   20  C   UNL     1     -12.048  12.939  69.443  1.00  0.00    -0.198 A  
HETATM   21  C   UNL     1     -12.388  11.679  69.964  1.00  0.00    -0.261 A  
HETATM   22  C   UNL     1     -12.792  11.495  71.294  1.00  0.00    -0.463 A  
HETATM   23  C   UNL     1     -12.869  12.586  72.147  1.00  0.00    -0.189 A  
HETATM   24  C   UNL     1     -12.553  13.863  71.674  1.00  0.00    -0.387 A  
HETATM   25  C   UNL     1     -12.654  15.072  72.564  1.00  0.00    -0.357 C  
HETATM   26  C   UNL     1     -12.134  14.019  70.335  1.00  0.00    -0.426 A  
HETATM   27  F   UNL     1     -13.529  16.001  72.086  1.00  0.00    -0.511 F  
HETATM   28  F   UNL     1     -11.467  15.721  72.709  1.00  0.00    -0.510 F  
HETATM   29  F   UNL     1     -13.075  14.786  73.831  1.00  0.00    -0.502 F  
ENDBRANCH  17  20
ENDBRANCH  13  14
ENDBRANCH  12  13
ENDBRANCH   9  12
TORSDOF 4
ENDMDL
MODEL        4
REMARK 921   NORMALIZED FREE ENERGY PREDICTED BY IDOCK:   -7.84 KCAL/MOL
REMARK 922        TOTAL FREE ENERGY PREDICTED BY IDOCK:  -10.26 KCAL/MOL
REMARK 923 INTER-LIGAND FREE ENERGY PREDICTED BY IDOCK:   -9.71 KCAL/MOL
REMARK 924 INTRA-LIGAND FREE ENERGY PREDICTED BY IDOCK:   -0.54 KCAL/MOL
REMARK 927      BINDING AFFINITY PREDICTED BY RF-SCORE:    0.00 PKD
ROOT
HETATM    1  C   UNL     1      -7.068  19.828  65.719  1.00  0.00    -0.326 C  
HETATM    2  C   UNL     1      -6.063  21.006  65.635  1.00  0.00    -0.264 C  
HETATM    3  C   UNL     1      -5.518  21.171  67.064  1.00  0.00    -0.309 C  
HETATM    4  C   UNL     1      -6.648  20.674  67.976  1.00  0.00    -0.340 C  
HETATM    5  C   UNL     1      -7.784  20.471  66.992  1.00  0.00    -0.346 C  
HETATM    6  C   UNL     1      -8.875  19.538  67.301  1.00  0.00    -0.303 A  
HETATM    7  N   UNL     1     -10.144  19.648  67.605  1.00  0.00    -0.389 NA 
HETATM    8  N   UNL     1     -10.771  18.506  67.105  1.00  0.00    -0.393 NA 
HETATM    9  C   UNL     1      -9.877  17.795  66.457  1.00  0.00    -0.329 A  
HETATM   10  C   UNL     1      -7.382  18.316  66.024  1.00  0.00    -0.246 C  
HETATM   11  N   UNL     1      -8.669  18.357  66.676  1.00  0.00    -0.279 NA 
ENDROOT
BRANCH   9  12
HETATM   12  C   UNL     1     -10.080  16.594  65.609  1.00  0.00    -0.244 C  
BRANCH  12  13
HETATM   13  C   UNL     1      -9.317  15.368  66.152  1.00  0.00    -0.332 C  
BRANCH  13  14
HETATM   14  N   UNL     1     -10.196  14.188  66.298  1.00  0.00    -0.287 NA 
HETATM   15  C   UNL     1      -9.734  13.247  67.350  1.00  0.00    -0.221 C  
HETATM   16  C   UNL     1      -9.913  13.759  68.796  1.00  0.00    -0.112 C  
HETATM   17  N   UNL     1     -11.332  14.064  69.029  1.00  0.00    -0.265 NA 
HETATM   18  C   UNL     1     -11.597  14.575  66.608  1.00  0.00    -0.375 C  
HETATM   19  C   UNL     1     -11.894  15.027  68.066  1.00  0.00    -0.241 C  
BRANCH  17  20
HETATM   20  C   UNL     1     -12.026  13.581  70.121  1.00  0.00    -0.329 A  
HETATM   21  C   UNL     1     -12.565  14.440  71.094  1.00  0.00    -0.422 A  
HETATM   22  C   UNL     1     -13.250  13.968  72.222  1.00  0.00    -0.558 A  
HETATM   23  C   UNL     1     -13.413  12.603  72.408  1.00  0.00    -0.450 A  
HETATM   24  C   UNL     1     -12.885  11.706  71.475  1.00  0.00    -0.469 A  
HETATM   25  C   UNL     1     -13.018  10.219  71.660  1.00  0.00    -0.465 C  
HETATM   26  C   UNL     1     -12.212  12.208  70.340  1.00  0.00    -0.378 A  
HETATM   27  F   UNL     1     -11.811   9.591  71.730  1.00  0.00    -0.405 F  
HETATM   28  F   UNL     1     -13.690   9.617  70.641  1.00  0.00    -0.309 F  
HETATM   29  F   UNL     1     -13.684   9.866  72.800  1.00  0.00    -0.328 F  
ENDBRANCH  17  20
ENDBRANCH  13  14
ENDBRANCH  12  13
ENDBRANCH   9  12
TORSDOF 4
ENDMDL
MODEL        5
REMARK 921   NORMALIZED FREE ENERGY PREDICTED BY IDOCK:   -7.74 KCAL/MOL
REMARK 922        TOTAL FREE ENERGY PREDICTED BY IDOCK:  -10.14 KCAL/MOL
REMARK 923 INTER-LIGAND FREE ENERGY PREDICTED BY IDOCK:   -9.70 KCAL/MOL
REMARK 924 INTRA-LIGAND FREE ENERGY PREDICTED BY IDOCK:   -0.45 KCAL/MOL
REMARK 927      BINDING AFFINITY PREDICTED BY RF-SCORE:    0.00 PKD
ROOT
HETATM    1  C   UNL     1     -10.371  18.419  66.089  1.00  0.00    -0.431 C  
HETATM    2  C   UNL     1     -10.420  19.965  65.982  1.00  0.00    -0.580 C  
HETATM    3  C   UNL     1      -9.554  20.475  67.147  1.00  0.00    -0.570 C  
HETATM    4  C   UNL     1      -9.656  19.384  68.220  1.00  0.00    -0.454 C  
HETATM    5  C   UNL     1     -10.721  18.471  67.645  1.00  0.00    -0.405 C  
HETATM    6  C   UNL     1     -10.784  17.060  68.047  1.00  0.00    -0.365 A  
HETATM    7  N   UNL     1     -11.595  16.325  68.766  1.00  0.00    -0.302 NA 
HETATM    8  N   UNL     1     -11.549  15.040  68.227  1.00  0.00    -0.329 NA 
HETATM    9  C   UNL     1     -10.777  15.065  67.164  1.00  0.00    -0.303 A  
HETATM   10  C   UNL     1      -9.555  17.072  66.086  1.00  0.00    -0.240 C  
HETATM   11  N   UNL     1     -10.194  16.282  67.111  1.00  0.00    -0.271 NA 
ENDROOT
BRANCH   9  12
HETATM   12  C   UNL     1     -10.549  14.002  66.154  1.00  0.00    -0.290 C  
BRANCH  12  13
HETATM   13  C   UNL     1      -9.438  13.023  66.588  1.00  0.00    -0.256 C  
BRANCH  13  14
HETATM   14  N   UNL     1      -9.913  11.624  66.621  1.00  0.00    -0.200 NA 
HETATM   15  C   UNL     1      -9.164  10.778  67.585  1.00  0.00    -0.147 C  
HETATM   16  C   UNL     1      -9.455  11.081  69.071  1.00  0.00    -0.108 C  
HETATM   17  N   UNL     1     -10.894  10.918  69.324  1.00  0.00    -0.227 NA 
HETATM   18  C   UNL     1     -11.358  11.537  66.959  1.00  0.00    -0.269 C  
HETATM   19  C   UNL     1     -11.744  11.746  68.451  1.00  0.00    -0.325 C  
BRANCH  17  20
HETATM   20  C   UNL     1     -11.382  10.151  70.364  1.00  0.00    -0.326 A  
HETATM   21  C   UNL     1     -12.723  10.235  70.779  1.00  0.00    -0.434 A  
HETATM   22  C   UNL     1     -13.231   9.484  71.847  1.00  0.00    -0.524 A  
HETATM   23  C   UNL     1     -12.396   8.619  72.540  1.00  0.00    -0.378 A  
HETATM   24  C   UNL     1     -11.051   8.509  72.174  1.00  0.00    -0.436 A  
HETATM   25  C   UNL     1     -10.112   7.603  72.922  1.00  0.00    -0.286 C  
HETATM   26  C   UNL     1     -10.568   9.265  71.085  1.00  0.00    -0.402 A  
HETATM   27  F   UNL     1      -9.063   8.276  73.472  1.00  0.00    -0.309 F  
HETATM   28  F   UNL     1      -9.561   6.642  72.130  1.00  0.00    -0.150 F  
HETATM   29  F   UNL     1     -10.702   6.933  73.956  1.00  0.00    -0.379 F  
ENDBRANCH  17  20
ENDBRANCH  13  14
ENDBRANCH  12  13
ENDBRANCH   9  12
TORSDOF 4
ENDMDL
MODEL        6
REMARK 921   NORMALIZED FREE ENERGY PREDICTED BY IDOCK:   -7.72 KCAL/MOL
REMARK 922        TOTAL FREE ENERGY PREDICTED BY IDOCK:  -10.11 KCAL/MOL
REMARK 923 INTER-LIGAND FREE ENERGY PREDICTED BY IDOCK:   -9.62 KCAL/MOL
REMARK 924 INTRA-LIGAND FREE ENERGY PREDICTED BY IDOCK:   -0.49 KCAL/MOL
REMARK 927      BINDING AFFINITY PREDICTED BY RF-SCORE:    0.00 PKD
ROOT
HETATM    1  C   UNL     1      -9.838   8.610  71.906  1.00  0.00    -0.384 C  
HETATM    2  C   UNL     1      -9.087   7.647  72.862  1.00  0.00    -0.231 C  
HETATM    3  C   UNL     1      -9.865   6.322  72.788  1.00  0.00    -0.174 C  
HETATM    4  C   UNL     1     -11.305   6.729  72.449  1.00  0.00    -0.306 C  
HETATM    5  C   UNL     1     -11.243   8.240  72.565  1.00  0.00    -0.446 C  
HETATM    6  C   UNL     1     -12.211   9.079  71.846  1.00  0.00    -0.381 A  
HETATM    7  N   UNL     1     -13.225   9.836  72.179  1.00  0.00    -0.448 NA 
HETATM    8  N   UNL     1     -13.282  10.861  71.234  1.00  0.00    -0.278 NA 
HETATM    9  C   UNL     1     -12.261  10.727  70.418  1.00  0.00    -0.349 A  
HETATM   10  C   UNL     1     -10.355   8.982  70.466  1.00  0.00    -0.218 C  
HETATM   11  N   UNL     1     -11.658   9.554  70.706  1.00  0.00    -0.291 NA 
ENDROOT
BRANCH   9  12
HETATM   12  C   UNL     1     -11.787  11.655  69.362  1.00  0.00    -0.408 C  
BRANCH  12  13
HETATM   13  C   UNL     1     -11.562  13.082  69.906  1.00  0.00    -0.179 C  
BRANCH  13  14
HETATM   14  N   UNL     1     -12.252  14.102  69.089  1.00  0.00    -0.312 NA 
HETATM   15  C   UNL     1     -12.397  15.405  69.788  1.00  0.00    -0.255 C  
HETATM   16  C   UNL     1     -11.083  16.196  69.955  1.00  0.00    -0.363 C  
HETATM   17  N   UNL     1     -10.492  16.437  68.631  1.00  0.00    -0.274 NA 
HETATM   18  C   UNL     1     -11.553  14.346  67.801  1.00  0.00    -0.356 C  
HETATM   19  C   UNL     1     -10.259  15.207  67.855  1.00  0.00    -0.232 C  
BRANCH  17  20
HETATM   20  C   UNL     1     -10.087  17.692  68.216  1.00  0.00    -0.362 A  
HETATM   21  C   UNL     1     -10.910  18.509  67.421  1.00  0.00    -0.342 A  
HETATM   22  C   UNL     1     -10.508  19.773  66.970  1.00  0.00    -0.595 A  
HETATM   23  C   UNL     1      -9.252  20.258  67.307  1.00  0.00    -0.523 A  
HETATM   24  C   UNL     1      -8.392  19.479  68.087  1.00  0.00    -0.359 A  
HETATM   25  C   UNL     1      -7.013  19.961  68.446  1.00  0.00    -0.300 C  
HETATM   26  C   UNL     1      -8.827  18.215  68.541  1.00  0.00    -0.312 A  
HETATM   27  F   UNL     1      -6.034  19.131  67.991  1.00  0.00    -0.200 F  
HETATM   28  F   UNL     1      -6.822  20.060  69.790  1.00  0.00    -0.373 F  
HETATM   29  F   UNL     1      -6.714  21.195  67.940  1.00  0.00    -0.368 F  
ENDBRANCH  17  20
ENDBRANCH  13  14
ENDBRANCH  12  13
ENDBRANCH   9  12
TORSDOF 4
ENDMDL
MODEL        7
REMARK 921   NORMALIZED FREE ENERGY PREDICTED BY IDOCK:   -7.70 KCAL/MOL
REMARK 922        TOTAL FREE ENERGY PREDICTED BY IDOCK:  -10.09 KCAL/MOL
REMARK 923 INTER-LIGAND FREE ENERGY PREDICTED BY IDOCK:   -9.49 KCAL/MOL
REMARK 924 INTRA-LIGAND FREE ENERGY PREDICTED BY IDOCK:   -0.60 KCAL/MOL
REMARK 927      BINDING AFFINITY PREDICTED BY RF-SCORE:    0.00 PKD
ROOT
HETATM    1  C   UNL     1     -11.292   7.419  71.960  1.00  0.00    -0.301 C  
HETATM    2  C   UNL     1     -11.124   6.122  72.793  1.00  0.00    -0.294 C  
HETATM    3  C   UNL     1     -10.305   6.539  74.026  1.00  0.00    -0.362 C  
HETATM    4  C   UNL     1      -9.461   7.730  73.553  1.00  0.00    -0.346 C  
HETATM    5  C   UNL     1      -9.732   7.739  72.061  1.00  0.00    -0.224 C  
HETATM    6  C   UNL     1      -9.567   8.974  71.284  1.00  0.00    -0.291 A  
HETATM    7  N   UNL     1      -8.722   9.409  70.383  1.00  0.00    -0.227 NA 
HETATM    8  N   UNL     1      -9.437  10.275  69.555  1.00  0.00    -0.209 NA 
HETATM    9  C   UNL     1     -10.694  10.270  69.940  1.00  0.00    -0.294 A  
HETATM   10  C   UNL     1     -11.817   8.897  71.821  1.00  0.00    -0.358 C  
HETATM   11  N   UNL     1     -10.767   9.566  71.090  1.00  0.00    -0.338 NA 
ENDROOT
BRANCH   9  12
HETATM   12  C   UNL     1     -11.871  10.886  69.279  1.00  0.00    -0.395 C  
BRANCH  12  13
HETATM   13  C   UNL     1     -11.585  11.240  67.805  1.00  0.00    -0.230 C  
BRANCH  13  14
HETATM   14  N   UNL     1     -12.144  12.557  67.432  1.00  0.00    -0.455 NA 
HETATM   15  C   UNL     1     -11.790  13.632  68.393  1.00  0.00    -0.372 C  
HETATM   16  C   UNL     1     -10.310  14.070  68.353  1.00  0.00    -0.251 C  
HETATM   17  N   UNL     1      -9.978  14.526  66.996  1.00  0.00    -0.251 NA 
HETATM   18  C   UNL     1     -11.701  12.984  66.080  1.00  0.00    -0.393 C  
HETATM   19  C   UNL     1     -10.247  13.521  65.953  1.00  0.00    -0.301 C  
BRANCH  17  20
HETATM   20  C   UNL     1      -9.359  15.737  66.751  1.00  0.00    -0.242 A  
HETATM   21  C   UNL     1      -7.959  15.859  66.719  1.00  0.00    -0.287 A  
HETATM   22  C   UNL     1      -7.313  17.082  66.496  1.00  0.00    -0.320 A  
HETATM   23  C   UNL     1      -8.063  18.232  66.299  1.00  0.00    -0.254 A  
HETATM   24  C   UNL     1      -9.459  18.165  66.333  1.00  0.00    -0.284 A  
HETATM   25  C   UNL     1     -10.303  19.398  66.153  1.00  0.00    -0.504 C  
HETATM   26  C   UNL     1     -10.086  16.918  66.545  1.00  0.00    -0.320 A  
HETATM   27  F   UNL     1     -11.101  19.647  67.228  1.00  0.00    -0.575 F  
HETATM   28  F   UNL     1     -11.139  19.314  65.082  1.00  0.00    -0.422 F  
HETATM   29  F   UNL     1      -9.575  20.538  65.963  1.00  0.00    -0.392 F  
ENDBRANCH  17  20
ENDBRANCH  13  14
ENDBRANCH  12  13
ENDBRANCH   9  12
TORSDOF 4
ENDMDL
MODEL        8
REMARK 921   NORMALIZED FREE ENERGY PREDICTED BY IDOCK:   -7.62 KCAL/MOL
REMARK 922        TOTAL FREE ENERGY PREDICTED BY IDOCK:   -9.99 KCAL/MOL
REMARK 923 INTER-LIGAND FREE ENERGY PREDICTED BY IDOCK:   -9.36 KCAL/MOL
REMARK 924 INTRA-LIGAND FREE ENERGY PREDICTED BY IDOCK:   -0.63 KCAL/MOL
REMARK 927      BINDING AFFINITY PREDICTED BY RF-SCORE:    0.00 PKD
ROOT
HETATM    1  C   UNL     1     -10.266   9.043  70.992  1.00  0.00    -0.347 C  
HETATM    2  C   UNL     1      -9.971   8.279  72.309  1.00  0.00    -0.366 C  
HETATM    3  C   UNL     1     -11.331   7.722  72.763  1.00  0.00    -0.446 C  
HETATM    4  C   UNL     1     -12.366   8.704  72.200  1.00  0.00    -0.452 C  
HETATM    5  C   UNL     1     -11.489   9.818  71.663  1.00  0.00    -0.294 C  
HETATM    6  C   UNL     1     -11.981  10.703  70.600  1.00  0.00    -0.367 A  
HETATM    7  N   UNL     1     -12.347  11.958  70.519  1.00  0.00    -0.317 NA 
HETATM    8  N   UNL     1     -12.036  12.378  69.225  1.00  0.00    -0.285 NA 
HETATM    9  C   UNL     1     -11.429  11.391  68.605  1.00  0.00    -0.296 A  
HETATM   10  C   UNL     1     -10.780   9.056  69.504  1.00  0.00    -0.206 C  
HETATM   11  N   UNL     1     -11.500  10.303  69.401  1.00  0.00    -0.216 NA 
ENDROOT
BRANCH   9  12
HETATM   12  C   UNL     1     -10.755  11.399  67.283  1.00  0.00    -0.283 C  
BRANCH  12  13
HETATM   13  C   UNL     1     -11.144  12.634  66.444  1.00  0.00    -0.287 C  
BRANCH  13  14
HETATM   14  N   UNL     1      -9.958  13.357  65.938  1.00  0.00    -0.291 NA 
HETATM   15  C   UNL     1     -10.304  14.461  65.008  1.00  0.00    -0.421 C  
HETATM   16  C   UNL     1     -10.963  15.686  65.678  1.00  0.00    -0.272 C  
HETATM   17  N   UNL     1     -10.064  16.211  66.716  1.00  0.00    -0.263 NA 
HETATM   18  C   UNL     1      -9.141  13.924  67.043  1.00  0.00    -0.250 C  
HETATM   19  C   UNL     1      -9.683  15.210  67.728  1.00  0.00    -0.211 C  
BRANCH  17  20
HETATM   20  C   UNL     1      -9.716  17.546  66.791  1.00  0.00    -0.295 A  
HETATM   21  C   UNL     1     -10.465  18.543  66.142  1.00  0.00    -0.447 A  
HETATM   22  C   UNL     1     -10.115  19.899  66.185  1.00  0.00    -0.611 A  
HETATM   23  C   UNL     1      -8.987  20.297  66.888  1.00  0.00    -0.424 A  
HETATM   24  C   UNL     1      -8.202  19.342  67.540  1.00  0.00    -0.321 A  
HETATM   25  C   UNL     1      -6.956  19.736  68.287  1.00  0.00    -0.298 C  
HETATM   26  C   UNL     1      -8.585  17.985  67.494  1.00  0.00    -0.244 A  
HETATM   27  F   UNL     1      -5.839  19.130  67.796  1.00  0.00    -0.186 F  
HETATM   28  F   UNL     1      -7.005  19.408  69.607  1.00  0.00    -0.346 F  
HETATM   29  F   UNL     1      -6.695  21.076  68.250  1.00  0.00    -0.319 F  
ENDBRANCH  17  20
ENDBRANCH  13  14
ENDBRANCH  12  13
ENDBRANCH   9  12
TORSDOF 4
ENDMDL
MODEL        9
REMARK 921   NORMALIZED FREE ENERGY PREDICTED BY IDOCK:   -7.61 KCAL/MOL
REMARK 922        TOTAL FREE ENERGY PREDICTED BY IDOCK:   -9.98 KCAL/MOL
REMARK 923 INTER-LIGAND FREE ENERGY PREDICTED BY IDOCK:   -9.40 KCAL/MOL
REMARK 924 INTRA-LIGAND FREE ENERGY PREDICTED BY IDOCK:   -0.58 KCAL/MOL
REMARK 927      BINDING AFFINITY PREDICTED BY RF-SCORE:    0.00 PKD
ROOT
HETATM    1  C   UNL     1      -8.878  18.284  67.048  1.00  0.00    -0.267 C  
HETATM    2  C   UNL     1      -8.437  19.733  67.377  1.00  0.00    -0.360 C  
HETATM    3  C   UNL     1      -9.710  20.436  67.880  1.00  0.00    -0.426 C  
HETATM    4  C   UNL     1     -10.864  19.706  67.180  1.00  0.00    -0.526 C  
HETATM    5  C   UNL     1     -10.128  18.808  66.206  1.00  0.00    -0.447 C  
HETATM    6  C   UNL     1     -10.761  17.583  65.702  1.00  0.00    -0.089 A  
HETATM    7  N   UNL     1     -11.247  17.182  64.554  1.00  0.00    -1.012 NA 
HETATM    8  N   UNL     1     -11.052  15.802  64.500  1.00  0.00    -0.453 NA 
HETATM    9  C   UNL     1     -10.392  15.437  65.576  1.00  0.00    -0.387 A  
HETATM   10  C   UNL     1      -9.475  16.899  67.500  1.00  0.00    -0.241 C  
HETATM   11  N   UNL     1     -10.314  16.509  66.392  1.00  0.00    -0.311 NA 
ENDROOT
BRANCH   9  12
HETATM   12  C   UNL     1      -9.798  14.115  65.899  1.00  0.00    -0.312 C  
BRANCH  12  13
HETATM   13  C   UNL     1     -10.740  13.258  66.771  1.00  0.00    -0.276 C  
BRANCH  13  14
HETATM   14  N   UNL     1     -10.178  13.011  68.116  1.00  0.00    -0.233 NA 
HETATM   15  C   UNL     1     -11.215  12.968  69.179  1.00  0.00    -0.241 C  
HETATM   16  C   UNL     1     -12.116  11.715  69.150  1.00  0.00    -0.251 C  
HETATM   17  N   UNL     1     -11.277  10.514  69.264  1.00  0.00    -0.246 NA 
HETATM   18  C   UNL     1      -9.409  11.741  68.171  1.00  0.00    -0.190 C  
HETATM   19  C   UNL     1     -10.232  10.423  68.229  1.00  0.00    -0.160 C  
BRANCH  17  20
HETATM   20  C   UNL     1     -11.532   9.515  70.184  1.00  0.00    -0.162 A  
HETATM   21  C   UNL     1     -12.369   9.727  71.293  1.00  0.00    -0.465 A  
HETATM   22  C   UNL     1     -12.621   8.735  72.250  1.00  0.00    -0.460 A  
HETATM   23  C   UNL     1     -12.030   7.486  72.119  1.00  0.00    -0.323 A  
HETATM   24  C   UNL     1     -11.181   7.228  71.039  1.00  0.00    -0.291 A  
HETATM   25  C   UNL     1     -10.501   5.895  70.883  1.00  0.00    -0.244 C  
HETATM   26  C   UNL     1     -10.956   8.240  70.081  1.00  0.00    -0.222 A  
HETATM   27  F   UNL     1      -9.143   5.998  70.876  1.00  0.00    -0.146 F  
HETATM   28  F   UNL     1     -10.831   5.267  69.721  1.00  0.00    -0.381 F  
HETATM   29  F   UNL     1     -10.798   5.008  71.878  1.00  0.00    -0.274 F  
ENDBRANCH  17  20
ENDBRANCH  13  14
ENDBRANCH  12  13
ENDBRANCH   9  12
TORSDOF 4
ENDMDL
MODEL       10
REMARK 921   NORMALIZED FREE ENERGY PREDICTED BY IDOCK:   -7.61 KCAL/MOL
REMARK 922        TOTAL FREE ENERGY PREDICTED BY IDOCK:   -9.98 KCAL/MOL
REMARK 923 INTER-LIGAND FREE ENERGY PREDICTED BY IDOCK:   -9.35 KCAL/MOL
REMARK 924 INTRA-LIGAND FREE ENERGY PREDICTED BY IDOCK:   -0.62 KCAL/MOL
REMARK 927      BINDING AFFINITY PREDICTED BY RF-SCORE:    0.00 PKD
ROOT
HETATM    1  C   UNL     1      -9.758   8.871  71.095  1.00  0.00    -0.344 C  
HETATM    2  C   UNL     1      -9.337   8.453  72.528  1.00  0.00    -0.346 C  
HETATM    3  C   UNL     1     -10.535   7.663  73.084  1.00  0.00    -0.433 C  
HETATM    4  C   UNL     1     -11.757   8.238  72.356  1.00  0.00    -0.463 C  
HETATM    5  C   UNL     1     -11.161   9.422  71.620  1.00  0.00    -0.431 C  
HETATM    6  C   UNL     1     -11.813   9.951  70.416  1.00  0.00    -0.234 A  
HETATM    7  N   UNL     1     -12.474  11.039  70.109  1.00  0.00    -0.294 NA 
HETATM    8  N   UNL     1     -12.225  11.287  68.759  1.00  0.00    -0.525 NA 
HETATM    9  C   UNL     1     -11.368  10.389  68.326  1.00  0.00    -0.224 A  
HETATM   10  C   UNL     1     -10.199   8.490  69.632  1.00  0.00    -0.209 C  
HETATM   11  N   UNL     1     -11.200   9.477  69.308  1.00  0.00    -0.077 NA 
ENDROOT
BRANCH   9  12
HETATM   12  C   UNL     1     -10.664  10.329  67.021  1.00  0.00    -0.281 C  
BRANCH  12  13
HETATM   13  C   UNL     1     -11.094  11.474  66.080  1.00  0.00    -0.244 C  
BRANCH  13  14
HETATM   14  N   UNL     1      -9.937  12.105  65.410  1.00  0.00    -0.255 NA 
HETATM   15  C   UNL     1     -10.303  13.329  64.651  1.00  0.00    -0.375 C  
HETATM   16  C   UNL     1     -10.664  14.547  65.528  1.00  0.00    -0.341 C  
HETATM   17  N   UNL     1      -9.529  14.862  66.408  1.00  0.00    -0.283 NA 
HETATM   18  C   UNL     1      -8.866  12.465  66.375  1.00  0.00    -0.046 C  
HETATM   19  C   UNL     1      -9.101  13.730  67.248  1.00  0.00    -0.232 C  
BRANCH  17  20
HETATM   20  C   UNL     1      -9.004  16.136  66.514  1.00  0.00    -0.287 A  
HETATM   21  C   UNL     1      -7.620  16.359  66.614  1.00  0.00    -0.288 A  
HETATM   22  C   UNL     1      -7.070  17.640  66.748  1.00  0.00    -0.239 A  
HETATM   23  C   UNL     1      -7.904  18.748  66.788  1.00  0.00    -0.255 A  
HETATM   24  C   UNL     1      -9.289  18.578  66.704  1.00  0.00    -0.310 A  
HETATM   25  C   UNL     1     -10.224  19.755  66.773  1.00  0.00    -0.462 C  
HETATM   26  C   UNL     1      -9.817  17.278  66.555  1.00  0.00    -0.306 A  
HETATM   27  F   UNL     1     -11.096  19.668  67.816  1.00  0.00    -0.504 F  
HETATM   28  F   UNL     1     -10.993  19.885  65.657  1.00  0.00    -0.548 F  
HETATM   29  F   UNL     1      -9.588  20.954  66.924  1.00  0.00    -0.519 F  
ENDBRANCH  17  20
ENDBRANCH  13  14
ENDBRANCH  12  13
ENDBRANCH   9  12
TORSDOF 4
ENDMDL
MODEL       11
REMARK 921   NORMALIZED FREE ENERGY PREDICTED BY IDOCK:   -7.59 KCAL/MOL
REMARK 922        TOTAL FREE ENERGY PREDICTED BY IDOCK:   -9.96 KCAL/MOL
REMARK 923 INTER-LIGAND FREE ENERGY PREDICTED BY IDOCK:   -9.29 KCAL/MOL
REMARK 924 INTRA-LIGAND FREE ENERGY PREDICTED BY IDOCK:   -0.66 KCAL/MOL
REMARK 927      BINDING AFFINITY PREDICTED BY RF-SCORE:    0.00 PKD
ROOT
HETATM    1  C   UNL     1      -9.954  11.188  65.128  1.00  0.00    -0.323 C  
HETATM    2  C   UNL     1      -9.569   9.733  64.752  1.00  0.00    -0.284 C  
HETATM    3  C   UNL     1      -9.051   9.816  63.306  1.00  0.00    -0.267 C  
HETATM    4  C   UNL     1      -9.785  11.016  62.693  1.00  0.00    -0.241 C  
HETATM    5  C   UNL     1     -10.786  11.364  63.777  1.00  0.00    -0.470 C  
HETATM    6  C   UNL     1     -11.338  12.722  63.869  1.00  0.00    -0.442 A  
HETATM    7  N   UNL     1     -12.503  13.277  63.648  1.00  0.00    -0.742 NA 
HETATM    8  N   UNL     1     -12.604  14.350  64.534  1.00  0.00    -0.673 NA 
HETATM    9  C   UNL     1     -11.538  14.354  65.301  1.00  0.00    -0.353 A  
HETATM   10  C   UNL     1      -9.556  12.696  65.345  1.00  0.00     0.032 C  
HETATM   11  N   UNL     1     -10.683  13.427  64.819  1.00  0.00    -0.366 NA 
ENDROOT
BRANCH   9  12
HETATM   12  C   UNL     1     -11.258  15.183  66.501  1.00  0.00    -0.283 C  
BRANCH  12  13
HETATM   13  C   UNL     1     -12.028  14.680  67.740  1.00  0.00    -0.268 C  
BRANCH  13  14
HETATM   14  N   UNL     1     -11.117  14.224  68.811  1.00  0.00    -0.245 NA 
HETATM   15  C   UNL     1     -11.795  14.070  70.124  1.00  0.00    -0.306 C  
HETATM   16  C   UNL     1     -12.762  12.870  70.214  1.00  0.00     0.121 C  
HETATM   17  N   UNL     1     -12.025  11.633  69.919  1.00  0.00    -0.332 NA 
HETATM   18  C   UNL     1     -10.470  12.929  68.474  1.00  0.00    -0.247 C  
HETATM   19  C   UNL     1     -11.341  11.649  68.614  1.00  0.00    -0.267 C  
BRANCH  17  20
HETATM   20  C   UNL     1     -12.077  10.524  70.742  1.00  0.00    -0.370 A  
HETATM   21  C   UNL     1     -13.272  10.119  71.362  1.00  0.00    -0.474 A  
HETATM   22  C   UNL     1     -13.340   9.012  72.219  1.00  0.00    -0.523 A  
HETATM   23  C   UNL     1     -12.196   8.273  72.482  1.00  0.00    -0.367 A  
HETATM   24  C   UNL     1     -10.980   8.642  71.899  1.00  0.00    -0.412 A  
HETATM   25  C   UNL     1      -9.715   7.880  72.186  1.00  0.00    -0.199 C  
HETATM   26  C   UNL     1     -10.941   9.752  71.028  1.00  0.00    -0.402 A  
HETATM   27  F   UNL     1      -8.750   8.662  72.746  1.00  0.00    -0.278 F  
HETATM   28  F   UNL     1      -9.155   7.345  71.066  1.00  0.00    -0.148 F  
HETATM   29  F   UNL     1      -9.888   6.834  73.047  1.00  0.00    -0.163 F  
ENDBRANCH  17  20
ENDBRANCH  13  14
ENDBRANCH  12  13
ENDBRANCH   9  12
TORSDOF 4
ENDMDL
MODEL       12
REMARK 921   NORMALIZED FREE ENERGY PREDICTED BY IDOCK:   -7.56 KCAL/MOL
REMARK 922        TOTAL FREE ENERGY PREDICTED BY IDOCK:   -9.92 KCAL/MOL
REMARK 923 INTER-LIGAND FREE ENERGY PREDICTED BY IDOCK:   -9.25 KCAL/MOL
REMARK 924 INTRA-LIGAND FREE ENERGY PREDICTED BY IDOCK:   -0.67 KCAL/MOL
REMARK 927      BINDING AFFINITY PREDICTED BY RF-SCORE:    0.00 PKD
ROOT
HETATM    1  C   UNL     1      -7.707  19.191  66.353  1.00  0.00    -0.288 C  
HETATM    2  C   UNL     1      -6.925  20.530  66.341  1.00  0.00    -0.284 C  
HETATM    3  C   UNL     1      -6.139  20.547  67.663  1.00  0.00    -0.290 C  
HETATM    4  C   UNL     1      -6.979  19.705  68.631  1.00  0.00    -0.362 C  
HETATM    5  C   UNL     1      -8.244  19.466  67.830  1.00  0.00    -0.341 C  
HETATM    6  C   UNL     1      -9.101  18.310  68.124  1.00  0.00    -0.298 A  
HETATM    7  N   UNL     1     -10.286  18.132  68.650  1.00  0.00    -0.384 NA 
HETATM    8  N   UNL     1     -10.822  16.996  68.043  1.00  0.00    -0.366 NA 
HETATM    9  C   UNL     1      -9.978  16.581  67.125  1.00  0.00    -0.266 A  
HETATM   10  C   UNL     1      -7.725  17.617  66.396  1.00  0.00    -0.290 C  
HETATM   11  N   UNL     1      -8.849  17.310  67.249  1.00  0.00    -0.219 NA 
ENDROOT
BRANCH   9  12
HETATM   12  C   UNL     1     -10.165  15.525  66.099  1.00  0.00    -0.322 C  
BRANCH  12  13
HETATM   13  C   UNL     1      -9.647  14.154  66.583  1.00  0.00    -0.289 C  
BRANCH  13  14
HETATM   14  N   UNL     1     -10.682  13.103  66.481  1.00  0.00    -0.278 NA 
HETATM   15  C   UNL     1     -10.184  11.758  66.867  1.00  0.00    -0.209 C  
HETATM   16  C   UNL     1      -9.920  11.577  68.377  1.00  0.00    -0.206 C  
HETATM   17  N   UNL     1     -11.159  11.850  69.120  1.00  0.00    -0.238 NA 
HETATM   18  C   UNL     1     -11.870  13.412  67.319  1.00  0.00    -0.376 C  
HETATM   19  C   UNL     1     -11.728  13.181  68.851  1.00  0.00    -0.326 C  
BRANCH  17  20
HETATM   20  C   UNL     1     -11.662  10.979  70.068  1.00  0.00    -0.355 A  
HETATM   21  C   UNL     1     -12.539  11.412  71.077  1.00  0.00    -0.487 A  
HETATM   22  C   UNL     1     -13.041  10.550  72.062  1.00  0.00    -0.511 A  
HETATM   23  C   UNL     1     -12.671   9.213  72.061  1.00  0.00    -0.473 A  
HETATM   24  C   UNL     1     -11.792   8.736  71.085  1.00  0.00    -0.345 A  
HETATM   25  C   UNL     1     -11.346   7.299  71.072  1.00  0.00    -0.274 C  
HETATM   26  C   UNL     1     -11.312   9.621  70.095  1.00  0.00    -0.275 A  
HETATM   27  F   UNL     1      -9.995   7.170  71.189  1.00  0.00    -0.182 F  
HETATM   28  F   UNL     1     -11.682   6.652  69.923  1.00  0.00    -0.400 F  
HETATM   29  F   UNL     1     -11.877   6.551  72.084  1.00  0.00    -0.312 F  
ENDBRANCH  17  20
ENDBRANCH  13  14
ENDBRANCH  12  13
ENDBRANCH   9  12
TORSDOF 4
ENDMDL
MODEL       13
REMARK 921   NORMALIZED FREE ENERGY PREDICTED BY IDOCK:   -7.54 KCAL/MOL
REMARK 922        TOTAL FREE ENERGY PREDICTED BY IDOCK:   -9.89 KCAL/MOL
REMARK 923 INTER-LIGAND FREE ENERGY PREDICTED BY IDOCK:   -9.34 KCAL/MOL
REMARK 924 INTRA-LIGAND FREE ENERGY PREDICTED BY IDOCK:   -0.54 KCAL/MOL
REMARK 927      BINDING AFFINITY PREDICTED BY RF-SCORE:    0.00 PKD
ROOT
HETATM    1  C   UNL     1     -11.091   9.866  70.708  1.00  0.00    -0.417 C  
HETATM    2  C   UNL     1     -11.022   8.760  71.791  1.00  0.00    -0.415 C  
HETATM    3  C   UNL     1     -12.486   8.376  72.067  1.00  0.00    -0.407 C  
HETATM    4  C   UNL     1     -13.291   9.645  71.756  1.00  0.00    -0.505 C  
HETATM    5  C   UNL     1     -12.195  10.669  71.534  1.00  0.00    -0.345 C  
HETATM    6  C   UNL     1     -12.452  11.866  70.724  1.00  0.00    -0.291 A  
HETATM    7  N   UNL     1     -12.579  13.148  70.959  1.00  0.00    -0.353 NA 
HETATM    8  N   UNL     1     -12.117  13.808  69.820  1.00  0.00    -0.335 NA 
HETATM    9  C   UNL     1     -11.660  12.908  68.978  1.00  0.00    -0.322 A  
HETATM   10  C   UNL     1     -11.499  10.344  69.264  1.00  0.00    -0.215 C  
HETATM   11  N   UNL     1     -11.975  11.691  69.470  1.00  0.00    -0.320 NA 
ENDROOT
BRANCH   9  12
HETATM   12  C   UNL     1     -10.913  13.113  67.713  1.00  0.00    -0.272 C  
BRANCH  12  13
HETATM   13  C   UNL     1     -11.319  14.425  67.009  1.00  0.00    -0.346 C  
BRANCH  13  14
HETATM   14  N   UNL     1     -10.238  14.952  66.150  1.00  0.00    -0.285 NA 
HETATM   15  C   UNL     1     -10.501  16.331  65.666  1.00  0.00    -0.368 C  
HETATM   16  C   UNL     1     -10.392  17.426  66.749  1.00  0.00    -0.305 C  
HETATM   17  N   UNL     1      -9.048  17.385  67.343  1.00  0.00    -0.234 NA 
HETATM   18  C   UNL     1      -8.926  14.951  66.847  1.00  0.00    -0.253 C  
HETATM   19  C   UNL     1      -8.689  16.070  67.901  1.00  0.00    -0.165 C  
BRANCH  17  20
HETATM   20  C   UNL     1      -8.258  18.512  67.469  1.00  0.00    -0.252 A  
HETATM   21  C   UNL     1      -8.074  19.409  66.403  1.00  0.00    -0.329 A  
HETATM   22  C   UNL     1      -7.257  20.543  66.503  1.00  0.00    -0.279 A  
HETATM   23  C   UNL     1      -6.593  20.811  67.691  1.00  0.00    -0.390 A  
HETATM   24  C   UNL     1      -6.735  19.944  68.778  1.00  0.00    -0.358 A  
HETATM   25  C   UNL     1      -6.006  20.189  70.071  1.00  0.00    -0.353 C  
HETATM   26  C   UNL     1      -7.575  18.816  68.656  1.00  0.00    -0.357 A  
HETATM   27  F   UNL     1      -5.174  19.163  70.405  1.00  0.00    -0.181 F  
HETATM   28  F   UNL     1      -6.847  20.343  71.130  1.00  0.00    -0.287 F  
HETATM   29  F   UNL     1      -5.223  21.308  70.056  1.00  0.00    -0.405 F  
ENDBRANCH  17  20
ENDBRANCH  13  14
ENDBRANCH  12  13
ENDBRANCH   9  12
TORSDOF 4
ENDMDL
MODEL       14
REMARK 921   NORMALIZED FREE ENERGY PREDICTED BY IDOCK:   -7.47 KCAL/MOL
REMARK 922        TOTAL FREE ENERGY PREDICTED BY IDOCK:   -9.80 KCAL/MOL
REMARK 923 INTER-LIGAND FREE ENERGY PREDICTED BY IDOCK:   -9.28 KCAL/MOL
REMARK 924 INTRA-LIGAND FREE ENERGY PREDICTED BY IDOCK:   -0.52 KCAL/MOL
REMARK 927      BINDING AFFINITY PREDICTED BY RF-SCORE:    0.00 PKD
ROOT
HETATM    1  C   UNL     1     -11.780   8.430  71.135  1.00  0.00    -0.315 C  
HETATM    2  C   UNL     1     -11.849   7.122  71.964  1.00  0.00    -0.333 C  
HETATM    3  C   UNL     1     -10.896   7.349  73.151  1.00  0.00    -0.435 C  
HETATM    4  C   UNL     1      -9.844   8.336  72.628  1.00  0.00    -0.357 C  
HETATM    5  C   UNL     1     -10.185   8.410  71.152  1.00  0.00    -0.254 C  
HETATM    6  C   UNL     1      -9.801   9.587  70.361  1.00  0.00    -0.271 A  
HETATM    7  N   UNL     1      -8.932   9.837  69.414  1.00  0.00    -0.176 NA 
HETATM    8  N   UNL     1      -9.489  10.840  68.621  1.00  0.00    -0.180 NA 
HETATM    9  C   UNL     1     -10.696  11.101  69.071  1.00  0.00    -0.225 A  
HETATM   10  C   UNL     1     -11.985   9.987  71.015  1.00  0.00    -0.376 C  
HETATM   11  N   UNL     1     -10.856  10.422  70.227  1.00  0.00    -0.284 NA 
ENDROOT
BRANCH   9  12
HETATM   12  C   UNL     1     -11.748  11.957  68.469  1.00  0.00    -0.388 C  
BRANCH  12  13
HETATM   13  C   UNL     1     -11.266  12.637  67.171  1.00  0.00    -0.300 C  
BRANCH  13  14
HETATM   14  N   UNL     1     -12.007  13.884  66.889  1.00  0.00    -0.420 NA 
HETATM   15  C   UNL     1     -11.985  14.842  68.024  1.00  0.00    -0.227 C  
HETATM   16  C   UNL     1     -10.620  15.519  68.270  1.00  0.00    -0.255 C  
HETATM   17  N   UNL     1     -10.206  16.228  67.051  1.00  0.00    -0.275 NA 
HETATM   18  C   UNL     1     -11.480  14.583  65.688  1.00  0.00    -0.341 C  
HETATM   19  C   UNL     1     -10.147  15.366  65.858  1.00  0.00    -0.345 C  
BRANCH  17  20
HETATM   20  C   UNL     1      -9.796  17.547  67.063  1.00  0.00    -0.295 A  
HETATM   21  C   UNL     1     -10.527  18.554  66.407  1.00  0.00    -0.443 A  
HETATM   22  C   UNL     1     -10.116  19.893  66.387  1.00  0.00    -0.615 A  
HETATM   23  C   UNL     1      -8.943  20.264  67.030  1.00  0.00    -0.451 A  
HETATM   24  C   UNL     1      -8.175  19.298  67.686  1.00  0.00    -0.327 A  
HETATM   25  C   UNL     1      -6.884  19.660  68.368  1.00  0.00    -0.294 C  
HETATM   26  C   UNL     1      -8.619  17.959  67.705  1.00  0.00    -0.242 A  
HETATM   27  F   UNL     1      -5.816  18.987  67.856  1.00  0.00    -0.189 F  
HETATM   28  F   UNL     1      -6.894  19.382  69.700  1.00  0.00    -0.337 F  
HETATM   29  F   UNL     1      -6.565  20.985  68.272  1.00  0.00    -0.334 F  
ENDBRANCH  17  20
ENDBRANCH  13  14
ENDBRANCH  12  13
ENDBRANCH   9  12
TORSDOF 4
ENDMDL
MODEL       15
REMARK 921   NORMALIZED FREE ENERGY PREDICTED BY IDOCK:   -7.45 KCAL/MOL
REMARK 922        TOTAL FREE ENERGY PREDICTED BY IDOCK:   -9.77 KCAL/MOL
REMARK 923 INTER-LIGAND FREE ENERGY PREDICTED BY IDOCK:   -9.21 KCAL/MOL
REMARK 924 INTRA-LIGAND FREE ENERGY PREDICTED BY IDOCK:   -0.57 KCAL/MOL
REMARK 927      BINDING AFFINITY PREDICTED BY RF-SCORE:    0.00 PKD
ROOT
HETATM    1  C   UNL     1      -9.837   8.576  71.257  1.00  0.00    -0.279 C  
HETATM    2  C   UNL     1      -9.120   7.651  72.274  1.00  0.00    -0.183 C  
HETATM    3  C   UNL     1     -10.153   6.566  72.627  1.00  0.00    -0.190 C  
HETATM    4  C   UNL     1     -11.516   7.244  72.438  1.00  0.00    -0.327 C  
HETATM    5  C   UNL     1     -11.122   8.688  72.197  1.00  0.00    -0.434 C  
HETATM    6  C   UNL     1     -12.022   9.592  71.470  1.00  0.00    -0.406 A  
HETATM    7  N   UNL     1     -12.767  10.623  71.780  1.00  0.00    -0.419 NA 
HETATM    8  N   UNL     1     -12.805  11.439  70.649  1.00  0.00    -0.167 NA 
HETATM    9  C   UNL     1     -12.025  10.912  69.733  1.00  0.00    -0.351 A  
HETATM   10  C   UNL     1     -10.552   8.792  69.871  1.00  0.00    -0.224 C  
HETATM   11  N   UNL     1     -11.631   9.700  70.180  1.00  0.00    -0.191 NA 
ENDROOT
BRANCH   9  12
HETATM   12  C   UNL     1     -11.599  11.485  68.432  1.00  0.00    -0.375 C  
BRANCH  12  13
HETATM   13  C   UNL     1     -11.755  13.020  68.400  1.00  0.00    -0.351 C  
BRANCH  13  14
HETATM   14  N   UNL     1     -10.566  13.710  68.943  1.00  0.00    -0.227 NA 
HETATM   15  C   UNL     1      -9.656  14.219  67.886  1.00  0.00    -0.221 C  
HETATM   16  C   UNL     1     -10.198  15.430  67.097  1.00  0.00    -0.251 C  
HETATM   17  N   UNL     1     -10.488  16.526  68.033  1.00  0.00    -0.300 NA 
HETATM   18  C   UNL     1     -10.940  14.853  69.817  1.00  0.00    -0.258 C  
HETATM   19  C   UNL     1     -11.421  16.151  69.110  1.00  0.00    -0.311 C  
BRANCH  17  20
HETATM   20  C   UNL     1     -10.019  17.811  67.839  1.00  0.00    -0.322 A  
HETATM   21  C   UNL     1     -10.748  18.761  67.104  1.00  0.00    -0.469 A  
HETATM   22  C   UNL     1     -10.279  20.062  66.876  1.00  0.00    -0.595 A  
HETATM   23  C   UNL     1      -9.047  20.449  67.384  1.00  0.00    -0.484 A  
HETATM   24  C   UNL     1      -8.278  19.537  68.112  1.00  0.00    -0.352 A  
HETATM   25  C   UNL     1      -6.925  19.914  68.652  1.00  0.00    -0.318 C  
HETATM   26  C   UNL     1      -8.780  18.238  68.341  1.00  0.00    -0.325 A  
HETATM   27  F   UNL     1      -5.929  19.122  68.166  1.00  0.00    -0.204 F  
HETATM   28  F   UNL     1      -6.850  19.814  70.008  1.00  0.00    -0.359 F  
HETATM   29  F   UNL     1      -6.554  21.195  68.357  1.00  0.00    -0.313 F  
ENDBRANCH  17  20
ENDBRANCH  13  14
ENDBRANCH  12  13
ENDBRANCH   9  12
TORSDOF 4
ENDMDL
MODEL       16
REMARK 921   NORMALIZED FREE ENERGY PREDICTED BY IDOCK:   -7.40 KCAL/MOL
REMARK 922        TOTAL FREE ENERGY PREDICTED BY IDOCK:   -9.72 KCAL/MOL
REMARK 923 INTER-LIGAND FREE ENERGY PREDICTED BY IDOCK:   -9.09 KCAL/MOL
REMARK 924 INTRA-LIGAND FREE ENERGY PREDICTED BY IDOCK:   -0.63 KCAL/MOL
REMARK 927      BINDING AFFINITY PREDICTED BY RF-SCORE:    0.00 PKD
ROOT
HETATM    1  C   UNL     1      -8.735  17.813  66.900  1.00  0.00    -0.262 C  
HETATM    2  C   UNL     1      -8.173  19.169  67.399  1.00  0.00    -0.302 C  
HETATM    3  C   UNL     1      -9.362  19.871  68.078  1.00  0.00    -0.431 C  
HETATM    4  C   UNL     1     -10.603  19.323  67.360  1.00  0.00    -0.594 C  
HETATM    5  C   UNL     1      -9.989  18.530  66.224  1.00  0.00    -0.384 C  
HETATM    6  C   UNL     1     -10.736  17.432  65.597  1.00  0.00    -0.111 A  
HETATM    7  N   UNL     1     -11.314  17.233  64.439  1.00  0.00    -0.825 NA 
HETATM    8  N   UNL     1     -11.221  15.865  64.180  1.00  0.00    -0.418 NA 
HETATM    9  C   UNL     1     -10.530  15.308  65.149  1.00  0.00    -0.411 A  
HETATM   10  C   UNL     1      -9.403  16.418  67.194  1.00  0.00    -0.218 C  
HETATM   11  N   UNL     1     -10.329  16.245  66.100  1.00  0.00    -0.328 NA 
ENDROOT
BRANCH   9  12
HETATM   12  C   UNL     1     -10.015  13.919  65.244  1.00  0.00    -0.266 C  
BRANCH  12  13
HETATM   13  C   UNL     1     -10.997  12.990  65.988  1.00  0.00    -0.275 C  
BRANCH  13  14
HETATM   14  N   UNL     1     -10.958  13.199  67.451  1.00  0.00    -0.259 NA 
HETATM   15  C   UNL     1     -11.878  12.298  68.191  1.00  0.00    -0.311 C  
HETATM   16  C   UNL     1     -11.441  10.818  68.229  1.00  0.00    -0.280 C  
HETATM   17  N   UNL     1     -10.105  10.725  68.835  1.00  0.00    -0.197 NA 
HETATM   18  C   UNL     1      -9.590  13.011  68.001  1.00  0.00    -0.224 C  
HETATM   19  C   UNL     1      -9.089  11.547  68.156  1.00  0.00    -0.181 C  
BRANCH  17  20
HETATM   20  C   UNL     1      -9.818   9.853  69.868  1.00  0.00    -0.245 A  
HETATM   21  C   UNL     1      -8.496   9.586  70.265  1.00  0.00    -0.237 A  
HETATM   22  C   UNL     1      -8.184   8.686  71.292  1.00  0.00    -0.194 A  
HETATM   23  C   UNL     1      -9.202   8.019  71.958  1.00  0.00    -0.229 A  
HETATM   24  C   UNL     1     -10.533   8.241  71.593  1.00  0.00    -0.303 A  
HETATM   25  C   UNL     1     -11.660   7.513  72.273  1.00  0.00    -0.310 C  
HETATM   26  C   UNL     1     -10.822   9.164  70.564  1.00  0.00    -0.306 A  
HETATM   27  F   UNL     1     -12.400   6.767  71.406  1.00  0.00    -0.354 F  
HETATM   28  F   UNL     1     -12.541   8.354  72.883  1.00  0.00    -0.378 F  
HETATM   29  F   UNL     1     -11.247   6.646  73.245  1.00  0.00    -0.254 F  
ENDBRANCH  17  20
ENDBRANCH  13  14
ENDBRANCH  12  13
ENDBRANCH   9  12
TORSDOF 4
ENDMDL
MODEL       17
REMARK 921   NORMALIZED FREE ENERGY PREDICTED BY IDOCK:   -7.39 KCAL/MOL
REMARK 922        TOTAL FREE ENERGY PREDICTED BY IDOCK:   -9.70 KCAL/MOL
REMARK 923 INTER-LIGAND FREE ENERGY PREDICTED BY IDOCK:   -9.21 KCAL/MOL
REMARK 924 INTRA-LIGAND FREE ENERGY PREDICTED BY IDOCK:   -0.49 KCAL/MOL
REMARK 927      BINDING AFFINITY PREDICTED BY RF-SCORE:    0.00 PKD
ROOT
HETATM    1  C   UNL     1     -10.020   8.247  72.541  1.00  0.00    -0.373 C  
HETATM    2  C   UNL     1      -9.238   7.270  73.457  1.00  0.00    -0.241 C  
HETATM    3  C   UNL     1      -9.739   5.868  73.068  1.00  0.00    -0.162 C  
HETATM    4  C   UNL     1     -11.171   6.088  72.562  1.00  0.00    -0.333 C  
HETATM    5  C   UNL     1     -11.407   7.546  72.902  1.00  0.00    -0.355 C  
HETATM    6  C   UNL     1     -12.408   8.327  72.164  1.00  0.00    -0.360 A  
HETATM    7  N   UNL     1     -13.581   8.842  72.434  1.00  0.00    -0.416 NA 
HETATM    8  N   UNL     1     -13.700   9.990  71.650  1.00  0.00    -0.186 NA 
HETATM    9  C   UNL     1     -12.572  10.164  70.999  1.00  0.00    -0.381 A  
HETATM   10  C   UNL     1     -10.398   8.769  71.104  1.00  0.00    -0.246 C  
HETATM   11  N   UNL     1     -11.806   9.072  71.210  1.00  0.00    -0.296 NA 
ENDROOT
BRANCH   9  12
HETATM   12  C   UNL     1     -12.141  11.323  70.179  1.00  0.00    -0.448 C  
BRANCH  12  13
HETATM   13  C   UNL     1     -12.431  12.666  70.881  1.00  0.00    -0.278 C  
BRANCH  13  14
HETATM   14  N   UNL     1     -12.716  13.748  69.914  1.00  0.00    -0.078 NA 
HETATM   15  C   UNL     1     -12.528  15.104  70.488  1.00  0.00    -0.379 C  
HETATM   16  C   UNL     1     -11.057  15.499  70.740  1.00  0.00    -0.351 C  
HETATM   17  N   UNL     1     -10.311  15.417  69.477  1.00  0.00    -0.250 NA 
HETATM   18  C   UNL     1     -11.869  13.641  68.698  1.00  0.00    -0.374 C  
HETATM   19  C   UNL     1     -10.387  14.095  68.831  1.00  0.00    -0.199 C  
BRANCH  17  20
HETATM   20  C   UNL     1      -9.519  16.450  69.014  1.00  0.00    -0.258 A  
HETATM   21  C   UNL     1      -8.116  16.360  69.005  1.00  0.00    -0.223 A  
HETATM   22  C   UNL     1      -7.295  17.406  68.563  1.00  0.00    -0.237 A  
HETATM   23  C   UNL     1      -7.866  18.587  68.113  1.00  0.00    -0.308 A  
HETATM   24  C   UNL     1      -9.257  18.731  68.112  1.00  0.00    -0.348 A  
HETATM   25  C   UNL     1      -9.909  20.009  67.658  1.00  0.00    -0.413 C  
HETATM   26  C   UNL     1     -10.062  17.657  68.549  1.00  0.00    -0.375 A  
HETATM   27  F   UNL     1     -10.666  20.584  68.634  1.00  0.00    -0.380 F  
HETATM   28  F   UNL     1     -10.744  19.829  66.598  1.00  0.00    -0.522 F  
HETATM   29  F   UNL     1      -9.020  20.969  67.267  1.00  0.00    -0.442 F  
ENDBRANCH  17  20
ENDBRANCH  13  14
ENDBRANCH  12  13
ENDBRANCH   9  12
TORSDOF 4
ENDMDL
MODEL       18
REMARK 921   NORMALIZED FREE ENERGY PREDICTED BY IDOCK:   -7.32 KCAL/MOL
REMARK 922        TOTAL FREE ENERGY PREDICTED BY IDOCK:   -9.62 KCAL/MOL
REMARK 923 INTER-LIGAND FREE ENERGY PREDICTED BY IDOCK:   -9.22 KCAL/MOL
REMARK 924 INTRA-LIGAND FREE ENERGY PREDICTED BY IDOCK:   -0.39 KCAL/MOL
REMARK 927      BINDING AFFINITY PREDICTED BY RF-SCORE:    0.00 PKD
ROOT
HETATM    1  C   UNL     1     -10.660  18.561  66.813  1.00  0.00    -0.395 C  
HETATM    2  C   UNL     1     -10.761  19.885  67.612  1.00  0.00    -0.399 C  
HETATM    3  C   UNL     1      -9.511  20.690  67.216  1.00  0.00    -0.520 C  
HETATM    4  C   UNL     1      -8.460  19.631  66.854  1.00  0.00    -0.343 C  
HETATM    5  C   UNL     1      -9.147  18.346  67.272  1.00  0.00    -0.268 C  
HETATM    6  C   UNL     1      -8.763  17.067  66.662  1.00  0.00    -0.251 A  
HETATM    7  N   UNL     1      -8.134  15.990  67.060  1.00  0.00    -0.198 NA 
HETATM    8  N   UNL     1      -8.675  14.926  66.337  1.00  0.00    -0.174 NA 
HETATM    9  C   UNL     1      -9.654  15.388  65.592  1.00  0.00    -0.288 A  
HETATM   10  C   UNL     1     -10.589  17.793  65.439  1.00  0.00     0.078 C  
HETATM   11  N   UNL     1      -9.639  16.735  65.687  1.00  0.00    -0.524 NA 
ENDROOT
BRANCH   9  12
HETATM   12  C   UNL     1     -10.642  14.633  64.782  1.00  0.00    -0.379 C  
BRANCH  12  13
HETATM   13  C   UNL     1     -10.310  13.128  64.724  1.00  0.00    -0.350 C  
BRANCH  13  14
HETATM   14  N   UNL     1     -11.430  12.294  65.211  1.00  0.00    -0.342 NA 
HETATM   15  C   UNL     1     -11.003  11.264  66.192  1.00  0.00    -0.191 C  
HETATM   16  C   UNL     1     -10.603  11.818  67.576  1.00  0.00    -0.214 C  
HETATM   17  N   UNL     1     -11.735  12.565  68.143  1.00  0.00    -0.336 NA 
HETATM   18  C   UNL     1     -12.498  13.113  65.840  1.00  0.00    -0.319 C  
HETATM   19  C   UNL     1     -12.222  13.649  67.273  1.00  0.00    -0.275 C  
BRANCH  17  20
HETATM   20  C   UNL     1     -12.207  12.339  69.422  1.00  0.00    -0.065 A  
HETATM   21  C   UNL     1     -12.489  13.397  70.303  1.00  0.00    -0.285 A  
HETATM   22  C   UNL     1     -12.945  13.188  71.612  1.00  0.00    -0.429 A  
HETATM   23  C   UNL     1     -13.131  11.895  72.078  1.00  0.00    -0.441 A  
HETATM   24  C   UNL     1     -12.854  10.808  71.244  1.00  0.00    -0.540 A  
HETATM   25  C   UNL     1     -13.017   9.393  71.727  1.00  0.00    -0.402 C  
HETATM   26  C   UNL     1     -12.410  11.046  69.925  1.00  0.00    -0.356 A  
HETATM   27  F   UNL     1     -11.854   8.685  71.675  1.00  0.00    -0.302 F  
HETATM   28  F   UNL     1     -13.916   8.683  70.991  1.00  0.00    -0.292 F  
HETATM   29  F   UNL     1     -13.446   9.300  73.021  1.00  0.00    -0.426 F  
ENDBRANCH  17  20
ENDBRANCH  13  14
ENDBRANCH  12  13
ENDBRANCH   9  12
TORSDOF 4
ENDMDL
MODEL       19
REMARK 921   NORMALIZED FREE ENERGY PREDICTED BY IDOCK:   -7.29 KCAL/MOL
REMARK 922        TOTAL FREE ENERGY PREDICTED BY IDOCK:   -9.58 KCAL/MOL
REMARK 923 INTER-LIGAND FREE ENERGY PREDICTED BY IDOCK:   -9.06 KCAL/MOL
REMARK 924 INTRA-LIGAND FREE ENERGY PREDICTED BY IDOCK:   -0.52 KCAL/MOL
REMARK 927      BINDING AFFINITY PREDICTED BY RF-SCORE:    0.00 PKD
ROOT
HETATM    1  C   UNL     1     -10.323  18.238  66.225  1.00  0.00    -0.422 C  
HETATM    2  C   UNL     1     -10.367  19.784  66.121  1.00  0.00    -0.627 C  
HETATM    3  C   UNL     1      -9.549  20.290  67.322  1.00  0.00    -0.581 C  
HETATM    4  C   UNL     1      -9.696  19.196  68.387  1.00  0.00    -0.451 C  
HETATM    5  C   UNL     1     -10.736  18.285  67.765  1.00  0.00    -0.358 C  
HETATM    6  C   UNL     1     -10.816  16.873  68.160  1.00  0.00    -0.351 A  
HETATM    7  N   UNL     1     -11.657  16.136  68.843  1.00  0.00    -0.341 NA 
HETATM    8  N   UNL     1     -11.589  14.852  68.302  1.00  0.00    -0.325 NA 
HETATM    9  C   UNL     1     -10.774  14.881  67.272  1.00  0.00    -0.294 A  
HETATM   10  C   UNL     1      -9.508  16.890  66.251  1.00  0.00    -0.271 C  
HETATM   11  N   UNL     1     -10.189  16.097  67.247  1.00  0.00    -0.271 NA 
ENDROOT
BRANCH   9  12
HETATM   12  C   UNL     1     -10.505  13.820  66.269  1.00  0.00    -0.291 C  
BRANCH  12  13
HETATM   13  C   UNL     1      -9.207  13.048  66.581  1.00  0.00    -0.219 C  
BRANCH  13  14
HETATM   14  N   UNL     1      -9.275  11.642  66.127  1.00  0.00    -0.219 NA 
HETATM   15  C   UNL     1      -8.364  10.743  66.881  1.00  0.00    -0.132 C  
HETATM   16  C   UNL     1      -8.796  10.462  68.336  1.00  0.00    -0.136 C  
HETATM   17  N   UNL     1     -10.142   9.872  68.335  1.00  0.00    -0.161 NA 
HETATM   18  C   UNL     1     -10.652  11.093  66.229  1.00  0.00    -0.253 C  
HETATM   19  C   UNL     1     -11.149  10.700  67.649  1.00  0.00    -0.319 C  
BRANCH  17  20
HETATM   20  C   UNL     1     -10.445   8.712  69.021  1.00  0.00    -0.199 A  
HETATM   21  C   UNL     1     -10.575   7.476  68.363  1.00  0.00    -0.177 A  
HETATM   22  C   UNL     1     -10.905   6.293  69.037  1.00  0.00    -0.400 A  
HETATM   23  C   UNL     1     -11.119   6.317  70.408  1.00  0.00    -0.416 A  
HETATM   24  C   UNL     1     -11.013   7.523  71.106  1.00  0.00    -0.264 A  
HETATM   25  C   UNL     1     -11.267   7.591  72.588  1.00  0.00    -0.348 C  
HETATM   26  C   UNL     1     -10.664   8.698  70.406  1.00  0.00    -0.248 A  
HETATM   27  F   UNL     1     -12.286   8.438  72.905  1.00  0.00    -0.446 F  
HETATM   28  F   UNL     1     -10.186   8.031  73.290  1.00  0.00    -0.361 F  
HETATM   29  F   UNL     1     -11.601   6.388  73.143  1.00  0.00    -0.177 F  
ENDBRANCH  17  20
ENDBRANCH  13  14
ENDBRANCH  12  13
ENDBRANCH   9  12
TORSDOF 4
ENDMDL
MODEL       20
REMARK 921   NORMALIZED FREE ENERGY PREDICTED BY IDOCK:   -7.26 KCAL/MOL
REMARK 922        TOTAL FREE ENERGY PREDICTED BY IDOCK:   -9.54 KCAL/MOL
REMARK 923 INTER-LIGAND FREE ENERGY PREDICTED BY IDOCK:   -8.88 KCAL/MOL
REMARK 924 INTRA-LIGAND FREE ENERGY PREDICTED BY IDOCK:   -0.66 KCAL/MOL
REMARK 927      BINDING AFFINITY PREDICTED BY RF-SCORE:    0.00 PKD
ROOT
HETATM    1  C   UNL     1     -10.381  18.555  66.561  1.00  0.00    -0.447 C  
HETATM    2  C   UNL     1     -10.135  20.086  66.546  1.00  0.00    -0.606 C  
HETATM    3  C   UNL     1      -8.912  20.305  67.453  1.00  0.00    -0.457 C  
HETATM    4  C   UNL     1      -8.957  19.148  68.460  1.00  0.00    -0.406 C  
HETATM    5  C   UNL     1     -10.299  18.512  68.154  1.00  0.00    -0.391 C  
HETATM    6  C   UNL     1     -10.546  17.104  68.489  1.00  0.00    -0.361 A  
HETATM    7  N   UNL     1     -11.278  16.464  69.366  1.00  0.00    -0.300 NA 
HETATM    8  N   UNL     1     -11.639  15.254  68.773  1.00  0.00    -0.345 NA 
HETATM    9  C   UNL     1     -11.179  15.244  67.542  1.00  0.00    -0.317 A  
HETATM   10  C   UNL     1      -9.889  17.088  66.270  1.00  0.00    -0.294 C  
HETATM   11  N   UNL     1     -10.391  16.330  67.391  1.00  0.00    -0.280 NA 
ENDROOT
BRANCH   9  12
HETATM   12  C   UNL     1     -11.444  14.265  66.458  1.00  0.00    -0.368 C  
BRANCH  12  13
HETATM   13  C   UNL     1     -10.258  13.301  66.250  1.00  0.00    -0.296 C  
BRANCH  13  14
HETATM   14  N   UNL     1     -10.664  11.885  66.380  1.00  0.00    -0.256 NA 
HETATM   15  C   UNL     1      -9.517  10.971  66.610  1.00  0.00    -0.184 C  
HETATM   16  C   UNL     1      -8.875  11.081  68.010  1.00  0.00    -0.138 C  
HETATM   17  N   UNL     1      -9.898  10.819  69.033  1.00  0.00    -0.203 NA 
HETATM   18  C   UNL     1     -11.639  11.688  67.484  1.00  0.00    -0.272 C  
HETATM   19  C   UNL     1     -11.074  11.700  68.932  1.00  0.00    -0.232 C  
BRANCH  17  20
HETATM   20  C   UNL     1      -9.707   9.911  70.057  1.00  0.00    -0.227 A  
HETATM   21  C   UNL     1      -8.420   9.536  70.482  1.00  0.00    -0.213 A  
HETATM   22  C   UNL     1      -8.206   8.600  71.502  1.00  0.00    -0.209 A  
HETATM   23  C   UNL     1      -9.290   8.004  72.130  1.00  0.00    -0.251 A  
HETATM   24  C   UNL     1     -10.590   8.335  71.736  1.00  0.00    -0.325 A  
HETATM   25  C   UNL     1     -11.787   7.686  72.375  1.00  0.00    -0.289 C  
HETATM   26  C   UNL     1     -10.779   9.292  70.716  1.00  0.00    -0.350 A  
HETATM   27  F   UNL     1     -12.559   7.013  71.477  1.00  0.00    -0.349 F  
HETATM   28  F   UNL     1     -12.616   8.583  72.976  1.00  0.00    -0.381 F  
HETATM   29  F   UNL     1     -11.468   6.775  73.342  1.00  0.00    -0.131 F  
ENDBRANCH  17  20
ENDBRANCH  13  14
ENDBRANCH  12  13
ENDBRANCH   9  12
TORSDOF 4
ENDMDL
MODEL       21
REMARK 921   NORMALIZED FREE ENERGY PREDICTED BY IDOCK:   -7.24 KCAL/MOL
REMARK 922        TOTAL FREE ENERGY PREDICTED BY IDOCK:   -9.52 KCAL/MOL
REMARK 923 INTER-LIGAND FREE ENERGY PREDICTED BY IDOCK:   -8.87 KCAL/MOL
REMARK 924 INTRA-LIGAND FREE ENERGY PREDICTED BY IDOCK:   -0.65 KCAL/MOL
REMARK 927      BINDING AFFINITY PREDICTED BY RF-SCORE:    0.00 PKD
ROOT
HETATM    1  C   UNL     1     -10.557  18.769  67.035  1.00  0.00    -0.483 C  
HETATM    2  C   UNL     1     -10.517  20.082  67.858  1.00  0.00    -0.459 C  
HETATM    3  C   UNL     1      -9.261  20.824  67.369  1.00  0.00    -0.363 C  
HETATM    4  C   UNL     1      -8.305  19.716  66.907  1.00  0.00    -0.333 C  
HETATM    5  C   UNL     1      -9.026  18.463  67.364  1.00  0.00    -0.265 C  
HETATM    6  C   UNL     1      -8.767  17.176  66.706  1.00  0.00    -0.244 A  
HETATM    7  N   UNL     1      -8.169  16.058  67.036  1.00  0.00    -0.198 NA 
HETATM    8  N   UNL     1      -8.826  15.039  66.346  1.00  0.00    -0.255 NA 
HETATM    9  C   UNL     1      -9.836  15.568  65.692  1.00  0.00    -0.342 A  
HETATM   10  C   UNL     1     -10.644  18.024  65.651  1.00  0.00    -0.099 C  
HETATM   11  N   UNL     1      -9.737  16.910  65.803  1.00  0.00    -0.548 NA 
ENDROOT
BRANCH   9  12
HETATM   12  C   UNL     1     -10.929  14.884  64.958  1.00  0.00    -0.432 C  
BRANCH  12  13
HETATM   13  C   UNL     1     -10.486  13.509  64.415  1.00  0.00    -0.346 C  
BRANCH  13  14
HETATM   14  N   UNL     1     -11.501  12.463  64.659  1.00  0.00    -0.319 NA 
HETATM   15  C   UNL     1     -11.010  11.094  64.356  1.00  0.00    -0.200 C  
HETATM   16  C   UNL     1      -9.971  10.546  65.356  1.00  0.00    -0.289 C  
HETATM   17  N   UNL     1     -10.553  10.546  66.706  1.00  0.00    -0.241 NA 
HETATM   18  C   UNL     1     -11.984  12.477  66.065  1.00  0.00    -0.392 C  
HETATM   19  C   UNL     1     -11.039  11.868  67.139  1.00  0.00    -0.293 C  
BRANCH  17  20
HETATM   20  C   UNL     1     -10.529   9.434  67.525  1.00  0.00    -0.280 A  
HETATM   21  C   UNL     1     -10.341   8.140  67.009  1.00  0.00    -0.403 A  
HETATM   22  C   UNL     1     -10.338   6.997  67.820  1.00  0.00    -0.255 A  
HETATM   23  C   UNL     1     -10.527   7.122  69.189  1.00  0.00    -0.219 A  
HETATM   24  C   UNL     1     -10.730   8.387  69.749  1.00  0.00    -0.211 A  
HETATM   25  C   UNL     1     -10.968   8.557  71.225  1.00  0.00    -0.256 C  
HETATM   26  C   UNL     1     -10.714   9.524  68.913  1.00  0.00    -0.220 A  
HETATM   27  F   UNL     1     -12.167   9.141  71.498  1.00  0.00    -0.324 F  
HETATM   28  F   UNL     1     -10.029   9.339  71.825  1.00  0.00    -0.377 F  
HETATM   29  F   UNL     1     -10.965   7.381  71.920  1.00  0.00    -0.229 F  
ENDBRANCH  17  20
ENDBRANCH  13  14
ENDBRANCH  12  13
ENDBRANCH   9  12
TORSDOF 4
ENDMDL
MODEL       22
REMARK 921   NORMALIZED FREE ENERGY PREDICTED BY IDOCK:   -7.23 KCAL/MOL
REMARK 922        TOTAL FREE ENERGY PREDICTED BY IDOCK:   -9.50 KCAL/MOL
REMARK 923 INTER-LIGAND FREE ENERGY PREDICTED BY IDOCK:   -8.99 KCAL/MOL
REMARK 924 INTRA-LIGAND FREE ENERGY PREDICTED BY IDOCK:   -0.52 KCAL/MOL
REMARK 927      BINDING AFFINITY PREDICTED BY RF-SCORE:    0.00 PKD
ROOT
HETATM    1  C   UNL     1     -10.211  18.517  67.526  1.00  0.00    -0.414 C  
HETATM    2  C   UNL     1     -10.416  19.916  68.162  1.00  0.00    -0.472 C  
HETATM    3  C   UNL     1      -9.620  20.884  67.269  1.00  0.00    -0.386 C  
HETATM    4  C   UNL     1      -8.488  20.033  66.679  1.00  0.00    -0.370 C  
HETATM    5  C   UNL     1      -8.632  18.734  67.447  1.00  0.00    -0.289 C  
HETATM    6  C   UNL     1      -8.124  17.477  66.883  1.00  0.00    -0.227 A  
HETATM    7  N   UNL     1      -7.135  16.662  67.149  1.00  0.00    -0.166 NA 
HETATM    8  N   UNL     1      -7.562  15.386  66.781  1.00  0.00    -0.069 NA 
HETATM    9  C   UNL     1      -8.811  15.469  66.381  1.00  0.00    -0.324 A  
HETATM   10  C   UNL     1     -10.365  17.533  66.306  1.00  0.00    -0.335 C  
HETATM   11  N   UNL     1      -9.135  16.778  66.318  1.00  0.00    -0.337 NA 
ENDROOT
BRANCH   9  12
HETATM   12  C   UNL     1      -9.757  14.373  66.055  1.00  0.00    -0.320 C  
BRANCH  12  13
HETATM   13  C   UNL     1      -9.481  13.105  66.890  1.00  0.00    -0.244 C  
BRANCH  13  14
HETATM   14  N   UNL     1     -10.631  12.177  66.885  1.00  0.00    -0.225 NA 
HETATM   15  C   UNL     1     -10.253  10.781  67.225  1.00  0.00    -0.205 C  
HETATM   16  C   UNL     1      -9.874  10.559  68.705  1.00  0.00    -0.186 C  
HETATM   17  N   UNL     1     -11.002  10.960  69.558  1.00  0.00    -0.247 NA 
HETATM   18  C   UNL     1     -11.696  12.608  67.828  1.00  0.00    -0.356 C  
HETATM   19  C   UNL     1     -11.442  12.349  69.341  1.00  0.00    -0.271 C  
BRANCH  17  20
HETATM   20  C   UNL     1     -11.511  10.143  70.549  1.00  0.00    -0.337 A  
HETATM   21  C   UNL     1     -12.860  10.203  70.937  1.00  0.00    -0.442 A  
HETATM   22  C   UNL     1     -13.390   9.400  71.956  1.00  0.00    -0.525 A  
HETATM   23  C   UNL     1     -12.568   8.504  72.625  1.00  0.00    -0.257 A  
HETATM   24  C   UNL     1     -11.215   8.415  72.284  1.00  0.00    -0.446 A  
HETATM   25  C   UNL     1     -10.289   7.475  73.008  1.00  0.00    -0.322 C  
HETATM   26  C   UNL     1     -10.710   9.224  71.243  1.00  0.00    -0.422 A  
HETATM   27  F   UNL     1      -9.255   8.124  73.613  1.00  0.00    -0.315 F  
HETATM   28  F   UNL     1      -9.718   6.556  72.183  1.00  0.00    -0.154 F  
HETATM   29  F   UNL     1     -10.900   6.755  73.995  1.00  0.00    -0.324 F  
ENDBRANCH  17  20
ENDBRANCH  13  14
ENDBRANCH  12  13
ENDBRANCH   9  12
TORSDOF 4
ENDMDL
MODEL       23
REMARK 921   NORMALIZED FREE ENERGY PREDICTED BY IDOCK:   -7.22 KCAL/MOL
REMARK 922        TOTAL FREE ENERGY PREDICTED BY IDOCK:   -9.50 KCAL/MOL
REMARK 923 INTER-LIGAND FREE ENERGY PREDICTED BY IDOCK:   -9.05 KCAL/MOL
REMARK 924 INTRA-LIGAND FREE ENERGY PREDICTED BY IDOCK:   -0.45 KCAL/MOL
REMARK 927      BINDING AFFINITY PREDICTED BY RF-SCORE:    0.00 PKD
ROOT
HETATM    1  C   UNL     1      -8.870  18.094  66.807  1.00  0.00    -0.273 C  
HETATM    2  C   UNL     1      -8.336  19.531  67.040  1.00  0.00    -0.315 C  
HETATM    3  C   UNL     1      -9.552  20.336  67.531  1.00  0.00    -0.562 C  
HETATM    4  C   UNL     1     -10.765  19.638  66.903  1.00  0.00    -0.570 C  
HETATM    5  C   UNL     1     -10.110  18.643  65.965  1.00  0.00    -0.326 C  
HETATM    6  C   UNL     1     -10.828  17.432  65.549  1.00  0.00     0.001 A  
HETATM    7  N   UNL     1     -11.368  16.997  64.438  1.00  0.00    -1.052 NA 
HETATM    8  N   UNL     1     -11.255  15.607  64.461  1.00  0.00    -0.387 NA 
HETATM    9  C   UNL     1     -10.589  15.264  65.540  1.00  0.00    -0.373 A  
HETATM   10  C   UNL     1      -9.536  16.776  67.354  1.00  0.00    -0.236 C  
HETATM   11  N   UNL     1     -10.426  16.375  66.291  1.00  0.00    -0.310 NA 
ENDROOT
BRANCH   9  12
HETATM   12  C   UNL     1     -10.065  13.930  65.926  1.00  0.00    -0.331 C  
BRANCH  12  13
HETATM   13  C   UNL     1     -10.561  13.497  67.321  1.00  0.00    -0.263 C  
BRANCH  13  14
HETATM   14  N   UNL     1     -11.592  12.440  67.240  1.00  0.00    -0.352 NA 
HETATM   15  C   UNL     1     -11.153  11.259  66.454  1.00  0.00    -0.193 C  
HETATM   16  C   UNL     1     -10.083  10.387  67.145  1.00  0.00    -0.208 C  
HETATM   17  N   UNL     1     -10.601   9.922  68.440  1.00  0.00    -0.211 NA 
HETATM   18  C   UNL     1     -12.008  11.968  68.587  1.00  0.00    -0.235 C  
HETATM   19  C   UNL     1     -11.031  11.014  69.330  1.00  0.00    -0.248 C  
BRANCH  17  20
HETATM   20  C   UNL     1     -10.569   8.593  68.818  1.00  0.00    -0.140 A  
HETATM   21  C   UNL     1     -10.192   7.578  67.922  1.00  0.00    -0.245 A  
HETATM   22  C   UNL     1     -10.176   6.223  68.279  1.00  0.00    -0.198 A  
HETATM   23  C   UNL     1     -10.546   5.845  69.562  1.00  0.00    -0.378 A  
HETATM   24  C   UNL     1     -10.940   6.816  70.487  1.00  0.00    -0.327 A  
HETATM   25  C   UNL     1     -11.375   6.437  71.877  1.00  0.00    -0.293 C  
HETATM   26  C   UNL     1     -10.933   8.175  70.106  1.00  0.00    -0.223 A  
HETATM   27  F   UNL     1     -12.651   6.828  72.149  1.00  0.00    -0.336 F  
HETATM   28  F   UNL     1     -10.601   7.000  72.844  1.00  0.00    -0.215 F  
HETATM   29  F   UNL     1     -11.342   5.093  72.115  1.00  0.00    -0.249 F  
ENDBRANCH  17  20
ENDBRANCH  13  14
ENDBRANCH  12  13
ENDBRANCH   9  12
TORSDOF 4
ENDMDL
MODEL       24
REMARK 921   NORMALIZED FREE ENERGY PREDICTED BY IDOCK:   -7.22 KCAL/MOL
REMARK 922        TOTAL FREE ENERGY PREDICTED BY IDOCK:   -9.50 KCAL/MOL
REMARK 923 INTER-LIGAND FREE ENERGY PREDICTED BY IDOCK:   -8.77 KCAL/MOL
REMARK 924 INTRA-LIGAND FREE ENERGY PREDICTED BY IDOCK:   -0.73 KCAL/MOL
REMARK 927      BINDING AFFINITY PREDICTED BY RF-SCORE:    0.00 PKD
ROOT
HETATM    1  C   UNL     1     -12.291  13.603  70.713  1.00  0.00    -0.446 C  
HETATM    2  C   UNL     1     -12.924  13.314  72.098  1.00  0.00    -0.395 C  
HETATM    3  C   UNL     1     -14.134  14.261  72.191  1.00  0.00    -0.634 C  
HETATM    4  C   UNL     1     -13.760  15.464  71.316  1.00  0.00    -0.558 C  
HETATM    5  C   UNL     1     -12.310  15.176  70.981  1.00  0.00    -0.408 C  
HETATM    6  C   UNL     1     -11.697  15.754  69.779  1.00  0.00    -0.348 A  
HETATM    7  N   UNL     1     -10.798  16.675  69.535  1.00  0.00    -0.317 NA 
HETATM    8  N   UNL     1     -10.155  16.298  68.356  1.00  0.00    -0.230 NA 
HETATM    9  C   UNL     1     -10.634  15.134  67.978  1.00  0.00    -0.258 A  
HETATM   10  C   UNL     1     -12.395  13.642  69.142  1.00  0.00    -0.076 C  
HETATM   11  N   UNL     1     -11.680  14.843  68.780  1.00  0.00    -0.322 NA 
ENDROOT
BRANCH   9  12
HETATM   12  C   UNL     1     -10.159  14.241  66.893  1.00  0.00    -0.264 C  
BRANCH  12  13
HETATM   13  C   UNL     1      -8.933  13.410  67.326  1.00  0.00    -0.221 C  
BRANCH  13  14
HETATM   14  N   UNL     1      -8.912  12.077  66.686  1.00  0.00    -0.204 NA 
HETATM   15  C   UNL     1      -8.087  11.089  67.427  1.00  0.00    -0.122 C  
HETATM   16  C   UNL     1      -8.696  10.615  68.764  1.00  0.00    -0.157 C  
HETATM   17  N   UNL     1     -10.018  10.025  68.511  1.00  0.00    -0.157 NA 
HETATM   18  C   UNL     1     -10.279  11.514  66.535  1.00  0.00    -0.218 C  
HETATM   19  C   UNL     1     -10.946  10.933  67.814  1.00  0.00    -0.283 C  
BRANCH  17  20
HETATM   20  C   UNL     1     -10.381   8.783  68.993  1.00  0.00    -0.213 A  
HETATM   21  C   UNL     1     -10.160   7.608  68.253  1.00  0.00    -0.214 A  
HETATM   22  C   UNL     1     -10.543   6.342  68.714  1.00  0.00    -0.313 A  
HETATM   23  C   UNL     1     -11.169   6.217  69.945  1.00  0.00    -0.498 A  
HETATM   24  C   UNL     1     -11.423   7.356  70.715  1.00  0.00    -0.313 A  
HETATM   25  C   UNL     1     -12.126   7.261  72.041  1.00  0.00    -0.290 C  
HETATM   26  C   UNL     1     -11.013   8.619  70.234  1.00  0.00    -0.251 A  
HETATM   27  F   UNL     1     -13.283   7.978  72.072  1.00  0.00    -0.311 F  
HETATM   28  F   UNL     1     -11.372   7.728  73.074  1.00  0.00    -0.406 F  
HETATM   29  F   UNL     1     -12.474   5.986  72.387  1.00  0.00    -0.342 F  
ENDBRANCH  17  20
ENDBRANCH  13  14
ENDBRANCH  12  13
ENDBRANCH   9  12
TORSDOF 4
ENDMDL
MODEL       25
REMARK 921   NORMALIZED FREE ENERGY PREDICTED BY IDOCK:   -7.17 KCAL/MOL
REMARK 922        TOTAL FREE ENERGY PREDICTED BY IDOCK:   -9.43 KCAL/MOL
REMARK 923 INTER-LIGAND FREE ENERGY PREDICTED BY IDOCK:   -8.78 KCAL/MOL
REMARK 924 INTRA-LIGAND FREE ENERGY PREDICTED BY IDOCK:   -0.65 KCAL/MOL
REMARK 927      BINDING AFFINITY PREDICTED BY RF-SCORE:    0.00 PKD
ROOT
HETATM    1  C   UNL     1      -9.475   2.853  68.601  1.00  0.00    -0.192 C  
HETATM    2  C   UNL     1      -8.972   1.685  67.714  1.00  0.00    -0.166 C  
HETATM    3  C   UNL     1      -7.776   2.260  66.934  1.00  0.00    -0.066 C  
HETATM    4  C   UNL     1      -8.067   3.762  66.818  1.00  0.00    -0.096 C  
HETATM    5  C   UNL     1      -9.480   3.854  67.358  1.00  0.00    -0.236 C  
HETATM    6  C   UNL     1      -9.980   5.117  67.915  1.00  0.00    -0.152 A  
HETATM    7  N   UNL     1     -10.853   6.023  67.550  1.00  0.00    -0.308 NA 
HETATM    8  N   UNL     1     -11.385   6.556  68.724  1.00  0.00    -0.237 NA 
HETATM    9  C   UNL     1     -10.873   5.904  69.743  1.00  0.00    -0.377 A  
HETATM   10  C   UNL     1      -9.227   3.911  69.740  1.00  0.00    -0.143 C  
HETATM   11  N   UNL     1      -9.905   5.093  69.265  1.00  0.00    -0.172 NA 
ENDROOT
BRANCH   9  12
HETATM   12  C   UNL     1     -11.247   5.978  71.177  1.00  0.00    -0.328 C  
BRANCH  12  13
HETATM   13  C   UNL     1     -12.502   6.847  71.402  1.00  0.00    -0.367 C  
BRANCH  13  14
HETATM   14  N   UNL     1     -12.241   7.969  72.329  1.00  0.00    -0.330 NA 
HETATM   15  C   UNL     1     -11.043   8.763  71.957  1.00  0.00    -0.371 C  
HETATM   16  C   UNL     1     -11.213   9.635  70.695  1.00  0.00    -0.320 C  
HETATM   17  N   UNL     1     -12.343  10.555  70.892  1.00  0.00    -0.355 NA 
HETATM   18  C   UNL     1     -13.399   8.897  72.415  1.00  0.00    -0.440 C  
HETATM   19  C   UNL     1     -13.607   9.876  71.225  1.00  0.00    -0.195 C  
BRANCH  17  20
HETATM   20  C   UNL     1     -12.242  11.914  70.664  1.00  0.00    -0.331 A  
HETATM   21  C   UNL     1     -11.682  12.426  69.480  1.00  0.00    -0.388 A  
HETATM   22  C   UNL     1     -11.548  13.800  69.241  1.00  0.00    -0.362 A  
HETATM   23  C   UNL     1     -11.975  14.711  70.196  1.00  0.00    -0.372 A  
HETATM   24  C   UNL     1     -12.529  14.252  71.395  1.00  0.00    -0.437 A  
HETATM   25  C   UNL     1     -12.976  15.211  72.465  1.00  0.00    -0.379 C  
HETATM   26  C   UNL     1     -12.666  12.863  71.605  1.00  0.00    -0.299 A  
HETATM   27  F   UNL     1     -12.319  15.024  73.643  1.00  0.00    -0.492 F  
HETATM   28  F   UNL     1     -14.301  15.096  72.757  1.00  0.00    -0.478 F  
HETATM   29  F   UNL     1     -12.783  16.524  72.140  1.00  0.00    -0.390 F  
ENDBRANCH  17  20
ENDBRANCH  13  14
ENDBRANCH  12  13
ENDBRANCH   9  12
TORSDOF 4
ENDMDL
MODEL       26
REMARK 921   NORMALIZED FREE ENERGY PREDICTED BY IDOCK:   -7.16 KCAL/MOL
REMARK 922        TOTAL FREE ENERGY PREDICTED BY IDOCK:   -9.42 KCAL/MOL
REMARK 923 INTER-LIGAND FREE ENERGY PREDICTED BY IDOCK:   -8.85 KCAL/MOL
REMARK 924 INTRA-LIGAND FREE ENERGY PREDICTED BY IDOCK:   -0.57 KCAL/MOL
REMARK 927      BINDING AFFINITY PREDICTED BY RF-SCORE:    0.00 PKD
ROOT
HETATM    1  C   UNL     1     -11.842   7.967  71.256  1.00  0.00    -0.321 C  
HETATM    2  C   UNL     1     -11.840   6.524  71.823  1.00  0.00    -0.384 C  
HETATM    3  C   UNL     1     -10.355   6.153  71.971  1.00  0.00    -0.232 C  
HETATM    4  C   UNL     1      -9.634   6.977  70.895  1.00  0.00    -0.167 C  
HETATM    5  C   UNL     1     -10.794   7.571  70.120  1.00  0.00    -0.259 C  
HETATM    6  C   UNL     1     -10.615   8.807  69.348  1.00  0.00    -0.209 A  
HETATM    7  N   UNL     1     -10.570   9.121  68.077  1.00  0.00    -0.222 NA 
HETATM    8  N   UNL     1     -11.073  10.418  67.972  1.00  0.00    -0.298 NA 
HETATM    9  C   UNL     1     -11.470  10.805  69.163  1.00  0.00    -0.298 A  
HETATM   10  C   UNL     1     -11.464   9.490  71.389  1.00  0.00    -0.392 C  
HETATM   11  N   UNL     1     -11.077   9.866  70.051  1.00  0.00    -0.268 NA 
ENDROOT
BRANCH   9  12
HETATM   12  C   UNL     1     -12.227  12.024  69.541  1.00  0.00    -0.176 C  
BRANCH  12  13
HETATM   13  C   UNL     1     -11.910  13.212  68.608  1.00  0.00    -0.328 C  
BRANCH  13  14
HETATM   14  N   UNL     1     -10.587  13.805  68.896  1.00  0.00    -0.236 NA 
HETATM   15  C   UNL     1      -9.879  14.267  67.675  1.00  0.00    -0.224 C  
HETATM   16  C   UNL     1     -10.481  15.529  67.020  1.00  0.00    -0.304 C  
HETATM   17  N   UNL     1     -10.490  16.624  68.000  1.00  0.00    -0.306 NA 
HETATM   18  C   UNL     1     -10.687  14.954  69.833  1.00  0.00    -0.175 C  
HETATM   19  C   UNL     1     -11.206  16.297  69.245  1.00  0.00    -0.312 C  
BRANCH  17  20
HETATM   20  C   UNL     1      -9.977  17.876  67.718  1.00  0.00    -0.331 A  
HETATM   21  C   UNL     1     -10.656  18.782  66.884  1.00  0.00    -0.472 A  
HETATM   22  C   UNL     1     -10.141  20.046  66.567  1.00  0.00    -0.606 A  
HETATM   23  C   UNL     1      -8.914  20.440  67.082  1.00  0.00    -0.453 A  
HETATM   24  C   UNL     1      -8.195  19.571  67.907  1.00  0.00    -0.345 A  
HETATM   25  C   UNL     1      -6.849  19.954  68.458  1.00  0.00    -0.308 C  
HETATM   26  C   UNL     1      -8.743  18.309  68.223  1.00  0.00    -0.302 A  
HETATM   27  F   UNL     1      -5.862  19.098  68.071  1.00  0.00    -0.193 F  
HETATM   28  F   UNL     1      -6.819  19.963  69.819  1.00  0.00    -0.371 F  
HETATM   29  F   UNL     1      -6.431  21.196  68.073  1.00  0.00    -0.354 F  
ENDBRANCH  17  20
ENDBRANCH  13  14
ENDBRANCH  12  13
ENDBRANCH   9  12
TORSDOF 4
ENDMDL
MODEL       27
REMARK 921   NORMALIZED FREE ENERGY PREDICTED BY IDOCK:   -7.15 KCAL/MOL
REMARK 922        TOTAL FREE ENERGY PREDICTED BY IDOCK:   -9.41 KCAL/MOL
REMARK 923 INTER-LIGAND FREE ENERGY PREDICTED BY IDOCK:   -8.94 KCAL/MOL
REMARK 924 INTRA-LIGAND FREE ENERGY PREDICTED BY IDOCK:   -0.46 KCAL/MOL
REMARK 927      BINDING AFFINITY PREDICTED BY RF-SCORE:    0.00 PKD
ROOT
HETATM    1  C   UNL     1      -9.840   7.382  71.575  1.00  0.00    -0.185 C  
HETATM    2  C   UNL     1      -9.361   6.275  72.550  1.00  0.00    -0.146 C  
HETATM    3  C   UNL     1     -10.556   5.317  72.689  1.00  0.00    -0.278 C  
HETATM    4  C   UNL     1     -11.792   6.193  72.448  1.00  0.00    -0.287 C  
HETATM    5  C   UNL     1     -11.191   7.584  72.399  1.00  0.00    -0.356 C  
HETATM    6  C   UNL     1     -11.885   8.668  71.692  1.00  0.00    -0.323 A  
HETATM    7  N   UNL     1     -12.520   9.760  72.040  1.00  0.00    -0.348 NA 
HETATM    8  N   UNL     1     -12.332  10.674  71.004  1.00  0.00    -0.368 NA 
HETATM    9  C   UNL     1     -11.534  10.131  70.112  1.00  0.00    -0.296 A  
HETATM   10  C   UNL     1     -10.371   7.823  70.160  1.00  0.00    -0.218 C  
HETATM   11  N   UNL     1     -11.350   8.840  70.462  1.00  0.00    -0.253 NA 
ENDROOT
BRANCH   9  12
HETATM   12  C   UNL     1     -10.902  10.757  68.925  1.00  0.00    -0.269 C  
BRANCH  12  13
HETATM   13  C   UNL     1     -11.861  11.728  68.206  1.00  0.00    -0.271 C  
BRANCH  13  14
HETATM   14  N   UNL     1     -11.291  12.235  66.940  1.00  0.00    -0.312 NA 
HETATM   15  C   UNL     1     -11.916  13.505  66.488  1.00  0.00    -0.413 C  
HETATM   16  C   UNL     1     -11.548  14.742  67.336  1.00  0.00    -0.360 C  
HETATM   17  N   UNL     1     -10.088  14.911  67.334  1.00  0.00    -0.228 NA 
HETATM   18  C   UNL     1      -9.825  12.455  67.041  1.00  0.00    -0.211 C  
HETATM   19  C   UNL     1      -9.355  13.724  67.807  1.00  0.00    -0.213 C  
BRANCH  17  20
HETATM   20  C   UNL     1      -9.481  16.115  67.031  1.00  0.00    -0.222 A  
HETATM   21  C   UNL     1      -8.214  16.172  66.426  1.00  0.00    -0.336 A  
HETATM   22  C   UNL     1      -7.571  17.382  66.133  1.00  0.00    -0.321 A  
HETATM   23  C   UNL     1      -8.189  18.584  66.446  1.00  0.00    -0.289 A  
HETATM   24  C   UNL     1      -9.445  18.581  67.059  1.00  0.00    -0.292 A  
HETATM   25  C   UNL     1     -10.131  19.865  67.438  1.00  0.00    -0.430 C  
HETATM   26  C   UNL     1     -10.078  17.348  67.330  1.00  0.00    -0.310 A  
HETATM   27  F   UNL     1     -10.383  19.948  68.775  1.00  0.00    -0.515 F  
HETATM   28  F   UNL     1     -11.336  20.022  66.824  1.00  0.00    -0.362 F  
HETATM   29  F   UNL     1      -9.412  20.984  67.128  1.00  0.00    -0.532 F  
ENDBRANCH  17  20
ENDBRANCH  13  14
ENDBRANCH  12  13
ENDBRANCH   9  12
TORSDOF 4
ENDMDL
MODEL       28
REMARK 921   NORMALIZED FREE ENERGY PREDICTED BY IDOCK:   -7.12 KCAL/MOL
REMARK 922        TOTAL FREE ENERGY PREDICTED BY IDOCK:   -9.37 KCAL/MOL
REMARK 923 INTER-LIGAND FREE ENERGY PREDICTED BY IDOCK:   -8.85 KCAL/MOL
REMARK 924 INTRA-LIGAND FREE ENERGY PREDICTED BY IDOCK:   -0.52 KCAL/MOL
REMARK 927      BINDING AFFINITY PREDICTED BY RF-SCORE:    0.00 PKD
ROOT
HETATM    1  C   UNL     1     -10.493  12.889  65.188  1.00  0.00    -0.326 C  
HETATM    2  C   UNL     1     -10.961  14.362  65.067  1.00  0.00    -0.398 C  
HETATM    3  C   UNL     1     -12.245  14.307  64.222  1.00  0.00    -0.451 C  
HETATM    4  C   UNL     1     -12.079  13.067  63.334  1.00  0.00    -0.591 C  
HETATM    5  C   UNL     1     -10.645  12.664  63.616  1.00  0.00    -0.378 C  
HETATM    6  C   UNL     1     -10.209  11.278  63.406  1.00  0.00    -0.403 A  
HETATM    7  N   UNL     1      -9.434  10.657  62.552  1.00  0.00    -0.274 NA 
HETATM    8  N   UNL     1      -8.870   9.581  63.238  1.00  0.00    -0.230 NA 
HETATM    9  C   UNL     1      -9.264   9.638  64.490  1.00  0.00    -0.218 A  
HETATM   10  C   UNL     1     -10.748  11.406  65.653  1.00  0.00    -0.242 C  
HETATM   11  N   UNL     1     -10.195  10.611  64.583  1.00  0.00    -0.349 NA 
ENDROOT
BRANCH   9  12
HETATM   12  C   UNL     1      -8.805   8.828  65.646  1.00  0.00    -0.239 C  
BRANCH  12  13
HETATM   13  C   UNL     1      -7.901   9.641  66.597  1.00  0.00    -0.105 C  
BRANCH  13  14
HETATM   14  N   UNL     1      -8.045   9.209  68.003  1.00  0.00    -0.104 NA 
HETATM   15  C   UNL     1      -8.082  10.345  68.959  1.00  0.00    -0.138 C  
HETATM   16  C   UNL     1      -9.378  11.183  68.915  1.00  0.00    -0.106 C  
HETATM   17  N   UNL     1     -10.528  10.308  69.183  1.00  0.00    -0.209 NA 
HETATM   18  C   UNL     1      -9.271   8.394  68.210  1.00  0.00    -0.134 C  
HETATM   19  C   UNL     1     -10.623   9.160  68.265  1.00  0.00    -0.174 C  
BRANCH  17  20
HETATM   20  C   UNL     1     -11.487  10.611  70.131  1.00  0.00    -0.329 A  
HETATM   21  C   UNL     1     -12.177   9.608  70.832  1.00  0.00    -0.368 A  
HETATM   22  C   UNL     1     -13.169   9.895  71.779  1.00  0.00    -0.535 A  
HETATM   23  C   UNL     1     -13.503  11.214  72.050  1.00  0.00    -0.280 A  
HETATM   24  C   UNL     1     -12.853  12.248  71.370  1.00  0.00    -0.373 A  
HETATM   25  C   UNL     1     -13.210  13.689  71.618  1.00  0.00    -0.367 C  
HETATM   26  C   UNL     1     -11.846  11.933  70.432  1.00  0.00    -0.329 A  
HETATM   27  F   UNL     1     -13.646  14.320  70.492  1.00  0.00    -0.265 F  
HETATM   28  F   UNL     1     -12.158  14.424  72.071  1.00  0.00    -0.369 F  
HETATM   29  F   UNL     1     -14.202  13.857  72.543  1.00  0.00    -0.563 F  
ENDBRANCH  17  20
ENDBRANCH  13  14
ENDBRANCH  12  13
ENDBRANCH   9  12
TORSDOF 4
ENDMDL
MODEL       29
REMARK 921   NORMALIZED FREE ENERGY PREDICTED BY IDOCK:   -7.12 KCAL/MOL
REMARK 922        TOTAL FREE ENERGY PREDICTED BY IDOCK:   -9.37 KCAL/MOL
REMARK 923 INTER-LIGAND FREE ENERGY PREDICTED BY IDOCK:   -8.51 KCAL/MOL
REMARK 924 INTRA-LIGAND FREE ENERGY PREDICTED BY IDOCK:   -0.86 KCAL/MOL
REMARK 927      BINDING AFFINITY PREDICTED BY RF-SCORE:    0.00 PKD
ROOT
HETATM    1  C   UNL     1     -11.796  10.725  70.396  1.00  0.00    -0.450 C  
HETATM    2  C   UNL     1     -12.057  12.172  69.904  1.00  0.00    -0.324 C  
HETATM    3  C   UNL     1     -12.586  12.925  71.137  1.00  0.00    -0.373 C  
HETATM    4  C   UNL     1     -13.271  11.850  71.991  1.00  0.00    -0.461 C  
HETATM    5  C   UNL     1     -13.240  10.646  71.070  1.00  0.00    -0.267 C  
HETATM    6  C   UNL     1     -13.305   9.287  71.624  1.00  0.00    -0.394 A  
HETATM    7  N   UNL     1     -14.191   8.323  71.639  1.00  0.00    -0.439 NA 
HETATM    8  N   UNL     1     -13.473   7.127  71.668  1.00  0.00    -0.368 NA 
HETATM    9  C   UNL     1     -12.193   7.412  71.592  1.00  0.00    -0.330 A  
HETATM   10  C   UNL     1     -11.048   9.716  71.346  1.00  0.00    -0.326 C  
HETATM   11  N   UNL     1     -12.065   8.752  71.691  1.00  0.00    -0.316 NA 
ENDROOT
BRANCH   9  12
HETATM   12  C   UNL     1     -11.044   6.489  71.415  1.00  0.00    -0.315 C  
BRANCH  12  13
HETATM   13  C   UNL     1     -11.089   5.768  70.051  1.00  0.00    -0.258 C  
BRANCH  13  14
HETATM   14  N   UNL     1      -9.789   5.828  69.349  1.00  0.00    -0.157 NA 
HETATM   15  C   UNL     1      -9.885   5.449  67.916  1.00  0.00    -0.144 C  
HETATM   16  C   UNL     1     -10.597   6.487  67.022  1.00  0.00    -0.332 C  
HETATM   17  N   UNL     1      -9.893   7.774  67.121  1.00  0.00    -0.185 NA 
HETATM   18  C   UNL     1      -9.178   7.180  69.428  1.00  0.00    -0.148 C  
HETATM   19  C   UNL     1      -9.774   8.276  68.501  1.00  0.00    -0.156 C  
BRANCH  17  20
HETATM   20  C   UNL     1      -9.496   8.490  66.008  1.00  0.00    -0.186 A  
HETATM   21  C   UNL     1      -8.398   8.092  65.226  1.00  0.00    -0.151 A  
HETATM   22  C   UNL     1      -7.965   8.818  64.108  1.00  0.00    -0.154 A  
HETATM   23  C   UNL     1      -8.628   9.980  63.742  1.00  0.00    -0.202 A  
HETATM   24  C   UNL     1      -9.718  10.425  64.495  1.00  0.00    -0.393 A  
HETATM   25  C   UNL     1     -10.442  11.696  64.144  1.00  0.00    -0.351 C  
HETATM   26  C   UNL     1     -10.144   9.667  65.607  1.00  0.00    -0.231 A  
HETATM   27  F   UNL     1     -10.413  12.611  65.153  1.00  0.00    -0.280 F  
HETATM   28  F   UNL     1     -11.759  11.495  63.864  1.00  0.00    -0.448 F  
HETATM   29  F   UNL     1      -9.928  12.337  63.052  1.00  0.00    -0.373 F  
ENDBRANCH  17  20
ENDBRANCH  13  14
ENDBRANCH  12  13
ENDBRANCH   9  12
TORSDOF 4
ENDMDL
MODEL       30
REMARK 921   NORMALIZED FREE ENERGY PREDICTED BY IDOCK:   -7.08 KCAL/MOL
REMARK 922        TOTAL FREE ENERGY PREDICTED BY IDOCK:   -9.32 KCAL/MOL
REMARK 923 INTER-LIGAND FREE ENERGY PREDICTED BY IDOCK:   -8.88 KCAL/MOL
REMARK 924 INTRA-LIGAND FREE ENERGY PREDICTED BY IDOCK:   -0.44 KCAL/MOL
REMARK 927      BINDING AFFINITY PREDICTED BY RF-SCORE:    0.00 PKD
ROOT
HETATM    1  C   UNL     1     -11.213   8.868  71.130  1.00  0.00    -0.352 C  
HETATM    2  C   UNL     1     -11.742   8.391  72.508  1.00  0.00    -0.429 C  
HETATM    3  C   UNL     1     -10.752   7.305  72.964  1.00  0.00    -0.384 C  
HETATM    4  C   UNL     1     -10.199   6.706  71.664  1.00  0.00    -0.212 C  
HETATM    5  C   UNL     1     -11.072   7.365  70.614  1.00  0.00    -0.285 C  
HETATM    6  C   UNL     1     -10.595   7.502  69.232  1.00  0.00    -0.210 A  
HETATM    7  N   UNL     1     -10.897   6.963  68.078  1.00  0.00    -0.217 NA 
HETATM    8  N   UNL     1     -10.643   7.933  67.108  1.00  0.00    -0.336 NA 
HETATM    9  C   UNL     1     -10.274   9.038  67.716  1.00  0.00    -0.230 A  
HETATM   10  C   UNL     1     -10.080   9.516  70.249  1.00  0.00    -0.262 C  
HETATM   11  N   UNL     1     -10.117   8.750  69.026  1.00  0.00    -0.193 NA 
ENDROOT
BRANCH   9  12
HETATM   12  C   UNL     1     -10.063  10.390  67.142  1.00  0.00    -0.254 C  
BRANCH  12  13
HETATM   13  C   UNL     1     -11.271  11.317  67.394  1.00  0.00    -0.303 C  
BRANCH  13  14
HETATM   14  N   UNL     1     -11.319  12.438  66.431  1.00  0.00    -0.323 NA 
HETATM   15  C   UNL     1     -11.975  13.650  66.983  1.00  0.00    -0.406 C  
HETATM   16  C   UNL     1     -11.153  14.397  68.056  1.00  0.00    -0.272 C  
HETATM   17  N   UNL     1      -9.854  14.784  67.486  1.00  0.00    -0.217 NA 
HETATM   18  C   UNL     1      -9.963  12.823  65.960  1.00  0.00    -0.271 C  
HETATM   19  C   UNL     1      -9.086  13.651  66.941  1.00  0.00    -0.240 C  
BRANCH  17  20
HETATM   20  C   UNL     1      -9.362  16.073  67.570  1.00  0.00    -0.217 A  
HETATM   21  C   UNL     1      -8.127  16.354  68.178  1.00  0.00    -0.165 A  
HETATM   22  C   UNL     1      -7.622  17.656  68.295  1.00  0.00    -0.257 A  
HETATM   23  C   UNL     1      -8.354  18.726  67.799  1.00  0.00    -0.293 A  
HETATM   24  C   UNL     1      -9.594  18.499  67.195  1.00  0.00    -0.302 A  
HETATM   25  C   UNL     1     -10.426  19.639  66.673  1.00  0.00    -0.497 C  
HETATM   26  C   UNL     1     -10.073  17.177  67.077  1.00  0.00    -0.297 A  
HETATM   27  F   UNL     1     -11.647  19.712  67.273  1.00  0.00    -0.338 F  
HETATM   28  F   UNL     1     -10.675  19.544  65.338  1.00  0.00    -0.547 F  
HETATM   29  F   UNL     1      -9.853  20.866  66.854  1.00  0.00    -0.570 F  
ENDBRANCH  17  20
ENDBRANCH  13  14
ENDBRANCH  12  13
ENDBRANCH   9  12
TORSDOF 4
ENDMDL
MODEL       31
REMARK 921   NORMALIZED FREE ENERGY PREDICTED BY IDOCK:   -7.04 KCAL/MOL
REMARK 922        TOTAL FREE ENERGY PREDICTED BY IDOCK:   -9.27 KCAL/MOL
REMARK 923 INTER-LIGAND FREE ENERGY PREDICTED BY IDOCK:   -8.76 KCAL/MOL
REMARK 924 INTRA-LIGAND FREE ENERGY PREDICTED BY IDOCK:   -0.51 KCAL/MOL
REMARK 927      BINDING AFFINITY PREDICTED BY RF-SCORE:    0.00 PKD
ROOT
HETATM    1  C   UNL     1      -8.496  17.280  66.953  1.00  0.00    -0.251 C  
HETATM    2  C   UNL     1      -7.691  18.395  67.667  1.00  0.00    -0.236 C  
HETATM    3  C   UNL     1      -8.717  19.131  68.547  1.00  0.00    -0.401 C  
HETATM    4  C   UNL     1     -10.057  18.952  67.821  1.00  0.00    -0.430 C  
HETATM    5  C   UNL     1      -9.628  18.315  66.513  1.00  0.00    -0.320 C  
HETATM    6  C   UNL     1     -10.575  17.506  65.736  1.00  0.00    -0.174 A  
HETATM    7  N   UNL     1     -11.215  17.643  64.602  1.00  0.00    -0.578 NA 
HETATM    8  N   UNL     1     -11.371  16.359  64.078  1.00  0.00    -1.003 NA 
HETATM    9  C   UNL     1     -10.756  15.512  64.871  1.00  0.00    -0.392 A  
HETATM   10  C   UNL     1      -9.388  15.983  67.013  1.00  0.00    -0.218 C  
HETATM   11  N   UNL     1     -10.365  16.190  65.971  1.00  0.00    -0.341 NA 
ENDROOT
BRANCH   9  12
HETATM   12  C   UNL     1     -10.488  14.067  64.661  1.00  0.00    -0.398 C  
BRANCH  12  13
HETATM   13  C   UNL     1     -11.029  13.205  65.821  1.00  0.00    -0.277 C  
BRANCH  13  14
HETATM   14  N   UNL     1      -9.946  12.511  66.548  1.00  0.00    -0.238 NA 
HETATM   15  C   UNL     1     -10.368  12.010  67.880  1.00  0.00    -0.197 C  
HETATM   16  C   UNL     1     -11.332  10.804  67.840  1.00  0.00    -0.299 C  
HETATM   17  N   UNL     1     -10.695   9.702  67.104  1.00  0.00    -0.228 NA 
HETATM   18  C   UNL     1      -9.407  11.362  65.774  1.00  0.00    -0.228 C  
HETATM   19  C   UNL     1     -10.269  10.069  65.743  1.00  0.00    -0.200 C  
BRANCH  17  20
HETATM   20  C   UNL     1     -10.621   8.418  67.610  1.00  0.00    -0.195 A  
HETATM   21  C   UNL     1     -10.727   8.158  68.987  1.00  0.00    -0.099 A  
HETATM   22  C   UNL     1     -10.629   6.866  69.521  1.00  0.00    -0.261 A  
HETATM   23  C   UNL     1     -10.418   5.786  68.677  1.00  0.00    -0.298 A  
HETATM   24  C   UNL     1     -10.294   5.993  67.300  1.00  0.00    -0.275 A  
HETATM   25  C   UNL     1     -10.035   4.847  66.360  1.00  0.00    -0.234 C  
HETATM   26  C   UNL     1     -10.411   7.302  66.786  1.00  0.00    -0.311 A  
HETATM   27  F   UNL     1      -8.875   4.996  65.662  1.00  0.00    -0.124 F  
HETATM   28  F   UNL     1     -11.014   4.700  65.424  1.00  0.00    -0.328 F  
HETATM   29  F   UNL     1      -9.938   3.636  66.984  1.00  0.00    -0.227 F  
ENDBRANCH  17  20
ENDBRANCH  13  14
ENDBRANCH  12  13
ENDBRANCH   9  12
TORSDOF 4
ENDMDL
MODEL       32
REMARK 921   NORMALIZED FREE ENERGY PREDICTED BY IDOCK:   -7.03 KCAL/MOL
REMARK 922        TOTAL FREE ENERGY PREDICTED BY IDOCK:   -9.26 KCAL/MOL
REMARK 923 INTER-LIGAND FREE ENERGY PREDICTED BY IDOCK:   -8.81 KCAL/MOL
REMARK 924 INTRA-LIGAND FREE ENERGY PREDICTED BY IDOCK:   -0.45 KCAL/MOL
REMARK 927      BINDING AFFINITY PREDICTED BY RF-SCORE:    0.00 PKD
ROOT
HETATM    1  C   UNL     1      -8.989  17.170  67.636  1.00  0.00    -0.226 C  
HETATM    2  C   UNL     1      -8.099  18.277  68.258  1.00  0.00    -0.311 C  
HETATM    3  C   UNL     1      -9.071  19.408  68.636  1.00  0.00    -0.423 C  
HETATM    4  C   UNL     1     -10.233  19.277  67.643  1.00  0.00    -0.507 C  
HETATM    5  C   UNL     1      -9.713  18.225  66.683  1.00  0.00    -0.339 C  
HETATM    6  C   UNL     1     -10.648  17.414  65.893  1.00  0.00    -0.200 A  
HETATM    7  N   UNL     1     -10.986  17.335  64.630  1.00  0.00    -0.853 NA 
HETATM    8  N   UNL     1     -11.342  16.006  64.398  1.00  0.00    -0.501 NA 
HETATM    9  C   UNL     1     -11.133  15.324  65.501  1.00  0.00    -0.327 A  
HETATM   10  C   UNL     1     -10.166  16.132  67.758  1.00  0.00    -0.267 C  
HETATM   11  N   UNL     1     -10.823  16.206  66.475  1.00  0.00    -0.209 NA 
ENDROOT
BRANCH   9  12
HETATM   12  C   UNL     1     -11.193  13.856  65.712  1.00  0.00    -0.303 C  
BRANCH  12  13
HETATM   13  C   UNL     1      -9.787  13.227  65.792  1.00  0.00    -0.197 C  
BRANCH  13  14
HETATM   14  N   UNL     1      -9.467  12.753  67.155  1.00  0.00    -0.216 NA 
HETATM   15  C   UNL     1     -10.667  12.320  67.916  1.00  0.00    -0.215 C  
HETATM   16  C   UNL     1     -11.296  10.996  67.429  1.00  0.00    -0.230 C  
HETATM   17  N   UNL     1     -10.287   9.929  67.497  1.00  0.00    -0.220 NA 
HETATM   18  C   UNL     1      -8.502  11.624  67.137  1.00  0.00    -0.162 C  
HETATM   19  C   UNL     1      -9.060  10.228  66.739  1.00  0.00    -0.143 C  
BRANCH  17  20
HETATM   20  C   UNL     1     -10.529   8.717  68.115  1.00  0.00    -0.191 A  
HETATM   21  C   UNL     1     -10.642   7.523  67.382  1.00  0.00    -0.364 A  
HETATM   22  C   UNL     1     -10.911   6.288  67.988  1.00  0.00    -0.418 A  
HETATM   23  C   UNL     1     -11.080   6.218  69.363  1.00  0.00    -0.477 A  
HETATM   24  C   UNL     1     -10.990   7.379  70.135  1.00  0.00    -0.272 A  
HETATM   25  C   UNL     1     -11.197   7.343  71.625  1.00  0.00    -0.247 C  
HETATM   26  C   UNL     1     -10.703   8.608  69.502  1.00  0.00    -0.189 A  
HETATM   27  F   UNL     1     -12.231   8.133  72.028  1.00  0.00    -0.299 F  
HETATM   28  F   UNL     1     -10.109   7.774  72.320  1.00  0.00    -0.213 F  
HETATM   29  F   UNL     1     -11.474   6.097  72.110  1.00  0.00    -0.290 F  
ENDBRANCH  17  20
ENDBRANCH  13  14
ENDBRANCH  12  13
ENDBRANCH   9  12
TORSDOF 4
ENDMDL
MODEL       33
REMARK 921   NORMALIZED FREE ENERGY PREDICTED BY IDOCK:   -7.01 KCAL/MOL
REMARK 922        TOTAL FREE ENERGY PREDICTED BY IDOCK:   -9.23 KCAL/MOL
REMARK 923 INTER-LIGAND FREE ENERGY PREDICTED BY IDOCK:   -8.61 KCAL/MOL
REMARK 924 INTRA-LIGAND FREE ENERGY PREDICTED BY IDOCK:   -0.62 KCAL/MOL
REMARK 927      BINDING AFFINITY PREDICTED BY RF-SCORE:    0.00 PKD
ROOT
HETATM    1  C   UNL     1      -9.463   2.749  68.311  1.00  0.00    -0.216 C  
HETATM    2  C   UNL     1      -9.034   1.560  67.413  1.00  0.00    -0.152 C  
HETATM    3  C   UNL     1      -7.858   2.092  66.577  1.00  0.00    -0.075 C  
HETATM    4  C   UNL     1      -8.109   3.601  66.459  1.00  0.00    -0.096 C  
HETATM    5  C   UNL     1      -9.493   3.740  67.060  1.00  0.00    -0.227 C  
HETATM    6  C   UNL     1      -9.930   5.022  67.628  1.00  0.00    -0.155 A  
HETATM    7  N   UNL     1     -10.791   5.951  67.293  1.00  0.00    -0.289 NA 
HETATM    8  N   UNL     1     -11.254   6.510  68.485  1.00  0.00    -0.259 NA 
HETATM    9  C   UNL     1     -10.717   5.850  69.486  1.00  0.00    -0.343 A  
HETATM   10  C   UNL     1      -9.132   3.808  69.429  1.00  0.00    -0.132 C  
HETATM   11  N   UNL     1      -9.796   5.006  68.973  1.00  0.00    -0.170 NA 
ENDROOT
BRANCH   9  12
HETATM   12  C   UNL     1     -11.024   5.947  70.935  1.00  0.00    -0.335 C  
BRANCH  12  13
HETATM   13  C   UNL     1     -12.263   6.826  71.204  1.00  0.00    -0.360 C  
BRANCH  13  14
HETATM   14  N   UNL     1     -12.003   7.850  72.238  1.00  0.00    -0.335 NA 
HETATM   15  C   UNL     1     -10.960   8.828  71.836  1.00  0.00    -0.365 C  
HETATM   16  C   UNL     1     -11.395   9.819  70.736  1.00  0.00    -0.342 C  
HETATM   17  N   UNL     1     -12.580  10.558  71.192  1.00  0.00    -0.379 NA 
HETATM   18  C   UNL     1     -13.232   8.607  72.590  1.00  0.00    -0.219 C  
HETATM   19  C   UNL     1     -13.705   9.690  71.579  1.00  0.00    -0.235 C  
BRANCH  17  20
HETATM   20  C   UNL     1     -12.660  11.937  71.142  1.00  0.00    -0.288 A  
HETATM   21  C   UNL     1     -13.317  12.676  72.141  1.00  0.00    -0.570 A  
HETATM   22  C   UNL     1     -13.429  14.072  72.096  1.00  0.00    -0.567 A  
HETATM   23  C   UNL     1     -12.881  14.774  71.032  1.00  0.00    -0.415 A  
HETATM   24  C   UNL     1     -12.228  14.084  70.007  1.00  0.00    -0.414 A  
HETATM   25  C   UNL     1     -11.647  14.810  68.825  1.00  0.00    -0.320 C  
HETATM   26  C   UNL     1     -12.115  12.679  70.084  1.00  0.00    -0.368 A  
HETATM   27  F   UNL     1     -12.192  14.405  67.644  1.00  0.00    -0.398 F  
HETATM   28  F   UNL     1     -10.305  14.625  68.697  1.00  0.00    -0.217 F  
HETATM   29  F   UNL     1     -11.829  16.164  68.869  1.00  0.00    -0.367 F  
ENDBRANCH  17  20
ENDBRANCH  13  14
ENDBRANCH  12  13
ENDBRANCH   9  12
TORSDOF 4
ENDMDL
MODEL       34
REMARK 921   NORMALIZED FREE ENERGY PREDICTED BY IDOCK:   -6.99 KCAL/MOL
REMARK 922        TOTAL FREE ENERGY PREDICTED BY IDOCK:   -9.21 KCAL/MOL
REMARK 923 INTER-LIGAND FREE ENERGY PREDICTED BY IDOCK:   -8.59 KCAL/MOL
REMARK 924 INTRA-LIGAND FREE ENERGY PREDICTED BY IDOCK:   -0.62 KCAL/MOL
REMARK 927      BINDING AFFINITY PREDICTED BY RF-SCORE:    0.00 PKD
ROOT
HETATM    1  C   UNL     1     -10.787  14.792  66.832  1.00  0.00    -0.316 C  
HETATM    2  C   UNL     1     -10.214  15.800  65.802  1.00  0.00    -0.394 C  
HETATM    3  C   UNL     1     -11.250  15.847  64.666  1.00  0.00    -0.361 C  
HETATM    4  C   UNL     1     -11.920  14.466  64.688  1.00  0.00    -0.475 C  
HETATM    5  C   UNL     1     -11.065  13.714  65.689  1.00  0.00    -0.300 C  
HETATM    6  C   UNL     1     -11.612  12.557  66.410  1.00  0.00    -0.391 A  
HETATM    7  N   UNL     1     -11.417  11.263  66.390  1.00  0.00    -0.274 NA 
HETATM    8  N   UNL     1     -11.658  10.806  67.686  1.00  0.00    -0.510 NA 
HETATM    9  C   UNL     1     -11.911  11.845  68.450  1.00  0.00    -0.289 A  
HETATM   10  C   UNL     1     -11.920  14.355  67.834  1.00  0.00    -0.313 C  
HETATM   11  N   UNL     1     -12.011  12.927  67.648  1.00  0.00    -0.332 NA 
ENDROOT
BRANCH   9  12
HETATM   12  C   UNL     1     -12.057  11.900  69.926  1.00  0.00    -0.344 C  
BRANCH  12  13
HETATM   13  C   UNL     1     -12.682  10.608  70.492  1.00  0.00    -0.313 C  
BRANCH  13  14
HETATM   14  N   UNL     1     -11.890  10.053  71.609  1.00  0.00    -0.325 NA 
HETATM   15  C   UNL     1     -12.574   8.935  72.308  1.00  0.00    -0.385 C  
HETATM   16  C   UNL     1     -12.654   7.622  71.499  1.00  0.00    -0.343 C  
HETATM   17  N   UNL     1     -11.294   7.190  71.144  1.00  0.00    -0.265 NA 
HETATM   18  C   UNL     1     -10.560   9.567  71.158  1.00  0.00    -0.318 C  
HETATM   19  C   UNL     1     -10.526   8.207  70.404  1.00  0.00    -0.215 C  
BRANCH  17  20
HETATM   20  C   UNL     1     -10.837   5.908  71.381  1.00  0.00    -0.271 A  
HETATM   21  C   UNL     1     -10.964   5.299  72.642  1.00  0.00    -0.316 A  
HETATM   22  C   UNL     1     -10.485   4.010  72.908  1.00  0.00    -0.247 A  
HETATM   23  C   UNL     1      -9.855   3.287  71.905  1.00  0.00    -0.238 A  
HETATM   24  C   UNL     1      -9.694   3.853  70.638  1.00  0.00    -0.248 A  
HETATM   25  C   UNL     1      -8.990   3.109  69.535  1.00  0.00    -0.111 C  
HETATM   26  C   UNL     1     -10.199   5.148  70.390  1.00  0.00    -0.334 A  
HETATM   27  F   UNL     1      -7.892   3.772  69.076  1.00  0.00    -0.053 F  
HETATM   28  F   UNL     1      -9.781   2.904  68.447  1.00  0.00    -0.249 F  
HETATM   29  F   UNL     1      -8.545   1.872  69.905  1.00  0.00    -0.063 F  
ENDBRANCH  17  20
ENDBRANCH  13  14
ENDBRANCH  12  13
ENDBRANCH   9  12
TORSDOF 4
ENDMDL
MODEL       35
REMARK 921   NORMALIZED FREE ENERGY PREDICTED BY IDOCK:   -6.88 KCAL/MOL
REMARK 922        TOTAL FREE ENERGY PREDICTED BY IDOCK:   -9.08 KCAL/MOL
REMARK 923 INTER-LIGAND FREE ENERGY PREDICTED BY IDOCK:   -8.50 KCAL/MOL
REMARK 924 INTRA-LIGAND FREE ENERGY PREDICTED BY IDOCK:   -0.58 KCAL/MOL
REMARK 927      BINDING AFFINITY PREDICTED BY RF-SCORE:    0.00 PKD
ROOT
HETATM    1  C   UNL     1     -10.093   8.658  66.994  1.00  0.00    -0.342 C  
HETATM    2  C   UNL     1      -9.971   9.797  65.949  1.00  0.00    -0.345 C  
HETATM    3  C   UNL     1      -9.066   9.231  64.842  1.00  0.00    -0.227 C  
HETATM    4  C   UNL     1      -8.169   8.208  65.551  1.00  0.00    -0.144 C  
HETATM    5  C   UNL     1      -8.512   8.442  67.009  1.00  0.00    -0.122 C  
HETATM    6  C   UNL     1      -8.303   7.379  68.001  1.00  0.00    -0.124 A  
HETATM    7  N   UNL     1      -7.477   7.175  68.996  1.00  0.00    -0.092 NA 
HETATM    8  N   UNL     1      -8.173   6.417  69.939  1.00  0.00    -0.124 NA 
HETATM    9  C   UNL     1      -9.407   6.261  69.514  1.00  0.00    -0.142 A  
HETATM   10  C   UNL     1     -10.524   7.193  67.377  1.00  0.00    -0.284 C  
HETATM   11  N   UNL     1      -9.469   6.743  68.254  1.00  0.00    -0.126 NA 
ENDROOT
BRANCH   9  12
HETATM   12  C   UNL     1     -10.571   5.685  70.231  1.00  0.00    -0.370 C  
BRANCH  12  13
HETATM   13  C   UNL     1     -11.657   6.745  70.513  1.00  0.00    -0.372 C  
BRANCH  13  14
HETATM   14  N   UNL     1     -11.239   7.701  71.560  1.00  0.00    -0.243 NA 
HETATM   15  C   UNL     1     -10.469   8.851  71.023  1.00  0.00    -0.248 C  
HETATM   16  C   UNL     1     -11.304   9.862  70.208  1.00  0.00    -0.291 C  
HETATM   17  N   UNL     1     -12.393  10.378  71.049  1.00  0.00    -0.351 NA 
HETATM   18  C   UNL     1     -12.401   8.237  72.316  1.00  0.00    -0.356 C  
HETATM   19  C   UNL     1     -13.258   9.325  71.608  1.00  0.00    -0.388 C  
BRANCH  17  20
HETATM   20  C   UNL     1     -12.642  11.730  71.194  1.00  0.00    -0.309 A  
HETATM   21  C   UNL     1     -13.492  12.221  72.200  1.00  0.00    -0.431 A  
HETATM   22  C   UNL     1     -13.777  13.585  72.348  1.00  0.00    -0.704 A  
HETATM   23  C   UNL     1     -13.210  14.506  71.478  1.00  0.00    -0.431 A  
HETATM   24  C   UNL     1     -12.367  14.066  70.453  1.00  0.00    -0.429 A  
HETATM   25  C   UNL     1     -11.759  15.034  69.475  1.00  0.00    -0.322 C  
HETATM   26  C   UNL     1     -12.085  12.688  70.335  1.00  0.00    -0.381 A  
HETATM   27  F   UNL     1     -12.116  14.768  68.187  1.00  0.00    -0.334 F  
HETATM   28  F   UNL     1     -10.398  15.019  69.493  1.00  0.00    -0.224 F  
HETATM   29  F   UNL     1     -12.116  16.334  69.695  1.00  0.00    -0.242 F  
ENDBRANCH  17  20
ENDBRANCH  13  14
ENDBRANCH  12  13
ENDBRANCH   9  12
TORSDOF 4
ENDMDL
MODEL       36
REMARK 921   NORMALIZED FREE ENERGY PREDICTED BY IDOCK:   -6.87 KCAL/MOL
REMARK 922        TOTAL FREE ENERGY PREDICTED BY IDOCK:   -9.06 KCAL/MOL
REMARK 923 INTER-LIGAND FREE ENERGY PREDICTED BY IDOCK:   -8.50 KCAL/MOL
REMARK 924 INTRA-LIGAND FREE ENERGY PREDICTED BY IDOCK:   -0.56 KCAL/MOL
REMARK 927      BINDING AFFINITY PREDICTED BY RF-SCORE:    0.00 PKD
ROOT
HETATM    1  C   UNL     1     -10.326  18.496  66.714  1.00  0.00    -0.435 C  
HETATM    2  C   UNL     1      -9.892  19.977  66.564  1.00  0.00    -0.581 C  
HETATM    3  C   UNL     1      -8.494  20.051  67.202  1.00  0.00    -0.390 C  
HETATM    4  C   UNL     1      -8.486  18.943  68.263  1.00  0.00    -0.365 C  
HETATM    5  C   UNL     1      -9.933  18.490  68.260  1.00  0.00    -0.409 C  
HETATM    6  C   UNL     1     -10.289  17.141  68.717  1.00  0.00    -0.353 A  
HETATM    7  N   UNL     1     -10.907  16.635  69.755  1.00  0.00    -0.311 NA 
HETATM    8  N   UNL     1     -11.533  15.469  69.314  1.00  0.00    -0.316 NA 
HETATM    9  C   UNL     1     -11.335  15.358  68.020  1.00  0.00    -0.341 A  
HETATM   10  C   UNL     1     -10.098  16.966  66.418  1.00  0.00    -0.322 C  
HETATM   11  N   UNL     1     -10.459  16.320  67.657  1.00  0.00    -0.289 NA 
ENDROOT
BRANCH   9  12
HETATM   12  C   UNL     1     -11.937  14.394  67.066  1.00  0.00    -0.424 C  
BRANCH  12  13
HETATM   13  C   UNL     1     -10.878  13.453  66.453  1.00  0.00    -0.289 C  
BRANCH  13  14
HETATM   14  N   UNL     1     -10.084  12.761  67.490  1.00  0.00    -0.211 NA 
HETATM   15  C   UNL     1     -10.918  11.961  68.423  1.00  0.00    -0.232 C  
HETATM   16  C   UNL     1     -11.527  10.683  67.809  1.00  0.00    -0.137 C  
HETATM   17  N   UNL     1     -10.445   9.829  67.298  1.00  0.00    -0.255 NA 
HETATM   18  C   UNL     1      -9.063  11.859  66.897  1.00  0.00    -0.196 C  
HETATM   19  C   UNL     1      -9.570  10.504  66.324  1.00  0.00    -0.187 C  
BRANCH  17  20
HETATM   20  C   UNL     1     -10.343   8.489  67.618  1.00  0.00    -0.253 A  
HETATM   21  C   UNL     1      -9.939   7.532  66.671  1.00  0.00    -0.270 A  
HETATM   22  C   UNL     1      -9.853   6.165  66.968  1.00  0.00    -0.180 A  
HETATM   23  C   UNL     1     -10.177   5.715  68.240  1.00  0.00    -0.239 A  
HETATM   24  C   UNL     1     -10.596   6.626  69.214  1.00  0.00    -0.276 A  
HETATM   25  C   UNL     1     -10.983   6.169  70.594  1.00  0.00    -0.311 C  
HETATM   26  C   UNL     1     -10.660   7.999  68.893  1.00  0.00    -0.160 A  
HETATM   27  F   UNL     1     -12.270   6.487  70.908  1.00  0.00    -0.410 F  
HETATM   28  F   UNL     1     -10.215   6.726  71.570  1.00  0.00    -0.195 F  
HETATM   29  F   UNL     1     -10.883   4.818  70.773  1.00  0.00    -0.160 F  
ENDBRANCH  17  20
ENDBRANCH  13  14
ENDBRANCH  12  13
ENDBRANCH   9  12
TORSDOF 4
ENDMDL
MODEL       37
REMARK 921   NORMALIZED FREE ENERGY PREDICTED BY IDOCK:   -6.82 KCAL/MOL
REMARK 922        TOTAL FREE ENERGY PREDICTED BY IDOCK:   -9.00 KCAL/MOL
REMARK 923 INTER-LIGAND FREE ENERGY PREDICTED BY IDOCK:   -8.59 KCAL/MOL
REMARK 924 INTRA-LIGAND FREE ENERGY PREDICTED BY IDOCK:   -0.41 KCAL/MOL
REMARK 927      BINDING AFFINITY PREDICTED BY RF-SCORE:    0.00 PKD
ROOT
HETATM    1  C   UNL     1     -10.617  18.378  66.360  1.00  0.00    -0.342 C  
HETATM    2  C   UNL     1     -10.285  19.872  66.110  1.00  0.00    -0.611 C  
HETATM    3  C   UNL     1      -8.900  20.086  66.744  1.00  0.00    -0.427 C  
HETATM    4  C   UNL     1      -8.823  19.057  67.879  1.00  0.00    -0.335 C  
HETATM    5  C   UNL     1     -10.235  18.506  67.904  1.00  0.00    -0.415 C  
HETATM    6  C   UNL     1     -10.501  17.170  68.453  1.00  0.00    -0.376 A  
HETATM    7  N   UNL     1     -11.090  16.695  69.522  1.00  0.00    -0.239 NA 
HETATM    8  N   UNL     1     -11.631  15.462  69.161  1.00  0.00    -0.318 NA 
HETATM    9  C   UNL     1     -11.417  15.276  67.878  1.00  0.00    -0.316 A  
HETATM   10  C   UNL     1     -10.282  16.851  66.171  1.00  0.00    -0.341 C  
HETATM   11  N   UNL     1     -10.606  16.268  67.451  1.00  0.00    -0.312 NA 
ENDROOT
BRANCH   9  12
HETATM   12  C   UNL     1     -11.944  14.209  66.992  1.00  0.00    -0.471 C  
BRANCH  12  13
HETATM   13  C   UNL     1     -10.813  13.352  66.384  1.00  0.00    -0.289 C  
BRANCH  13  14
HETATM   14  N   UNL     1      -9.990  12.702  67.426  1.00  0.00    -0.203 NA 
HETATM   15  C   UNL     1     -10.802  12.042  68.480  1.00  0.00    -0.233 C  
HETATM   16  C   UNL     1     -11.529  10.758  68.025  1.00  0.00    -0.256 C  
HETATM   17  N   UNL     1     -10.539   9.794  67.524  1.00  0.00    -0.263 NA 
HETATM   18  C   UNL     1      -9.070  11.686  66.851  1.00  0.00    -0.188 C  
HETATM   19  C   UNL     1      -9.696  10.324  66.437  1.00  0.00    -0.201 C  
BRANCH  17  20
HETATM   20  C   UNL     1     -10.495   8.483  67.956  1.00  0.00    -0.191 A  
HETATM   21  C   UNL     1     -10.496   8.154  69.323  1.00  0.00    -0.221 A  
HETATM   22  C   UNL     1     -10.427   6.832  69.781  1.00  0.00    -0.240 A  
HETATM   23  C   UNL     1     -10.352   5.789  68.869  1.00  0.00    -0.295 A  
HETATM   24  C   UNL     1     -10.337   6.064  67.499  1.00  0.00    -0.262 A  
HETATM   25  C   UNL     1     -10.227   4.960  66.483  1.00  0.00    -0.270 C  
HETATM   26  C   UNL     1     -10.422   7.404  67.063  1.00  0.00    -0.404 A  
HETATM   27  F   UNL     1      -9.124   5.084  65.692  1.00  0.00    -0.139 F  
HETATM   28  F   UNL     1     -11.289   4.916  65.633  1.00  0.00    -0.263 F  
HETATM   29  F   UNL     1     -10.146   3.713  67.035  1.00  0.00    -0.172 F  
ENDBRANCH  17  20
ENDBRANCH  13  14
ENDBRANCH  12  13
ENDBRANCH   9  12
TORSDOF 4
ENDMDL
MODEL       38
REMARK 921   NORMALIZED FREE ENERGY PREDICTED BY IDOCK:   -6.79 KCAL/MOL
REMARK 922        TOTAL FREE ENERGY PREDICTED BY IDOCK:   -8.96 KCAL/MOL
REMARK 923 INTER-LIGAND FREE ENERGY PREDICTED BY IDOCK:   -8.33 KCAL/MOL
REMARK 924 INTRA-LIGAND FREE ENERGY PREDICTED BY IDOCK:   -0.63 KCAL/MOL
REMARK 927      BINDING AFFINITY PREDICTED BY RF-SCORE:    0.00 PKD
ROOT
HETATM    1  C   UNL     1      -9.687   4.876  70.566  1.00  0.00    -0.274 C  
HETATM    2  C   UNL     1      -8.984   3.792  69.709  1.00  0.00    -0.167 C  
HETATM    3  C   UNL     1      -9.243   2.467  70.446  1.00  0.00    -0.198 C  
HETATM    4  C   UNL     1      -9.394   2.861  71.922  1.00  0.00    -0.190 C  
HETATM    5  C   UNL     1      -9.007   4.326  71.901  1.00  0.00    -0.152 C  
HETATM    6  C   UNL     1      -9.486   5.235  72.950  1.00  0.00    -0.144 A  
HETATM    7  N   UNL     1      -8.945   5.871  73.958  1.00  0.00    -0.126 NA 
HETATM    8  N   UNL     1      -9.678   7.046  74.125  1.00  0.00    -0.284 NA 
HETATM    9  C   UNL     1     -10.577   7.111  73.170  1.00  0.00    -0.336 A  
HETATM   10  C   UNL     1     -10.992   5.477  71.209  1.00  0.00    -0.128 C  
HETATM   11  N   UNL     1     -10.555   5.935  72.507  1.00  0.00    -0.208 NA 
ENDROOT
BRANCH   9  12
HETATM   12  C   UNL     1     -11.477   8.237  72.813  1.00  0.00    -0.338 C  
BRANCH  12  13
HETATM   13  C   UNL     1     -10.861   9.144  71.727  1.00  0.00    -0.345 C  
BRANCH  13  14
HETATM   14  N   UNL     1     -11.619   9.084  70.459  1.00  0.00    -0.223 NA 
HETATM   15  C   UNL     1     -12.632  10.163  70.336  1.00  0.00    -0.145 C  
HETATM   16  C   UNL     1     -12.048  11.573  70.106  1.00  0.00    -0.351 C  
HETATM   17  N   UNL     1     -11.224  11.561  68.888  1.00  0.00    -0.224 NA 
HETATM   18  C   UNL     1     -10.725   9.155  69.275  1.00  0.00    -0.183 C  
HETATM   19  C   UNL     1     -10.150  10.553  68.911  1.00  0.00    -0.202 C  
BRANCH  17  20
HETATM   20  C   UNL     1     -11.379  12.492  67.879  1.00  0.00    -0.291 A  
HETATM   21  C   UNL     1     -11.296  13.873  68.129  1.00  0.00    -0.324 A  
HETATM   22  C   UNL     1     -11.473  14.834  67.124  1.00  0.00    -0.375 A  
HETATM   23  C   UNL     1     -11.745  14.430  65.825  1.00  0.00    -0.362 A  
HETATM   24  C   UNL     1     -11.849  13.068  65.528  1.00  0.00    -0.438 A  
HETATM   25  C   UNL     1     -12.172  12.596  64.136  1.00  0.00    -0.450 C  
HETATM   26  C   UNL     1     -11.651  12.120  66.555  1.00  0.00    -0.425 A  
HETATM   27  F   UNL     1     -13.318  11.862  64.085  1.00  0.00    -0.480 F  
HETATM   28  F   UNL     1     -11.199  11.803  63.608  1.00  0.00    -0.396 F  
HETATM   29  F   UNL     1     -12.345  13.612  63.238  1.00  0.00    -0.567 F  
ENDBRANCH  17  20
ENDBRANCH  13  14
ENDBRANCH  12  13
ENDBRANCH   9  12
TORSDOF 4
ENDMDL
MODEL       39
REMARK 921   NORMALIZED FREE ENERGY PREDICTED BY IDOCK:   -6.72 KCAL/MOL
REMARK 922        TOTAL FREE ENERGY PREDICTED BY IDOCK:   -8.88 KCAL/MOL
REMARK 923 INTER-LIGAND FREE ENERGY PREDICTED BY IDOCK:   -8.50 KCAL/MOL
REMARK 924 INTRA-LIGAND FREE ENERGY PREDICTED BY IDOCK:   -0.38 KCAL/MOL
REMARK 927      BINDING AFFINITY PREDICTED BY RF-SCORE:    0.00 PKD
ROOT
HETATM    1  C   UNL     1      -6.852  18.892  65.567  1.00  0.00    -0.262 C  
HETATM    2  C   UNL     1      -5.506  19.650  65.439  1.00  0.00    -0.189 C  
HETATM    3  C   UNL     1      -5.151  20.082  66.872  1.00  0.00    -0.161 C  
HETATM    4  C   UNL     1      -6.502  20.230  67.585  1.00  0.00    -0.281 C  
HETATM    5  C   UNL     1      -7.484  20.068  66.441  1.00  0.00    -0.313 C  
HETATM    6  C   UNL     1      -8.859  19.625  66.701  1.00  0.00    -0.353 A  
HETATM    7  N   UNL     1     -10.046  20.178  66.662  1.00  0.00    -0.453 NA 
HETATM    8  N   UNL     1     -10.943  19.166  66.321  1.00  0.00    -0.178 NA 
HETATM    9  C   UNL     1     -10.260  18.067  66.094  1.00  0.00    -0.363 A  
HETATM   10  C   UNL     1      -7.701  17.699  66.147  1.00  0.00    -0.258 C  
HETATM   11  N   UNL     1      -8.978  18.302  66.448  1.00  0.00    -0.391 NA 
ENDROOT
BRANCH   9  12
HETATM   12  C   UNL     1     -10.733  16.775  65.538  1.00  0.00    -0.206 C  
BRANCH  12  13
HETATM   13  C   UNL     1     -10.303  15.579  66.413  1.00  0.00    -0.296 C  
BRANCH  13  14
HETATM   14  N   UNL     1     -11.440  14.693  66.741  1.00  0.00    -0.361 NA 
HETATM   15  C   UNL     1     -11.204  13.278  66.356  1.00  0.00    -0.302 C  
HETATM   16  C   UNL     1     -10.169  12.537  67.229  1.00  0.00    -0.216 C  
HETATM   17  N   UNL     1     -10.603  12.576  68.632  1.00  0.00    -0.230 NA 
HETATM   18  C   UNL     1     -11.770  14.728  68.190  1.00  0.00    -0.325 C  
HETATM   19  C   UNL     1     -10.828  13.939  69.144  1.00  0.00    -0.189 C  
BRANCH  17  20
HETATM   20  C   UNL     1     -10.672  11.442  69.419  1.00  0.00    -0.104 A  
HETATM   21  C   UNL     1      -9.575  10.574  69.563  1.00  0.00    -0.125 A  
HETATM   22  C   UNL     1      -9.633   9.407  70.336  1.00  0.00    -0.319 A  
HETATM   23  C   UNL     1     -10.808   9.073  70.994  1.00  0.00    -0.345 A  
HETATM   24  C   UNL     1     -11.930   9.898  70.874  1.00  0.00    -0.434 A  
HETATM   25  C   UNL     1     -13.228   9.551  71.550  1.00  0.00    -0.390 C  
HETATM   26  C   UNL     1     -11.841  11.076  70.101  1.00  0.00    -0.441 A  
HETATM   27  F   UNL     1     -14.254   9.402  70.666  1.00  0.00    -0.225 F  
HETATM   28  F   UNL     1     -13.635  10.503  72.434  1.00  0.00    -0.464 F  
HETATM   29  F   UNL     1     -13.182   8.385  72.261  1.00  0.00    -0.326 F  
ENDBRANCH  17  20
ENDBRANCH  13  14
ENDBRANCH  12  13
ENDBRANCH   9  12
TORSDOF 4
ENDMDL
MODEL       40
REMARK 921   NORMALIZED FREE ENERGY PREDICTED BY IDOCK:   -6.69 KCAL/MOL
REMARK 922        TOTAL FREE ENERGY PREDICTED BY IDOCK:   -8.84 KCAL/MOL
REMARK 923 INTER-LIGAND FREE ENERGY PREDICTED BY IDOCK:   -8.58 KCAL/MOL
REMARK 924 INTRA-LIGAND FREE ENERGY PREDICTED BY IDOCK:   -0.26 KCAL/MOL
REMARK 927      BINDING AFFINITY PREDICTED BY RF-SCORE:    0.00 PKD
ROOT
HETATM    1  C   UNL     1     -11.986  13.677  68.503  1.00  0.00    -0.396 C  
HETATM    2  C   UNL     1     -11.720  14.879  67.561  1.00  0.00    -0.328 C  
HETATM    3  C   UNL     1     -10.568  15.658  68.220  1.00  0.00    -0.262 C  
HETATM    4  C   UNL     1     -10.707  15.370  69.721  1.00  0.00    -0.300 C  
HETATM    5  C   UNL     1     -12.029  14.631  69.782  1.00  0.00    -0.378 C  
HETATM    6  C   UNL     1     -12.321  13.723  70.899  1.00  0.00    -0.380 A  
HETATM    7  N   UNL     1     -13.127  13.735  71.930  1.00  0.00    -0.370 NA 
HETATM    8  N   UNL     1     -13.457  12.405  72.191  1.00  0.00    -0.492 NA 
HETATM    9  C   UNL     1     -12.903  11.653  71.266  1.00  0.00    -0.328 A  
HETATM   10  C   UNL     1     -11.493  12.364  69.219  1.00  0.00    -0.288 C  
HETATM   11  N   UNL     1     -12.091  12.443  70.530  1.00  0.00    -0.345 NA 
ENDROOT
BRANCH   9  12
HETATM   12  C   UNL     1     -13.095  10.205  71.006  1.00  0.00    -0.458 C  
BRANCH  12  13
HETATM   13  C   UNL     1     -12.731   9.345  72.234  1.00  0.00    -0.341 C  
BRANCH  13  14
HETATM   14  N   UNL     1     -11.332   8.872  72.185  1.00  0.00    -0.346 NA 
HETATM   15  C   UNL     1     -11.187   7.445  72.569  1.00  0.00    -0.317 C  
HETATM   16  C   UNL     1     -11.732   6.440  71.531  1.00  0.00    -0.313 C  
HETATM   17  N   UNL     1     -11.048   6.652  70.248  1.00  0.00    -0.298 NA 
HETATM   18  C   UNL     1     -10.734   9.049  70.836  1.00  0.00    -0.253 C  
HETATM   19  C   UNL     1     -11.159   8.030  69.740  1.00  0.00    -0.064 C  
BRANCH  17  20
HETATM   20  C   UNL     1     -10.464   5.620  69.538  1.00  0.00    -0.302 A  
HETATM   21  C   UNL     1      -9.774   4.577  70.182  1.00  0.00    -0.287 A  
HETATM   22  C   UNL     1      -9.155   3.535  69.479  1.00  0.00    -0.200 A  
HETATM   23  C   UNL     1      -9.210   3.511  68.093  1.00  0.00    -0.228 A  
HETATM   24  C   UNL     1      -9.875   4.531  67.405  1.00  0.00    -0.204 A  
HETATM   25  C   UNL     1      -9.928   4.551  65.902  1.00  0.00    -0.244 C  
HETATM   26  C   UNL     1     -10.503   5.561  68.137  1.00  0.00    -0.231 A  
HETATM   27  F   UNL     1      -9.366   5.674  65.374  1.00  0.00    -0.144 F  
HETATM   28  F   UNL     1     -11.200   4.510  65.418  1.00  0.00    -0.351 F  
HETATM   29  F   UNL     1      -9.278   3.502  65.315  1.00  0.00    -0.129 F  
ENDBRANCH  17  20
ENDBRANCH  13  14
ENDBRANCH  12  13
ENDBRANCH   9  12
TORSDOF 4
ENDMDL
MODEL       41
REMARK 921   NORMALIZED FREE ENERGY PREDICTED BY IDOCK:   -6.69 KCAL/MOL
REMARK 922        TOTAL FREE ENERGY PREDICTED BY IDOCK:   -8.84 KCAL/MOL
REMARK 923 INTER-LIGAND FREE ENERGY PREDICTED BY IDOCK:   -8.36 KCAL/MOL
REMARK 924 INTRA-LIGAND FREE ENERGY PREDICTED BY IDOCK:   -0.48 KCAL/MOL
REMARK 927      BINDING AFFINITY PREDICTED BY RF-SCORE:    0.00 PKD
ROOT
HETATM    1  C   UNL     1     -10.379  18.122  66.061  1.00  0.00    -0.360 C  
HETATM    2  C   UNL     1     -10.529  19.663  65.982  1.00  0.00    -0.622 C  
HETATM    3  C   UNL     1      -9.830  20.200  67.243  1.00  0.00    -0.580 C  
HETATM    4  C   UNL     1      -9.964  19.073  68.276  1.00  0.00    -0.459 C  
HETATM    5  C   UNL     1     -10.892  18.104  67.571  1.00  0.00    -0.264 C  
HETATM    6  C   UNL     1     -10.894  16.681  67.934  1.00  0.00    -0.321 A  
HETATM    7  N   UNL     1     -11.720  15.871  68.547  1.00  0.00    -0.361 NA 
HETATM    8  N   UNL     1     -11.523  14.607  67.989  1.00  0.00    -0.310 NA 
HETATM    9  C   UNL     1     -10.648  14.718  67.015  1.00  0.00    -0.290 A  
HETATM   10  C   UNL     1      -9.470  16.837  66.116  1.00  0.00    -0.264 C  
HETATM   11  N   UNL     1     -10.153  15.974  67.051  1.00  0.00    -0.265 NA 
ENDROOT
BRANCH   9  12
HETATM   12  C   UNL     1     -10.238  13.703  66.013  1.00  0.00    -0.312 C  
BRANCH  12  13
HETATM   13  C   UNL     1     -10.691  12.283  66.412  1.00  0.00    -0.251 C  
BRANCH  13  14
HETATM   14  N   UNL     1      -9.640  11.554  67.153  1.00  0.00    -0.176 NA 
HETATM   15  C   UNL     1      -9.691  11.790  68.618  1.00  0.00    -0.128 C  
HETATM   16  C   UNL     1     -10.884  11.124  69.337  1.00  0.00    -0.216 C  
HETATM   17  N   UNL     1     -10.845   9.675  69.097  1.00  0.00    -0.214 NA 
HETATM   18  C   UNL     1      -9.714  10.088  66.920  1.00  0.00    -0.189 C  
HETATM   19  C   UNL     1     -10.835   9.313  67.669  1.00  0.00    -0.119 C  
BRANCH  17  20
HETATM   20  C   UNL     1     -10.933   8.750  70.120  1.00  0.00    -0.223 A  
HETATM   21  C   UNL     1     -11.549   9.060  71.345  1.00  0.00    -0.396 A  
HETATM   22  C   UNL     1     -11.626   8.145  72.403  1.00  0.00    -0.463 A  
HETATM   23  C   UNL     1     -11.079   6.878  72.260  1.00  0.00    -0.284 A  
HETATM   24  C   UNL     1     -10.446   6.525  71.065  1.00  0.00    -0.260 A  
HETATM   25  C   UNL     1      -9.816   5.170  70.886  1.00  0.00    -0.199 C  
HETATM   26  C   UNL     1     -10.394   7.460  70.009  1.00  0.00    -0.224 A  
HETATM   27  F   UNL     1      -8.482   5.245  70.622  1.00  0.00    -0.107 F  
HETATM   28  F   UNL     1     -10.360   4.467  69.856  1.00  0.00    -0.294 F  
HETATM   29  F   UNL     1      -9.930   4.363  71.983  1.00  0.00    -0.208 F  
ENDBRANCH  17  20
ENDBRANCH  13  14
ENDBRANCH  12  13
ENDBRANCH   9  12
TORSDOF 4
ENDMDL
MODEL       42
REMARK 921   NORMALIZED FREE ENERGY PREDICTED BY IDOCK:   -6.68 KCAL/MOL
REMARK 922        TOTAL FREE ENERGY PREDICTED BY IDOCK:   -8.83 KCAL/MOL
REMARK 923 INTER-LIGAND FREE ENERGY PREDICTED BY IDOCK:   -8.32 KCAL/MOL
REMARK 924 INTRA-LIGAND FREE ENERGY PREDICTED BY IDOCK:   -0.52 KCAL/MOL
REMARK 927      BINDING AFFINITY PREDICTED BY RF-SCORE:    0.00 PKD
ROOT
HETATM    1  C   UNL     1     -10.188   6.905  68.136  1.00  0.00    -0.203 C  
HETATM    2  C   UNL     1      -9.797   7.377  66.712  1.00  0.00    -0.290 C  
HETATM    3  C   UNL     1      -9.051   6.186  66.085  1.00  0.00    -0.158 C  
HETATM    4  C   UNL     1      -8.424   5.446  67.274  1.00  0.00    -0.106 C  
HETATM    5  C   UNL     1      -8.704   6.395  68.423  1.00  0.00    -0.113 C  
HETATM    6  C   UNL     1      -8.755   5.894  69.802  1.00  0.00    -0.129 A  
HETATM    7  N   UNL     1      -8.003   6.006  70.869  1.00  0.00    -0.113 NA 
HETATM    8  N   UNL     1      -8.861   5.936  71.967  1.00  0.00    -0.137 NA 
HETATM    9  C   UNL     1     -10.095   5.863  71.523  1.00  0.00    -0.192 A  
HETATM   10  C   UNL     1     -10.956   5.911  69.086  1.00  0.00    -0.312 C  
HETATM   11  N   UNL     1     -10.039   5.709  70.183  1.00  0.00    -0.208 NA 
ENDROOT
BRANCH   9  12
HETATM   12  C   UNL     1     -11.365   5.943  72.287  1.00  0.00    -0.351 C  
BRANCH  12  13
HETATM   13  C   UNL     1     -12.283   7.066  71.763  1.00  0.00    -0.351 C  
BRANCH  13  14
HETATM   14  N   UNL     1     -11.982   8.369  72.394  1.00  0.00    -0.389 NA 
HETATM   15  C   UNL     1     -10.808   9.049  71.791  1.00  0.00    -0.367 C  
HETATM   16  C   UNL     1     -11.045   9.609  70.372  1.00  0.00    -0.290 C  
HETATM   17  N   UNL     1     -12.168  10.558  70.410  1.00  0.00    -0.311 NA 
HETATM   18  C   UNL     1     -13.139   9.299  72.324  1.00  0.00    -0.441 C  
HETATM   19  C   UNL     1     -13.410   9.981  70.953  1.00  0.00    -0.219 C  
BRANCH  17  20
HETATM   20  C   UNL     1     -12.085  11.828  69.872  1.00  0.00    -0.287 A  
HETATM   21  C   UNL     1     -12.244  12.978  70.664  1.00  0.00    -0.390 A  
HETATM   22  C   UNL     1     -12.187  14.274  70.133  1.00  0.00    -0.407 A  
HETATM   23  C   UNL     1     -11.970  14.453  68.775  1.00  0.00    -0.331 A  
HETATM   24  C   UNL     1     -11.817  13.340  67.942  1.00  0.00    -0.388 A  
HETATM   25  C   UNL     1     -11.609  13.498  66.461  1.00  0.00    -0.359 C  
HETATM   26  C   UNL     1     -11.863  12.046  68.504  1.00  0.00    -0.369 A  
HETATM   27  F   UNL     1     -12.585  12.892  65.728  1.00  0.00    -0.497 F  
HETATM   28  F   UNL     1     -10.435  12.959  66.032  1.00  0.00    -0.260 F  
HETATM   29  F   UNL     1     -11.590  14.799  66.044  1.00  0.00    -0.350 F  
ENDBRANCH  17  20
ENDBRANCH  13  14
ENDBRANCH  12  13
ENDBRANCH   9  12
TORSDOF 4
ENDMDL
MODEL       43
REMARK 921   NORMALIZED FREE ENERGY PREDICTED BY IDOCK:   -6.67 KCAL/MOL
REMARK 922        TOTAL FREE ENERGY PREDICTED BY IDOCK:   -8.82 KCAL/MOL
REMARK 923 INTER-LIGAND FREE ENERGY PREDICTED BY IDOCK:   -7.95 KCAL/MOL
REMARK 924 INTRA-LIGAND FREE ENERGY PREDICTED BY IDOCK:   -0.86 KCAL/MOL
REMARK 927      BINDING AFFINITY PREDICTED BY RF-SCORE:    0.00 PKD
ROOT
HETATM    1  C   UNL     1     -10.732   8.199  70.645  1.00  0.00    -0.238 C  
HETATM    2  C   UNL     1     -11.448   8.244  72.019  1.00  0.00    -0.399 C  
HETATM    3  C   UNL     1     -10.880   7.051  72.807  1.00  0.00    -0.321 C  
HETATM    4  C   UNL     1     -10.490   6.023  71.737  1.00  0.00    -0.268 C  
HETATM    5  C   UNL     1     -11.057   6.646  70.477  1.00  0.00    -0.359 C  
HETATM    6  C   UNL     1     -10.499   6.301  69.163  1.00  0.00    -0.239 A  
HETATM    7  N   UNL     1     -10.906   5.620  68.121  1.00  0.00    -0.160 NA 
HETATM    8  N   UNL     1     -10.310   6.210  67.005  1.00  0.00    -0.207 NA 
HETATM    9  C   UNL     1      -9.634   7.263  67.407  1.00  0.00    -0.142 A  
HETATM   10  C   UNL     1      -9.413   8.247  69.787  1.00  0.00    -0.163 C  
HETATM   11  N   UNL     1      -9.637   7.261  68.757  1.00  0.00    -0.142 NA 
ENDROOT
BRANCH   9  12
HETATM   12  C   UNL     1      -8.976   8.312  66.589  1.00  0.00    -0.179 C  
BRANCH  12  13
HETATM   13  C   UNL     1      -9.989   9.345  66.052  1.00  0.00    -0.281 C  
BRANCH  13  14
HETATM   14  N   UNL     1      -9.429  10.713  66.035  1.00  0.00    -0.185 NA 
HETATM   15  C   UNL     1     -10.408  11.736  65.586  1.00  0.00    -0.252 C  
HETATM   16  C   UNL     1     -11.535  12.037  66.598  1.00  0.00    -0.346 C  
HETATM   17  N   UNL     1     -10.939  12.482  67.866  1.00  0.00    -0.218 NA 
HETATM   18  C   UNL     1      -8.918  11.120  67.370  1.00  0.00    -0.139 C  
HETATM   19  C   UNL     1      -9.976  11.523  68.435  1.00  0.00    -0.206 C  
BRANCH  17  20
HETATM   20  C   UNL     1     -11.343  13.635  68.511  1.00  0.00    -0.290 A  
HETATM   21  C   UNL     1     -11.037  14.911  68.007  1.00  0.00    -0.301 A  
HETATM   22  C   UNL     1     -11.417  16.092  68.659  1.00  0.00    -0.377 A  
HETATM   23  C   UNL     1     -12.122  16.024  69.852  1.00  0.00    -0.131 A  
HETATM   24  C   UNL     1     -12.440  14.778  70.401  1.00  0.00    -0.405 A  
HETATM   25  C   UNL     1     -13.178  14.668  71.708  1.00  0.00    -0.350 C  
HETATM   26  C   UNL     1     -12.059  13.604  69.717  1.00  0.00    -0.396 A  
HETATM   27  F   UNL     1     -12.467  13.992  72.654  1.00  0.00    -0.307 F  
HETATM   28  F   UNL     1     -14.363  14.008  71.592  1.00  0.00    -0.448 F  
HETATM   29  F   UNL     1     -13.482  15.875  72.270  1.00  0.00    -0.502 F  
ENDBRANCH  17  20
ENDBRANCH  13  14
ENDBRANCH  12  13
ENDBRANCH   9  12
TORSDOF 4
ENDMDL
MODEL       44
REMARK 921   NORMALIZED FREE ENERGY PREDICTED BY IDOCK:   -6.66 KCAL/MOL
REMARK 922        TOTAL FREE ENERGY PREDICTED BY IDOCK:   -8.81 KCAL/MOL
REMARK 923 INTER-LIGAND FREE ENERGY PREDICTED BY IDOCK:   -8.10 KCAL/MOL
REMARK 924 INTRA-LIGAND FREE ENERGY PREDICTED BY IDOCK:   -0.71 KCAL/MOL
REMARK 927      BINDING AFFINITY PREDICTED BY RF-SCORE:    0.00 PKD
ROOT
HETATM    1  C   UNL     1      -9.295  15.121  66.183  1.00  0.00    -0.346 C  
HETATM    2  C   UNL     1      -8.786  16.580  66.303  1.00  0.00    -0.369 C  
HETATM    3  C   UNL     1      -9.511  17.159  67.530  1.00  0.00    -0.247 C  
HETATM    4  C   UNL     1     -10.832  16.382  67.609  1.00  0.00    -0.280 C  
HETATM    5  C   UNL     1     -10.814  15.593  66.315  1.00  0.00    -0.262 C  
HETATM    6  C   UNL     1     -11.589  14.352  66.192  1.00  0.00    -0.369 A  
HETATM    7  N   UNL     1     -12.661  13.976  65.541  1.00  0.00    -0.518 NA 
HETATM    8  N   UNL     1     -12.499  12.619  65.262  1.00  0.00    -0.639 NA 
HETATM    9  C   UNL     1     -11.312  12.248  65.685  1.00  0.00    -0.350 A  
HETATM   10  C   UNL     1      -9.456  13.674  66.783  1.00  0.00    -0.270 C  
HETATM   11  N   UNL     1     -10.784  13.280  66.377  1.00  0.00    -0.283 NA 
ENDROOT
BRANCH   9  12
HETATM   12  C   UNL     1     -10.607  10.960  65.468  1.00  0.00    -0.240 C  
BRANCH  12  13
HETATM   13  C   UNL     1     -10.818   9.984  66.645  1.00  0.00     0.012 C  
BRANCH  13  14
HETATM   14  N   UNL     1      -9.657   9.958  67.559  1.00  0.00    -0.154 NA 
HETATM   15  C   UNL     1      -9.938  10.592  68.873  1.00  0.00    -0.204 C  
HETATM   16  C   UNL     1     -10.881   9.784  69.789  1.00  0.00    -0.257 C  
HETATM   17  N   UNL     1     -10.302   8.453  70.025  1.00  0.00    -0.206 NA 
HETATM   18  C   UNL     1      -9.178   8.574  67.809  1.00  0.00    -0.135 C  
HETATM   19  C   UNL     1     -10.018   7.705  68.788  1.00  0.00    -0.174 C  
BRANCH  17  20
HETATM   20  C   UNL     1     -10.158   7.920  71.291  1.00  0.00    -0.180 A  
HETATM   21  C   UNL     1      -9.403   8.569  72.285  1.00  0.00    -0.363 A  
HETATM   22  C   UNL     1      -9.224   8.033  73.567  1.00  0.00    -0.312 A  
HETATM   23  C   UNL     1      -9.803   6.814  73.892  1.00  0.00    -0.318 A  
HETATM   24  C   UNL     1     -10.553   6.124  72.935  1.00  0.00    -0.257 A  
HETATM   25  C   UNL     1     -11.170   4.787  73.244  1.00  0.00    -0.340 C  
HETATM   26  C   UNL     1     -10.731   6.693  71.655  1.00  0.00    -0.259 A  
HETATM   27  F   UNL     1     -10.723   3.802  72.417  1.00  0.00    -0.218 F  
HETATM   28  F   UNL     1     -12.526   4.789  73.118  1.00  0.00    -0.290 F  
HETATM   29  F   UNL     1     -10.919   4.347  74.512  1.00  0.00    -0.273 F  
ENDBRANCH  17  20
ENDBRANCH  13  14
ENDBRANCH  12  13
ENDBRANCH   9  12
TORSDOF 4
ENDMDL
MODEL       45
REMARK 921   NORMALIZED FREE ENERGY PREDICTED BY IDOCK:   -6.65 KCAL/MOL
REMARK 922        TOTAL FREE ENERGY PREDICTED BY IDOCK:   -8.79 KCAL/MOL
REMARK 923 INTER-LIGAND FREE ENERGY PREDICTED BY IDOCK:   -8.07 KCAL/MOL
REMARK 924 INTRA-LIGAND FREE ENERGY PREDICTED BY IDOCK:   -0.72 KCAL/MOL
REMARK 927      BINDING AFFINITY PREDICTED BY RF-SCORE:    0.00 PKD
ROOT
HETATM    1  C   UNL     1     -10.916   8.736  70.580  1.00  0.00    -0.278 C  
HETATM    2  C   UNL     1     -11.600   8.766  71.971  1.00  0.00    -0.436 C  
HETATM    3  C   UNL     1     -11.050   7.537  72.715  1.00  0.00    -0.416 C  
HETATM    4  C   UNL     1     -10.714   6.526  71.611  1.00  0.00    -0.267 C  
HETATM    5  C   UNL     1     -11.290   7.197  70.380  1.00  0.00    -0.325 C  
HETATM    6  C   UNL     1     -10.771   6.871  69.046  1.00  0.00    -0.230 A  
HETATM    7  N   UNL     1     -11.219   6.230  67.996  1.00  0.00    -0.261 NA 
HETATM    8  N   UNL     1     -10.631   6.831  66.883  1.00  0.00    -0.301 NA 
HETATM    9  C   UNL     1      -9.916   7.854  67.295  1.00  0.00    -0.215 A  
HETATM   10  C   UNL     1      -9.615   8.768  69.694  1.00  0.00    -0.171 C  
HETATM   11  N   UNL     1      -9.890   7.816  68.645  1.00  0.00    -0.164 NA 
ENDROOT
BRANCH   9  12
HETATM   12  C   UNL     1      -9.245   8.904  66.491  1.00  0.00    -0.231 C  
BRANCH  12  13
HETATM   13  C   UNL     1     -10.244   9.962  65.975  1.00  0.00    -0.198 C  
BRANCH  13  14
HETATM   14  N   UNL     1      -9.566  11.204  65.549  1.00  0.00    -0.217 NA 
HETATM   15  C   UNL     1     -10.514  12.285  65.176  1.00  0.00    -0.288 C  
HETATM   16  C   UNL     1     -11.271  12.916  66.364  1.00  0.00    -0.300 C  
HETATM   17  N   UNL     1     -10.299  13.455  67.325  1.00  0.00    -0.244 NA 
HETATM   18  C   UNL     1      -8.659  11.730  66.602  1.00  0.00    -0.170 C  
HETATM   19  C   UNL     1      -9.326  12.458  67.804  1.00  0.00    -0.196 C  
BRANCH  17  20
HETATM   20  C   UNL     1     -10.378  14.745  67.816  1.00  0.00    -0.244 A  
HETATM   21  C   UNL     1     -10.752  15.009  69.145  1.00  0.00    -0.249 A  
HETATM   22  C   UNL     1     -10.861  16.310  69.654  1.00  0.00    -0.345 A  
HETATM   23  C   UNL     1     -10.597  17.396  68.832  1.00  0.00    -0.243 A  
HETATM   24  C   UNL     1     -10.232  17.186  67.499  1.00  0.00    -0.323 A  
HETATM   25  C   UNL     1      -9.966  18.342  66.573  1.00  0.00    -0.373 C  
HETATM   26  C   UNL     1     -10.114  15.866  67.015  1.00  0.00    -0.268 A  
HETATM   27  F   UNL     1     -10.797  18.348  65.493  1.00  0.00    -0.470 F  
HETATM   28  F   UNL     1      -8.702  18.334  66.068  1.00  0.00    -0.259 F  
HETATM   29  F   UNL     1     -10.120  19.565  67.162  1.00  0.00    -0.391 F  
ENDBRANCH  17  20
ENDBRANCH  13  14
ENDBRANCH  12  13
ENDBRANCH   9  12
TORSDOF 4
ENDMDL
MODEL       46
REMARK 921   NORMALIZED FREE ENERGY PREDICTED BY IDOCK:   -6.65 KCAL/MOL
REMARK 922        TOTAL FREE ENERGY PREDICTED BY IDOCK:   -8.79 KCAL/MOL
REMARK 923 INTER-LIGAND FREE ENERGY PREDICTED BY IDOCK:   -8.34 KCAL/MOL
REMARK 924 INTRA-LIGAND FREE ENERGY PREDICTED BY IDOCK:   -0.45 KCAL/MOL
REMARK 927      BINDING AFFINITY PREDICTED BY RF-SCORE:    0.00 PKD
ROOT
HETATM    1  C   UNL     1      -9.971   7.805  67.756  1.00  0.00    -0.220 C  
HETATM    2  C   UNL     1      -9.612   8.648  66.505  1.00  0.00    -0.303 C  
HETATM    3  C   UNL     1      -8.667   7.758  65.679  1.00  0.00    -0.132 C  
HETATM    4  C   UNL     1      -7.971   6.860  66.710  1.00  0.00    -0.108 C  
HETATM    5  C   UNL     1      -8.435   7.463  68.022  1.00  0.00    -0.123 C  
HETATM    6  C   UNL     1      -8.453   6.652  69.246  1.00  0.00    -0.124 A  
HETATM    7  N   UNL     1      -7.764   6.619  70.359  1.00  0.00    -0.096 NA 
HETATM    8  N   UNL     1      -8.636   6.170  71.351  1.00  0.00    -0.128 NA 
HETATM    9  C   UNL     1      -9.828   6.024  70.818  1.00  0.00    -0.181 A  
HETATM   10  C   UNL     1     -10.604   6.515  68.401  1.00  0.00    -0.246 C  
HETATM   11  N   UNL     1      -9.704   6.197  69.485  1.00  0.00    -0.144 NA 
ENDROOT
BRANCH   9  12
HETATM   12  C   UNL     1     -11.120   5.738  71.491  1.00  0.00    -0.281 C  
BRANCH  12  13
HETATM   13  C   UNL     1     -12.129   6.892  71.318  1.00  0.00    -0.373 C  
BRANCH  13  14
HETATM   14  N   UNL     1     -11.853   8.013  72.241  1.00  0.00    -0.348 NA 
HETATM   15  C   UNL     1     -10.742   8.884  71.782  1.00  0.00    -0.362 C  
HETATM   16  C   UNL     1     -11.075   9.763  70.558  1.00  0.00    -0.321 C  
HETATM   17  N   UNL     1     -12.235  10.610  70.873  1.00  0.00    -0.360 NA 
HETATM   18  C   UNL     1     -13.052   8.867  72.449  1.00  0.00    -0.418 C  
HETATM   19  C   UNL     1     -13.422   9.850  71.302  1.00  0.00    -0.280 C  
BRANCH  17  20
HETATM   20  C   UNL     1     -12.235  11.976  70.665  1.00  0.00    -0.316 A  
HETATM   21  C   UNL     1     -11.903  12.534  69.418  1.00  0.00    -0.368 A  
HETATM   22  C   UNL     1     -11.874  13.917  69.194  1.00  0.00    -0.401 A  
HETATM   23  C   UNL     1     -12.178  14.790  70.229  1.00  0.00    -0.394 A  
HETATM   24  C   UNL     1     -12.503  14.284  71.491  1.00  0.00    -0.435 A  
HETATM   25  C   UNL     1     -12.809  15.202  72.643  1.00  0.00    -0.386 C  
HETATM   26  C   UNL     1     -12.540  12.887  71.687  1.00  0.00    -0.207 A  
HETATM   27  F   UNL     1     -11.957  15.027  73.692  1.00  0.00    -0.497 F  
HETATM   28  F   UNL     1     -14.060  15.018  73.148  1.00  0.00    -0.377 F  
HETATM   29  F   UNL     1     -12.733  16.528  72.324  1.00  0.00    -0.405 F  
ENDBRANCH  17  20
ENDBRANCH  13  14
ENDBRANCH  12  13
ENDBRANCH   9  12
TORSDOF 4
ENDMDL
MODEL       47
REMARK 921   NORMALIZED FREE ENERGY PREDICTED BY IDOCK:   -6.64 KCAL/MOL
REMARK 922        TOTAL FREE ENERGY PREDICTED BY IDOCK:   -8.78 KCAL/MOL
REMARK 923 INTER-LIGAND FREE ENERGY PREDICTED BY IDOCK:   -8.98 KCAL/MOL
REMARK 924 INTRA-LIGAND FREE ENERGY PREDICTED BY IDOCK:    0.20 KCAL/MOL
REMARK 927      BINDING AFFINITY PREDICTED BY RF-SCORE:    0.00 PKD
ROOT
HETATM    1  C   UNL     1     -12.225  13.458  65.426  1.00  0.00    -0.492 C  
HETATM    2  C   UNL     1     -13.089  12.341  64.786  1.00  0.00     0.373 C  
HETATM    3  C   UNL     1     -12.327  11.921  63.517  1.00  0.00    -0.603 C  
HETATM    4  C   UNL     1     -11.552  13.175  63.091  1.00  0.00     0.068 C  
HETATM    5  C   UNL     1     -12.106  14.226  64.033  1.00  0.00    -0.350 C  
HETATM    6  C   UNL     1     -11.321  15.426  64.349  1.00  0.00    -0.238 A  
HETATM    7  N   UNL     1     -11.403  16.702  64.066  1.00  0.00    -1.080 NA 
HETATM    8  N   UNL     1     -10.854  17.385  65.152  1.00  0.00    -0.609 NA 
HETATM    9  C   UNL     1     -10.534  16.505  66.074  1.00  0.00    -0.310 A  
HETATM   10  C   UNL     1     -10.871  13.942  66.067  1.00  0.00    -0.290 C  
HETATM   11  N   UNL     1     -10.700  15.276  65.541  1.00  0.00    -0.347 NA 
ENDROOT
BRANCH   9  12
HETATM   12  C   UNL     1     -10.081  16.742  67.467  1.00  0.00    -0.276 C  
BRANCH  12  13
HETATM   13  C   UNL     1     -11.067  16.157  68.500  1.00  0.00    -0.357 C  
BRANCH  13  14
HETATM   14  N   UNL     1     -10.374  15.382  69.551  1.00  0.00    -0.250 NA 
HETATM   15  C   UNL     1     -11.218  15.145  70.750  1.00  0.00    -0.286 C  
HETATM   16  C   UNL     1     -12.368  14.137  70.540  1.00  0.00    -0.364 C  
HETATM   17  N   UNL     1     -11.809  12.852  70.099  1.00  0.00    -0.289 NA 
HETATM   18  C   UNL     1      -9.907  14.063  69.050  1.00  0.00     0.015 C  
HETATM   19  C   UNL     1     -10.983  12.953  68.883  1.00  0.00    -0.228 C  
BRANCH  17  20
HETATM   20  C   UNL     1     -12.135  11.653  70.705  1.00  0.00    -0.335 A  
HETATM   21  C   UNL     1     -13.270  11.524  71.524  1.00  0.00    -0.320 A  
HETATM   22  C   UNL     1     -13.604  10.325  72.167  1.00  0.00    -0.245 A  
HETATM   23  C   UNL     1     -12.797   9.208  72.005  1.00  0.00    -0.483 A  
HETATM   24  C   UNL     1     -11.651   9.288  71.209  1.00  0.00    -0.419 A  
HETATM   25  C   UNL     1     -10.738   8.105  71.036  1.00  0.00    -0.217 C  
HETATM   26  C   UNL     1     -11.345  10.504  70.561  1.00  0.00    -0.400 A  
HETATM   27  F   UNL     1      -9.469   8.357  71.463  1.00  0.00    -0.181 F  
HETATM   28  F   UNL     1     -10.620   7.714  69.737  1.00  0.00    -0.223 F  
HETATM   29  F   UNL     1     -11.143   6.994  71.719  1.00  0.00    -0.241 F  
ENDBRANCH  17  20
ENDBRANCH  13  14
ENDBRANCH  12  13
ENDBRANCH   9  12
TORSDOF 4
ENDMDL
MODEL       48
REMARK 921   NORMALIZED FREE ENERGY PREDICTED BY IDOCK:   -6.64 KCAL/MOL
REMARK 922        TOTAL FREE ENERGY PREDICTED BY IDOCK:   -8.77 KCAL/MOL
REMARK 923 INTER-LIGAND FREE ENERGY PREDICTED BY IDOCK:   -8.31 KCAL/MOL
REMARK 924 INTRA-LIGAND FREE ENERGY PREDICTED BY IDOCK:   -0.46 KCAL/MOL
REMARK 927      BINDING AFFINITY PREDICTED BY RF-SCORE:    0.00 PKD
ROOT
HETATM    1  C   UNL     1     -10.727   7.477  67.016  1.00  0.00    -0.367 C  
HETATM    2  C   UNL     1     -10.666   5.940  67.213  1.00  0.00    -0.380 C  
HETATM    3  C   UNL     1      -9.245   5.658  67.731  1.00  0.00    -0.106 C  
HETATM    4  C   UNL     1      -8.383   6.788  67.152  1.00  0.00    -0.121 C  
HETATM    5  C   UNL     1      -9.351   7.473  66.208  1.00  0.00    -0.176 C  
HETATM    6  C   UNL     1      -9.151   8.879  65.832  1.00  0.00    -0.218 A  
HETATM    7  N   UNL     1      -8.796   9.517  64.745  1.00  0.00    -0.196 NA 
HETATM    8  N   UNL     1      -9.440  10.753  64.783  1.00  0.00    -0.228 NA 
HETATM    9  C   UNL     1     -10.214  10.783  65.845  1.00  0.00    -0.259 A  
HETATM   10  C   UNL     1     -10.640   8.936  67.602  1.00  0.00    -0.224 C  
HETATM   11  N   UNL     1      -9.950   9.678  66.574  1.00  0.00    -0.230 NA 
ENDROOT
BRANCH   9  12
HETATM   12  C   UNL     1     -11.224  11.799  66.231  1.00  0.00    -0.370 C  
BRANCH  12  13
HETATM   13  C   UNL     1     -11.402  12.879  65.143  1.00  0.00    -0.298 C  
BRANCH  13  14
HETATM   14  N   UNL     1     -12.164  14.045  65.638  1.00  0.00    -0.418 NA 
HETATM   15  C   UNL     1     -11.756  14.470  67.001  1.00  0.00    -0.393 C  
HETATM   16  C   UNL     1     -10.368  15.142  67.078  1.00  0.00    -0.271 C  
HETATM   17  N   UNL     1     -10.351  16.317  66.195  1.00  0.00    -0.328 NA 
HETATM   18  C   UNL     1     -12.034  15.216  64.732  1.00  0.00    -0.250 C  
HETATM   19  C   UNL     1     -10.699  16.011  64.797  1.00  0.00    -0.204 C  
BRANCH  17  20
HETATM   20  C   UNL     1      -9.928  17.561  66.624  1.00  0.00    -0.314 A  
HETATM   21  C   UNL     1     -10.744  18.387  67.416  1.00  0.00    -0.397 A  
HETATM   22  C   UNL     1     -10.343  19.661  67.840  1.00  0.00    -0.583 A  
HETATM   23  C   UNL     1      -9.097  20.148  67.474  1.00  0.00    -0.465 A  
HETATM   24  C   UNL     1      -8.252  19.370  66.677  1.00  0.00    -0.322 A  
HETATM   25  C   UNL     1      -6.906  19.879  66.238  1.00  0.00    -0.227 C  
HETATM   26  C   UNL     1      -8.674  18.084  66.276  1.00  0.00    -0.194 A  
HETATM   27  F   UNL     1      -6.787  19.938  64.883  1.00  0.00    -0.296 F  
HETATM   28  F   UNL     1      -5.879  19.095  66.667  1.00  0.00    -0.161 F  
HETATM   29  F   UNL     1      -6.622  21.137  66.688  1.00  0.00    -0.315 F  
ENDBRANCH  17  20
ENDBRANCH  13  14
ENDBRANCH  12  13
ENDBRANCH   9  12
TORSDOF 4
ENDMDL
MODEL       49
REMARK 921   NORMALIZED FREE ENERGY PREDICTED BY IDOCK:   -6.62 KCAL/MOL
REMARK 922        TOTAL FREE ENERGY PREDICTED BY IDOCK:   -8.76 KCAL/MOL
REMARK 923 INTER-LIGAND FREE ENERGY PREDICTED BY IDOCK:   -8.11 KCAL/MOL
REMARK 924 INTRA-LIGAND FREE ENERGY PREDICTED BY IDOCK:   -0.65 KCAL/MOL
REMARK 927      BINDING AFFINITY PREDICTED BY RF-SCORE:    0.00 PKD
ROOT
HETATM    1  C   UNL     1     -10.556  12.656  65.713  1.00  0.00    -0.296 C  
HETATM    2  C   UNL     1     -11.200  14.020  66.069  1.00  0.00    -0.310 C  
HETATM    3  C   UNL     1     -12.519  14.060  65.278  1.00  0.00    -0.495 C  
HETATM    4  C   UNL     1     -12.264  13.186  64.043  1.00  0.00    -0.482 C  
HETATM    5  C   UNL     1     -10.777  12.907  64.153  1.00  0.00    -0.443 C  
HETATM    6  C   UNL     1     -10.195  11.722  63.510  1.00  0.00    -0.450 A  
HETATM    7  N   UNL     1      -9.408  11.501  62.488  1.00  0.00    -0.207 NA 
HETATM    8  N   UNL     1      -8.680  10.350  62.790  1.00  0.00    -0.188 NA 
HETATM    9  C   UNL     1      -8.999   9.967  64.006  1.00  0.00    -0.240 A  
HETATM   10  C   UNL     1     -10.606  11.082  65.696  1.00  0.00    -0.197 C  
HETATM   11  N   UNL     1     -10.030  10.734  64.419  1.00  0.00    -0.312 NA 
ENDROOT
BRANCH   9  12
HETATM   12  C   UNL     1      -8.377   8.909  64.841  1.00  0.00    -0.181 C  
BRANCH  12  13
HETATM   13  C   UNL     1      -7.554   9.501  66.003  1.00  0.00    -0.100 C  
BRANCH  13  14
HETATM   14  N   UNL     1      -7.301   8.506  67.067  1.00  0.00    -0.083 NA 
HETATM   15  C   UNL     1      -7.092   9.123  68.402  1.00  0.00    -0.073 C  
HETATM   16  C   UNL     1      -8.363   9.721  69.042  1.00  0.00    -0.127 C  
HETATM   17  N   UNL     1      -9.383   8.670  69.165  1.00  0.00    -0.152 NA 
HETATM   18  C   UNL     1      -8.411   7.524  67.183  1.00  0.00    -0.121 C  
HETATM   19  C   UNL     1      -9.708   8.010  67.889  1.00  0.00    -0.160 C  
BRANCH  17  20
HETATM   20  C   UNL     1     -10.050   8.419  70.349  1.00  0.00    -0.187 A  
HETATM   21  C   UNL     1      -9.553   7.511  71.300  1.00  0.00    -0.165 A  
HETATM   22  C   UNL     1     -10.227   7.225  72.495  1.00  0.00    -0.236 A  
HETATM   23  C   UNL     1     -11.436   7.848  72.770  1.00  0.00    -0.428 A  
HETATM   24  C   UNL     1     -11.978   8.750  71.851  1.00  0.00    -0.435 A  
HETATM   25  C   UNL     1     -13.301   9.421  72.104  1.00  0.00    -0.468 C  
HETATM   26  C   UNL     1     -11.272   9.032  70.662  1.00  0.00    -0.318 A  
HETATM   27  F   UNL     1     -14.222   9.142  71.140  1.00  0.00    -0.403 F  
HETATM   28  F   UNL     1     -13.206  10.779  72.144  1.00  0.00    -0.552 F  
HETATM   29  F   UNL     1     -13.883   9.058  73.285  1.00  0.00    -0.301 F  
ENDBRANCH  17  20
ENDBRANCH  13  14
ENDBRANCH  12  13
ENDBRANCH   9  12
TORSDOF 4
ENDMDL
MODEL       50
REMARK 921   NORMALIZED FREE ENERGY PREDICTED BY IDOCK:   -6.60 KCAL/MOL
REMARK 922        TOTAL FREE ENERGY PREDICTED BY IDOCK:   -8.73 KCAL/MOL
REMARK 923 INTER-LIGAND FREE ENERGY PREDICTED BY IDOCK:   -8.18 KCAL/MOL
REMARK 924 INTRA-LIGAND FREE ENERGY PREDICTED BY IDOCK:   -0.54 KCAL/MOL
REMARK 927      BINDING AFFINITY PREDICTED BY RF-SCORE:    0.00 PKD
ROOT
HETATM    1  C   UNL     1     -10.629  18.576  66.923  1.00  0.00    -0.406 C  
HETATM    2  C   UNL     1     -10.582  19.870  67.775  1.00  0.00    -0.460 C  
HETATM    3  C   UNL     1      -9.341  20.633  67.278  1.00  0.00    -0.480 C  
HETATM    4  C   UNL     1      -8.387  19.544  66.771  1.00  0.00    -0.324 C  
HETATM    5  C   UNL     1      -9.089  18.275  67.214  1.00  0.00    -0.256 C  
HETATM    6  C   UNL     1      -8.833  17.006  66.521  1.00  0.00    -0.264 A  
HETATM    7  N   UNL     1      -8.220  15.886  66.813  1.00  0.00    -0.247 NA 
HETATM    8  N   UNL     1      -8.884  14.878  66.113  1.00  0.00    -0.085 NA 
HETATM    9  C   UNL     1      -9.911  15.413  65.492  1.00  0.00    -0.324 A  
HETATM   10  C   UNL     1     -10.738  17.862  65.524  1.00  0.00     0.023 C  
HETATM   11  N   UNL     1      -9.820  16.753  65.632  1.00  0.00    -0.572 NA 
ENDROOT
BRANCH   9  12
HETATM   12  C   UNL     1     -11.013  14.737  64.765  1.00  0.00    -0.393 C  
BRANCH  12  13
HETATM   13  C   UNL     1     -10.536  13.448  64.064  1.00  0.00    -0.098 C  
BRANCH  13  14
HETATM   14  N   UNL     1     -11.455  12.314  64.302  1.00  0.00    -0.340 NA 
HETATM   15  C   UNL     1     -10.756  11.006  64.378  1.00  0.00    -0.269 C  
HETATM   16  C   UNL     1      -9.912  10.799  65.653  1.00  0.00    -0.260 C  
HETATM   17  N   UNL     1     -10.777  10.936  66.833  1.00  0.00    -0.265 NA 
HETATM   18  C   UNL     1     -12.238  12.490  65.553  1.00  0.00    -0.377 C  
HETATM   19  C   UNL     1     -11.495  12.221  66.892  1.00  0.00    -0.356 C  
BRANCH  17  20
HETATM   20  C   UNL     1     -10.810   9.994  67.843  1.00  0.00    -0.271 A  
HETATM   21  C   UNL     1     -11.102  10.345  69.173  1.00  0.00    -0.296 A  
HETATM   22  C   UNL     1     -11.117   9.409  70.215  1.00  0.00    -0.299 A  
HETATM   23  C   UNL     1     -10.833   8.077  69.949  1.00  0.00    -0.217 A  
HETATM   24  C   UNL     1     -10.525   7.679  68.644  1.00  0.00    -0.203 A  
HETATM   25  C   UNL     1     -10.184   6.249  68.326  1.00  0.00    -0.169 C  
HETATM   26  C   UNL     1     -10.532   8.639  67.610  1.00  0.00    -0.311 A  
HETATM   27  F   UNL     1      -8.939   6.115  67.790  1.00  0.00    -0.118 F  
HETATM   28  F   UNL     1     -11.038   5.690  67.424  1.00  0.00    -0.305 F  
HETATM   29  F   UNL     1     -10.208   5.423  69.414  1.00  0.00    -0.238 F  
ENDBRANCH  17  20
ENDBRANCH  13  14
ENDBRANCH  12  13
ENDBRANCH   9  12
TORSDOF 4
ENDMDL
MODEL       51
REMARK 921   NORMALIZED FREE ENERGY PREDICTED BY IDOCK:   -6.59 KCAL/MOL
REMARK 922        TOTAL FREE ENERGY PREDICTED BY IDOCK:   -8.72 KCAL/MOL
REMARK 923 INTER-LIGAND FREE ENERGY PREDICTED BY IDOCK:   -8.13 KCAL/MOL
REMARK 924 INTRA-LIGAND FREE ENERGY PREDICTED BY IDOCK:   -0.59 KCAL/MOL
REMARK 927      BINDING AFFINITY PREDICTED BY RF-SCORE:    0.00 PKD
ROOT
HETATM    1  C   UNL     1     -11.888   7.432  70.707  1.00  0.00    -0.288 C  
HETATM    2  C   UNL     1     -12.448   6.507  71.817  1.00  0.00    -0.293 C  
HETATM    3  C   UNL     1     -11.265   5.615  72.232  1.00  0.00    -0.317 C  
HETATM    4  C   UNL     1     -10.387   5.519  70.977  1.00  0.00    -0.307 C  
HETATM    5  C   UNL     1     -11.254   6.190  69.930  1.00  0.00    -0.484 C  
HETATM    6  C   UNL     1     -10.645   6.786  68.734  1.00  0.00    -0.226 A  
HETATM    7  N   UNL     1     -10.615   6.501  67.457  1.00  0.00    -0.239 NA 
HETATM    8  N   UNL     1     -10.513   7.718  66.782  1.00  0.00    -0.308 NA 
HETATM    9  C   UNL     1     -10.563   8.687  67.668  1.00  0.00    -0.203 A  
HETATM   10  C   UNL     1     -10.874   8.538  70.230  1.00  0.00    -0.238 C  
HETATM   11  N   UNL     1     -10.517   8.123  68.894  1.00  0.00    -0.209 NA 
ENDROOT
BRANCH   9  12
HETATM   12  C   UNL     1     -10.667  10.150  67.441  1.00  0.00    -0.336 C  
BRANCH  12  13
HETATM   13  C   UNL     1      -9.283  10.834  67.447  1.00  0.00    -0.147 C  
BRANCH  13  14
HETATM   14  N   UNL     1      -9.206  11.920  68.447  1.00  0.00    -0.191 NA 
HETATM   15  C   UNL     1      -7.890  12.609  68.455  1.00  0.00    -0.136 C  
HETATM   16  C   UNL     1      -7.624  13.505  67.226  1.00  0.00    -0.058 C  
HETATM   17  N   UNL     1      -8.684  14.518  67.128  1.00  0.00    -0.209 NA 
HETATM   18  C   UNL     1     -10.261  12.945  68.235  1.00  0.00    -0.245 C  
HETATM   19  C   UNL     1     -10.042  13.949  67.068  1.00  0.00    -0.256 C  
BRANCH  17  20
HETATM   20  C   UNL     1      -8.412  15.865  66.984  1.00  0.00    -0.217 A  
HETATM   21  C   UNL     1      -7.103  16.370  67.082  1.00  0.00    -0.235 A  
HETATM   22  C   UNL     1      -6.810  17.735  66.963  1.00  0.00    -0.204 A  
HETATM   23  C   UNL     1      -7.835  18.643  66.742  1.00  0.00    -0.258 A  
HETATM   24  C   UNL     1      -9.155  18.193  66.649  1.00  0.00    -0.290 A  
HETATM   25  C   UNL     1     -10.294  19.154  66.439  1.00  0.00    -0.455 C  
HETATM   26  C   UNL     1      -9.422  16.811  66.757  1.00  0.00    -0.261 A  
HETATM   27  F   UNL     1     -11.209  19.107  67.447  1.00  0.00    -0.535 F  
HETATM   28  F   UNL     1     -10.989  18.907  65.295  1.00  0.00    -0.479 F  
HETATM   29  F   UNL     1      -9.902  20.460  66.357  1.00  0.00    -0.509 F  
ENDBRANCH  17  20
ENDBRANCH  13  14
ENDBRANCH  12  13
ENDBRANCH   9  12
TORSDOF 4
ENDMDL
MODEL       52
REMARK 921   NORMALIZED FREE ENERGY PREDICTED BY IDOCK:   -6.58 KCAL/MOL
REMARK 922        TOTAL FREE ENERGY PREDICTED BY IDOCK:   -8.71 KCAL/MOL
REMARK 923 INTER-LIGAND FREE ENERGY PREDICTED BY IDOCK:   -8.20 KCAL/MOL
REMARK 924 INTRA-LIGAND FREE ENERGY PREDICTED BY IDOCK:   -0.50 KCAL/MOL
REMARK 927      BINDING AFFINITY PREDICTED BY RF-SCORE:    0.00 PKD
ROOT
HETATM    1  C   UNL     1     -12.799  13.737  72.880  1.00  0.00    -0.159 C  
HETATM    2  C   UNL     1     -12.726  15.080  73.652  1.00  0.00    -0.650 C  
HETATM    3  C   UNL     1     -13.529  16.077  72.799  1.00  0.00    -0.479 C  
HETATM    4  C   UNL     1     -13.399  15.558  71.361  1.00  0.00    -0.592 C  
HETATM    5  C   UNL     1     -12.379  14.447  71.514  1.00  0.00    -0.427 C  
HETATM    6  C   UNL     1     -12.324  13.351  70.540  1.00  0.00    -0.329 A  
HETATM    7  N   UNL     1     -11.495  12.973  69.599  1.00  0.00    -0.224 NA 
HETATM    8  N   UNL     1     -11.590  11.583  69.522  1.00  0.00    -0.304 NA 
HETATM    9  C   UNL     1     -12.408  11.172  70.464  1.00  0.00    -0.364 A  
HETATM   10  C   UNL     1     -13.640  12.554  72.269  1.00  0.00    -0.342 C  
HETATM   11  N   UNL     1     -12.970  12.266  71.023  1.00  0.00    -0.145 NA 
ENDROOT
BRANCH   9  12
HETATM   12  C   UNL     1     -12.701   9.785  70.901  1.00  0.00    -0.329 C  
BRANCH  12  13
HETATM   13  C   UNL     1     -11.602   9.228  71.830  1.00  0.00    -0.388 C  
BRANCH  13  14
HETATM   14  N   UNL     1     -11.923   7.871  72.319  1.00  0.00    -0.335 NA 
HETATM   15  C   UNL     1     -12.472   6.986  71.260  1.00  0.00    -0.386 C  
HETATM   16  C   UNL     1     -11.443   6.535  70.201  1.00  0.00    -0.415 C  
HETATM   17  N   UNL     1     -10.337   5.835  70.869  1.00  0.00    -0.225 NA 
HETATM   18  C   UNL     1     -10.737   7.200  72.911  1.00  0.00    -0.302 C  
HETATM   19  C   UNL     1      -9.681   6.635  71.919  1.00  0.00    -0.153 C  
BRANCH  17  20
HETATM   20  C   UNL     1      -9.888   4.594  70.460  1.00  0.00    -0.231 A  
HETATM   21  C   UNL     1      -9.701   3.539  71.369  1.00  0.00    -0.236 A  
HETATM   22  C   UNL     1      -9.224   2.281  70.978  1.00  0.00    -0.190 A  
HETATM   23  C   UNL     1      -8.914   2.045  69.646  1.00  0.00    -0.149 A  
HETATM   24  C   UNL     1      -9.072   3.066  68.705  1.00  0.00    -0.212 A  
HETATM   25  C   UNL     1      -8.718   2.854  67.258  1.00  0.00    -0.123 C  
HETATM   26  C   UNL     1      -9.569   4.320  69.122  1.00  0.00    -0.249 A  
HETATM   27  F   UNL     1      -7.754   3.714  66.824  1.00  0.00    -0.077 F  
HETATM   28  F   UNL     1      -9.778   3.033  66.423  1.00  0.00    -0.121 F  
HETATM   29  F   UNL     1      -8.243   1.602  66.987  1.00  0.00    -0.067 F  
ENDBRANCH  17  20
ENDBRANCH  13  14
ENDBRANCH  12  13
ENDBRANCH   9  12
TORSDOF 4
ENDMDL
MODEL       53
REMARK 921   NORMALIZED FREE ENERGY PREDICTED BY IDOCK:   -6.57 KCAL/MOL
REMARK 922        TOTAL FREE ENERGY PREDICTED BY IDOCK:   -8.69 KCAL/MOL
REMARK 923 INTER-LIGAND FREE ENERGY PREDICTED BY IDOCK:   -7.90 KCAL/MOL
REMARK 924 INTRA-LIGAND FREE ENERGY PREDICTED BY IDOCK:   -0.79 KCAL/MOL
REMARK 927      BINDING AFFINITY PREDICTED BY RF-SCORE:    0.00 PKD
ROOT
HETATM    1  C   UNL     1      -7.848   7.280  73.381  1.00  0.00    -0.117 C  
HETATM    2  C   UNL     1      -6.715   7.843  74.276  1.00  0.00    -0.129 C  
HETATM    3  C   UNL     1      -5.758   6.660  74.503  1.00  0.00    -0.062 C  
HETATM    4  C   UNL     1      -6.644   5.412  74.403  1.00  0.00    -0.072 C  
HETATM    5  C   UNL     1      -8.034   6.014  74.333  1.00  0.00    -0.105 C  
HETATM    6  C   UNL     1      -9.138   5.262  73.723  1.00  0.00    -0.123 A  
HETATM    7  N   UNL     1     -10.222   4.670  74.158  1.00  0.00    -0.198 NA 
HETATM    8  N   UNL     1     -11.163   4.764  73.132  1.00  0.00    -0.307 NA 
HETATM    9  C   UNL     1     -10.640   5.471  72.156  1.00  0.00    -0.226 A  
HETATM   10  C   UNL     1      -8.328   6.620  72.033  1.00  0.00    -0.106 C  
HETATM   11  N   UNL     1      -9.340   5.680  72.453  1.00  0.00    -0.144 NA 
ENDROOT
BRANCH   9  12
HETATM   12  C   UNL     1     -11.296   5.992  70.930  1.00  0.00    -0.299 C  
BRANCH  12  13
HETATM   13  C   UNL     1     -12.393   7.026  71.259  1.00  0.00    -0.383 C  
BRANCH  13  14
HETATM   14  N   UNL     1     -11.912   8.069  72.189  1.00  0.00    -0.329 NA 
HETATM   15  C   UNL     1     -10.976   9.029  71.550  1.00  0.00    -0.348 C  
HETATM   16  C   UNL     1     -11.633  10.001  70.547  1.00  0.00    -0.323 C  
HETATM   17  N   UNL     1     -12.689  10.760  71.232  1.00  0.00    -0.408 NA 
HETATM   18  C   UNL     1     -13.033   8.845  72.781  1.00  0.00    -0.120 C  
HETATM   19  C   UNL     1     -13.708   9.910  71.871  1.00  0.00    -0.213 C  
BRANCH  17  20
HETATM   20  C   UNL     1     -12.772  12.138  71.169  1.00  0.00    -0.253 A  
HETATM   21  C   UNL     1     -13.506  12.878  72.112  1.00  0.00    -0.619 A  
HETATM   22  C   UNL     1     -13.621  14.274  72.052  1.00  0.00    -0.520 A  
HETATM   23  C   UNL     1     -12.999  14.973  71.028  1.00  0.00    -0.466 A  
HETATM   24  C   UNL     1     -12.267  14.282  70.059  1.00  0.00    -0.417 A  
HETATM   25  C   UNL     1     -11.603  15.006  68.919  1.00  0.00    -0.326 C  
HETATM   26  C   UNL     1     -12.153  12.878  70.151  1.00  0.00    -0.373 A  
HETATM   27  F   UNL     1     -12.055  14.592  67.703  1.00  0.00    -0.386 F  
HETATM   28  F   UNL     1     -10.253  14.827  68.894  1.00  0.00    -0.211 F  
HETATM   29  F   UNL     1     -11.794  16.358  68.943  1.00  0.00    -0.316 F  
ENDBRANCH  17  20
ENDBRANCH  13  14
ENDBRANCH  12  13
ENDBRANCH   9  12
TORSDOF 4
ENDMDL
MODEL       54
REMARK 921   NORMALIZED FREE ENERGY PREDICTED BY IDOCK:   -6.56 KCAL/MOL
REMARK 922        TOTAL FREE ENERGY PREDICTED BY IDOCK:   -8.68 KCAL/MOL
REMARK 923 INTER-LIGAND FREE ENERGY PREDICTED BY IDOCK:   -8.23 KCAL/MOL
REMARK 924 INTRA-LIGAND FREE ENERGY PREDICTED BY IDOCK:   -0.45 KCAL/MOL
REMARK 927      BINDING AFFINITY PREDICTED BY RF-SCORE:    0.00 PKD
ROOT
HETATM    1  C   UNL     1      -9.432   7.096  68.754  1.00  0.00    -0.141 C  
HETATM    2  C   UNL     1      -8.738   5.776  69.179  1.00  0.00    -0.113 C  
HETATM    3  C   UNL     1      -9.854   4.918  69.799  1.00  0.00    -0.292 C  
HETATM    4  C   UNL     1     -10.863   5.929  70.359  1.00  0.00    -0.378 C  
HETATM    5  C   UNL     1     -10.127   7.243  70.183  1.00  0.00    -0.192 C  
HETATM    6  C   UNL     1     -10.873   8.504  70.093  1.00  0.00    -0.233 A  
HETATM    7  N   UNL     1     -11.038   9.552  70.861  1.00  0.00    -0.306 NA 
HETATM    8  N   UNL     1     -11.233  10.640  70.009  1.00  0.00    -0.297 NA 
HETATM    9  C   UNL     1     -11.102  10.223  68.770  1.00  0.00    -0.228 A  
HETATM   10  C   UNL     1     -10.510   7.862  67.900  1.00  0.00    -0.198 C  
HETATM   11  N   UNL     1     -11.004   8.877  68.800  1.00  0.00     0.010 NA 
ENDROOT
BRANCH   9  12
HETATM   12  C   UNL     1     -11.048  11.022  67.521  1.00  0.00    -0.366 C  
BRANCH  12  13
HETATM   13  C   UNL     1     -10.464  12.430  67.762  1.00  0.00    -0.218 C  
BRANCH  13  14
HETATM   14  N   UNL     1     -11.176  13.466  66.984  1.00  0.00    -0.296 NA 
HETATM   15  C   UNL     1     -11.667  14.588  67.824  1.00  0.00    -0.374 C  
HETATM   16  C   UNL     1     -10.563  15.523  68.362  1.00  0.00    -0.252 C  
HETATM   17  N   UNL     1      -9.808  16.080  67.230  1.00  0.00    -0.233 NA 
HETATM   18  C   UNL     1     -10.322  14.036  65.909  1.00  0.00    -0.318 C  
HETATM   19  C   UNL     1      -9.231  15.055  66.344  1.00  0.00    -0.295 C  
BRANCH  17  20
HETATM   20  C   UNL     1      -9.569  17.434  67.093  1.00  0.00    -0.265 A  
HETATM   21  C   UNL     1     -10.410  18.259  66.327  1.00  0.00    -0.422 A  
HETATM   22  C   UNL     1     -10.171  19.629  66.155  1.00  0.00    -0.604 A  
HETATM   23  C   UNL     1      -9.065  20.216  66.753  1.00  0.00    -0.453 A  
HETATM   24  C   UNL     1      -8.191  19.435  67.515  1.00  0.00    -0.321 A  
HETATM   25  C   UNL     1      -6.966  20.033  68.153  1.00  0.00    -0.295 C  
HETATM   26  C   UNL     1      -8.462  18.061  67.685  1.00  0.00    -0.239 A  
HETATM   27  F   UNL     1      -5.814  19.448  67.721  1.00  0.00    -0.189 F  
HETATM   28  F   UNL     1      -6.961  19.907  69.508  1.00  0.00    -0.365 F  
HETATM   29  F   UNL     1      -6.816  21.368  67.907  1.00  0.00    -0.359 F  
ENDBRANCH  17  20
ENDBRANCH  13  14
ENDBRANCH  12  13
ENDBRANCH   9  12
TORSDOF 4
ENDMDL
MODEL       55
REMARK 921   NORMALIZED FREE ENERGY PREDICTED BY IDOCK:   -6.56 KCAL/MOL
REMARK 922        TOTAL FREE ENERGY PREDICTED BY IDOCK:   -8.68 KCAL/MOL
REMARK 923 INTER-LIGAND FREE ENERGY PREDICTED BY IDOCK:   -8.19 KCAL/MOL
REMARK 924 INTRA-LIGAND FREE ENERGY PREDICTED BY IDOCK:   -0.49 KCAL/MOL
REMARK 927      BINDING AFFINITY PREDICTED BY RF-SCORE:    0.00 PKD
ROOT
HETATM    1  C   UNL     1      -7.319  16.870  68.770  1.00  0.00    -0.227 C  
HETATM    2  C   UNL     1      -5.931  17.325  69.291  1.00  0.00    -0.216 C  
HETATM    3  C   UNL     1      -6.138  18.773  69.770  1.00  0.00    -0.260 C  
HETATM    4  C   UNL     1      -7.287  19.312  68.908  1.00  0.00    -0.392 C  
HETATM    5  C   UNL     1      -7.477  18.197  67.898  1.00  0.00    -0.228 C  
HETATM    6  C   UNL     1      -8.766  18.027  67.215  1.00  0.00    -0.243 A  
HETATM    7  N   UNL     1      -9.211  18.202  65.996  1.00  0.00    -0.517 NA 
HETATM    8  N   UNL     1     -10.223  17.261  65.805  1.00  0.00    -0.581 NA 
HETATM    9  C   UNL     1     -10.296  16.509  66.880  1.00  0.00    -0.300 A  
HETATM   10  C   UNL     1      -8.846  16.580  69.019  1.00  0.00    -0.223 C  
HETATM   11  N   UNL     1      -9.486  17.052  67.814  1.00  0.00    -0.242 NA 
ENDROOT
BRANCH   9  12
HETATM   12  C   UNL     1     -11.087  15.273  67.099  1.00  0.00    -0.323 C  
BRANCH  12  13
HETATM   13  C   UNL     1     -11.462  14.586  65.769  1.00  0.00    -0.342 C  
BRANCH  13  14
HETATM   14  N   UNL     1     -12.158  13.300  65.985  1.00  0.00    -0.424 NA 
HETATM   15  C   UNL     1     -12.017  12.363  64.841  1.00  0.00    -0.398 C  
HETATM   16  C   UNL     1     -10.608  11.756  64.675  1.00  0.00    -0.308 C  
HETATM   17  N   UNL     1     -10.237  11.049  65.908  1.00  0.00    -0.247 NA 
HETATM   18  C   UNL     1     -11.675  12.608  67.209  1.00  0.00    -0.370 C  
HETATM   19  C   UNL     1     -10.297  11.893  67.114  1.00  0.00    -0.210 C  
BRANCH  17  20
HETATM   20  C   UNL     1      -9.764   9.750  65.905  1.00  0.00    -0.266 A  
HETATM   21  C   UNL     1      -8.847   9.300  64.940  1.00  0.00    -0.233 A  
HETATM   22  C   UNL     1      -8.374   7.981  64.906  1.00  0.00    -0.108 A  
HETATM   23  C   UNL     1      -8.816   7.066  65.850  1.00  0.00    -0.126 A  
HETATM   24  C   UNL     1      -9.737   7.462  66.824  1.00  0.00    -0.271 A  
HETATM   25  C   UNL     1     -10.259   6.487  67.845  1.00  0.00    -0.168 C  
HETATM   26  C   UNL     1     -10.186   8.800  66.846  1.00  0.00    -0.357 A  
HETATM   27  F   UNL     1     -11.612   6.346  67.788  1.00  0.00    -0.332 F  
HETATM   28  F   UNL     1      -9.979   6.861  69.123  1.00  0.00    -0.154 F  
HETATM   29  F   UNL     1      -9.750   5.227  67.711  1.00  0.00    -0.126 F  
ENDBRANCH  17  20
ENDBRANCH  13  14
ENDBRANCH  12  13
ENDBRANCH   9  12
TORSDOF 4
ENDMDL
MODEL       56
REMARK 921   NORMALIZED FREE ENERGY PREDICTED BY IDOCK:   -6.52 KCAL/MOL
REMARK 922        TOTAL FREE ENERGY PREDICTED BY IDOCK:   -8.63 KCAL/MOL
REMARK 923 INTER-LIGAND FREE ENERGY PREDICTED BY IDOCK:   -8.00 KCAL/MOL
REMARK 924 INTRA-LIGAND FREE ENERGY PREDICTED BY IDOCK:   -0.63 KCAL/MOL
REMARK 927      BINDING AFFINITY PREDICTED BY RF-SCORE:    0.00 PKD
ROOT
HETATM    1  C   UNL     1      -9.792  15.183  67.004  1.00  0.00    -0.233 C  
HETATM    2  C   UNL     1      -9.660  16.485  67.836  1.00  0.00    -0.233 C  
HETATM    3  C   UNL     1     -10.585  16.282  69.048  1.00  0.00    -0.286 C  
HETATM    4  C   UNL     1     -11.682  15.331  68.551  1.00  0.00    -0.352 C  
HETATM    5  C   UNL     1     -11.385  15.252  67.067  1.00  0.00    -0.230 C  
HETATM    6  C   UNL     1     -11.827  14.092  66.282  1.00  0.00    -0.411 A  
HETATM    7  N   UNL     1     -12.730  13.873  65.359  1.00  0.00    -0.662 NA 
HETATM    8  N   UNL     1     -12.227  12.857  64.547  1.00  0.00    -0.407 NA 
HETATM    9  C   UNL     1     -11.017  12.557  64.962  1.00  0.00    -0.294 A  
HETATM   10  C   UNL     1      -9.640  13.621  66.873  1.00  0.00    -0.262 C  
HETATM   11  N   UNL     1     -10.803  13.226  66.115  1.00  0.00    -0.279 NA 
ENDROOT
BRANCH   9  12
HETATM   12  C   UNL     1     -10.009  11.671  64.328  1.00  0.00    -0.303 C  
BRANCH  12  13
HETATM   13  C   UNL     1     -10.117  10.218  64.838  1.00  0.00    -0.276 C  
BRANCH  13  14
HETATM   14  N   UNL     1      -9.162   9.942  65.932  1.00  0.00    -0.164 NA 
HETATM   15  C   UNL     1      -9.763  10.098  67.281  1.00  0.00    -0.167 C  
HETATM   16  C   UNL     1     -10.772   8.995  67.668  1.00  0.00    -0.163 C  
HETATM   17  N   UNL     1     -10.107   7.686  67.599  1.00  0.00    -0.177 NA 
HETATM   18  C   UNL     1      -8.591   8.574  65.838  1.00  0.00    -0.163 C  
HETATM   19  C   UNL     1      -9.505   7.398  66.285  1.00  0.00    -0.081 C  
BRANCH  17  20
HETATM   20  C   UNL     1     -10.155   6.774  68.635  1.00  0.00    -0.159 A  
HETATM   21  C   UNL     1      -9.499   5.533  68.559  1.00  0.00    -0.150 A  
HETATM   22  C   UNL     1      -9.555   4.585  69.589  1.00  0.00    -0.270 A  
HETATM   23  C   UNL     1     -10.284   4.857  70.738  1.00  0.00    -0.276 A  
HETATM   24  C   UNL     1     -10.964   6.073  70.857  1.00  0.00    -0.355 A  
HETATM   25  C   UNL     1     -11.788   6.389  72.076  1.00  0.00    -0.333 C  
HETATM   26  C   UNL     1     -10.879   7.017  69.812  1.00  0.00    -0.276 A  
HETATM   27  F   UNL     1     -13.097   6.619  71.778  1.00  0.00    -0.384 F  
HETATM   28  F   UNL     1     -11.356   7.501  72.732  1.00  0.00    -0.312 F  
HETATM   29  F   UNL     1     -11.793   5.391  73.009  1.00  0.00    -0.339 F  
ENDBRANCH  17  20
ENDBRANCH  13  14
ENDBRANCH  12  13
ENDBRANCH   9  12
TORSDOF 4
ENDMDL
MODEL       57
REMARK 921   NORMALIZED FREE ENERGY PREDICTED BY IDOCK:   -6.51 KCAL/MOL
REMARK 922        TOTAL FREE ENERGY PREDICTED BY IDOCK:   -8.62 KCAL/MOL
REMARK 923 INTER-LIGAND FREE ENERGY PREDICTED BY IDOCK:   -8.06 KCAL/MOL
REMARK 924 INTRA-LIGAND FREE ENERGY PREDICTED BY IDOCK:   -0.56 KCAL/MOL
REMARK 927      BINDING AFFINITY PREDICTED BY RF-SCORE:    0.00 PKD
ROOT
HETATM    1  C   UNL     1      -8.957  14.945  66.932  1.00  0.00    -0.277 C  
HETATM    2  C   UNL     1      -8.110  16.199  66.594  1.00  0.00    -0.323 C  
HETATM    3  C   UNL     1      -8.943  17.392  67.094  1.00  0.00    -0.248 C  
HETATM    4  C   UNL     1     -10.400  16.919  67.007  1.00  0.00    -0.307 C  
HETATM    5  C   UNL     1     -10.261  15.595  66.281  1.00  0.00    -0.312 C  
HETATM    6  C   UNL     1     -11.291  14.558  66.426  1.00  0.00    -0.349 A  
HETATM    7  N   UNL     1     -12.212  14.038  65.655  1.00  0.00    -0.418 NA 
HETATM    8  N   UNL     1     -12.369  12.713  66.065  1.00  0.00    -0.569 NA 
HETATM    9  C   UNL     1     -11.489  12.465  67.008  1.00  0.00    -0.358 A  
HETATM   10  C   UNL     1      -9.669  14.018  67.987  1.00  0.00    -0.221 C  
HETATM   11  N   UNL     1     -10.897  13.635  67.333  1.00  0.00    -0.270 NA 
ENDROOT
BRANCH   9  12
HETATM   12  C   UNL     1     -11.142  11.167  67.639  1.00  0.00    -0.348 C  
BRANCH  12  13
HETATM   13  C   UNL     1     -11.897  10.952  68.967  1.00  0.00    -0.299 C  
BRANCH  13  14
HETATM   14  N   UNL     1     -10.985  10.584  70.070  1.00  0.00    -0.291 NA 
HETATM   15  C   UNL     1     -11.691   9.990  71.234  1.00  0.00    -0.369 C  
HETATM   16  C   UNL     1     -12.238   8.566  70.998  1.00  0.00    -0.168 C  
HETATM   17  N   UNL     1     -11.130   7.679  70.619  1.00  0.00    -0.254 NA 
HETATM   18  C   UNL     1      -9.939   9.625  69.628  1.00  0.00    -0.221 C  
HETATM   19  C   UNL     1     -10.377   8.144  69.442  1.00  0.00    -0.218 C  
BRANCH  17  20
HETATM   20  C   UNL     1     -10.904   6.466  71.242  1.00  0.00    -0.257 A  
HETATM   21  C   UNL     1     -11.376   6.202  72.539  1.00  0.00    -0.328 A  
HETATM   22  C   UNL     1     -11.137   4.988  73.197  1.00  0.00    -0.395 A  
HETATM   23  C   UNL     1     -10.404   3.994  72.564  1.00  0.00    -0.223 A  
HETATM   24  C   UNL     1      -9.903   4.212  71.278  1.00  0.00    -0.249 A  
HETATM   25  C   UNL     1      -9.081   3.167  70.574  1.00  0.00    -0.123 C  
HETATM   26  C   UNL     1     -10.171   5.438  70.631  1.00  0.00    -0.323 A  
HETATM   27  F   UNL     1      -7.833   3.612  70.253  1.00  0.00    -0.047 F  
HETATM   28  F   UNL     1      -9.640   2.756  69.403  1.00  0.00    -0.220 F  
HETATM   29  F   UNL     1      -8.889   2.032  71.309  1.00  0.00    -0.082 F  
ENDBRANCH  17  20
ENDBRANCH  13  14
ENDBRANCH  12  13
ENDBRANCH   9  12
TORSDOF 4
ENDMDL
MODEL       58
REMARK 921   NORMALIZED FREE ENERGY PREDICTED BY IDOCK:   -6.47 KCAL/MOL
REMARK 922        TOTAL FREE ENERGY PREDICTED BY IDOCK:   -8.57 KCAL/MOL
REMARK 923 INTER-LIGAND FREE ENERGY PREDICTED BY IDOCK:   -7.84 KCAL/MOL
REMARK 924 INTRA-LIGAND FREE ENERGY PREDICTED BY IDOCK:   -0.74 KCAL/MOL
REMARK 927      BINDING AFFINITY PREDICTED BY RF-SCORE:    0.00 PKD
ROOT
HETATM    1  C   UNL     1      -7.442  15.424  68.400  1.00  0.00    -0.115 C  
HETATM    2  C   UNL     1      -6.043  15.527  69.060  1.00  0.00    -0.106 C  
HETATM    3  C   UNL     1      -6.038  16.885  69.782  1.00  0.00    -0.229 C  
HETATM    4  C   UNL     1      -7.008  17.761  68.978  1.00  0.00    -0.236 C  
HETATM    5  C   UNL     1      -7.304  16.886  67.776  1.00  0.00    -0.169 C  
HETATM    6  C   UNL     1      -8.545  17.070  67.013  1.00  0.00    -0.210 A  
HETATM    7  N   UNL     1      -8.857  17.526  65.825  1.00  0.00    -0.453 NA 
HETATM    8  N   UNL     1      -9.995  16.830  65.420  1.00  0.00    -0.558 NA 
HETATM    9  C   UNL     1     -10.279  15.933  66.337  1.00  0.00    -0.301 A  
HETATM   10  C   UNL     1      -9.011  15.377  68.520  1.00  0.00    -0.192 C  
HETATM   11  N   UNL     1      -9.465  16.154  67.391  1.00  0.00    -0.225 NA 
ENDROOT
BRANCH   9  12
HETATM   12  C   UNL     1     -11.283  14.840  66.290  1.00  0.00    -0.343 C  
BRANCH  12  13
HETATM   13  C   UNL     1     -10.643  13.486  65.921  1.00  0.00    -0.284 C  
BRANCH  13  14
HETATM   14  N   UNL     1     -11.452  12.343  66.396  1.00  0.00    -0.352 NA 
HETATM   15  C   UNL     1     -10.712  11.055  66.367  1.00  0.00    -0.227 C  
HETATM   16  C   UNL     1      -9.607  10.923  67.435  1.00  0.00    -0.163 C  
HETATM   17  N   UNL     1     -10.201  11.092  68.769  1.00  0.00    -0.201 NA 
HETATM   18  C   UNL     1     -11.953  12.555  67.779  1.00  0.00    -0.223 C  
HETATM   19  C   UNL     1     -10.930  12.362  68.934  1.00  0.00    -0.223 C  
BRANCH  17  20
HETATM   20  C   UNL     1      -9.985  10.194  69.797  1.00  0.00    -0.220 A  
HETATM   21  C   UNL     1      -8.690   9.797  70.173  1.00  0.00    -0.215 A  
HETATM   22  C   UNL     1      -8.452   8.870  71.196  1.00  0.00    -0.250 A  
HETATM   23  C   UNL     1      -9.521   8.305  71.877  1.00  0.00    -0.287 A  
HETATM   24  C   UNL     1     -10.829   8.659  71.533  1.00  0.00    -0.352 A  
HETATM   25  C   UNL     1     -12.012   8.044  72.231  1.00  0.00    -0.358 C  
HETATM   26  C   UNL     1     -11.041   9.607  70.509  1.00  0.00    -0.369 A  
HETATM   27  F   UNL     1     -12.835   7.376  71.376  1.00  0.00    -0.348 F  
HETATM   28  F   UNL     1     -12.795   8.967  72.854  1.00  0.00    -0.459 F  
HETATM   29  F   UNL     1     -11.670   7.139  73.196  1.00  0.00    -0.173 F  
ENDBRANCH  17  20
ENDBRANCH  13  14
ENDBRANCH  12  13
ENDBRANCH   9  12
TORSDOF 4
ENDMDL
MODEL       59
REMARK 921   NORMALIZED FREE ENERGY PREDICTED BY IDOCK:   -6.47 KCAL/MOL
REMARK 922        TOTAL FREE ENERGY PREDICTED BY IDOCK:   -8.57 KCAL/MOL
REMARK 923 INTER-LIGAND FREE ENERGY PREDICTED BY IDOCK:   -8.44 KCAL/MOL
REMARK 924 INTRA-LIGAND FREE ENERGY PREDICTED BY IDOCK:   -0.13 KCAL/MOL
REMARK 927      BINDING AFFINITY PREDICTED BY RF-SCORE:    0.00 PKD
ROOT
HETATM    1  C   UNL     1      -7.475  15.514  68.569  1.00  0.00    -0.118 C  
HETATM    2  C   UNL     1      -7.462  13.992  68.862  1.00  0.00    -0.095 C  
HETATM    3  C   UNL     1      -6.015  13.675  69.277  1.00  0.00    -0.090 C  
HETATM    4  C   UNL     1      -5.160  14.722  68.553  1.00  0.00    -0.103 C  
HETATM    5  C   UNL     1      -6.176  15.393  67.649  1.00  0.00    -0.167 C  
HETATM    6  C   UNL     1      -5.949  16.760  67.164  1.00  0.00    -0.173 A  
HETATM    7  N   UNL     1      -5.664  17.310  66.011  1.00  0.00    -0.263 NA 
HETATM    8  N   UNL     1      -6.249  18.576  66.020  1.00  0.00    -0.188 NA 
HETATM    9  C   UNL     1      -6.925  18.711  67.139  1.00  0.00    -0.203 A  
HETATM   10  C   UNL     1      -7.275  17.001  69.046  1.00  0.00    -0.229 C  
HETATM   11  N   UNL     1      -6.646  17.642  67.916  1.00  0.00    -0.184 NA 
ENDROOT
BRANCH   9  12
HETATM   12  C   UNL     1      -7.854  19.797  67.540  1.00  0.00    -0.317 C  
BRANCH  12  13
HETATM   13  C   UNL     1      -8.764  20.237  66.374  1.00  0.00    -0.164 C  
BRANCH  13  14
HETATM   14  N   UNL     1     -10.188  19.945  66.642  1.00  0.00    -0.455 NA 
HETATM   15  C   UNL     1     -10.658  18.695  65.991  1.00  0.00    -0.365 C  
HETATM   16  C   UNL     1     -10.108  17.396  66.617  1.00  0.00    -0.317 C  
HETATM   17  N   UNL     1     -10.478  17.351  68.039  1.00  0.00    -0.368 NA 
HETATM   18  C   UNL     1     -10.468  19.838  68.097  1.00  0.00    -0.360 C  
HETATM   19  C   UNL     1     -10.024  18.526  68.804  1.00  0.00    -0.380 C  
BRANCH  17  20
HETATM   20  C   UNL     1     -11.085  16.251  68.614  1.00  0.00    -0.356 A  
HETATM   21  C   UNL     1     -11.456  15.130  67.852  1.00  0.00    -0.344 A  
HETATM   22  C   UNL     1     -12.095  14.015  68.412  1.00  0.00    -0.318 A  
HETATM   23  C   UNL     1     -12.385  13.996  69.769  1.00  0.00    -0.344 A  
HETATM   24  C   UNL     1     -12.046  15.092  70.567  1.00  0.00    -0.390 A  
HETATM   25  C   UNL     1     -12.372  15.117  72.036  1.00  0.00    -0.356 C  
HETATM   26  C   UNL     1     -11.390  16.196  69.982  1.00  0.00    -0.332 A  
HETATM   27  F   UNL     1     -13.184  16.157  72.373  1.00  0.00    -0.500 F  
HETATM   28  F   UNL     1     -11.266  15.241  72.820  1.00  0.00    -0.529 F  
HETATM   29  F   UNL     1     -13.011  13.993  72.475  1.00  0.00    -0.425 F  
ENDBRANCH  17  20
ENDBRANCH  13  14
ENDBRANCH  12  13
ENDBRANCH   9  12
TORSDOF 4
ENDMDL
MODEL       60
REMARK 921   NORMALIZED FREE ENERGY PREDICTED BY IDOCK:   -6.46 KCAL/MOL
REMARK 922        TOTAL FREE ENERGY PREDICTED BY IDOCK:   -8.56 KCAL/MOL
REMARK 923 INTER-LIGAND FREE ENERGY PREDICTED BY IDOCK:   -7.99 KCAL/MOL
REMARK 924 INTRA-LIGAND FREE ENERGY PREDICTED BY IDOCK:   -0.56 KCAL/MOL
REMARK 927      BINDING AFFINITY PREDICTED BY RF-SCORE:    0.00 PKD
ROOT
HETATM    1  C   UNL     1      -9.463  17.717  67.868  1.00  0.00    -0.270 C  
HETATM    2  C   UNL     1      -8.545  18.949  67.661  1.00  0.00    -0.304 C  
HETATM    3  C   UNL     1      -9.420  19.985  66.935  1.00  0.00    -0.529 C  
HETATM    4  C   UNL     1     -10.440  19.154  66.146  1.00  0.00    -0.558 C  
HETATM    5  C   UNL     1      -9.918  17.743  66.339  1.00  0.00    -0.345 C  
HETATM    6  C   UNL     1     -10.823  16.594  66.213  1.00  0.00    -0.015 A  
HETATM    7  N   UNL     1     -10.988  15.620  65.353  1.00  0.00    -0.350 NA 
HETATM    8  N   UNL     1     -11.462  14.527  66.078  1.00  0.00    -0.345 NA 
HETATM    9  C   UNL     1     -11.491  14.856  67.350  1.00  0.00    -0.343 A  
HETATM   10  C   UNL     1     -10.759  17.064  68.478  1.00  0.00    -0.352 C  
HETATM   11  N   UNL     1     -11.218  16.176  67.437  1.00  0.00    -0.131 NA 
ENDROOT
BRANCH   9  12
HETATM   12  C   UNL     1     -11.751  13.993  68.529  1.00  0.00    -0.387 C  
BRANCH  12  13
HETATM   13  C   UNL     1     -10.689  12.883  68.677  1.00  0.00    -0.247 C  
BRANCH  13  14
HETATM   14  N   UNL     1     -11.223  11.553  68.315  1.00  0.00    -0.237 NA 
HETATM   15  C   UNL     1     -10.175  10.501  68.263  1.00  0.00    -0.163 C  
HETATM   16  C   UNL     1      -9.616  10.080  69.638  1.00  0.00    -0.226 C  
HETATM   17  N   UNL     1     -10.719   9.601  70.483  1.00  0.00    -0.287 NA 
HETATM   18  C   UNL     1     -12.279  11.104  69.259  1.00  0.00    -0.226 C  
HETATM   19  C   UNL     1     -11.807  10.582  70.646  1.00  0.00    -0.360 C  
BRANCH  17  20
HETATM   20  C   UNL     1     -10.672   8.393  71.152  1.00  0.00    -0.230 A  
HETATM   21  C   UNL     1     -11.001   8.289  72.515  1.00  0.00    -0.424 A  
HETATM   22  C   UNL     1     -10.936   7.078  73.216  1.00  0.00    -0.296 A  
HETATM   23  C   UNL     1     -10.530   5.924  72.563  1.00  0.00    -0.238 A  
HETATM   24  C   UNL     1     -10.180   5.977  71.210  1.00  0.00    -0.253 A  
HETATM   25  C   UNL     1      -9.708   4.751  70.478  1.00  0.00    -0.211 C  
HETATM   26  C   UNL     1     -10.269   7.206  70.522  1.00  0.00    -0.206 A  
HETATM   27  F   UNL     1      -8.452   4.897  69.970  1.00  0.00    -0.079 F  
HETATM   28  F   UNL     1     -10.501   4.429  69.420  1.00  0.00    -0.168 F  
HETATM   29  F   UNL     1      -9.661   3.630  71.258  1.00  0.00    -0.210 F  
ENDBRANCH  17  20
ENDBRANCH  13  14
ENDBRANCH  12  13
ENDBRANCH   9  12
TORSDOF 4
ENDMDL
MODEL       61
REMARK 921   NORMALIZED FREE ENERGY PREDICTED BY IDOCK:   -6.44 KCAL/MOL
REMARK 922        TOTAL FREE ENERGY PREDICTED BY IDOCK:   -8.53 KCAL/MOL
REMARK 923 INTER-LIGAND FREE ENERGY PREDICTED BY IDOCK:   -7.69 KCAL/MOL
REMARK 924 INTRA-LIGAND FREE ENERGY PREDICTED BY IDOCK:   -0.84 KCAL/MOL
REMARK 927      BINDING AFFINITY PREDICTED BY RF-SCORE:    0.00 PKD
ROOT
HETATM    1  C   UNL     1     -11.743   9.447  71.029  1.00  0.00    -0.395 C  
HETATM    2  C   UNL     1     -13.134  10.012  71.415  1.00  0.00    -0.512 C  
HETATM    3  C   UNL     1     -13.667   9.059  72.500  1.00  0.00    -0.499 C  
HETATM    4  C   UNL     1     -13.009   7.707  72.194  1.00  0.00    -0.133 C  
HETATM    5  C   UNL     1     -12.337   7.975  70.861  1.00  0.00    -0.073 C  
HETATM    6  C   UNL     1     -11.187   7.168  70.435  1.00  0.00    -0.287 A  
HETATM    7  N   UNL     1     -10.968   6.256  69.522  1.00  0.00    -0.342 NA 
HETATM    8  N   UNL     1      -9.631   6.386  69.145  1.00  0.00    -0.136 NA 
HETATM    9  C   UNL     1      -9.120   7.413  69.785  1.00  0.00    -0.141 A  
HETATM   10  C   UNL     1     -10.270   9.051  71.420  1.00  0.00    -0.329 C  
HETATM   11  N   UNL     1     -10.035   7.832  70.684  1.00  0.00    -0.186 NA 
ENDROOT
BRANCH   9  12
HETATM   12  C   UNL     1      -7.796   8.059  69.599  1.00  0.00    -0.104 C  
BRANCH  12  13
HETATM   13  C   UNL     1      -7.506   8.362  68.114  1.00  0.00    -0.097 C  
BRANCH  13  14
HETATM   14  N   UNL     1      -7.336   9.809  67.866  1.00  0.00    -0.085 NA 
HETATM   15  C   UNL     1      -7.211  10.140  66.423  1.00  0.00    -0.108 C  
HETATM   16  C   UNL     1      -8.516   9.991  65.612  1.00  0.00    -0.148 C  
HETATM   17  N   UNL     1      -9.553  10.850  66.203  1.00  0.00    -0.195 NA 
HETATM   18  C   UNL     1      -8.462  10.603  68.424  1.00  0.00    -0.132 C  
HETATM   19  C   UNL     1      -9.799  10.583  67.630  1.00  0.00    -0.166 C  
BRANCH  17  20
HETATM   20  C   UNL     1     -10.301  11.734  65.450  1.00  0.00    -0.268 A  
HETATM   21  C   UNL     1     -11.141  11.295  64.411  1.00  0.00    -0.273 A  
HETATM   22  C   UNL     1     -11.889  12.177  63.620  1.00  0.00    -0.608 A  
HETATM   23  C   UNL     1     -11.812  13.543  63.851  1.00  0.00    -0.460 A  
HETATM   24  C   UNL     1     -10.983  14.031  64.865  1.00  0.00    -0.398 A  
HETATM   25  C   UNL     1     -10.854  15.508  65.124  1.00  0.00    -0.436 C  
HETATM   26  C   UNL     1     -10.251  13.120  65.657  1.00  0.00    -0.294 A  
HETATM   27  F   UNL     1      -9.575  15.953  64.982  1.00  0.00    -0.121 F  
HETATM   28  F   UNL     1     -11.231  15.858  66.384  1.00  0.00    -0.241 F  
HETATM   29  F   UNL     1     -11.608  16.280  64.286  1.00  0.00    -0.525 F  
ENDBRANCH  17  20
ENDBRANCH  13  14
ENDBRANCH  12  13
ENDBRANCH   9  12
TORSDOF 4
ENDMDL
MODEL       62
REMARK 921   NORMALIZED FREE ENERGY PREDICTED BY IDOCK:   -6.42 KCAL/MOL
REMARK 922        TOTAL FREE ENERGY PREDICTED BY IDOCK:   -8.50 KCAL/MOL
REMARK 923 INTER-LIGAND FREE ENERGY PREDICTED BY IDOCK:   -8.24 KCAL/MOL
REMARK 924 INTRA-LIGAND FREE ENERGY PREDICTED BY IDOCK:   -0.26 KCAL/MOL
REMARK 927      BINDING AFFINITY PREDICTED BY RF-SCORE:    0.00 PKD
ROOT
HETATM    1  C   UNL     1      -9.908  15.227  65.926  1.00  0.00    -0.385 C  
HETATM    2  C   UNL     1      -9.565  16.658  66.414  1.00  0.00    -0.308 C  
HETATM    3  C   UNL     1     -10.078  16.722  67.863  1.00  0.00    -0.284 C  
HETATM    4  C   UNL     1     -11.248  15.731  67.910  1.00  0.00    -0.313 C  
HETATM    5  C   UNL     1     -11.409  15.360  66.449  1.00  0.00    -0.087 C  
HETATM    6  C   UNL     1     -12.037  14.087  66.071  1.00  0.00    -0.439 A  
HETATM    7  N   UNL     1     -13.169  13.727  65.521  1.00  0.00    -0.592 NA 
HETATM    8  N   UNL     1     -12.907  12.558  64.806  1.00  0.00    -0.820 NA 
HETATM    9  C   UNL     1     -11.621  12.302  64.889  1.00  0.00    -0.342 A  
HETATM   10  C   UNL     1      -9.761  13.665  66.058  1.00  0.00    -0.222 C  
HETATM   11  N   UNL     1     -11.088  13.171  65.774  1.00  0.00    -0.272 NA 
ENDROOT
BRANCH   9  12
HETATM   12  C   UNL     1     -10.828  11.278  64.164  1.00  0.00    -0.407 C  
BRANCH  12  13
HETATM   13  C   UNL     1      -9.604  10.813  64.981  1.00  0.00    -0.254 C  
BRANCH  13  14
HETATM   14  N   UNL     1      -9.824   9.491  65.605  1.00  0.00    -0.306 NA 
HETATM   15  C   UNL     1      -8.598   8.934  66.233  1.00  0.00    -0.133 C  
HETATM   16  C   UNL     1      -8.157   9.650  67.528  1.00  0.00    -0.114 C  
HETATM   17  N   UNL     1      -9.252   9.597  68.507  1.00  0.00    -0.137 NA 
HETATM   18  C   UNL     1     -10.891   9.535  66.637  1.00  0.00     0.088 C  
HETATM   19  C   UNL     1     -10.517  10.165  68.009  1.00  0.00    -0.209 C  
BRANCH  17  20
HETATM   20  C   UNL     1      -9.065   9.166  69.806  1.00  0.00    -0.167 A  
HETATM   21  C   UNL     1      -7.787   9.107  70.390  1.00  0.00    -0.140 A  
HETATM   22  C   UNL     1      -7.575   8.650  71.697  1.00  0.00    -0.139 A  
HETATM   23  C   UNL     1      -8.652   8.231  72.464  1.00  0.00    -0.273 A  
HETATM   24  C   UNL     1      -9.942   8.259  71.926  1.00  0.00    -0.299 A  
HETATM   25  C   UNL     1     -11.129   7.785  72.719  1.00  0.00    -0.398 C  
HETATM   26  C   UNL     1     -10.131   8.739  70.612  1.00  0.00    -0.248 A  
HETATM   27  F   UNL     1     -11.780   6.751  72.118  1.00  0.00    -0.291 F  
HETATM   28  F   UNL     1     -12.065   8.757  72.902  1.00  0.00    -0.376 F  
HETATM   29  F   UNL     1     -10.810   7.342  73.972  1.00  0.00    -0.378 F  
ENDBRANCH  17  20
ENDBRANCH  13  14
ENDBRANCH  12  13
ENDBRANCH   9  12
TORSDOF 4
ENDMDL
MODEL       63
REMARK 921   NORMALIZED FREE ENERGY PREDICTED BY IDOCK:   -6.40 KCAL/MOL
REMARK 922        TOTAL FREE ENERGY PREDICTED BY IDOCK:   -8.49 KCAL/MOL
REMARK 923 INTER-LIGAND FREE ENERGY PREDICTED BY IDOCK:   -7.93 KCAL/MOL
REMARK 924 INTRA-LIGAND FREE ENERGY PREDICTED BY IDOCK:   -0.55 KCAL/MOL
REMARK 927      BINDING AFFINITY PREDICTED BY RF-SCORE:    0.00 PKD
ROOT
HETATM    1  C   UNL     1      -9.280   2.902  70.511  1.00  0.00    -0.209 C  
HETATM    2  C   UNL     1      -8.702   1.528  70.086  1.00  0.00    -0.101 C  
HETATM    3  C   UNL     1      -7.502   1.859  69.182  1.00  0.00    -0.043 C  
HETATM    4  C   UNL     1      -7.846   3.216  68.554  1.00  0.00    -0.060 C  
HETATM    5  C   UNL     1      -9.280   3.419  69.001  1.00  0.00    -0.226 C  
HETATM    6  C   UNL     1      -9.847   4.771  69.084  1.00  0.00    -0.184 A  
HETATM    7  N   UNL     1     -10.740   5.456  68.414  1.00  0.00    -0.086 NA 
HETATM    8  N   UNL     1     -11.333   6.331  69.325  1.00  0.00    -0.407 NA 
HETATM    9  C   UNL     1     -10.833   6.089  70.516  1.00  0.00    -0.314 A  
HETATM   10  C   UNL     1      -9.113   4.295  71.226  1.00  0.00    -0.127 C  
HETATM   11  N   UNL     1      -9.818   5.211  70.362  1.00  0.00    -0.200 NA 
ENDROOT
BRANCH   9  12
HETATM   12  C   UNL     1     -11.259   6.629  71.831  1.00  0.00    -0.302 C  
BRANCH  12  13
HETATM   13  C   UNL     1     -12.287   7.769  71.680  1.00  0.00    -0.321 C  
BRANCH  13  14
HETATM   14  N   UNL     1     -11.706   9.087  72.012  1.00  0.00    -0.361 NA 
HETATM   15  C   UNL     1     -10.586   9.471  71.116  1.00  0.00    -0.318 C  
HETATM   16  C   UNL     1     -11.009   9.841  69.678  1.00  0.00    -0.241 C  
HETATM   17  N   UNL     1     -11.971  10.951  69.728  1.00  0.00    -0.326 NA 
HETATM   18  C   UNL     1     -12.723  10.169  71.966  1.00  0.00    -0.327 C  
HETATM   19  C   UNL     1     -13.155  10.670  70.558  1.00  0.00    -0.110 C  
BRANCH  17  20
HETATM   20  C   UNL     1     -11.824  12.095  68.967  1.00  0.00    -0.306 A  
HETATM   21  C   UNL     1     -11.750  13.370  69.555  1.00  0.00    -0.385 A  
HETATM   22  C   UNL     1     -11.626  14.543  68.799  1.00  0.00    -0.343 A  
HETATM   23  C   UNL     1     -11.576  14.470  67.414  1.00  0.00    -0.406 A  
HETATM   24  C   UNL     1     -11.657  13.226  66.781  1.00  0.00    -0.408 A  
HETATM   25  C   UNL     1     -11.635  13.112  65.281  1.00  0.00    -0.321 C  
HETATM   26  C   UNL     1     -11.766  12.058  67.566  1.00  0.00    -0.351 A  
HETATM   27  F   UNL     1     -12.760  12.526  64.785  1.00  0.00    -0.526 F  
HETATM   28  F   UNL     1     -10.594  12.363  64.824  1.00  0.00    -0.283 F  
HETATM   29  F   UNL     1     -11.532  14.314  64.641  1.00  0.00    -0.343 F  
ENDBRANCH  17  20
ENDBRANCH  13  14
ENDBRANCH  12  13
ENDBRANCH   9  12
TORSDOF 4
ENDMDL
MODEL       64
REMARK 921   NORMALIZED FREE ENERGY PREDICTED BY IDOCK:   -6.40 KCAL/MOL
REMARK 922        TOTAL FREE ENERGY PREDICTED BY IDOCK:   -8.48 KCAL/MOL
REMARK 923 INTER-LIGAND FREE ENERGY PREDICTED BY IDOCK:   -8.02 KCAL/MOL
REMARK 924 INTRA-LIGAND FREE ENERGY PREDICTED BY IDOCK:   -0.46 KCAL/MOL
REMARK 927      BINDING AFFINITY PREDICTED BY RF-SCORE:    0.00 PKD
ROOT
HETATM    1  C   UNL     1     -11.109   6.519  72.514  1.00  0.00    -0.294 C  
HETATM    2  C   UNL     1     -11.063   5.205  73.335  1.00  0.00    -0.385 C  
HETATM    3  C   UNL     1      -9.721   5.247  74.086  1.00  0.00    -0.169 C  
HETATM    4  C   UNL     1      -8.799   6.090  73.196  1.00  0.00    -0.128 C  
HETATM    5  C   UNL     1      -9.639   6.268  71.946  1.00  0.00    -0.163 C  
HETATM    6  C   UNL     1      -9.400   7.405  71.048  1.00  0.00    -0.157 A  
HETATM    7  N   UNL     1      -8.910   7.563  69.844  1.00  0.00    -0.140 NA 
HETATM    8  N   UNL     1      -9.562   8.665  69.292  1.00  0.00    -0.164 NA 
HETATM    9  C   UNL     1     -10.469   9.080  70.147  1.00  0.00    -0.214 A  
HETATM   10  C   UNL     1     -11.110   8.093  72.449  1.00  0.00    -0.369 C  
HETATM   11  N   UNL     1     -10.296   8.388  71.294  1.00  0.00    -0.204 NA 
ENDROOT
BRANCH   9  12
HETATM   12  C   UNL     1     -11.528  10.102  69.957  1.00  0.00    -0.344 C  
BRANCH  12  13
HETATM   13  C   UNL     1     -10.945  11.463  69.524  1.00  0.00    -0.166 C  
BRANCH  13  14
HETATM   14  N   UNL     1     -11.965  12.328  68.894  1.00  0.00    -0.291 NA 
HETATM   15  C   UNL     1     -12.086  13.655  69.550  1.00  0.00    -0.314 C  
HETATM   16  C   UNL     1     -10.896  14.607  69.304  1.00  0.00    -0.258 C  
HETATM   17  N   UNL     1     -10.732  14.812  67.858  1.00  0.00    -0.255 NA 
HETATM   18  C   UNL     1     -11.689  12.552  67.451  1.00  0.00    -0.366 C  
HETATM   19  C   UNL     1     -10.559  13.560  67.100  1.00  0.00    -0.264 C  
BRANCH  17  20
HETATM   20  C   UNL     1     -10.631  16.069  67.294  1.00  0.00    -0.313 A  
HETATM   21  C   UNL     1     -10.879  16.288  65.927  1.00  0.00    -0.141 A  
HETATM   22  C   UNL     1     -10.757  17.550  65.331  1.00  0.00    -0.008 A  
HETATM   23  C   UNL     1     -10.378  18.641  66.099  1.00  0.00    -0.481 A  
HETATM   24  C   UNL     1     -10.109  18.473  67.461  1.00  0.00    -0.383 A  
HETATM   25  C   UNL     1      -9.667  19.629  68.316  1.00  0.00    -0.402 C  
HETATM   26  C   UNL     1     -10.253  17.194  68.040  1.00  0.00    -0.332 A  
HETATM   27  F   UNL     1      -8.446  19.422  68.883  1.00  0.00    -0.385 F  
HETATM   28  F   UNL     1     -10.518  19.878  69.349  1.00  0.00    -0.410 F  
HETATM   29  F   UNL     1      -9.561  20.808  67.634  1.00  0.00    -0.520 F  
ENDBRANCH  17  20
ENDBRANCH  13  14
ENDBRANCH  12  13
ENDBRANCH   9  12
TORSDOF 4
ENDMDL
MODEL       65
REMARK 921   NORMALIZED FREE ENERGY PREDICTED BY IDOCK:   -6.39 KCAL/MOL
REMARK 922        TOTAL FREE ENERGY PREDICTED BY IDOCK:   -8.47 KCAL/MOL
REMARK 923 INTER-LIGAND FREE ENERGY PREDICTED BY IDOCK:   -7.75 KCAL/MOL
REMARK 924 INTRA-LIGAND FREE ENERGY PREDICTED BY IDOCK:   -0.72 KCAL/MOL
REMARK 927      BINDING AFFINITY PREDICTED BY RF-SCORE:    0.00 PKD
ROOT
HETATM    1  C   UNL     1     -10.525  11.639  64.869  1.00  0.00    -0.339 C  
HETATM    2  C   UNL     1     -11.421  11.676  63.604  1.00  0.00    -0.458 C  
HETATM    3  C   UNL     1     -12.270  12.951  63.751  1.00  0.00    -0.555 C  
HETATM    4  C   UNL     1     -12.393  13.169  65.265  1.00  0.00    -0.532 C  
HETATM    5  C   UNL     1     -11.780  11.899  65.820  1.00  0.00    -0.210 C  
HETATM    6  C   UNL     1     -11.216  11.878  67.175  1.00  0.00    -0.319 A  
HETATM    7  N   UNL     1     -11.548  11.338  68.321  1.00  0.00    -0.422 NA 
HETATM    8  N   UNL     1     -10.355  11.078  68.997  1.00  0.00    -0.214 NA 
HETATM    9  C   UNL     1      -9.355  11.399  68.207  1.00  0.00    -0.187 A  
HETATM   10  C   UNL     1      -9.415  12.286  65.780  1.00  0.00    -0.121 C  
HETATM   11  N   UNL     1      -9.872  12.014  67.122  1.00  0.00    -0.195 NA 
ENDROOT
BRANCH   9  12
HETATM   12  C   UNL     1      -7.904  11.149  68.396  1.00  0.00    -0.133 C  
BRANCH  12  13
HETATM   13  C   UNL     1      -7.282  12.116  69.425  1.00  0.00     0.185 C  
BRANCH  13  14
HETATM   14  N   UNL     1      -6.322  13.050  68.800  1.00  0.00    -0.078 NA 
HETATM   15  C   UNL     1      -6.904  13.808  67.664  1.00  0.00    -0.175 C  
HETATM   16  C   UNL     1      -7.934  14.885  68.068  1.00  0.00    -0.129 C  
HETATM   17  N   UNL     1      -7.300  15.837  68.991  1.00  0.00    -0.163 NA 
HETATM   18  C   UNL     1      -5.783  14.029  69.779  1.00  0.00    -0.108 C  
HETATM   19  C   UNL     1      -6.719  15.202  70.187  1.00  0.00    -0.072 C  
BRANCH  17  20
HETATM   20  C   UNL     1      -7.357  17.205  68.802  1.00  0.00    -0.241 A  
HETATM   21  C   UNL     1      -6.351  18.060  69.283  1.00  0.00    -0.249 A  
HETATM   22  C   UNL     1      -6.403  19.451  69.122  1.00  0.00    -0.321 A  
HETATM   23  C   UNL     1      -7.481  20.030  68.469  1.00  0.00    -0.237 A  
HETATM   24  C   UNL     1      -8.514  19.223  67.983  1.00  0.00    -0.352 A  
HETATM   25  C   UNL     1      -9.712  19.820  67.295  1.00  0.00    -0.370 C  
HETATM   26  C   UNL     1      -8.430  17.823  68.144  1.00  0.00    -0.262 A  
HETATM   27  F   UNL     1     -10.880  19.524  67.931  1.00  0.00    -0.506 F  
HETATM   28  F   UNL     1      -9.863  19.376  66.017  1.00  0.00    -0.381 F  
HETATM   29  F   UNL     1      -9.673  21.182  67.209  1.00  0.00    -0.610 F  
ENDBRANCH  17  20
ENDBRANCH  13  14
ENDBRANCH  12  13
ENDBRANCH   9  12
TORSDOF 4
ENDMDL
MODEL       66
REMARK 921   NORMALIZED FREE ENERGY PREDICTED BY IDOCK:   -6.39 KCAL/MOL
REMARK 922        TOTAL FREE ENERGY PREDICTED BY IDOCK:   -8.47 KCAL/MOL
REMARK 923 INTER-LIGAND FREE ENERGY PREDICTED BY IDOCK:   -7.96 KCAL/MOL
REMARK 924 INTRA-LIGAND FREE ENERGY PREDICTED BY IDOCK:   -0.51 KCAL/MOL
REMARK 927      BINDING AFFINITY PREDICTED BY RF-SCORE:    0.00 PKD
ROOT
HETATM    1  C   UNL     1     -10.652  18.187  67.226  1.00  0.00    -0.384 C  
HETATM    2  C   UNL     1     -10.617  19.730  67.084  1.00  0.00    -0.577 C  
HETATM    3  C   UNL     1      -9.273  20.041  66.402  1.00  0.00    -0.453 C  
HETATM    4  C   UNL     1      -8.344  18.894  66.824  1.00  0.00    -0.289 C  
HETATM    5  C   UNL     1      -9.185  18.167  67.854  1.00  0.00    -0.273 C  
HETATM    6  C   UNL     1      -8.938  16.749  68.147  1.00  0.00    -0.224 A  
HETATM    7  N   UNL     1      -8.449  16.071  69.154  1.00  0.00    -0.246 NA 
HETATM    8  N   UNL     1      -9.092  14.833  69.148  1.00  0.00    -0.134 NA 
HETATM    9  C   UNL     1      -9.993  14.840  68.192  1.00  0.00    -0.221 A  
HETATM   10  C   UNL     1     -10.638  16.753  66.576  1.00  0.00    -0.198 C  
HETATM   11  N   UNL     1      -9.824  15.975  67.479  1.00  0.00    -0.233 NA 
ENDROOT
BRANCH   9  12
HETATM   12  C   UNL     1     -11.043  13.835  67.895  1.00  0.00    -0.285 C  
BRANCH  12  13
HETATM   13  C   UNL     1     -11.270  12.872  69.080  1.00  0.00    -0.267 C  
BRANCH  13  14
HETATM   14  N   UNL     1     -12.050  11.681  68.685  1.00  0.00    -0.469 NA 
HETATM   15  C   UNL     1     -11.272  10.725  67.857  1.00  0.00    -0.318 C  
HETATM   16  C   UNL     1     -10.177   9.951  68.623  1.00  0.00    -0.178 C  
HETATM   17  N   UNL     1     -10.794   9.214  69.735  1.00  0.00    -0.227 NA 
HETATM   18  C   UNL     1     -12.576  10.946  69.865  1.00  0.00    -0.144 C  
HETATM   19  C   UNL     1     -11.563  10.070  70.656  1.00  0.00    -0.340 C  
BRANCH  17  20
HETATM   20  C   UNL     1     -10.566   7.869  69.950  1.00  0.00    -0.242 A  
HETATM   21  C   UNL     1     -10.006   7.045  68.958  1.00  0.00    -0.164 A  
HETATM   22  C   UNL     1      -9.789   5.674  69.149  1.00  0.00    -0.216 A  
HETATM   23  C   UNL     1     -10.135   5.083  70.356  1.00  0.00    -0.330 A  
HETATM   24  C   UNL     1     -10.706   5.857  71.370  1.00  0.00    -0.319 A  
HETATM   25  C   UNL     1     -11.120   5.243  72.680  1.00  0.00    -0.260 C  
HETATM   26  C   UNL     1     -10.900   7.239  71.158  1.00  0.00    -0.260 A  
HETATM   27  F   UNL     1     -12.450   5.397  72.932  1.00  0.00    -0.261 F  
HETATM   28  F   UNL     1     -10.474   5.789  73.747  1.00  0.00    -0.200 F  
HETATM   29  F   UNL     1     -10.884   3.899  72.755  1.00  0.00    -0.243 F  
ENDBRANCH  17  20
ENDBRANCH  13  14
ENDBRANCH  12  13
ENDBRANCH   9  12
TORSDOF 4
ENDMDL
MODEL       67
REMARK 921   NORMALIZED FREE ENERGY PREDICTED BY IDOCK:   -6.36 KCAL/MOL
REMARK 922        TOTAL FREE ENERGY PREDICTED BY IDOCK:   -8.44 KCAL/MOL
REMARK 923 INTER-LIGAND FREE ENERGY PREDICTED BY IDOCK:   -7.82 KCAL/MOL
REMARK 924 INTRA-LIGAND FREE ENERGY PREDICTED BY IDOCK:   -0.62 KCAL/MOL
REMARK 927      BINDING AFFINITY PREDICTED BY RF-SCORE:    0.00 PKD
ROOT
HETATM    1  C   UNL     1     -10.500   6.135  66.653  1.00  0.00    -0.267 C  
HETATM    2  C   UNL     1     -10.388   4.649  66.227  1.00  0.00    -0.293 C  
HETATM    3  C   UNL     1      -9.107   4.132  66.905  1.00  0.00    -0.152 C  
HETATM    4  C   UNL     1      -8.209   5.369  67.044  1.00  0.00    -0.104 C  
HETATM    5  C   UNL     1      -8.979   6.411  66.256  1.00  0.00    -0.166 C  
HETATM    6  C   UNL     1      -8.788   7.840  66.532  1.00  0.00    -0.153 A  
HETATM    7  N   UNL     1      -8.236   8.850  65.906  1.00  0.00    -0.115 NA 
HETATM    8  N   UNL     1      -8.949   9.987  66.285  1.00  0.00    -0.146 NA 
HETATM    9  C   UNL     1      -9.944   9.613  67.058  1.00  0.00    -0.206 A  
HETATM   10  C   UNL     1     -10.641   7.230  67.777  1.00  0.00    -0.221 C  
HETATM   11  N   UNL     1      -9.783   8.299  67.323  1.00  0.00    -0.163 NA 
ENDROOT
BRANCH   9  12
HETATM   12  C   UNL     1     -11.078  10.421  67.571  1.00  0.00    -0.336 C  
BRANCH  12  13
HETATM   13  C   UNL     1     -11.370  11.642  66.673  1.00  0.00    -0.270 C  
BRANCH  13  14
HETATM   14  N   UNL     1     -11.616  12.866  67.464  1.00  0.00    -0.335 NA 
HETATM   15  C   UNL     1     -10.460  13.252  68.312  1.00  0.00    -0.250 C  
HETATM   16  C   UNL     1      -9.246  13.805  67.535  1.00  0.00    -0.216 C  
HETATM   17  N   UNL     1      -9.667  14.977  66.754  1.00  0.00    -0.233 NA 
HETATM   18  C   UNL     1     -11.959  14.025  66.599  1.00  0.00    -0.445 C  
HETATM   19  C   UNL     1     -10.787  14.705  65.836  1.00  0.00    -0.312 C  
BRANCH  17  20
HETATM   20  C   UNL     1      -8.988  16.180  66.797  1.00  0.00    -0.241 A  
HETATM   21  C   UNL     1      -7.593  16.248  66.641  1.00  0.00    -0.268 A  
HETATM   22  C   UNL     1      -6.884  17.455  66.706  1.00  0.00    -0.247 A  
HETATM   23  C   UNL     1      -7.564  18.642  66.935  1.00  0.00    -0.232 A  
HETATM   24  C   UNL     1      -8.951  18.626  67.108  1.00  0.00    -0.288 A  
HETATM   25  C   UNL     1      -9.716  19.892  67.387  1.00  0.00    -0.389 C  
HETATM   26  C   UNL     1      -9.643  17.399  67.023  1.00  0.00    -0.273 A  
HETATM   27  F   UNL     1     -10.386  19.847  68.573  1.00  0.00    -0.513 F  
HETATM   28  F   UNL     1     -10.657  20.160  66.440  1.00  0.00    -0.533 F  
HETATM   29  F   UNL     1      -8.929  21.006  67.450  1.00  0.00    -0.448 F  
ENDBRANCH  17  20
ENDBRANCH  13  14
ENDBRANCH  12  13
ENDBRANCH   9  12
TORSDOF 4
ENDMDL
MODEL       68
REMARK 921   NORMALIZED FREE ENERGY PREDICTED BY IDOCK:   -6.31 KCAL/MOL
REMARK 922        TOTAL FREE ENERGY PREDICTED BY IDOCK:   -8.37 KCAL/MOL
REMARK 923 INTER-LIGAND FREE ENERGY PREDICTED BY IDOCK:   -7.99 KCAL/MOL
REMARK 924 INTRA-LIGAND FREE ENERGY PREDICTED BY IDOCK:   -0.38 KCAL/MOL
REMARK 927      BINDING AFFINITY PREDICTED BY RF-SCORE:    0.00 PKD
ROOT
HETATM    1  C   UNL     1     -10.271   5.977  68.038  1.00  0.00    -0.218 C  
HETATM    2  C   UNL     1     -10.070   5.576  66.554  1.00  0.00    -0.241 C  
HETATM    3  C   UNL     1      -9.952   4.042  66.564  1.00  0.00    -0.099 C  
HETATM    4  C   UNL     1      -9.375   3.702  67.945  1.00  0.00    -0.241 C  
HETATM    5  C   UNL     1      -9.037   5.074  68.495  1.00  0.00    -0.136 C  
HETATM    6  C   UNL     1      -8.950   5.291  69.945  1.00  0.00    -0.119 A  
HETATM    7  N   UNL     1      -7.988   5.527  70.801  1.00  0.00    -0.108 NA 
HETATM    8  N   UNL     1      -8.544   6.302  71.818  1.00  0.00    -0.132 NA 
HETATM    9  C   UNL     1      -9.791   6.567  71.500  1.00  0.00    -0.168 A  
HETATM   10  C   UNL     1     -11.104   5.912  69.372  1.00  0.00    -0.299 C  
HETATM   11  N   UNL     1     -10.096   5.842  70.403  1.00  0.00    -0.196 NA 
ENDROOT
BRANCH   9  12
HETATM   12  C   UNL     1     -10.745   7.490  72.165  1.00  0.00    -0.275 C  
BRANCH  12  13
HETATM   13  C   UNL     1     -11.461   8.407  71.151  1.00  0.00    -0.274 C  
BRANCH  13  14
HETATM   14  N   UNL     1     -10.810   9.730  71.043  1.00  0.00    -0.334 NA 
HETATM   15  C   UNL     1      -9.991   9.876  69.813  1.00  0.00    -0.243 C  
HETATM   16  C   UNL     1     -10.804   9.991  68.507  1.00  0.00    -0.231 C  
HETATM   17  N   UNL     1     -11.714  11.142  68.604  1.00  0.00    -0.404 NA 
HETATM   18  C   UNL     1     -11.800  10.838  71.071  1.00  0.00    -0.247 C  
HETATM   19  C   UNL     1     -12.613  11.087  69.769  1.00  0.00    -0.084 C  
BRANCH  17  20
HETATM   20  C   UNL     1     -11.790  12.113  67.623  1.00  0.00    -0.246 A  
HETATM   21  C   UNL     1     -11.776  13.483  67.937  1.00  0.00    -0.392 A  
HETATM   22  C   UNL     1     -11.877  14.482  66.959  1.00  0.00    -0.408 A  
HETATM   23  C   UNL     1     -11.999  14.129  65.623  1.00  0.00    -0.401 A  
HETATM   24  C   UNL     1     -12.029  12.779  65.261  1.00  0.00    -0.473 A  
HETATM   25  C   UNL     1     -12.190  12.360  63.824  1.00  0.00    -0.533 C  
HETATM   26  C   UNL     1     -11.911  11.792  66.263  1.00  0.00     0.027 A  
HETATM   27  F   UNL     1     -13.301  11.599  63.623  1.00  0.00    -0.487 F  
HETATM   28  F   UNL     1     -11.144  11.617  63.371  1.00  0.00    -0.424 F  
HETATM   29  F   UNL     1     -12.300  13.409  62.956  1.00  0.00    -0.607 F  
ENDBRANCH  17  20
ENDBRANCH  13  14
ENDBRANCH  12  13
ENDBRANCH   9  12
TORSDOF 4
ENDMDL
MODEL       69
REMARK 921   NORMALIZED FREE ENERGY PREDICTED BY IDOCK:   -6.29 KCAL/MOL
REMARK 922        TOTAL FREE ENERGY PREDICTED BY IDOCK:   -8.34 KCAL/MOL
REMARK 923 INTER-LIGAND FREE ENERGY PREDICTED BY IDOCK:   -7.90 KCAL/MOL
REMARK 924 INTRA-LIGAND FREE ENERGY PREDICTED BY IDOCK:   -0.44 KCAL/MOL
REMARK 927      BINDING AFFINITY PREDICTED BY RF-SCORE:    0.00 PKD
ROOT
HETATM    1  C   UNL     1      -7.355  11.270  68.586  1.00  0.00    -0.109 C  
HETATM    2  C   UNL     1      -6.354  11.494  69.749  1.00  0.00    -0.140 C  
HETATM    3  C   UNL     1      -6.139  10.101  70.367  1.00  0.00    -0.102 C  
HETATM    4  C   UNL     1      -7.444   9.343  70.090  1.00  0.00    -0.120 C  
HETATM    5  C   UNL     1      -8.334  10.435  69.529  1.00  0.00    -0.126 C  
HETATM    6  C   UNL     1      -9.468  10.095  68.661  1.00  0.00    -0.164 A  
HETATM    7  N   UNL     1     -10.772  10.115  68.771  1.00  0.00    -0.210 NA 
HETATM    8  N   UNL     1     -11.274  10.364  67.494  1.00  0.00    -0.351 NA 
HETATM    9  C   UNL     1     -10.260  10.560  66.682  1.00  0.00    -0.233 A  
HETATM   10  C   UNL     1      -7.730  10.592  67.215  1.00  0.00    -0.108 C  
HETATM   11  N   UNL     1      -9.130  10.271  67.363  1.00  0.00    -0.138 NA 
ENDROOT
BRANCH   9  12
HETATM   12  C   UNL     1     -10.272  11.025  65.273  1.00  0.00    -0.344 C  
BRANCH  12  13
HETATM   13  C   UNL     1     -11.644  11.603  64.869  1.00  0.00    -0.084 C  
BRANCH  13  14
HETATM   14  N   UNL     1     -11.534  12.983  64.350  1.00  0.00    -0.346 NA 
HETATM   15  C   UNL     1     -12.502  13.918  64.976  1.00  0.00    -0.419 C  
HETATM   16  C   UNL     1     -12.196  14.275  66.446  1.00  0.00    -0.401 C  
HETATM   17  N   UNL     1     -10.852  14.866  66.530  1.00  0.00    -0.317 NA 
HETATM   18  C   UNL     1     -10.169  13.539  64.540  1.00  0.00    -0.269 C  
HETATM   19  C   UNL     1      -9.793  14.005  65.975  1.00  0.00    -0.297 C  
BRANCH  17  20
HETATM   20  C   UNL     1     -10.606  16.061  67.178  1.00  0.00    -0.305 A  
HETATM   21  C   UNL     1     -10.549  16.143  68.581  1.00  0.00    -0.283 A  
HETATM   22  C   UNL     1     -10.325  17.350  69.257  1.00  0.00    -0.212 A  
HETATM   23  C   UNL     1     -10.152  18.523  68.537  1.00  0.00    -0.414 A  
HETATM   24  C   UNL     1     -10.211  18.495  67.140  1.00  0.00    -0.408 A  
HETATM   25  C   UNL     1     -10.057  19.753  66.329  1.00  0.00    -0.496 C  
HETATM   26  C   UNL     1     -10.423  17.265  66.482  1.00  0.00    -0.260 A  
HETATM   27  F   UNL     1     -11.149  20.014  65.558  1.00  0.00    -0.486 F  
HETATM   28  F   UNL     1      -9.001  19.702  65.472  1.00  0.00    -0.157 F  
HETATM   29  F   UNL     1      -9.863  20.874  67.085  1.00  0.00    -0.608 F  
ENDBRANCH  17  20
ENDBRANCH  13  14
ENDBRANCH  12  13
ENDBRANCH   9  12
TORSDOF 4
ENDMDL
MODEL       70
REMARK 921   NORMALIZED FREE ENERGY PREDICTED BY IDOCK:   -6.27 KCAL/MOL
REMARK 922        TOTAL FREE ENERGY PREDICTED BY IDOCK:   -8.33 KCAL/MOL
REMARK 923 INTER-LIGAND FREE ENERGY PREDICTED BY IDOCK:   -8.44 KCAL/MOL
REMARK 924 INTRA-LIGAND FREE ENERGY PREDICTED BY IDOCK:    0.12 KCAL/MOL
REMARK 927      BINDING AFFINITY PREDICTED BY RF-SCORE:    0.00 PKD
ROOT
HETATM    1  C   UNL     1     -10.402  12.755  64.986  1.00  0.00    -0.323 C  
HETATM    2  C   UNL     1     -11.027  14.156  64.760  1.00  0.00    -0.409 C  
HETATM    3  C   UNL     1     -12.362  13.888  64.043  1.00  0.00    -0.355 C  
HETATM    4  C   UNL     1     -12.140  12.580  63.273  1.00  0.00    -0.525 C  
HETATM    5  C   UNL     1     -10.654  12.347  63.464  1.00  0.00    -0.451 C  
HETATM    6  C   UNL     1     -10.095  10.994  63.356  1.00  0.00    -0.370 A  
HETATM    7  N   UNL     1      -9.331  10.360  62.503  1.00  0.00    -0.290 NA 
HETATM    8  N   UNL     1      -8.607   9.423  63.240  1.00  0.00    -0.207 NA 
HETATM    9  C   UNL     1      -8.903   9.578  64.510  1.00  0.00    -0.213 A  
HETATM   10  C   UNL     1     -10.464  11.315  65.619  1.00  0.00    -0.261 C  
HETATM   11  N   UNL     1      -9.919  10.464  64.588  1.00  0.00    -0.341 NA 
ENDROOT
BRANCH   9  12
HETATM   12  C   UNL     1      -8.273   8.946  65.696  1.00  0.00    -0.126 C  
BRANCH  12  13
HETATM   13  C   UNL     1      -7.268   9.892  66.387  1.00  0.00    -0.100 C  
BRANCH  13  14
HETATM   14  N   UNL     1      -7.317   9.772  67.860  1.00  0.00    -0.085 NA 
HETATM   15  C   UNL     1      -7.691  11.042  68.534  1.00  0.00    -0.122 C  
HETATM   16  C   UNL     1      -9.168  11.454  68.358  1.00  0.00    -0.183 C  
HETATM   17  N   UNL     1     -10.033  10.381  68.867  1.00  0.00    -0.189 NA 
HETATM   18  C   UNL     1      -8.270   8.720  68.299  1.00  0.00    -0.118 C  
HETATM   19  C   UNL     1      -9.783   9.072  68.237  1.00  0.00    -0.152 C  
BRANCH  17  20
HETATM   20  C   UNL     1     -11.060  10.616  69.762  1.00  0.00    -0.295 A  
HETATM   21  C   UNL     1     -11.530  11.915  70.022  1.00  0.00    -0.213 A  
HETATM   22  C   UNL     1     -12.553  12.176  70.944  1.00  0.00    -0.340 A  
HETATM   23  C   UNL     1     -13.138  11.128  71.640  1.00  0.00    -0.529 A  
HETATM   24  C   UNL     1     -12.697   9.819  71.425  1.00  0.00    -0.483 A  
HETATM   25  C   UNL     1     -13.288   8.663  72.185  1.00  0.00    -0.396 C  
HETATM   26  C   UNL     1     -11.676   9.581  70.481  1.00  0.00    -0.285 A  
HETATM   27  F   UNL     1     -12.359   7.989  72.918  1.00  0.00    -0.295 F  
HETATM   28  F   UNL     1     -13.863   7.735  71.371  1.00  0.00    -0.377 F  
HETATM   29  F   UNL     1     -14.262   9.029  73.071  1.00  0.00    -0.410 F  
ENDBRANCH  17  20
ENDBRANCH  13  14
ENDBRANCH  12  13
ENDBRANCH   9  12
TORSDOF 4
ENDMDL
MODEL       71
REMARK 921   NORMALIZED FREE ENERGY PREDICTED BY IDOCK:   -6.24 KCAL/MOL
REMARK 922        TOTAL FREE ENERGY PREDICTED BY IDOCK:   -8.29 KCAL/MOL
REMARK 923 INTER-LIGAND FREE ENERGY PREDICTED BY IDOCK:   -7.59 KCAL/MOL
REMARK 924 INTRA-LIGAND FREE ENERGY PREDICTED BY IDOCK:   -0.69 KCAL/MOL
REMARK 927      BINDING AFFINITY PREDICTED BY RF-SCORE:    0.00 PKD
ROOT
HETATM    1  C   UNL     1      -9.551   4.516  70.098  1.00  0.00    -0.264 C  
HETATM    2  C   UNL     1      -9.370   3.290  69.168  1.00  0.00    -0.233 C  
HETATM    3  C   UNL     1      -9.529   2.064  70.085  1.00  0.00    -0.136 C  
HETATM    4  C   UNL     1      -9.075   2.547  71.469  1.00  0.00    -0.161 C  
HETATM    5  C   UNL     1      -8.518   3.922  71.159  1.00  0.00    -0.099 C  
HETATM    6  C   UNL     1      -8.448   4.948  72.207  1.00  0.00    -0.123 A  
HETATM    7  N   UNL     1      -7.492   5.528  72.889  1.00  0.00    -0.095 NA 
HETATM    8  N   UNL     1      -7.939   6.818  73.177  1.00  0.00    -0.100 NA 
HETATM    9  C   UNL     1      -9.105   6.990  72.598  1.00  0.00    -0.134 A  
HETATM   10  C   UNL     1     -10.433   5.362  71.092  1.00  0.00    -0.225 C  
HETATM   11  N   UNL     1      -9.494   5.798  72.098  1.00  0.00    -0.149 NA 
ENDROOT
BRANCH   9  12
HETATM   12  C   UNL     1      -9.902   8.235  72.464  1.00  0.00    -0.368 C  
BRANCH  12  13
HETATM   13  C   UNL     1      -9.648   8.939  71.115  1.00  0.00    -0.272 C  
BRANCH  13  14
HETATM   14  N   UNL     1     -10.813   8.840  70.209  1.00  0.00    -0.230 NA 
HETATM   15  C   UNL     1     -11.452  10.152  69.938  1.00  0.00    -0.254 C  
HETATM   16  C   UNL     1     -10.629  11.096  69.036  1.00  0.00    -0.218 C  
HETATM   17  N   UNL     1     -10.364  10.430  67.753  1.00  0.00    -0.192 NA 
HETATM   18  C   UNL     1     -10.450   8.227  68.905  1.00  0.00    -0.191 C  
HETATM   19  C   UNL     1      -9.689   9.128  67.892  1.00  0.00    -0.154 C  
BRANCH  17  20
HETATM   20  C   UNL     1     -10.621  11.033  66.537  1.00  0.00    -0.254 A  
HETATM   21  C   UNL     1     -10.180  10.472  65.326  1.00  0.00    -0.352 A  
HETATM   22  C   UNL     1     -10.409  11.081  64.084  1.00  0.00    -0.434 A  
HETATM   23  C   UNL     1     -11.093  12.286  64.023  1.00  0.00    -0.446 A  
HETATM   24  C   UNL     1     -11.542  12.891  65.201  1.00  0.00    -0.367 A  
HETATM   25  C   UNL     1     -12.262  14.212  65.174  1.00  0.00    -0.433 C  
HETATM   26  C   UNL     1     -11.312  12.249  66.437  1.00  0.00    -0.405 A  
HETATM   27  F   UNL     1     -11.616  15.174  65.890  1.00  0.00    -0.327 F  
HETATM   28  F   UNL     1     -13.517  14.140  65.696  1.00  0.00    -0.483 F  
HETATM   29  F   UNL     1     -12.415  14.728  63.918  1.00  0.00    -0.496 F  
ENDBRANCH  17  20
ENDBRANCH  13  14
ENDBRANCH  12  13
ENDBRANCH   9  12
TORSDOF 4
ENDMDL
MODEL       72
REMARK 921   NORMALIZED FREE ENERGY PREDICTED BY IDOCK:   -6.23 KCAL/MOL
REMARK 922        TOTAL FREE ENERGY PREDICTED BY IDOCK:   -8.27 KCAL/MOL
REMARK 923 INTER-LIGAND FREE ENERGY PREDICTED BY IDOCK:   -7.77 KCAL/MOL
REMARK 924 INTRA-LIGAND FREE ENERGY PREDICTED BY IDOCK:   -0.50 KCAL/MOL
REMARK 927      BINDING AFFINITY PREDICTED BY RF-SCORE:    0.00 PKD
ROOT
HETATM    1  C   UNL     1     -10.089   8.396  71.059  1.00  0.00    -0.242 C  
HETATM    2  C   UNL     1      -9.351   7.331  71.911  1.00  0.00    -0.152 C  
HETATM    3  C   UNL     1     -10.388   6.220  72.150  1.00  0.00    -0.218 C  
HETATM    4  C   UNL     1     -11.746   6.933  72.108  1.00  0.00    -0.327 C  
HETATM    5  C   UNL     1     -11.337   8.392  72.053  1.00  0.00    -0.411 C  
HETATM    6  C   UNL     1     -12.248   9.397  71.492  1.00  0.00    -0.369 A  
HETATM    7  N   UNL     1     -12.965  10.384  71.969  1.00  0.00    -0.440 NA 
HETATM    8  N   UNL     1     -13.031  11.348  70.964  1.00  0.00    -0.262 NA 
HETATM    9  C   UNL     1     -12.293  10.944  69.955  1.00  0.00    -0.285 A  
HETATM   10  C   UNL     1     -10.850   8.809  69.744  1.00  0.00    -0.193 C  
HETATM   11  N   UNL     1     -11.902   9.678  70.215  1.00  0.00    -0.162 NA 
ENDROOT
BRANCH   9  12
HETATM   12  C   UNL     1     -11.904  11.687  68.730  1.00  0.00    -0.387 C  
BRANCH  12  13
HETATM   13  C   UNL     1     -11.044  12.926  69.056  1.00  0.00    -0.233 C  
BRANCH  13  14
HETATM   14  N   UNL     1     -11.317  14.049  68.135  1.00  0.00    -0.276 NA 
HETATM   15  C   UNL     1     -11.240  15.376  68.797  1.00  0.00    -0.301 C  
HETATM   16  C   UNL     1      -9.812  15.825  69.177  1.00  0.00    -0.247 C  
HETATM   17  N   UNL     1      -8.978  15.855  67.967  1.00  0.00    -0.181 NA 
HETATM   18  C   UNL     1     -10.384  14.057  66.978  1.00  0.00    -0.267 C  
HETATM   19  C   UNL     1      -8.941  14.572  67.243  1.00  0.00    -0.210 C  
BRANCH  17  20
HETATM   20  C   UNL     1      -8.211  16.951  67.622  1.00  0.00    -0.186 A  
HETATM   21  C   UNL     1      -7.942  17.272  66.280  1.00  0.00    -0.330 A  
HETATM   22  C   UNL     1      -7.147  18.365  65.910  1.00  0.00    -0.290 A  
HETATM   23  C   UNL     1      -6.589  19.175  66.889  1.00  0.00    -0.201 A  
HETATM   24  C   UNL     1      -6.817  18.890  68.239  1.00  0.00    -0.271 A  
HETATM   25  C   UNL     1      -6.205  19.730  69.326  1.00  0.00    -0.312 C  
HETATM   26  C   UNL     1      -7.635  17.793  68.584  1.00  0.00    -0.276 A  
HETATM   27  F   UNL     1      -5.397  19.008  70.152  1.00  0.00    -0.188 F  
HETATM   28  F   UNL     1      -7.135  20.310  70.133  1.00  0.00    -0.275 F  
HETATM   29  F   UNL     1      -5.432  20.755  68.859  1.00  0.00    -0.276 F  
ENDBRANCH  17  20
ENDBRANCH  13  14
ENDBRANCH  12  13
ENDBRANCH   9  12
TORSDOF 4
ENDMDL
MODEL       73
REMARK 921   NORMALIZED FREE ENERGY PREDICTED BY IDOCK:   -6.19 KCAL/MOL
REMARK 922        TOTAL FREE ENERGY PREDICTED BY IDOCK:   -8.22 KCAL/MOL
REMARK 923 INTER-LIGAND FREE ENERGY PREDICTED BY IDOCK:   -8.16 KCAL/MOL
REMARK 924 INTRA-LIGAND FREE ENERGY PREDICTED BY IDOCK:   -0.07 KCAL/MOL
REMARK 927      BINDING AFFINITY PREDICTED BY RF-SCORE:    0.00 PKD
ROOT
HETATM    1  C   UNL     1      -7.597  14.810  68.429  1.00  0.00    -0.116 C  
HETATM    2  C   UNL     1      -7.678  13.265  68.327  1.00  0.00    -0.141 C  
HETATM    3  C   UNL     1      -6.257  12.766  68.643  1.00  0.00    -0.071 C  
HETATM    4  C   UNL     1      -5.333  13.910  68.205  1.00  0.00    -0.119 C  
HETATM    5  C   UNL     1      -6.296  14.847  67.504  1.00  0.00    -0.071 C  
HETATM    6  C   UNL     1      -5.984  16.277  67.381  1.00  0.00    -0.158 A  
HETATM    7  N   UNL     1      -5.652  17.083  66.404  1.00  0.00    -0.342 NA 
HETATM    8  N   UNL     1      -6.161  18.339  66.737  1.00  0.00    -0.169 NA 
HETATM    9  C   UNL     1      -6.841  18.225  67.855  1.00  0.00    -0.213 A  
HETATM   10  C   UNL     1      -7.315  16.113  69.267  1.00  0.00    -0.231 C  
HETATM   11  N   UNL     1      -6.636  16.980  68.335  1.00  0.00    -0.153 NA 
ENDROOT
BRANCH   9  12
HETATM   12  C   UNL     1      -7.709  19.228  68.522  1.00  0.00    -0.380 C  
BRANCH  12  13
HETATM   13  C   UNL     1      -8.360  20.192  67.508  1.00  0.00    -0.332 C  
BRANCH  13  14
HETATM   14  N   UNL     1      -9.789  19.882  67.286  1.00  0.00    -0.375 NA 
HETATM   15  C   UNL     1     -10.028  19.096  66.049  1.00  0.00    -0.309 C  
HETATM   16  C   UNL     1      -9.554  17.629  66.115  1.00  0.00    -0.188 C  
HETATM   17  N   UNL     1     -10.225  16.954  67.235  1.00  0.00    -0.291 NA 
HETATM   18  C   UNL     1     -10.376  19.132  68.427  1.00  0.00    -0.327 C  
HETATM   19  C   UNL     1     -10.023  17.621  68.533  1.00  0.00    -0.368 C  
BRANCH  17  20
HETATM   20  C   UNL     1     -10.878  15.745  67.090  1.00  0.00    -0.289 A  
HETATM   21  C   UNL     1     -11.387  15.042  68.195  1.00  0.00    -0.343 A  
HETATM   22  C   UNL     1     -12.030  13.803  68.071  1.00  0.00    -0.390 A  
HETATM   23  C   UNL     1     -12.180  13.227  66.818  1.00  0.00    -0.340 A  
HETATM   24  C   UNL     1     -11.681  13.881  65.688  1.00  0.00    -0.362 A  
HETATM   25  C   UNL     1     -11.801  13.272  64.318  1.00  0.00    -0.417 C  
HETATM   26  C   UNL     1     -11.051  15.135  65.838  1.00  0.00    -0.319 A  
HETATM   27  F   UNL     1     -10.589  13.066  63.730  1.00  0.00    -0.397 F  
HETATM   28  F   UNL     1     -12.505  14.051  63.452  1.00  0.00    -0.487 F  
HETATM   29  F   UNL     1     -12.425  12.056  64.310  1.00  0.00    -0.461 F  
ENDBRANCH  17  20
ENDBRANCH  13  14
ENDBRANCH  12  13
ENDBRANCH   9  12
TORSDOF 4
ENDMDL
MODEL       74
REMARK 921   NORMALIZED FREE ENERGY PREDICTED BY IDOCK:   -6.17 KCAL/MOL
REMARK 922        TOTAL FREE ENERGY PREDICTED BY IDOCK:   -8.20 KCAL/MOL
REMARK 923 INTER-LIGAND FREE ENERGY PREDICTED BY IDOCK:   -7.81 KCAL/MOL
REMARK 924 INTRA-LIGAND FREE ENERGY PREDICTED BY IDOCK:   -0.40 KCAL/MOL
REMARK 927      BINDING AFFINITY PREDICTED BY RF-SCORE:    0.00 PKD
ROOT
HETATM    1  C   UNL     1     -10.717   7.635  69.527  1.00  0.00    -0.211 C  
HETATM    2  C   UNL     1     -11.633   6.612  70.248  1.00  0.00    -0.454 C  
HETATM    3  C   UNL     1     -12.339   7.415  71.354  1.00  0.00    -0.394 C  
HETATM    4  C   UNL     1     -11.361   8.544  71.706  1.00  0.00    -0.377 C  
HETATM    5  C   UNL     1     -10.127   8.152  70.917  1.00  0.00    -0.215 C  
HETATM    6  C   UNL     1      -9.139   9.168  70.532  1.00  0.00    -0.241 A  
HETATM    7  N   UNL     1      -7.913   9.464  70.883  1.00  0.00    -0.301 NA 
HETATM    8  N   UNL     1      -7.298  10.008  69.756  1.00  0.00    -0.123 NA 
HETATM    9  C   UNL     1      -8.146   9.950  68.754  1.00  0.00    -0.102 A  
HETATM   10  C   UNL     1     -10.534   8.960  68.697  1.00  0.00    -0.193 C  
HETATM   11  N   UNL     1      -9.336   9.548  69.249  1.00  0.00    -0.161 NA 
ENDROOT
BRANCH   9  12
HETATM   12  C   UNL     1      -7.911  10.241  67.318  1.00  0.00    -0.107 C  
BRANCH  12  13
HETATM   13  C   UNL     1      -8.033  11.747  67.007  1.00  0.00    -0.164 C  
BRANCH  13  14
HETATM   14  N   UNL     1      -8.348  12.539  68.215  1.00  0.00    -0.171 NA 
HETATM   15  C   UNL     1      -7.203  13.358  68.688  1.00  0.00    -0.107 C  
HETATM   16  C   UNL     1      -6.861  14.566  67.790  1.00  0.00    -0.177 C  
HETATM   17  N   UNL     1      -8.042  15.433  67.676  1.00  0.00    -0.140 NA 
HETATM   18  C   UNL     1      -9.504  13.447  67.998  1.00  0.00    -0.218 C  
HETATM   19  C   UNL     1      -9.239  14.738  67.172  1.00  0.00    -0.222 C  
BRANCH  17  20
HETATM   20  C   UNL     1      -7.989  16.795  67.907  1.00  0.00    -0.177 A  
HETATM   21  C   UNL     1      -6.983  17.371  68.702  1.00  0.00    -0.226 A  
HETATM   22  C   UNL     1      -6.925  18.746  68.968  1.00  0.00    -0.323 A  
HETATM   23  C   UNL     1      -7.890  19.591  68.439  1.00  0.00    -0.374 A  
HETATM   24  C   UNL     1      -8.919  19.065  67.651  1.00  0.00    -0.322 A  
HETATM   25  C   UNL     1      -9.998  19.948  67.086  1.00  0.00    -0.423 C  
HETATM   26  C   UNL     1      -8.945  17.679  67.386  1.00  0.00    -0.231 A  
HETATM   27  F   UNL     1     -11.242  19.589  67.509  1.00  0.00    -0.549 F  
HETATM   28  F   UNL     1     -10.046  19.919  65.726  1.00  0.00    -0.486 F  
HETATM   29  F   UNL     1      -9.860  21.265  67.421  1.00  0.00    -0.618 F  
ENDBRANCH  17  20
ENDBRANCH  13  14
ENDBRANCH  12  13
ENDBRANCH   9  12
TORSDOF 4
ENDMDL
MODEL       75
REMARK 921   NORMALIZED FREE ENERGY PREDICTED BY IDOCK:   -6.16 KCAL/MOL
REMARK 922        TOTAL FREE ENERGY PREDICTED BY IDOCK:   -8.19 KCAL/MOL
REMARK 923 INTER-LIGAND FREE ENERGY PREDICTED BY IDOCK:   -7.69 KCAL/MOL
REMARK 924 INTRA-LIGAND FREE ENERGY PREDICTED BY IDOCK:   -0.49 KCAL/MOL
REMARK 927      BINDING AFFINITY PREDICTED BY RF-SCORE:    0.00 PKD
ROOT
HETATM    1  C   UNL     1      -9.677   4.751  71.582  1.00  0.00    -0.230 C  
HETATM    2  C   UNL     1      -9.136   3.456  72.240  1.00  0.00    -0.144 C  
HETATM    3  C   UNL     1     -10.342   2.841  72.970  1.00  0.00    -0.239 C  
HETATM    4  C   UNL     1     -11.237   4.036  73.326  1.00  0.00    -0.277 C  
HETATM    5  C   UNL     1     -10.360   5.213  72.949  1.00  0.00    -0.238 C  
HETATM    6  C   UNL     1     -10.962   6.514  72.629  1.00  0.00    -0.255 A  
HETATM    7  N   UNL     1     -11.015   7.689  73.203  1.00  0.00    -0.398 NA 
HETATM    8  N   UNL     1     -11.084   8.630  72.176  1.00  0.00    -0.362 NA 
HETATM    9  C   UNL     1     -10.993   7.996  71.029  1.00  0.00    -0.241 A  
HETATM   10  C   UNL     1     -10.660   5.471  70.585  1.00  0.00    -0.259 C  
HETATM   11  N   UNL     1     -11.044   6.672  71.288  1.00  0.00    -0.256 NA 
ENDROOT
BRANCH   9  12
HETATM   12  C   UNL     1     -10.844   8.559  69.664  1.00  0.00    -0.157 C  
BRANCH  12  13
HETATM   13  C   UNL     1      -9.742   9.637  69.602  1.00  0.00    -0.213 C  
BRANCH  13  14
HETATM   14  N   UNL     1      -9.347   9.947  68.212  1.00  0.00    -0.132 NA 
HETATM   15  C   UNL     1     -10.508  10.173  67.314  1.00  0.00    -0.256 C  
HETATM   16  C   UNL     1     -11.268  11.494  67.563  1.00  0.00    -0.298 C  
HETATM   17  N   UNL     1     -10.336  12.622  67.417  1.00  0.00    -0.220 NA 
HETATM   18  C   UNL     1      -8.469  11.144  68.139  1.00  0.00    -0.138 C  
HETATM   19  C   UNL     1      -9.157  12.531  68.295  1.00  0.00    -0.183 C  
BRANCH  17  20
HETATM   20  C   UNL     1     -10.613  13.715  66.619  1.00  0.00    -0.277 A  
HETATM   21  C   UNL     1     -11.260  13.579  65.378  1.00  0.00    -0.301 A  
HETATM   22  C   UNL     1     -11.528  14.672  64.543  1.00  0.00    -0.340 A  
HETATM   23  C   UNL     1     -11.147  15.948  64.934  1.00  0.00    -0.400 A  
HETATM   24  C   UNL     1     -10.490  16.134  66.154  1.00  0.00    -0.334 A  
HETATM   25  C   UNL     1     -10.037  17.499  66.595  1.00  0.00    -0.328 C  
HETATM   26  C   UNL     1     -10.246  15.018  66.983  1.00  0.00    -0.257 A  
HETATM   27  F   UNL     1      -8.690  17.565  66.790  1.00  0.00    -0.229 F  
HETATM   28  F   UNL     1     -10.601  17.889  67.771  1.00  0.00    -0.355 F  
HETATM   29  F   UNL     1     -10.329  18.490  65.701  1.00  0.00    -0.379 F  
ENDBRANCH  17  20
ENDBRANCH  13  14
ENDBRANCH  12  13
ENDBRANCH   9  12
TORSDOF 4
ENDMDL
MODEL       76
REMARK 921   NORMALIZED FREE ENERGY PREDICTED BY IDOCK:   -6.15 KCAL/MOL
REMARK 922        TOTAL FREE ENERGY PREDICTED BY IDOCK:   -8.18 KCAL/MOL
REMARK 923 INTER-LIGAND FREE ENERGY PREDICTED BY IDOCK:   -7.38 KCAL/MOL
REMARK 924 INTRA-LIGAND FREE ENERGY PREDICTED BY IDOCK:   -0.80 KCAL/MOL
REMARK 927      BINDING AFFINITY PREDICTED BY RF-SCORE:    0.00 PKD
ROOT
HETATM    1  C   UNL     1      -9.555   6.752  67.089  1.00  0.00    -0.177 C  
HETATM    2  C   UNL     1     -10.357   5.547  67.643  1.00  0.00    -0.256 C  
HETATM    3  C   UNL     1      -9.356   4.380  67.677  1.00  0.00    -0.186 C  
HETATM    4  C   UNL     1      -8.353   4.689  66.557  1.00  0.00    -0.106 C  
HETATM    5  C   UNL     1      -8.996   5.880  65.875  1.00  0.00    -0.149 C  
HETATM    6  C   UNL     1      -8.178   6.822  65.101  1.00  0.00    -0.114 A  
HETATM    7  N   UNL     1      -8.033   7.115  63.833  1.00  0.00    -0.111 NA 
HETATM    8  N   UNL     1      -7.697   8.468  63.775  1.00  0.00    -0.134 NA 
HETATM    9  C   UNL     1      -7.728   8.954  64.995  1.00  0.00    -0.103 A  
HETATM   10  C   UNL     1      -8.358   7.769  67.205  1.00  0.00    -0.118 C  
HETATM   11  N   UNL     1      -7.901   7.918  65.843  1.00  0.00    -0.096 NA 
ENDROOT
BRANCH   9  12
HETATM   12  C   UNL     1      -7.616  10.366  65.437  1.00  0.00    -0.131 C  
BRANCH  12  13
HETATM   13  C   UNL     1      -8.995  11.051  65.534  1.00  0.00    -0.194 C  
BRANCH  13  14
HETATM   14  N   UNL     1      -9.004  12.142  66.531  1.00  0.00    -0.203 NA 
HETATM   15  C   UNL     1     -10.331  12.797  66.664  1.00  0.00    -0.242 C  
HETATM   16  C   UNL     1     -11.408  11.936  67.359  1.00  0.00    -0.324 C  
HETATM   17  N   UNL     1     -10.934  11.559  68.699  1.00  0.00    -0.207 NA 
HETATM   18  C   UNL     1      -8.589  11.666  67.877  1.00  0.00    -0.150 C  
HETATM   19  C   UNL     1      -9.639  10.858  68.692  1.00  0.00    -0.190 C  
BRANCH  17  20
HETATM   20  C   UNL     1     -11.699  11.742  69.835  1.00  0.00    -0.323 A  
HETATM   21  C   UNL     1     -12.155  10.657  70.602  1.00  0.00    -0.461 A  
HETATM   22  C   UNL     1     -12.952  10.820  71.743  1.00  0.00    -0.568 A  
HETATM   23  C   UNL     1     -13.320  12.095  72.149  1.00  0.00    -0.438 A  
HETATM   24  C   UNL     1     -12.902  13.207  71.413  1.00  0.00    -0.401 A  
HETATM   25  C   UNL     1     -13.307  14.601  71.809  1.00  0.00    -0.360 C  
HETATM   26  C   UNL     1     -12.087  13.016  70.276  1.00  0.00    -0.388 A  
HETATM   27  F   UNL     1     -14.009  15.239  70.831  1.00  0.00    -0.453 F  
HETATM   28  F   UNL     1     -12.241  15.403  72.083  1.00  0.00    -0.339 F  
HETATM   29  F   UNL     1     -14.098  14.648  72.921  1.00  0.00    -0.461 F  
ENDBRANCH  17  20
ENDBRANCH  13  14
ENDBRANCH  12  13
ENDBRANCH   9  12
TORSDOF 4
ENDMDL
MODEL       77
REMARK 921   NORMALIZED FREE ENERGY PREDICTED BY IDOCK:   -6.15 KCAL/MOL
REMARK 922        TOTAL FREE ENERGY PREDICTED BY IDOCK:   -8.18 KCAL/MOL
REMARK 923 INTER-LIGAND FREE ENERGY PREDICTED BY IDOCK:   -7.50 KCAL/MOL
REMARK 924 INTRA-LIGAND FREE ENERGY PREDICTED BY IDOCK:   -0.68 KCAL/MOL
REMARK 927      BINDING AFFINITY PREDICTED BY RF-SCORE:    0.00 PKD
ROOT
HETATM    1  C   UNL     1      -8.521   9.643  69.379  1.00  0.00    -0.156 C  
HETATM    2  C   UNL     1      -7.457   9.077  70.354  1.00  0.00    -0.089 C  
HETATM    3  C   UNL     1      -8.057   7.764  70.886  1.00  0.00    -0.102 C  
HETATM    4  C   UNL     1      -9.576   7.972  70.823  1.00  0.00    -0.174 C  
HETATM    5  C   UNL     1      -9.681   9.440  70.457  1.00  0.00    -0.331 C  
HETATM    6  C   UNL     1     -10.884   9.955  69.792  1.00  0.00    -0.269 A  
HETATM    7  N   UNL     1     -11.883  10.732  70.130  1.00  0.00    -0.312 NA 
HETATM    8  N   UNL     1     -12.283  11.391  68.968  1.00  0.00    -0.424 NA 
HETATM    9  C   UNL     1     -11.468  11.048  67.997  1.00  0.00    -0.290 A  
HETATM   10  C   UNL     1      -9.397   9.503  68.078  1.00  0.00    -0.132 C  
HETATM   11  N   UNL     1     -10.672  10.061  68.461  1.00  0.00    -0.221 NA 
ENDROOT
BRANCH   9  12
HETATM   12  C   UNL     1     -11.369  11.606  66.625  1.00  0.00    -0.338 C  
BRANCH  12  13
HETATM   13  C   UNL     1     -11.874  13.062  66.557  1.00  0.00    -0.403 C  
BRANCH  13  14
HETATM   14  N   UNL     1     -10.980  13.923  65.754  1.00  0.00    -0.282 NA 
HETATM   15  C   UNL     1     -11.249  15.371  65.938  1.00  0.00    -0.179 C  
HETATM   16  C   UNL     1     -10.825  15.937  67.310  1.00  0.00    -0.279 C  
HETATM   17  N   UNL     1      -9.388  15.697  67.508  1.00  0.00    -0.205 NA 
HETATM   18  C   UNL     1      -9.548  13.677  66.066  1.00  0.00    -0.166 C  
HETATM   19  C   UNL     1      -9.004  14.280  67.392  1.00  0.00    -0.201 C  
BRANCH  17  20
HETATM   20  C   UNL     1      -8.514  16.699  67.887  1.00  0.00    -0.194 A  
HETATM   21  C   UNL     1      -7.542  16.494  68.881  1.00  0.00    -0.238 A  
HETATM   22  C   UNL     1      -6.663  17.504  69.296  1.00  0.00    -0.221 A  
HETATM   23  C   UNL     1      -6.738  18.763  68.719  1.00  0.00    -0.292 A  
HETATM   24  C   UNL     1      -7.696  19.020  67.734  1.00  0.00    -0.273 A  
HETATM   25  C   UNL     1      -7.825  20.382  67.108  1.00  0.00    -0.335 C  
HETATM   26  C   UNL     1      -8.560  17.982  67.323  1.00  0.00    -0.240 A  
HETATM   27  F   UNL     1      -9.058  20.930  67.297  1.00  0.00    -0.477 F  
HETATM   28  F   UNL     1      -7.630  20.365  65.760  1.00  0.00    -0.281 F  
HETATM   29  F   UNL     1      -6.936  21.297  67.596  1.00  0.00    -0.397 F  
ENDBRANCH  17  20
ENDBRANCH  13  14
ENDBRANCH  12  13
ENDBRANCH   9  12
TORSDOF 4
ENDMDL
MODEL       78
REMARK 921   NORMALIZED FREE ENERGY PREDICTED BY IDOCK:   -6.14 KCAL/MOL
REMARK 922        TOTAL FREE ENERGY PREDICTED BY IDOCK:   -8.17 KCAL/MOL
REMARK 923 INTER-LIGAND FREE ENERGY PREDICTED BY IDOCK:   -8.05 KCAL/MOL
REMARK 924 INTRA-LIGAND FREE ENERGY PREDICTED BY IDOCK:   -0.11 KCAL/MOL
REMARK 927      BINDING AFFINITY PREDICTED BY RF-SCORE:    0.00 PKD
ROOT
HETATM    1  C   UNL     1     -12.159  13.112  67.202  1.00  0.00    -0.343 C  
HETATM    2  C   UNL     1     -11.967  13.567  65.733  1.00  0.00    -0.439 C  
HETATM    3  C   UNL     1     -10.464  13.869  65.599  1.00  0.00    -0.320 C  
HETATM    4  C   UNL     1     -10.019  14.282  67.008  1.00  0.00    -0.258 C  
HETATM    5  C   UNL     1     -11.340  14.369  67.746  1.00  0.00    -0.331 C  
HETATM    6  C   UNL     1     -11.385  14.224  69.207  1.00  0.00    -0.283 A  
HETATM    7  N   UNL     1     -11.613  15.020  70.221  1.00  0.00    -0.270 NA 
HETATM    8  N   UNL     1     -12.195  14.235  71.217  1.00  0.00    -0.347 NA 
HETATM    9  C   UNL     1     -12.365  13.022  70.740  1.00  0.00    -0.310 A  
HETATM   10  C   UNL     1     -11.843  12.112  68.378  1.00  0.00    -0.303 C  
HETATM   11  N   UNL     1     -11.752  12.966  69.538  1.00  0.00    -0.319 NA 
ENDROOT
BRANCH   9  12
HETATM   12  C   UNL     1     -13.094  11.879  71.344  1.00  0.00    -0.303 C  
BRANCH  12  13
HETATM   13  C   UNL     1     -12.674  10.533  70.719  1.00  0.00    -0.381 C  
BRANCH  13  14
HETATM   14  N   UNL     1     -11.695   9.812  71.561  1.00  0.00    -0.389 NA 
HETATM   15  C   UNL     1     -12.211   8.516  72.072  1.00  0.00    -0.366 C  
HETATM   16  C   UNL     1     -12.348   7.411  71.003  1.00  0.00    -0.268 C  
HETATM   17  N   UNL     1     -11.038   7.180  70.377  1.00  0.00    -0.271 NA 
HETATM   18  C   UNL     1     -10.427   9.548  70.833  1.00  0.00    -0.312 C  
HETATM   19  C   UNL     1     -10.442   8.393  69.791  1.00  0.00    -0.220 C  
BRANCH  17  20
HETATM   20  C   UNL     1     -10.488   5.919  70.249  1.00  0.00    -0.261 A  
HETATM   21  C   UNL     1     -10.113   5.399  68.998  1.00  0.00    -0.283 A  
HETATM   22  C   UNL     1      -9.576   4.113  68.846  1.00  0.00    -0.222 A  
HETATM   23  C   UNL     1      -9.402   3.302  69.958  1.00  0.00    -0.238 A  
HETATM   24  C   UNL     1      -9.771   3.769  71.223  1.00  0.00    -0.245 A  
HETATM   25  C   UNL     1      -9.623   2.906  72.446  1.00  0.00    -0.127 C  
HETATM   26  C   UNL     1     -10.295   5.073  71.352  1.00  0.00    -0.251 A  
HETATM   27  F   UNL     1     -10.810   2.687  73.078  1.00  0.00    -0.232 F  
HETATM   28  F   UNL     1      -8.800   3.453  73.383  1.00  0.00    -0.083 F  
HETATM   29  F   UNL     1      -9.110   1.667  72.185  1.00  0.00    -0.077 F  
ENDBRANCH  17  20
ENDBRANCH  13  14
ENDBRANCH  12  13
ENDBRANCH   9  12
TORSDOF 4
ENDMDL
MODEL       79
REMARK 921   NORMALIZED FREE ENERGY PREDICTED BY IDOCK:   -6.13 KCAL/MOL
REMARK 922        TOTAL FREE ENERGY PREDICTED BY IDOCK:   -8.16 KCAL/MOL
REMARK 923 INTER-LIGAND FREE ENERGY PREDICTED BY IDOCK:   -7.77 KCAL/MOL
REMARK 924 INTRA-LIGAND FREE ENERGY PREDICTED BY IDOCK:   -0.39 KCAL/MOL
REMARK 927      BINDING AFFINITY PREDICTED BY RF-SCORE:    0.00 PKD
ROOT
HETATM    1  C   UNL     1     -10.959   3.538  73.623  1.00  0.00    -0.329 C  
HETATM    2  C   UNL     1     -10.904   2.019  73.926  1.00  0.00    -0.253 C  
HETATM    3  C   UNL     1      -9.419   1.716  74.191  1.00  0.00    -0.081 C  
HETATM    4  C   UNL     1      -8.652   2.763  73.373  1.00  0.00    -0.076 C  
HETATM    5  C   UNL     1      -9.762   3.418  72.575  1.00  0.00    -0.207 C  
HETATM    6  C   UNL     1      -9.598   4.783  72.057  1.00  0.00    -0.149 A  
HETATM    7  N   UNL     1      -9.438   5.324  70.876  1.00  0.00    -0.159 NA 
HETATM    8  N   UNL     1     -10.029   6.586  70.936  1.00  0.00    -0.184 NA 
HETATM    9  C   UNL     1     -10.587   6.726  72.117  1.00  0.00    -0.211 A  
HETATM   10  C   UNL     1     -10.723   5.031  74.065  1.00  0.00    -0.286 C  
HETATM   11  N   UNL     1     -10.220   5.666  72.870  1.00  0.00    -0.180 NA 
ENDROOT
BRANCH   9  12
HETATM   12  C   UNL     1     -11.477   7.809  72.604  1.00  0.00    -0.430 C  
BRANCH  12  13
HETATM   13  C   UNL     1     -11.257   9.127  71.832  1.00  0.00    -0.329 C  
BRANCH  13  14
HETATM   14  N   UNL     1     -12.190   9.267  70.695  1.00  0.00    -0.127 NA 
HETATM   15  C   UNL     1     -12.873  10.585  70.663  1.00  0.00    -0.325 C  
HETATM   16  C   UNL     1     -11.967  11.772  70.273  1.00  0.00    -0.343 C  
HETATM   17  N   UNL     1     -11.379  11.516  68.950  1.00  0.00    -0.241 NA 
HETATM   18  C   UNL     1     -11.508   9.071  69.390  1.00  0.00     0.389 C  
HETATM   19  C   UNL     1     -10.634  10.248  68.870  1.00  0.00    -0.219 C  
BRANCH  17  20
HETATM   20  C   UNL     1     -11.427  12.442  67.925  1.00  0.00    -0.328 A  
HETATM   21  C   UNL     1     -11.222  13.813  68.157  1.00  0.00    -0.298 A  
HETATM   22  C   UNL     1     -11.290  14.770  67.136  1.00  0.00    -0.363 A  
HETATM   23  C   UNL     1     -11.573  14.373  65.837  1.00  0.00    -0.361 A  
HETATM   24  C   UNL     1     -11.796  13.022  65.556  1.00  0.00    -0.438 A  
HETATM   25  C   UNL     1     -12.134  12.560  64.165  1.00  0.00    -0.447 C  
HETATM   26  C   UNL     1     -11.707  12.076  66.600  1.00  0.00    -0.331 A  
HETATM   27  F   UNL     1     -13.342  11.933  64.101  1.00  0.00    -0.480 F  
HETATM   28  F   UNL     1     -11.229  11.672  63.669  1.00  0.00    -0.409 F  
HETATM   29  F   UNL     1     -12.195  13.573  63.250  1.00  0.00    -0.571 F  
ENDBRANCH  17  20
ENDBRANCH  13  14
ENDBRANCH  12  13
ENDBRANCH   9  12
TORSDOF 4
ENDMDL
MODEL       80
REMARK 921   NORMALIZED FREE ENERGY PREDICTED BY IDOCK:   -6.12 KCAL/MOL
REMARK 922        TOTAL FREE ENERGY PREDICTED BY IDOCK:   -8.14 KCAL/MOL
REMARK 923 INTER-LIGAND FREE ENERGY PREDICTED BY IDOCK:   -7.71 KCAL/MOL
REMARK 924 INTRA-LIGAND FREE ENERGY PREDICTED BY IDOCK:   -0.43 KCAL/MOL
REMARK 927      BINDING AFFINITY PREDICTED BY RF-SCORE:    0.00 PKD
ROOT
HETATM    1  C   UNL     1      -9.394  16.417  67.012  1.00  0.00    -0.241 C  
HETATM    2  C   UNL     1      -8.283  17.395  67.474  1.00  0.00    -0.209 C  
HETATM    3  C   UNL     1      -9.000  18.735  67.710  1.00  0.00    -0.308 C  
HETATM    4  C   UNL     1     -10.201  18.712  66.754  1.00  0.00    -0.431 C  
HETATM    5  C   UNL     1      -9.931  17.465  65.935  1.00  0.00    -0.166 C  
HETATM    6  C   UNL     1     -11.035  16.763  65.268  1.00  0.00    -0.078 A  
HETATM    7  N   UNL     1     -11.426  16.593  64.030  1.00  0.00    -1.136 NA 
HETATM    8  N   UNL     1     -12.043  15.343  63.978  1.00  0.00    -0.520 NA 
HETATM    9  C   UNL     1     -11.933  14.778  65.159  1.00  0.00    -0.278 A  
HETATM   10  C   UNL     1     -10.746  15.657  67.281  1.00  0.00    -0.305 C  
HETATM   11  N   UNL     1     -11.422  15.697  66.006  1.00  0.00     0.057 NA 
ENDROOT
BRANCH   9  12
HETATM   12  C   UNL     1     -12.272  13.390  65.562  1.00  0.00    -0.499 C  
BRANCH  12  13
HETATM   13  C   UNL     1     -11.494  12.345  64.736  1.00  0.00    -0.325 C  
BRANCH  13  14
HETATM   14  N   UNL     1     -10.105  12.181  65.214  1.00  0.00    -0.264 NA 
HETATM   15  C   UNL     1      -9.974  12.347  66.684  1.00  0.00    -0.225 C  
HETATM   16  C   UNL     1     -10.566  11.191  67.518  1.00  0.00    -0.221 C  
HETATM   17  N   UNL     1      -9.917   9.931  67.128  1.00  0.00    -0.189 NA 
HETATM   18  C   UNL     1      -9.545  10.854  64.848  1.00  0.00    -0.248 C  
HETATM   19  C   UNL     1     -10.020   9.635  65.689  1.00  0.00    -0.251 C  
BRANCH  17  20
HETATM   20  C   UNL     1      -9.373   9.059  68.052  1.00  0.00    -0.141 A  
HETATM   21  C   UNL     1      -8.118   9.293  68.639  1.00  0.00    -0.105 A  
HETATM   22  C   UNL     1      -7.538   8.409  69.559  1.00  0.00    -0.090 A  
HETATM   23  C   UNL     1      -8.210   7.250  69.918  1.00  0.00    -0.133 A  
HETATM   24  C   UNL     1      -9.457   6.966  69.353  1.00  0.00    -0.148 A  
HETATM   25  C   UNL     1     -10.200   5.704  69.698  1.00  0.00    -0.251 C  
HETATM   26  C   UNL     1     -10.026   7.880  68.440  1.00  0.00    -0.198 A  
HETATM   27  F   UNL     1     -10.438   4.923  68.607  1.00  0.00    -0.207 F  
HETATM   28  F   UNL     1     -11.419   5.943  70.255  1.00  0.00    -0.407 F  
HETATM   29  F   UNL     1      -9.540   4.903  70.586  1.00  0.00    -0.188 F  
ENDBRANCH  17  20
ENDBRANCH  13  14
ENDBRANCH  12  13
ENDBRANCH   9  12
TORSDOF 4
ENDMDL
MODEL       81
REMARK 921   NORMALIZED FREE ENERGY PREDICTED BY IDOCK:   -6.07 KCAL/MOL
REMARK 922        TOTAL FREE ENERGY PREDICTED BY IDOCK:   -8.08 KCAL/MOL
REMARK 923 INTER-LIGAND FREE ENERGY PREDICTED BY IDOCK:   -7.58 KCAL/MOL
REMARK 924 INTRA-LIGAND FREE ENERGY PREDICTED BY IDOCK:   -0.50 KCAL/MOL
REMARK 927      BINDING AFFINITY PREDICTED BY RF-SCORE:    0.00 PKD
ROOT
HETATM    1  C   UNL     1      -6.916  18.674  65.714  1.00  0.00    -0.290 C  
HETATM    2  C   UNL     1      -5.774  19.723  65.742  1.00  0.00    -0.189 C  
HETATM    3  C   UNL     1      -5.963  20.486  67.065  1.00  0.00    -0.235 C  
HETATM    4  C   UNL     1      -7.467  20.403  67.356  1.00  0.00    -0.361 C  
HETATM    5  C   UNL     1      -8.004  19.783  66.081  1.00  0.00    -0.351 C  
HETATM    6  C   UNL     1      -9.276  19.050  66.090  1.00  0.00    -0.201 A  
HETATM    7  N   UNL     1     -10.480  19.256  65.619  1.00  0.00    -0.520 NA 
HETATM    8  N   UNL     1     -11.012  18.000  65.328  1.00  0.00    -0.460 NA 
HETATM    9  C   UNL     1     -10.087  17.096  65.561  1.00  0.00     0.034 A  
HETATM   10  C   UNL     1      -7.645  17.428  66.342  1.00  0.00    -0.307 C  
HETATM   11  N   UNL     1      -9.047  17.719  66.154  1.00  0.00    -0.493 NA 
ENDROOT
BRANCH   9  12
HETATM   12  C   UNL     1     -10.103  15.646  65.245  1.00  0.00    -0.305 C  
BRANCH  12  13
HETATM   13  C   UNL     1     -10.579  14.800  66.445  1.00  0.00    -0.300 C  
BRANCH  13  14
HETATM   14  N   UNL     1     -11.193  13.526  66.016  1.00  0.00    -0.294 NA 
HETATM   15  C   UNL     1     -10.192  12.512  65.593  1.00  0.00    -0.267 C  
HETATM   16  C   UNL     1      -9.360  11.909  66.745  1.00  0.00    -0.201 C  
HETATM   17  N   UNL     1     -10.266  11.294  67.725  1.00  0.00    -0.177 NA 
HETATM   18  C   UNL     1     -12.031  12.926  67.087  1.00  0.00    -0.310 C  
HETATM   19  C   UNL     1     -11.282  12.220  68.253  1.00  0.00    -0.267 C  
BRANCH  17  20
HETATM   20  C   UNL     1     -10.092  10.003  68.188  1.00  0.00    -0.159 A  
HETATM   21  C   UNL     1     -10.298   8.887  67.359  1.00  0.00    -0.337 A  
HETATM   22  C   UNL     1     -10.151   7.570  67.817  1.00  0.00    -0.235 A  
HETATM   23  C   UNL     1      -9.792   7.335  69.136  1.00  0.00    -0.166 A  
HETATM   24  C   UNL     1      -9.587   8.412  70.003  1.00  0.00    -0.168 A  
HETATM   25  C   UNL     1      -9.225   8.192  71.447  1.00  0.00    -0.153 C  
HETATM   26  C   UNL     1      -9.726   9.728  69.514  1.00  0.00    -0.228 A  
HETATM   27  F   UNL     1     -10.138   8.730  72.303  1.00  0.00    -0.352 F  
HETATM   28  F   UNL     1      -8.029   8.749  71.782  1.00  0.00    -0.153 F  
HETATM   29  F   UNL     1      -9.127   6.874  71.794  1.00  0.00    -0.138 F  
ENDBRANCH  17  20
ENDBRANCH  13  14
ENDBRANCH  12  13
ENDBRANCH   9  12
TORSDOF 4
ENDMDL
MODEL       82
REMARK 921   NORMALIZED FREE ENERGY PREDICTED BY IDOCK:   -6.07 KCAL/MOL
REMARK 922        TOTAL FREE ENERGY PREDICTED BY IDOCK:   -8.07 KCAL/MOL
REMARK 923 INTER-LIGAND FREE ENERGY PREDICTED BY IDOCK:   -7.55 KCAL/MOL
REMARK 924 INTRA-LIGAND FREE ENERGY PREDICTED BY IDOCK:   -0.52 KCAL/MOL
REMARK 927      BINDING AFFINITY PREDICTED BY RF-SCORE:    0.00 PKD
ROOT
HETATM    1  C   UNL     1      -8.066   3.802  70.125  1.00  0.00    -0.054 C  
HETATM    2  C   UNL     1      -7.003   2.996  69.336  1.00  0.00    -0.041 C  
HETATM    3  C   UNL     1      -7.791   1.888  68.616  1.00  0.00    -0.054 C  
HETATM    4  C   UNL     1      -9.013   1.632  69.509  1.00  0.00    -0.139 C  
HETATM    5  C   UNL     1      -8.692   2.466  70.733  1.00  0.00    -0.115 C  
HETATM    6  C   UNL     1      -9.770   2.940  71.611  1.00  0.00    -0.156 A  
HETATM    7  N   UNL     1     -10.183   2.663  72.822  1.00  0.00    -0.148 NA 
HETATM    8  N   UNL     1     -10.727   3.841  73.334  1.00  0.00    -0.191 NA 
HETATM    9  C   UNL     1     -10.553   4.795  72.448  1.00  0.00    -0.180 A  
HETATM   10  C   UNL     1      -9.364   4.692  70.155  1.00  0.00    -0.144 C  
HETATM   11  N   UNL     1     -10.074   4.225  71.322  1.00  0.00    -0.151 NA 
ENDROOT
BRANCH   9  12
HETATM   12  C   UNL     1     -10.799   6.252  72.590  1.00  0.00    -0.273 C  
BRANCH  12  13
HETATM   13  C   UNL     1     -12.304   6.589  72.554  1.00  0.00     0.130 C  
BRANCH  13  14
HETATM   14  N   UNL     1     -12.684   7.297  71.314  1.00  0.00    -0.369 NA 
HETATM   15  C   UNL     1     -13.871   8.174  71.486  1.00  0.00    -0.330 C  
HETATM   16  C   UNL     1     -13.617   9.445  72.325  1.00  0.00    -0.462 C  
HETATM   17  N   UNL     1     -12.541  10.229  71.701  1.00  0.00    -0.421 NA 
HETATM   18  C   UNL     1     -11.571   8.128  70.786  1.00  0.00    -0.238 C  
HETATM   19  C   UNL     1     -11.290   9.473  71.516  1.00  0.00    -0.385 C  
BRANCH  17  20
HETATM   20  C   UNL     1     -12.667  11.578  71.430  1.00  0.00    -0.364 A  
HETATM   21  C   UNL     1     -13.384  12.439  72.279  1.00  0.00    -0.427 A  
HETATM   22  C   UNL     1     -13.544  13.804  72.009  1.00  0.00    -0.569 A  
HETATM   23  C   UNL     1     -12.983  14.351  70.864  1.00  0.00    -0.413 A  
HETATM   24  C   UNL     1     -12.270  13.534  69.981  1.00  0.00    -0.381 A  
HETATM   25  C   UNL     1     -11.674  14.088  68.716  1.00  0.00    -0.353 C  
HETATM   26  C   UNL     1     -12.111  12.165  70.284  1.00  0.00    -0.385 A  
HETATM   27  F   UNL     1     -12.162  13.479  67.599  1.00  0.00    -0.379 F  
HETATM   28  F   UNL     1     -10.322  13.938  68.659  1.00  0.00    -0.225 F  
HETATM   29  F   UNL     1     -11.904  15.423  68.539  1.00  0.00    -0.335 F  
ENDBRANCH  17  20
ENDBRANCH  13  14
ENDBRANCH  12  13
ENDBRANCH   9  12
TORSDOF 4
ENDMDL
MODEL       83
REMARK 921   NORMALIZED FREE ENERGY PREDICTED BY IDOCK:   -6.06 KCAL/MOL
REMARK 922        TOTAL FREE ENERGY PREDICTED BY IDOCK:   -8.06 KCAL/MOL
REMARK 923 INTER-LIGAND FREE ENERGY PREDICTED BY IDOCK:   -7.34 KCAL/MOL
REMARK 924 INTRA-LIGAND FREE ENERGY PREDICTED BY IDOCK:   -0.72 KCAL/MOL
REMARK 927      BINDING AFFINITY PREDICTED BY RF-SCORE:    0.00 PKD
ROOT
HETATM    1  C   UNL     1     -12.308  14.281  71.586  1.00  0.00    -0.392 C  
HETATM    2  C   UNL     1     -12.429  14.054  73.115  1.00  0.00     0.105 C  
HETATM    3  C   UNL     1     -12.833  15.421  73.694  1.00  0.00    -0.685 C  
HETATM    4  C   UNL     1     -12.245  16.449  72.718  1.00  0.00    -0.516 C  
HETATM    5  C   UNL     1     -11.404  15.578  71.806  1.00  0.00    -0.463 C  
HETATM    6  C   UNL     1     -11.079  16.025  70.446  1.00  0.00    -0.364 A  
HETATM    7  N   UNL     1      -9.999  16.431  69.825  1.00  0.00    -0.087 NA 
HETATM    8  N   UNL     1     -10.140  16.043  68.492  1.00  0.00    -0.228 NA 
HETATM    9  C   UNL     1     -11.254  15.356  68.377  1.00  0.00    -0.315 A  
HETATM   10  C   UNL     1     -12.951  14.686  70.208  1.00  0.00    -0.120 C  
HETATM   11  N   UNL     1     -11.912  15.443  69.553  1.00  0.00    -0.337 NA 
ENDROOT
BRANCH   9  12
HETATM   12  C   UNL     1     -11.757  14.588  67.211  1.00  0.00    -0.429 C  
BRANCH  12  13
HETATM   13  C   UNL     1     -10.908  13.328  66.941  1.00  0.00    -0.276 C  
BRANCH  13  14
HETATM   14  N   UNL     1     -10.455  12.686  68.194  1.00  0.00    -0.224 NA 
HETATM   15  C   UNL     1     -11.478  11.788  68.789  1.00  0.00    -0.291 C  
HETATM   16  C   UNL     1     -11.713  10.475  68.012  1.00  0.00     0.169 C  
HETATM   17  N   UNL     1     -10.444   9.739  67.912  1.00  0.00    -0.224 NA 
HETATM   18  C   UNL     1      -9.211  11.898  67.994  1.00  0.00    -0.190 C  
HETATM   19  C   UNL     1      -9.358  10.518  67.293  1.00  0.00    -0.146 C  
BRANCH  17  20
HETATM   20  C   UNL     1     -10.330   8.406  68.257  1.00  0.00    -0.199 A  
HETATM   21  C   UNL     1     -10.174   8.000  69.593  1.00  0.00    -0.208 A  
HETATM   22  C   UNL     1     -10.032   6.655  69.961  1.00  0.00    -0.189 A  
HETATM   23  C   UNL     1     -10.039   5.669  68.985  1.00  0.00    -0.259 A  
HETATM   24  C   UNL     1     -10.180   6.023  67.640  1.00  0.00    -0.221 A  
HETATM   25  C   UNL     1     -10.163   4.982  66.554  1.00  0.00    -0.271 C  
HETATM   26  C   UNL     1     -10.336   7.383  67.298  1.00  0.00    -0.356 A  
HETATM   27  F   UNL     1      -9.157   5.179  65.657  1.00  0.00    -0.143 F  
HETATM   28  F   UNL     1     -11.312   4.962  65.824  1.00  0.00    -0.254 F  
HETATM   29  F   UNL     1      -9.999   3.708  67.018  1.00  0.00    -0.227 F  
ENDBRANCH  17  20
ENDBRANCH  13  14
ENDBRANCH  12  13
ENDBRANCH   9  12
TORSDOF 4
ENDMDL
MODEL       84
REMARK 921   NORMALIZED FREE ENERGY PREDICTED BY IDOCK:   -6.04 KCAL/MOL
REMARK 922        TOTAL FREE ENERGY PREDICTED BY IDOCK:   -8.04 KCAL/MOL
REMARK 923 INTER-LIGAND FREE ENERGY PREDICTED BY IDOCK:   -7.55 KCAL/MOL
REMARK 924 INTRA-LIGAND FREE ENERGY PREDICTED BY IDOCK:   -0.49 KCAL/MOL
REMARK 927      BINDING AFFINITY PREDICTED BY RF-SCORE:    0.00 PKD
ROOT
HETATM    1  C   UNL     1     -10.147  17.996  68.252  1.00  0.00    -0.390 C  
HETATM    2  C   UNL     1      -9.720  19.422  68.687  1.00  0.00    -0.504 C  
HETATM    3  C   UNL     1      -9.398  20.162  67.377  1.00  0.00    -0.513 C  
HETATM    4  C   UNL     1      -8.948  19.063  66.405  1.00  0.00    -0.331 C  
HETATM    5  C   UNL     1      -8.866  17.851  67.311  1.00  0.00    -0.243 C  
HETATM    6  C   UNL     1      -8.981  16.498  66.753  1.00  0.00    -0.234 A  
HETATM    7  N   UNL     1      -8.168  15.489  66.565  1.00  0.00    -0.210 NA 
HETATM    8  N   UNL     1      -8.940  14.332  66.672  1.00  0.00    -0.225 NA 
HETATM    9  C   UNL     1     -10.165  14.682  66.993  1.00  0.00    -0.261 A  
HETATM   10  C   UNL     1     -11.117  17.040  67.461  1.00  0.00    -0.004 C  
HETATM   11  N   UNL     1     -10.238  16.029  66.924  1.00  0.00    -0.274 NA 
ENDROOT
BRANCH   9  12
HETATM   12  C   UNL     1     -11.306  13.818  67.387  1.00  0.00    -0.348 C  
BRANCH  12  13
HETATM   13  C   UNL     1     -10.863  12.662  68.307  1.00  0.00    -0.239 C  
BRANCH  13  14
HETATM   14  N   UNL     1     -11.834  11.547  68.302  1.00  0.00    -0.542 NA 
HETATM   15  C   UNL     1     -11.384  10.389  67.488  1.00  0.00    -0.031 C  
HETATM   16  C   UNL     1     -10.218   9.584  68.102  1.00  0.00    -0.193 C  
HETATM   17  N   UNL     1     -10.614   9.097  69.431  1.00  0.00    -0.225 NA 
HETATM   18  C   UNL     1     -12.124  11.059  69.676  1.00  0.00    -0.340 C  
HETATM   19  C   UNL     1     -11.042  10.167  70.348  1.00  0.00    -0.324 C  
BRANCH  17  20
HETATM   20  C   UNL     1     -10.477   7.775  69.808  1.00  0.00    -0.233 A  
HETATM   21  C   UNL     1     -10.667   7.362  71.139  1.00  0.00    -0.246 A  
HETATM   22  C   UNL     1     -10.508   6.031  71.546  1.00  0.00    -0.278 A  
HETATM   23  C   UNL     1     -10.148   5.064  70.618  1.00  0.00    -0.313 A  
HETATM   24  C   UNL     1      -9.936   5.426  69.284  1.00  0.00    -0.277 A  
HETATM   25  C   UNL     1      -9.516   4.409  68.258  1.00  0.00    -0.153 C  
HETATM   26  C   UNL     1     -10.117   6.771  68.897  1.00  0.00    -0.170 A  
HETATM   27  F   UNL     1      -8.321   4.714  67.679  1.00  0.00    -0.102 F  
HETATM   28  F   UNL     1     -10.405   4.295  67.233  1.00  0.00    -0.170 F  
HETATM   29  F   UNL     1      -9.371   3.148  68.762  1.00  0.00    -0.180 F  
ENDBRANCH  17  20
ENDBRANCH  13  14
ENDBRANCH  12  13
ENDBRANCH   9  12
TORSDOF 4
ENDMDL
MODEL       85
REMARK 921   NORMALIZED FREE ENERGY PREDICTED BY IDOCK:   -6.03 KCAL/MOL
REMARK 922        TOTAL FREE ENERGY PREDICTED BY IDOCK:   -8.03 KCAL/MOL
REMARK 923 INTER-LIGAND FREE ENERGY PREDICTED BY IDOCK:   -7.52 KCAL/MOL
REMARK 924 INTRA-LIGAND FREE ENERGY PREDICTED BY IDOCK:   -0.50 KCAL/MOL
REMARK 927      BINDING AFFINITY PREDICTED BY RF-SCORE:    0.00 PKD
ROOT
HETATM    1  C   UNL     1     -10.218   5.204  73.292  1.00  0.00    -0.217 C  
HETATM    2  C   UNL     1     -10.094   3.894  74.111  1.00  0.00    -0.206 C  
HETATM    3  C   UNL     1      -8.811   3.218  73.597  1.00  0.00    -0.076 C  
HETATM    4  C   UNL     1      -8.670   3.695  72.146  1.00  0.00    -0.113 C  
HETATM    5  C   UNL     1      -9.981   4.422  71.921  1.00  0.00    -0.258 C  
HETATM    6  C   UNL     1     -10.086   5.463  70.890  1.00  0.00    -0.219 A  
HETATM    7  N   UNL     1     -10.679   5.575  69.728  1.00  0.00    -0.324 NA 
HETATM    8  N   UNL     1     -11.000   6.924  69.576  1.00  0.00    -0.256 NA 
HETATM    9  C   UNL     1     -10.660   7.556  70.676  1.00  0.00    -0.224 A  
HETATM   10  C   UNL     1      -9.644   6.604  72.855  1.00  0.00    -0.149 C  
HETATM   11  N   UNL     1      -9.976   6.687  71.452  1.00  0.00    -0.183 NA 
ENDROOT
BRANCH   9  12
HETATM   12  C   UNL     1     -10.950   8.957  71.072  1.00  0.00    -0.341 C  
BRANCH  12  13
HETATM   13  C   UNL     1     -10.436   9.969  70.027  1.00  0.00    -0.287 C  
BRANCH  13  14
HETATM   14  N   UNL     1     -11.445  10.250  68.984  1.00  0.00    -0.184 NA 
HETATM   15  C   UNL     1     -12.149  11.542  69.190  1.00  0.00    -0.263 C  
HETATM   16  C   UNL     1     -11.288  12.795  68.921  1.00  0.00    -0.296 C  
HETATM   17  N   UNL     1     -10.786  12.749  67.540  1.00  0.00    -0.227 NA 
HETATM   18  C   UNL     1     -10.847  10.263  67.624  1.00  0.00    -0.307 C  
HETATM   19  C   UNL     1     -10.028  11.524  67.228  1.00  0.00    -0.191 C  
BRANCH  17  20
HETATM   20  C   UNL     1     -10.915  13.812  66.668  1.00  0.00    -0.296 A  
HETATM   21  C   UNL     1     -11.380  13.637  65.353  1.00  0.00    -0.311 A  
HETATM   22  C   UNL     1     -11.495  14.699  64.445  1.00  0.00    -0.272 A  
HETATM   23  C   UNL     1     -11.140  15.982  64.836  1.00  0.00    -0.381 A  
HETATM   24  C   UNL     1     -10.660  16.206  66.130  1.00  0.00    -0.288 A  
HETATM   25  C   UNL     1     -10.238  17.579  66.579  1.00  0.00    -0.342 C  
HETATM   26  C   UNL     1     -10.568  15.122  67.030  1.00  0.00    -0.300 A  
HETATM   27  F   UNL     1      -8.933  17.624  66.964  1.00  0.00    -0.229 F  
HETATM   28  F   UNL     1     -10.956  18.030  67.644  1.00  0.00    -0.407 F  
HETATM   29  F   UNL     1     -10.371  18.536  65.613  1.00  0.00    -0.379 F  
ENDBRANCH  17  20
ENDBRANCH  13  14
ENDBRANCH  12  13
ENDBRANCH   9  12
TORSDOF 4
ENDMDL
MODEL       86
REMARK 921   NORMALIZED FREE ENERGY PREDICTED BY IDOCK:   -6.03 KCAL/MOL
REMARK 922        TOTAL FREE ENERGY PREDICTED BY IDOCK:   -8.03 KCAL/MOL
REMARK 923 INTER-LIGAND FREE ENERGY PREDICTED BY IDOCK:   -7.41 KCAL/MOL
REMARK 924 INTRA-LIGAND FREE ENERGY PREDICTED BY IDOCK:   -0.62 KCAL/MOL
REMARK 927      BINDING AFFINITY PREDICTED BY RF-SCORE:    0.00 PKD
ROOT
HETATM    1  C   UNL     1     -11.629  12.654  64.551  1.00  0.00    -0.399 C  
HETATM    2  C   UNL     1     -12.256  13.822  63.748  1.00  0.00    -0.364 C  
HETATM    3  C   UNL     1     -11.727  15.101  64.421  1.00  0.00    -0.301 C  
HETATM    4  C   UNL     1     -11.476  14.702  65.881  1.00  0.00    -0.338 C  
HETATM    5  C   UNL     1     -12.073  13.309  65.937  1.00  0.00    -0.493 C  
HETATM    6  C   UNL     1     -11.621  12.348  66.951  1.00  0.00    -0.370 A  
HETATM    7  N   UNL     1     -12.136  11.808  68.026  1.00  0.00    -0.542 NA 
HETATM    8  N   UNL     1     -11.569  10.539  68.143  1.00  0.00    -0.409 NA 
HETATM    9  C   UNL     1     -10.797  10.334  67.099  1.00  0.00    -0.212 A  
HETATM   10  C   UNL     1     -10.364  11.871  65.067  1.00  0.00    -0.289 C  
HETATM   11  N   UNL     1     -10.719  11.495  66.414  1.00  0.00    -0.264 NA 
ENDROOT
BRANCH   9  12
HETATM   12  C   UNL     1     -10.117   9.085  66.677  1.00  0.00    -0.355 C  
BRANCH  12  13
HETATM   13  C   UNL     1      -8.864   8.794  67.529  1.00  0.00    -0.134 C  
BRANCH  13  14
HETATM   14  N   UNL     1      -8.760   7.366  67.894  1.00  0.00    -0.124 NA 
HETATM   15  C   UNL     1      -7.830   7.121  69.025  1.00  0.00    -0.114 C  
HETATM   16  C   UNL     1      -8.346   7.599  70.399  1.00  0.00    -0.124 C  
HETATM   17  N   UNL     1      -9.625   6.937  70.692  1.00  0.00    -0.169 NA 
HETATM   18  C   UNL     1     -10.082   6.787  68.252  1.00  0.00    -0.161 C  
HETATM   19  C   UNL     1     -10.649   7.146  69.654  1.00  0.00    -0.234 C  
BRANCH  17  20
HETATM   20  C   UNL     1      -9.867   6.287  71.887  1.00  0.00    -0.155 A  
HETATM   21  C   UNL     1     -10.039   6.992  73.091  1.00  0.00    -0.260 A  
HETATM   22  C   UNL     1     -10.262   6.350  74.317  1.00  0.00    -0.362 A  
HETATM   23  C   UNL     1     -10.315   4.965  74.369  1.00  0.00    -0.325 A  
HETATM   24  C   UNL     1     -10.139   4.218  73.201  1.00  0.00    -0.203 A  
HETATM   25  C   UNL     1     -10.162   2.713  73.227  1.00  0.00    -0.127 C  
HETATM   26  C   UNL     1      -9.931   4.889  71.977  1.00  0.00    -0.245 A  
HETATM   27  F   UNL     1      -8.997   2.165  72.783  1.00  0.00    -0.065 F  
HETATM   28  F   UNL     1     -11.143   2.187  72.443  1.00  0.00    -0.133 F  
HETATM   29  F   UNL     1     -10.365   2.189  74.472  1.00  0.00    -0.139 F  
ENDBRANCH  17  20
ENDBRANCH  13  14
ENDBRANCH  12  13
ENDBRANCH   9  12
TORSDOF 4
ENDMDL
MODEL       87
REMARK 921   NORMALIZED FREE ENERGY PREDICTED BY IDOCK:   -6.01 KCAL/MOL
REMARK 922        TOTAL FREE ENERGY PREDICTED BY IDOCK:   -8.00 KCAL/MOL
REMARK 923 INTER-LIGAND FREE ENERGY PREDICTED BY IDOCK:   -7.38 KCAL/MOL
REMARK 924 INTRA-LIGAND FREE ENERGY PREDICTED BY IDOCK:   -0.62 KCAL/MOL
REMARK 927      BINDING AFFINITY PREDICTED BY RF-SCORE:    0.00 PKD
ROOT
HETATM    1  C   UNL     1      -8.697   6.086  69.452  1.00  0.00    -0.121 C  
HETATM    2  C   UNL     1      -7.771   6.495  68.278  1.00  0.00    -0.105 C  
HETATM    3  C   UNL     1      -6.779   5.329  68.125  1.00  0.00    -0.055 C  
HETATM    4  C   UNL     1      -6.671   4.718  69.528  1.00  0.00    -0.044 C  
HETATM    5  C   UNL     1      -7.446   5.713  70.369  1.00  0.00    -0.080 C  
HETATM    6  C   UNL     1      -8.045   5.299  71.644  1.00  0.00    -0.116 A  
HETATM    7  N   UNL     1      -7.811   5.537  72.910  1.00  0.00    -0.098 NA 
HETATM    8  N   UNL     1      -9.044   5.470  73.560  1.00  0.00    -0.128 NA 
HETATM    9  C   UNL     1      -9.977   5.272  72.656  1.00  0.00    -0.163 A  
HETATM   10  C   UNL     1      -9.745   5.097  70.087  1.00  0.00    -0.204 C  
HETATM   11  N   UNL     1      -9.361   5.038  71.477  1.00  0.00    -0.145 NA 
ENDROOT
BRANCH   9  12
HETATM   12  C   UNL     1     -11.452   5.301  72.820  1.00  0.00    -0.317 C  
BRANCH  12  13
HETATM   13  C   UNL     1     -12.095   6.468  72.041  1.00  0.00    -0.312 C  
BRANCH  13  14
HETATM   14  N   UNL     1     -11.762   7.780  72.634  1.00  0.00    -0.339 NA 
HETATM   15  C   UNL     1     -10.640   8.463  71.941  1.00  0.00    -0.300 C  
HETATM   16  C   UNL     1     -10.984   9.004  70.537  1.00  0.00    -0.252 C  
HETATM   17  N   UNL     1     -12.110   9.943  70.643  1.00  0.00    -0.273 NA 
HETATM   18  C   UNL     1     -12.930   8.700  72.636  1.00  0.00    -0.202 C  
HETATM   19  C   UNL     1     -13.305   9.362  71.280  1.00  0.00    -0.287 C  
BRANCH  17  20
HETATM   20  C   UNL     1     -12.078  11.207  70.086  1.00  0.00    -0.362 A  
HETATM   21  C   UNL     1     -11.704  11.416  68.747  1.00  0.00    -0.404 A  
HETATM   22  C   UNL     1     -11.642  12.692  68.171  1.00  0.00    -0.386 A  
HETATM   23  C   UNL     1     -11.954  13.808  68.933  1.00  0.00    -0.394 A  
HETATM   24  C   UNL     1     -12.321  13.654  70.273  1.00  0.00    -0.392 A  
HETATM   25  C   UNL     1     -12.639  14.845  71.136  1.00  0.00    -0.335 C  
HETATM   26  C   UNL     1     -12.391  12.357  70.825  1.00  0.00    -0.377 A  
HETATM   27  F   UNL     1     -11.817  14.940  72.219  1.00  0.00    -0.398 F  
HETATM   28  F   UNL     1     -13.906  14.815  71.633  1.00  0.00    -0.386 F  
HETATM   29  F   UNL     1     -12.528  16.041  70.484  1.00  0.00    -0.401 F  
ENDBRANCH  17  20
ENDBRANCH  13  14
ENDBRANCH  12  13
ENDBRANCH   9  12
TORSDOF 4
ENDMDL
MODEL       88
REMARK 921   NORMALIZED FREE ENERGY PREDICTED BY IDOCK:   -6.00 KCAL/MOL
REMARK 922        TOTAL FREE ENERGY PREDICTED BY IDOCK:   -7.99 KCAL/MOL
REMARK 923 INTER-LIGAND FREE ENERGY PREDICTED BY IDOCK:   -7.44 KCAL/MOL
REMARK 924 INTRA-LIGAND FREE ENERGY PREDICTED BY IDOCK:   -0.55 KCAL/MOL
REMARK 927      BINDING AFFINITY PREDICTED BY RF-SCORE:    0.00 PKD
ROOT
HETATM    1  C   UNL     1     -10.424  18.468  66.597  1.00  0.00    -0.436 C  
HETATM    2  C   UNL     1     -10.095  19.983  66.615  1.00  0.00    -0.607 C  
HETATM    3  C   UNL     1      -8.810  20.105  67.452  1.00  0.00    -0.440 C  
HETATM    4  C   UNL     1      -8.859  18.918  68.423  1.00  0.00    -0.379 C  
HETATM    5  C   UNL     1     -10.249  18.365  68.180  1.00  0.00    -0.410 C  
HETATM    6  C   UNL     1     -10.554  16.962  68.486  1.00  0.00    -0.367 A  
HETATM    7  N   UNL     1     -11.266  16.332  69.386  1.00  0.00    -0.326 NA 
HETATM    8  N   UNL     1     -11.728  15.164  68.779  1.00  0.00    -0.343 NA 
HETATM    9  C   UNL     1     -11.344  15.172  67.522  1.00  0.00    -0.320 A  
HETATM   10  C   UNL     1     -10.033  16.987  66.231  1.00  0.00    -0.310 C  
HETATM   11  N   UNL     1     -10.508  16.219  67.357  1.00  0.00    -0.301 NA 
ENDROOT
BRANCH   9  12
HETATM   12  C   UNL     1     -11.727  14.247  66.426  1.00  0.00    -0.403 C  
BRANCH  12  13
HETATM   13  C   UNL     1     -11.789  12.781  66.905  1.00  0.00    -0.371 C  
BRANCH  13  14
HETATM   14  N   UNL     1     -10.443  12.187  67.047  1.00  0.00    -0.218 NA 
HETATM   15  C   UNL     1     -10.034  12.007  68.464  1.00  0.00    -0.184 C  
HETATM   16  C   UNL     1     -10.784  10.885  69.213  1.00  0.00    -0.231 C  
HETATM   17  N   UNL     1     -10.587   9.613  68.502  1.00  0.00    -0.219 NA 
HETATM   18  C   UNL     1     -10.344  10.869  66.368  1.00  0.00    -0.251 C  
HETATM   19  C   UNL     1     -11.000   9.656  67.089  1.00  0.00     0.004 C  
BRANCH  17  20
HETATM   20  C   UNL     1     -10.167   8.463  69.142  1.00  0.00    -0.211 A  
HETATM   21  C   UNL     1     -11.034   7.708  69.951  1.00  0.00    -0.208 A  
HETATM   22  C   UNL     1     -10.621   6.553  70.628  1.00  0.00    -0.280 A  
HETATM   23  C   UNL     1      -9.309   6.118  70.512  1.00  0.00    -0.173 A  
HETATM   24  C   UNL     1      -8.404   6.841  69.729  1.00  0.00    -0.132 A  
HETATM   25  C   UNL     1      -6.966   6.414  69.605  1.00  0.00    -0.071 C  
HETATM   26  C   UNL     1      -8.849   7.993  69.045  1.00  0.00    -0.145 A  
HETATM   27  F   UNL     1      -6.099   7.370  70.040  1.00  0.00    -0.026 F  
HETATM   28  F   UNL     1      -6.605   6.142  68.321  1.00  0.00    -0.047 F  
HETATM   29  F   UNL     1      -6.664   5.290  70.319  1.00  0.00    -0.039 F  
ENDBRANCH  17  20
ENDBRANCH  13  14
ENDBRANCH  12  13
ENDBRANCH   9  12
TORSDOF 4
ENDMDL
MODEL       89
REMARK 921   NORMALIZED FREE ENERGY PREDICTED BY IDOCK:   -5.98 KCAL/MOL
REMARK 922        TOTAL FREE ENERGY PREDICTED BY IDOCK:   -7.96 KCAL/MOL
REMARK 923 INTER-LIGAND FREE ENERGY PREDICTED BY IDOCK:   -7.48 KCAL/MOL
REMARK 924 INTRA-LIGAND FREE ENERGY PREDICTED BY IDOCK:   -0.48 KCAL/MOL
REMARK 927      BINDING AFFINITY PREDICTED BY RF-SCORE:    0.00 PKD
ROOT
HETATM    1  C   UNL     1     -11.737   8.379  70.997  1.00  0.00    -0.296 C  
HETATM    2  C   UNL     1     -11.861   7.093  71.855  1.00  0.00    -0.336 C  
HETATM    3  C   UNL     1     -10.942   7.329  73.066  1.00  0.00    -0.388 C  
HETATM    4  C   UNL     1      -9.853   8.281  72.554  1.00  0.00    -0.368 C  
HETATM    5  C   UNL     1     -10.144   8.326  71.067  1.00  0.00    -0.230 C  
HETATM    6  C   UNL     1      -9.710   9.474  70.261  1.00  0.00    -0.263 A  
HETATM    7  N   UNL     1      -8.806   9.682  69.337  1.00  0.00    -0.166 NA 
HETATM    8  N   UNL     1      -9.315  10.677  68.502  1.00  0.00    -0.162 NA 
HETATM    9  C   UNL     1     -10.530  10.974  68.906  1.00  0.00    -0.204 A  
HETATM   10  C   UNL     1     -11.904   9.936  70.833  1.00  0.00    -0.356 C  
HETATM   11  N   UNL     1     -10.742  10.327  70.072  1.00  0.00    -0.289 NA 
ENDROOT
BRANCH   9  12
HETATM   12  C   UNL     1     -11.543  11.837  68.250  1.00  0.00    -0.373 C  
BRANCH  12  13
HETATM   13  C   UNL     1     -11.275  13.335  68.503  1.00  0.00    -0.271 C  
BRANCH  13  14
HETATM   14  N   UNL     1     -10.658  13.994  67.332  1.00  0.00    -0.277 NA 
HETATM   15  C   UNL     1     -10.989  15.439  67.237  1.00  0.00    -0.317 C  
HETATM   16  C   UNL     1     -10.305  16.327  68.299  1.00  0.00    -0.272 C  
HETATM   17  N   UNL     1      -8.848  16.172  68.192  1.00  0.00    -0.181 NA 
HETATM   18  C   UNL     1      -9.178  13.860  67.336  1.00  0.00    -0.224 C  
HETATM   19  C   UNL     1      -8.392  14.777  68.316  1.00  0.00    -0.148 C  
BRANCH  17  20
HETATM   20  C   UNL     1      -7.990  17.252  68.107  1.00  0.00    -0.223 A  
HETATM   21  C   UNL     1      -7.218  17.672  69.204  1.00  0.00    -0.153 A  
HETATM   22  C   UNL     1      -6.361  18.779  69.145  1.00  0.00    -0.285 A  
HETATM   23  C   UNL     1      -6.257  19.508  67.969  1.00  0.00    -0.242 A  
HETATM   24  C   UNL     1      -7.013  19.138  66.853  1.00  0.00    -0.209 A  
HETATM   25  C   UNL     1      -6.946  19.923  65.571  1.00  0.00    -0.309 C  
HETATM   26  C   UNL     1      -7.857  18.009  66.934  1.00  0.00    -0.247 A  
HETATM   27  F   UNL     1      -8.156  20.431  65.206  1.00  0.00    -0.147 F  
HETATM   28  F   UNL     1      -6.525  19.175  64.515  1.00  0.00    -0.287 F  
HETATM   29  F   UNL     1      -6.099  20.993  65.626  1.00  0.00    -0.254 F  
ENDBRANCH  17  20
ENDBRANCH  13  14
ENDBRANCH  12  13
ENDBRANCH   9  12
TORSDOF 4
ENDMDL
MODEL       90
REMARK 921   NORMALIZED FREE ENERGY PREDICTED BY IDOCK:   -5.92 KCAL/MOL
REMARK 922        TOTAL FREE ENERGY PREDICTED BY IDOCK:   -7.89 KCAL/MOL
REMARK 923 INTER-LIGAND FREE ENERGY PREDICTED BY IDOCK:   -7.28 KCAL/MOL
REMARK 924 INTRA-LIGAND FREE ENERGY PREDICTED BY IDOCK:   -0.61 KCAL/MOL
REMARK 927      BINDING AFFINITY PREDICTED BY RF-SCORE:    0.00 PKD
ROOT
HETATM    1  C   UNL     1      -8.425   4.544  71.009  1.00  0.00    -0.106 C  
HETATM    2  C   UNL     1      -7.091   3.791  70.770  1.00  0.00    -0.033 C  
HETATM    3  C   UNL     1      -7.145   2.572  71.707  1.00  0.00    -0.035 C  
HETATM    4  C   UNL     1      -8.033   3.014  72.877  1.00  0.00    -0.063 C  
HETATM    5  C   UNL     1      -8.225   4.490  72.591  1.00  0.00    -0.106 C  
HETATM    6  C   UNL     1      -9.391   5.205  73.126  1.00  0.00    -0.131 A  
HETATM    7  N   UNL     1      -9.591   6.116  74.045  1.00  0.00    -0.160 NA 
HETATM    8  N   UNL     1     -10.692   6.864  73.627  1.00  0.00    -0.333 NA 
HETATM    9  C   UNL     1     -11.062   6.429  72.444  1.00  0.00    -0.268 A  
HETATM   10  C   UNL     1      -9.999   4.581  70.982  1.00  0.00    -0.187 C  
HETATM   11  N   UNL     1     -10.345   5.317  72.175  1.00  0.00    -0.206 NA 
ENDROOT
BRANCH   9  12
HETATM   12  C   UNL     1     -12.063   7.005  71.512  1.00  0.00    -0.392 C  
BRANCH  12  13
HETATM   13  C   UNL     1     -11.398   7.831  70.391  1.00  0.00    -0.207 C  
BRANCH  13  14
HETATM   14  N   UNL     1     -10.835   9.101  70.897  1.00  0.00    -0.253 NA 
HETATM   15  C   UNL     1      -9.850   9.711  69.968  1.00  0.00    -0.246 C  
HETATM   16  C   UNL     1     -10.461  10.308  68.682  1.00  0.00    -0.193 C  
HETATM   17  N   UNL     1     -11.455  11.328  69.048  1.00  0.00    -0.271 NA 
HETATM   18  C   UNL     1     -11.894  10.107  71.170  1.00  0.00    -0.381 C  
HETATM   19  C   UNL     1     -12.515  10.826  69.939  1.00  0.00    -0.209 C  
BRANCH  17  20
HETATM   20  C   UNL     1     -11.450  12.598  68.503  1.00  0.00    -0.311 A  
HETATM   21  C   UNL     1     -11.656  13.742  69.293  1.00  0.00    -0.362 A  
HETATM   22  C   UNL     1     -11.680  15.036  68.756  1.00  0.00    -0.360 A  
HETATM   23  C   UNL     1     -11.496  15.220  67.393  1.00  0.00    -0.246 A  
HETATM   24  C   UNL     1     -11.298  14.113  66.563  1.00  0.00    -0.348 A  
HETATM   25  C   UNL     1     -11.124  14.274  65.077  1.00  0.00    -0.373 C  
HETATM   26  C   UNL     1     -11.264  12.821  67.131  1.00  0.00    -0.336 A  
HETATM   27  F   UNL     1     -12.079  13.612  64.365  1.00  0.00    -0.390 F  
HETATM   28  F   UNL     1      -9.931  13.797  64.630  1.00  0.00    -0.386 F  
HETATM   29  F   UNL     1     -11.183  15.572  64.655  1.00  0.00    -0.391 F  
ENDBRANCH  17  20
ENDBRANCH  13  14
ENDBRANCH  12  13
ENDBRANCH   9  12
TORSDOF 4
ENDMDL
MODEL       91
REMARK 921   NORMALIZED FREE ENERGY PREDICTED BY IDOCK:   -5.90 KCAL/MOL
REMARK 922        TOTAL FREE ENERGY PREDICTED BY IDOCK:   -7.87 KCAL/MOL
REMARK 923 INTER-LIGAND FREE ENERGY PREDICTED BY IDOCK:   -7.29 KCAL/MOL
REMARK 924 INTRA-LIGAND FREE ENERGY PREDICTED BY IDOCK:   -0.58 KCAL/MOL
REMARK 927      BINDING AFFINITY PREDICTED BY RF-SCORE:    0.00 PKD
ROOT
HETATM    1  C   UNL     1      -9.517   6.279  67.966  1.00  0.00    -0.116 C  
HETATM    2  C   UNL     1      -8.759   6.462  66.626  1.00  0.00    -0.127 C  
HETATM    3  C   UNL     1      -8.254   5.057  66.255  1.00  0.00    -0.108 C  
HETATM    4  C   UNL     1      -8.077   4.336  67.598  1.00  0.00    -0.095 C  
HETATM    5  C   UNL     1      -8.301   5.458  68.593  1.00  0.00    -0.093 C  
HETATM    6  C   UNL     1      -8.738   5.158  69.963  1.00  0.00    -0.107 A  
HETATM    7  N   UNL     1      -8.193   5.211  71.153  1.00  0.00    -0.114 NA 
HETATM    8  N   UNL     1      -9.226   5.489  72.049  1.00  0.00    -0.141 NA 
HETATM    9  C   UNL     1     -10.331   5.669  71.362  1.00  0.00    -0.228 A  
HETATM   10  C   UNL     1     -10.683   5.629  68.801  1.00  0.00    -0.197 C  
HETATM   11  N   UNL     1     -10.072   5.343  70.077  1.00  0.00    -0.231 NA 
ENDROOT
BRANCH   9  12
HETATM   12  C   UNL     1     -11.652   6.152  71.835  1.00  0.00    -0.352 C  
BRANCH  12  13
HETATM   13  C   UNL     1     -12.121   7.401  71.059  1.00  0.00    -0.298 C  
BRANCH  13  14
HETATM   14  N   UNL     1     -11.336   8.602  71.416  1.00  0.00    -0.266 NA 
HETATM   15  C   UNL     1     -10.421   9.041  70.332  1.00  0.00    -0.213 C  
HETATM   16  C   UNL     1     -11.124   9.667  69.109  1.00  0.00    -0.092 C  
HETATM   17  N   UNL     1     -11.919  10.823  69.547  1.00  0.00    -0.305 NA 
HETATM   18  C   UNL     1     -12.210   9.750  71.773  1.00  0.00    -0.367 C  
HETATM   19  C   UNL     1     -12.900  10.500  70.598  1.00  0.00    -0.325 C  
BRANCH  17  20
HETATM   20  C   UNL     1     -11.828  12.060  68.939  1.00  0.00    -0.299 A  
HETATM   21  C   UNL     1     -11.707  12.191  67.544  1.00  0.00    -0.385 A  
HETATM   22  C   UNL     1     -11.589  13.435  66.911  1.00  0.00    -0.404 A  
HETATM   23  C   UNL     1     -11.588  14.597  67.668  1.00  0.00    -0.383 A  
HETATM   24  C   UNL     1     -11.695  14.520  69.060  1.00  0.00    -0.346 A  
HETATM   25  C   UNL     1     -11.667  15.758  69.914  1.00  0.00    -0.357 C  
HETATM   26  C   UNL     1     -11.827  13.255  69.673  1.00  0.00    -0.391 A  
HETATM   27  F   UNL     1     -10.640  15.753  70.808  1.00  0.00    -0.318 F  
HETATM   28  F   UNL     1     -12.800  15.916  70.652  1.00  0.00    -0.472 F  
HETATM   29  F   UNL     1     -11.529  16.914  69.200  1.00  0.00    -0.157 F  
ENDBRANCH  17  20
ENDBRANCH  13  14
ENDBRANCH  12  13
ENDBRANCH   9  12
TORSDOF 4
ENDMDL
MODEL       92
REMARK 921   NORMALIZED FREE ENERGY PREDICTED BY IDOCK:   -5.86 KCAL/MOL
REMARK 922        TOTAL FREE ENERGY PREDICTED BY IDOCK:   -7.82 KCAL/MOL
REMARK 923 INTER-LIGAND FREE ENERGY PREDICTED BY IDOCK:   -7.26 KCAL/MOL
REMARK 924 INTRA-LIGAND FREE ENERGY PREDICTED BY IDOCK:   -0.56 KCAL/MOL
REMARK 927      BINDING AFFINITY PREDICTED BY RF-SCORE:    0.00 PKD
ROOT
HETATM    1  C   UNL     1      -9.149   3.446  72.804  1.00  0.00    -0.113 C  
HETATM    2  C   UNL     1      -8.961   2.476  73.999  1.00  0.00    -0.078 C  
HETATM    3  C   UNL     1     -10.328   1.793  74.181  1.00  0.00    -0.158 C  
HETATM    4  C   UNL     1     -11.350   2.816  73.667  1.00  0.00    -0.270 C  
HETATM    5  C   UNL     1     -10.487   4.041  73.439  1.00  0.00    -0.251 C  
HETATM    6  C   UNL     1     -10.907   5.078  72.488  1.00  0.00    -0.196 A  
HETATM    7  N   UNL     1     -11.336   6.312  72.575  1.00  0.00    -0.276 NA 
HETATM    8  N   UNL     1     -10.905   6.964  71.420  1.00  0.00    -0.226 NA 
HETATM    9  C   UNL     1     -10.172   6.127  70.722  1.00  0.00    -0.198 A  
HETATM   10  C   UNL     1      -9.488   3.699  71.287  1.00  0.00    -0.161 C  
HETATM   11  N   UNL     1     -10.267   4.914  71.308  1.00  0.00    -0.196 NA 
ENDROOT
BRANCH   9  12
HETATM   12  C   UNL     1      -9.351   6.393  69.514  1.00  0.00    -0.146 C  
BRANCH  12  13
HETATM   13  C   UNL     1      -8.662   7.771  69.578  1.00  0.00    -0.135 C  
BRANCH  13  14
HETATM   14  N   UNL     1      -8.392   8.319  68.232  1.00  0.00    -0.131 NA 
HETATM   15  C   UNL     1      -9.606   8.388  67.378  1.00  0.00    -0.157 C  
HETATM   16  C   UNL     1     -10.623   9.473  67.791  1.00  0.00    -0.261 C  
HETATM   17  N   UNL     1      -9.963  10.786  67.774  1.00  0.00    -0.169 NA 
HETATM   18  C   UNL     1      -7.797   9.679  68.296  1.00  0.00    -0.085 C  
HETATM   19  C   UNL     1      -8.762  10.854  68.624  1.00  0.00    -0.154 C  
BRANCH  17  20
HETATM   20  C   UNL     1     -10.497  11.877  67.116  1.00  0.00    -0.221 A  
HETATM   21  C   UNL     1     -10.670  13.116  67.757  1.00  0.00    -0.252 A  
HETATM   22  C   UNL     1     -11.232  14.227  67.114  1.00  0.00    -0.333 A  
HETATM   23  C   UNL     1     -11.645  14.123  65.794  1.00  0.00    -0.343 A  
HETATM   24  C   UNL     1     -11.505  12.909  65.115  1.00  0.00    -0.348 A  
HETATM   25  C   UNL     1     -11.968  12.753  63.692  1.00  0.00    -0.539 C  
HETATM   26  C   UNL     1     -10.922  11.809  65.781  1.00  0.00    -0.353 A  
HETATM   27  F   UNL     1     -12.918  11.786  63.555  1.00  0.00    -0.645 F  
HETATM   28  F   UNL     1     -10.962  12.407  62.844  1.00  0.00    -0.387 F  
HETATM   29  F   UNL     1     -12.519  13.887  63.167  1.00  0.00    -0.476 F  
ENDBRANCH  17  20
ENDBRANCH  13  14
ENDBRANCH  12  13
ENDBRANCH   9  12
TORSDOF 4
ENDMDL
MODEL       93
REMARK 921   NORMALIZED FREE ENERGY PREDICTED BY IDOCK:   -5.86 KCAL/MOL
REMARK 922        TOTAL FREE ENERGY PREDICTED BY IDOCK:   -7.82 KCAL/MOL
REMARK 923 INTER-LIGAND FREE ENERGY PREDICTED BY IDOCK:   -7.16 KCAL/MOL
REMARK 924 INTRA-LIGAND FREE ENERGY PREDICTED BY IDOCK:   -0.65 KCAL/MOL
REMARK 927      BINDING AFFINITY PREDICTED BY RF-SCORE:    0.00 PKD
ROOT
HETATM    1  C   UNL     1      -7.570   8.098  67.751  1.00  0.00    -0.098 C  
HETATM    2  C   UNL     1      -6.449   7.192  68.321  1.00  0.00    -0.044 C  
HETATM    3  C   UNL     1      -5.158   8.017  68.183  1.00  0.00    -0.032 C  
HETATM    4  C   UNL     1      -5.405   8.937  66.980  1.00  0.00    -0.040 C  
HETATM    5  C   UNL     1      -6.717   8.405  66.438  1.00  0.00    -0.066 C  
HETATM    6  C   UNL     1      -7.592   9.267  65.633  1.00  0.00    -0.094 A  
HETATM    7  N   UNL     1      -7.950   9.327  64.375  1.00  0.00    -0.126 NA 
HETATM    8  N   UNL     1      -9.246   9.843  64.356  1.00  0.00    -0.254 NA 
HETATM    9  C   UNL     1      -9.645  10.002  65.598  1.00  0.00    -0.252 A  
HETATM   10  C   UNL     1      -8.406   9.432  67.794  1.00  0.00    -0.115 C  
HETATM   11  N   UNL     1      -8.586   9.768  66.401  1.00  0.00    -0.123 NA 
ENDROOT
BRANCH   9  12
HETATM   12  C   UNL     1     -10.996  10.355  66.102  1.00  0.00     0.125 C  
BRANCH  12  13
HETATM   13  C   UNL     1     -11.630  11.507  65.295  1.00  0.00     0.071 C  
BRANCH  13  14
HETATM   14  N   UNL     1     -12.014  12.643  66.158  1.00  0.00    -0.521 NA 
HETATM   15  C   UNL     1     -10.987  12.971  67.179  1.00  0.00    -0.269 C  
HETATM   16  C   UNL     1      -9.705  13.623  66.617  1.00  0.00    -0.284 C  
HETATM   17  N   UNL     1     -10.063  14.855  65.901  1.00  0.00    -0.305 NA 
HETATM   18  C   UNL     1     -12.286  13.872  65.368  1.00  0.00    -0.444 C  
HETATM   19  C   UNL     1     -11.051  14.648  64.827  1.00  0.00    -0.384 C  
BRANCH  17  20
HETATM   20  C   UNL     1      -9.437  16.063  66.142  1.00  0.00    -0.336 A  
HETATM   21  C   UNL     1      -8.049  16.146  66.352  1.00  0.00    -0.305 A  
HETATM   22  C   UNL     1      -7.398  17.358  66.622  1.00  0.00    -0.282 A  
HETATM   23  C   UNL     1      -8.132  18.534  66.692  1.00  0.00    -0.280 A  
HETATM   24  C   UNL     1      -9.516  18.501  66.501  1.00  0.00    -0.322 A  
HETATM   25  C   UNL     1     -10.346  19.753  66.598  1.00  0.00    -0.496 C  
HETATM   26  C   UNL     1     -10.145  17.271  66.216  1.00  0.00    -0.323 A  
HETATM   27  F   UNL     1     -11.297  19.675  67.570  1.00  0.00    -0.489 F  
HETATM   28  F   UNL     1     -11.014  20.034  65.447  1.00  0.00    -0.557 F  
HETATM   29  F   UNL     1      -9.618  20.873  66.885  1.00  0.00    -0.519 F  
ENDBRANCH  17  20
ENDBRANCH  13  14
ENDBRANCH  12  13
ENDBRANCH   9  12
TORSDOF 4
ENDMDL
MODEL       94
REMARK 921   NORMALIZED FREE ENERGY PREDICTED BY IDOCK:   -5.86 KCAL/MOL
REMARK 922        TOTAL FREE ENERGY PREDICTED BY IDOCK:   -7.81 KCAL/MOL
REMARK 923 INTER-LIGAND FREE ENERGY PREDICTED BY IDOCK:   -7.29 KCAL/MOL
REMARK 924 INTRA-LIGAND FREE ENERGY PREDICTED BY IDOCK:   -0.52 KCAL/MOL
REMARK 927      BINDING AFFINITY PREDICTED BY RF-SCORE:    0.00 PKD
ROOT
HETATM    1  C   UNL     1     -11.712   7.441  71.853  1.00  0.00    -0.323 C  
HETATM    2  C   UNL     1     -11.468   5.946  72.185  1.00  0.00    -0.333 C  
HETATM    3  C   UNL     1      -9.983   5.859  72.576  1.00  0.00    -0.198 C  
HETATM    4  C   UNL     1      -9.306   7.001  71.808  1.00  0.00    -0.150 C  
HETATM    5  C   UNL     1     -10.426   7.487  70.909  1.00  0.00    -0.218 C  
HETATM    6  C   UNL     1     -10.413   8.859  70.385  1.00  0.00    -0.210 A  
HETATM    7  N   UNL     1     -10.232   9.413  69.212  1.00  0.00    -0.194 NA 
HETATM    8  N   UNL     1     -10.999  10.578  69.202  1.00  0.00    -0.223 NA 
HETATM    9  C   UNL     1     -11.668  10.642  70.331  1.00  0.00    -0.353 A  
HETATM   10  C   UNL     1     -11.727   8.954  72.288  1.00  0.00    -0.280 C  
HETATM   11  N   UNL     1     -11.220   9.649  71.129  1.00  0.00    -0.360 NA 
ENDROOT
BRANCH   9  12
HETATM   12  C   UNL     1     -12.741  11.590  70.724  1.00  0.00    -0.318 C  
BRANCH  12  13
HETATM   13  C   UNL     1     -12.197  13.017  70.942  1.00  0.00    -0.220 C  
BRANCH  13  14
HETATM   14  N   UNL     1     -12.618  13.942  69.868  1.00  0.00    -0.217 NA 
HETATM   15  C   UNL     1     -12.687  15.357  70.314  1.00  0.00    -0.298 C  
HETATM   16  C   UNL     1     -11.317  16.020  70.567  1.00  0.00    -0.401 C  
HETATM   17  N   UNL     1     -10.513  15.954  69.338  1.00  0.00    -0.243 NA 
HETATM   18  C   UNL     1     -11.713  13.873  68.692  1.00  0.00    -0.361 C  
HETATM   19  C   UNL     1     -10.337  14.586  68.821  1.00  0.00    -0.243 C  
BRANCH  17  20
HETATM   20  C   UNL     1      -9.888  17.062  68.799  1.00  0.00    -0.278 A  
HETATM   21  C   UNL     1     -10.363  18.365  69.032  1.00  0.00    -0.078 A  
HETATM   22  C   UNL     1      -9.758  19.499  68.475  1.00  0.00    -0.503 A  
HETATM   23  C   UNL     1      -8.647  19.356  67.657  1.00  0.00    -0.343 A  
HETATM   24  C   UNL     1      -8.143  18.081  67.385  1.00  0.00    -0.227 A  
HETATM   25  C   UNL     1      -6.958  17.887  66.478  1.00  0.00    -0.228 C  
HETATM   26  C   UNL     1      -8.762  16.955  67.971  1.00  0.00    -0.215 A  
HETATM   27  F   UNL     1      -7.249  17.113  65.396  1.00  0.00     0.046 F  
HETATM   28  F   UNL     1      -5.912  17.277  67.100  1.00  0.00    -0.125 F  
HETATM   29  F   UNL     1      -6.457  19.054  65.973  1.00  0.00    -0.191 F  
ENDBRANCH  17  20
ENDBRANCH  13  14
ENDBRANCH  12  13
ENDBRANCH   9  12
TORSDOF 4
ENDMDL
MODEL       95
REMARK 921   NORMALIZED FREE ENERGY PREDICTED BY IDOCK:   -5.85 KCAL/MOL
REMARK 922        TOTAL FREE ENERGY PREDICTED BY IDOCK:   -7.81 KCAL/MOL
REMARK 923 INTER-LIGAND FREE ENERGY PREDICTED BY IDOCK:   -7.06 KCAL/MOL
REMARK 924 INTRA-LIGAND FREE ENERGY PREDICTED BY IDOCK:   -0.75 KCAL/MOL
REMARK 927      BINDING AFFINITY PREDICTED BY RF-SCORE:    0.00 PKD
ROOT
HETATM    1  C   UNL     1     -12.403  13.598  70.543  1.00  0.00    -0.425 C  
HETATM    2  C   UNL     1     -13.043  13.165  71.887  1.00  0.00    -0.482 C  
HETATM    3  C   UNL     1     -14.194  14.159  72.123  1.00  0.00    -0.638 C  
HETATM    4  C   UNL     1     -13.756  15.444  71.409  1.00  0.00    -0.591 C  
HETATM    5  C   UNL     1     -12.327  15.120  71.018  1.00  0.00    -0.408 C  
HETATM    6  C   UNL     1     -11.689  15.816  69.894  1.00  0.00    -0.357 A  
HETATM    7  N   UNL     1     -10.739  16.707  69.761  1.00  0.00    -0.310 NA 
HETATM    8  N   UNL     1     -10.127  16.454  68.533  1.00  0.00    -0.238 NA 
HETATM    9  C   UNL     1     -10.677  15.381  68.012  1.00  0.00    -0.279 A  
HETATM   10  C   UNL     1     -12.515  13.851  68.993  1.00  0.00     0.123 C  
HETATM   11  N   UNL     1     -11.733  15.046  68.783  1.00  0.00    -0.333 NA 
ENDROOT
BRANCH   9  12
HETATM   12  C   UNL     1     -10.263  14.613  66.811  1.00  0.00    -0.268 C  
BRANCH  12  13
HETATM   13  C   UNL     1      -9.033  13.724  67.091  1.00  0.00    -0.235 C  
BRANCH  13  14
HETATM   14  N   UNL     1      -9.396  12.488  67.817  1.00  0.00    -0.190 NA 
HETATM   15  C   UNL     1     -10.385  11.655  67.086  1.00  0.00    -0.217 C  
HETATM   16  C   UNL     1      -9.829  10.946  65.832  1.00  0.00    -0.236 C  
HETATM   17  N   UNL     1      -8.694  10.096  66.221  1.00  0.00    -0.139 NA 
HETATM   18  C   UNL     1      -8.207  11.645  68.105  1.00  0.00    -0.151 C  
HETATM   19  C   UNL     1      -7.622  10.825  66.920  1.00  0.00    -0.123 C  
BRANCH  17  20
HETATM   20  C   UNL     1      -8.602   8.768  65.852  1.00  0.00    -0.154 A  
HETATM   21  C   UNL     1      -7.832   8.359  64.748  1.00  0.00    -0.128 A  
HETATM   22  C   UNL     1      -7.745   7.020  64.344  1.00  0.00    -0.113 A  
HETATM   23  C   UNL     1      -8.439   6.042  65.042  1.00  0.00    -0.089 A  
HETATM   24  C   UNL     1      -9.227   6.399  66.140  1.00  0.00    -0.132 A  
HETATM   25  C   UNL     1     -10.016   5.369  66.902  1.00  0.00    -0.184 C  
HETATM   26  C   UNL     1      -9.286   7.753  66.536  1.00  0.00    -0.243 A  
HETATM   27  F   UNL     1     -11.354   5.622  66.892  1.00  0.00    -0.197 F  
HETATM   28  F   UNL     1      -9.662   5.297  68.214  1.00  0.00    -0.134 F  
HETATM   29  F   UNL     1      -9.877   4.101  66.413  1.00  0.00    -0.187 F  
ENDBRANCH  17  20
ENDBRANCH  13  14
ENDBRANCH  12  13
ENDBRANCH   9  12
TORSDOF 4
ENDMDL
MODEL       96
REMARK 921   NORMALIZED FREE ENERGY PREDICTED BY IDOCK:   -5.83 KCAL/MOL
REMARK 922        TOTAL FREE ENERGY PREDICTED BY IDOCK:   -7.78 KCAL/MOL
REMARK 923 INTER-LIGAND FREE ENERGY PREDICTED BY IDOCK:   -7.12 KCAL/MOL
REMARK 924 INTRA-LIGAND FREE ENERGY PREDICTED BY IDOCK:   -0.66 KCAL/MOL
REMARK 927      BINDING AFFINITY PREDICTED BY RF-SCORE:    0.00 PKD
ROOT
HETATM    1  C   UNL     1     -10.541  18.597  67.088  1.00  0.00    -0.468 C  
HETATM    2  C   UNL     1     -10.389  19.882  67.941  1.00  0.00    -0.545 C  
HETATM    3  C   UNL     1      -9.161  20.606  67.362  1.00  0.00    -0.436 C  
HETATM    4  C   UNL     1      -8.283  19.489  66.782  1.00  0.00    -0.318 C  
HETATM    5  C   UNL     1      -8.995  18.242  67.266  1.00  0.00    -0.259 C  
HETATM    6  C   UNL     1      -8.833  16.970  66.550  1.00  0.00    -0.264 A  
HETATM    7  N   UNL     1      -8.240  15.827  66.791  1.00  0.00    -0.249 NA 
HETATM    8  N   UNL     1      -8.986  14.848  66.135  1.00  0.00    -0.171 NA 
HETATM    9  C   UNL     1     -10.035  15.423  65.592  1.00  0.00    -0.362 A  
HETATM   10  C   UNL     1     -10.773  17.898  65.696  1.00  0.00    -0.052 C  
HETATM   11  N   UNL     1      -9.889  16.758  65.733  1.00  0.00    -0.552 NA 
ENDROOT
BRANCH   9  12
HETATM   12  C   UNL     1     -11.210  14.790  64.941  1.00  0.00    -0.411 C  
BRANCH  12  13
HETATM   13  C   UNL     1     -10.809  13.562  64.098  1.00  0.00    -0.229 C  
BRANCH  13  14
HETATM   14  N   UNL     1     -11.624  12.373  64.426  1.00  0.00    -0.335 NA 
HETATM   15  C   UNL     1     -11.197  11.155  63.693  1.00  0.00     0.053 C  
HETATM   16  C   UNL     1      -9.851  10.560  64.160  1.00  0.00    -0.337 C  
HETATM   17  N   UNL     1      -9.936  10.240  65.592  1.00  0.00    -0.269 NA 
HETATM   18  C   UNL     1     -11.598  12.068  65.880  1.00  0.00    -0.300 C  
HETATM   19  C   UNL     1     -10.312  11.389  66.433  1.00  0.00    -0.242 C  
BRANCH  17  20
HETATM   20  C   UNL     1      -9.576   9.006  66.099  1.00  0.00    -0.272 A  
HETATM   21  C   UNL     1     -10.114   8.515  67.302  1.00  0.00    -0.317 A  
HETATM   22  C   UNL     1      -9.743   7.278  67.845  1.00  0.00    -0.161 A  
HETATM   23  C   UNL     1      -8.809   6.489  67.189  1.00  0.00    -0.110 A  
HETATM   24  C   UNL     1      -8.235   6.938  65.996  1.00  0.00    -0.125 A  
HETATM   25  C   UNL     1      -7.198   6.122  65.274  1.00  0.00    -0.070 C  
HETATM   26  C   UNL     1      -8.637   8.181  65.462  1.00  0.00    -0.173 A  
HETATM   27  F   UNL     1      -6.014   6.783  65.140  1.00  0.00    -0.031 F  
HETATM   28  F   UNL     1      -7.577   5.782  64.012  1.00  0.00    -0.058 F  
HETATM   29  F   UNL     1      -6.894   4.945  65.898  1.00  0.00    -0.054 F  
ENDBRANCH  17  20
ENDBRANCH  13  14
ENDBRANCH  12  13
ENDBRANCH   9  12
TORSDOF 4
ENDMDL
MODEL       97
REMARK 921   NORMALIZED FREE ENERGY PREDICTED BY IDOCK:   -5.83 KCAL/MOL
REMARK 922        TOTAL FREE ENERGY PREDICTED BY IDOCK:   -7.78 KCAL/MOL
REMARK 923 INTER-LIGAND FREE ENERGY PREDICTED BY IDOCK:   -7.75 KCAL/MOL
REMARK 924 INTRA-LIGAND FREE ENERGY PREDICTED BY IDOCK:   -0.02 KCAL/MOL
REMARK 927      BINDING AFFINITY PREDICTED BY RF-SCORE:    0.00 PKD
ROOT
HETATM    1  C   UNL     1     -11.434  13.275  65.433  1.00  0.00    -0.328 C  
HETATM    2  C   UNL     1     -12.282  11.998  65.199  1.00  0.00    -0.075 C  
HETATM    3  C   UNL     1     -12.162  11.706  63.693  1.00  0.00    -0.348 C  
HETATM    4  C   UNL     1     -11.927  13.077  63.045  1.00  0.00    -0.027 C  
HETATM    5  C   UNL     1     -12.139  14.021  64.212  1.00  0.00    -0.476 C  
HETATM    6  C   UNL     1     -11.530  15.357  64.206  1.00  0.00    -0.171 A  
HETATM    7  N   UNL     1     -11.966  16.586  64.092  1.00  0.00    -0.735 NA 
HETATM    8  N   UNL     1     -11.096  17.386  64.833  1.00  0.00    -0.810 NA 
HETATM    9  C   UNL     1     -10.220  16.605  65.424  1.00  0.00    -0.111 A  
HETATM   10  C   UNL     1     -10.051  14.026  65.388  1.00  0.00    -0.319 C  
HETATM   11  N   UNL     1     -10.397  15.355  64.945  1.00  0.00    -0.358 NA 
ENDROOT
BRANCH   9  12
HETATM   12  C   UNL     1      -9.204  16.955  66.448  1.00  0.00    -0.308 C  
BRANCH  12  13
HETATM   13  C   UNL     1      -9.830  17.687  67.654  1.00  0.00    -0.294 C  
BRANCH  13  14
HETATM   14  N   UNL     1      -9.561  16.986  68.928  1.00  0.00    -0.266 NA 
HETATM   15  C   UNL     1     -10.756  16.295  69.475  1.00  0.00    -0.323 C  
HETATM   16  C   UNL     1     -11.189  15.038  68.690  1.00  0.00    -0.278 C  
HETATM   17  N   UNL     1     -10.072  14.084  68.652  1.00  0.00    -0.231 NA 
HETATM   18  C   UNL     1      -8.472  15.984  68.790  1.00  0.00    -0.228 C  
HETATM   19  C   UNL     1      -8.834  14.646  68.085  1.00  0.00    -0.173 C  
BRANCH  17  20
HETATM   20  C   UNL     1     -10.218  12.756  69.005  1.00  0.00     0.128 A  
HETATM   21  C   UNL     1      -9.264  11.787  68.649  1.00  0.00    -0.088 A  
HETATM   22  C   UNL     1      -9.406  10.432  68.976  1.00  0.00    -0.201 A  
HETATM   23  C   UNL     1     -10.525  10.005  69.676  1.00  0.00    -0.275 A  
HETATM   24  C   UNL     1     -11.509  10.929  70.043  1.00  0.00    -0.411 A  
HETATM   25  C   UNL     1     -12.749  10.496  70.777  1.00  0.00    -0.381 C  
HETATM   26  C   UNL     1     -11.335  12.290  69.715  1.00  0.00    -0.149 A  
HETATM   27  F   UNL     1     -13.890  10.783  70.090  1.00  0.00     0.313 F  
HETATM   28  F   UNL     1     -12.884  11.101  71.989  1.00  0.00    -0.509 F  
HETATM   29  F   UNL     1     -12.798   9.154  71.028  1.00  0.00    -0.322 F  
ENDBRANCH  17  20
ENDBRANCH  13  14
ENDBRANCH  12  13
ENDBRANCH   9  12
TORSDOF 4
ENDMDL
MODEL       98
REMARK 921   NORMALIZED FREE ENERGY PREDICTED BY IDOCK:   -5.79 KCAL/MOL
REMARK 922        TOTAL FREE ENERGY PREDICTED BY IDOCK:   -7.73 KCAL/MOL
REMARK 923 INTER-LIGAND FREE ENERGY PREDICTED BY IDOCK:   -7.23 KCAL/MOL
REMARK 924 INTRA-LIGAND FREE ENERGY PREDICTED BY IDOCK:   -0.50 KCAL/MOL
REMARK 927      BINDING AFFINITY PREDICTED BY RF-SCORE:    0.00 PKD
ROOT
HETATM    1  C   UNL     1      -7.315  11.663  68.119  1.00  0.00    -0.092 C  
HETATM    2  C   UNL     1      -6.528  11.961  69.422  1.00  0.00    -0.119 C  
HETATM    3  C   UNL     1      -5.703  10.691  69.691  1.00  0.00    -0.042 C  
HETATM    4  C   UNL     1      -6.517   9.552  69.063  1.00  0.00    -0.046 C  
HETATM    5  C   UNL     1      -7.806  10.255  68.684  1.00  0.00    -0.101 C  
HETATM    6  C   UNL     1      -8.659   9.716  67.617  1.00  0.00    -0.126 A  
HETATM    7  N   UNL     1      -9.829   9.131  67.557  1.00  0.00    -0.167 NA 
HETATM    8  N   UNL     1     -10.387   9.488  66.329  1.00  0.00    -0.209 NA 
HETATM    9  C   UNL     1      -9.572  10.329  65.733  1.00  0.00    -0.224 A  
HETATM   10  C   UNL     1      -7.337  11.311  66.584  1.00  0.00    -0.131 C  
HETATM   11  N   UNL     1      -8.436  10.383  66.462  1.00  0.00    -0.129 NA 
ENDROOT
BRANCH   9  12
HETATM   12  C   UNL     1      -9.793  11.121  64.498  1.00  0.00    -0.330 C  
BRANCH  12  13
HETATM   13  C   UNL     1     -11.286  11.446  64.281  1.00  0.00    -0.232 C  
BRANCH  13  14
HETATM   14  N   UNL     1     -11.532  12.902  64.213  1.00  0.00    -0.354 NA 
HETATM   15  C   UNL     1     -12.598  13.355  65.143  1.00  0.00    -0.440 C  
HETATM   16  C   UNL     1     -12.203  13.329  66.636  1.00  0.00    -0.298 C  
HETATM   17  N   UNL     1     -11.016  14.172  66.836  1.00  0.00    -0.296 NA 
HETATM   18  C   UNL     1     -10.304  13.686  64.503  1.00  0.00    -0.330 C  
HETATM   19  C   UNL     1      -9.871  13.789  65.993  1.00  0.00    -0.282 C  
BRANCH  17  20
HETATM   20  C   UNL     1     -10.955  15.148  67.812  1.00  0.00    -0.306 A  
HETATM   21  C   UNL     1     -10.278  16.362  67.603  1.00  0.00    -0.272 A  
HETATM   22  C   UNL     1     -10.184  17.354  68.588  1.00  0.00    -0.361 A  
HETATM   23  C   UNL     1     -10.773  17.151  69.828  1.00  0.00     0.153 A  
HETATM   24  C   UNL     1     -11.448  15.956  70.090  1.00  0.00    -0.366 A  
HETATM   25  C   UNL     1     -12.072  15.691  71.433  1.00  0.00    -0.418 C  
HETATM   26  C   UNL     1     -11.541  14.979  69.075  1.00  0.00    -0.342 A  
HETATM   27  F   UNL     1     -11.558  14.585  72.039  1.00  0.00    -0.348 F  
HETATM   28  F   UNL     1     -13.415  15.483  71.360  1.00  0.00    -0.466 F  
HETATM   29  F   UNL     1     -11.906  16.711  72.326  1.00  0.00    -0.553 F  
ENDBRANCH  17  20
ENDBRANCH  13  14
ENDBRANCH  12  13
ENDBRANCH   9  12
TORSDOF 4
ENDMDL
MODEL       99
REMARK 921   NORMALIZED FREE ENERGY PREDICTED BY IDOCK:   -5.76 KCAL/MOL
REMARK 922        TOTAL FREE ENERGY PREDICTED BY IDOCK:   -7.69 KCAL/MOL
REMARK 923 INTER-LIGAND FREE ENERGY PREDICTED BY IDOCK:   -7.08 KCAL/MOL
REMARK 924 INTRA-LIGAND FREE ENERGY PREDICTED BY IDOCK:   -0.61 KCAL/MOL
REMARK 927      BINDING AFFINITY PREDICTED BY RF-SCORE:    0.00 PKD
ROOT
HETATM    1  C   UNL     1      -8.699   5.704  66.271  1.00  0.00    -0.131 C  
HETATM    2  C   UNL     1      -8.347   4.484  65.382  1.00  0.00    -0.117 C  
HETATM    3  C   UNL     1      -9.628   4.185  64.585  1.00  0.00    -0.173 C  
HETATM    4  C   UNL     1     -10.773   4.674  65.482  1.00  0.00    -0.176 C  
HETATM    5  C   UNL     1     -10.046   5.009  66.770  1.00  0.00    -0.270 C  
HETATM    6  C   UNL     1     -10.620   5.974  67.716  1.00  0.00    -0.267 A  
HETATM    7  N   UNL     1     -11.161   5.911  68.907  1.00  0.00    -0.276 NA 
HETATM    8  N   UNL     1     -10.865   7.119  69.540  1.00  0.00    -0.240 NA 
HETATM    9  C   UNL     1     -10.099   7.827  68.742  1.00  0.00    -0.196 A  
HETATM   10  C   UNL     1      -9.152   7.205  66.418  1.00  0.00    -0.157 C  
HETATM   11  N   UNL     1     -10.041   7.186  67.555  1.00  0.00    -0.171 NA 
ENDROOT
BRANCH   9  12
HETATM   12  C   UNL     1      -9.382   9.096  69.024  1.00  0.00    -0.151 C  
BRANCH  12  13
HETATM   13  C   UNL     1     -10.336  10.193  69.543  1.00  0.00    -0.240 C  
BRANCH  13  14
HETATM   14  N   UNL     1     -11.208  10.721  68.473  1.00  0.00    -0.258 NA 
HETATM   15  C   UNL     1     -11.953  11.940  68.880  1.00  0.00    -0.254 C  
HETATM   16  C   UNL     1     -11.086  13.209  69.020  1.00  0.00    -0.234 C  
HETATM   17  N   UNL     1     -10.411  13.477  67.743  1.00  0.00    -0.237 NA 
HETATM   18  C   UNL     1     -10.441  11.041  67.240  1.00  0.00    -0.231 C  
HETATM   19  C   UNL     1      -9.599  12.348  67.255  1.00  0.00    -0.199 C  
BRANCH  17  20
HETATM   20  C   UNL     1     -10.446  14.715  67.130  1.00  0.00    -0.268 A  
HETATM   21  C   UNL     1     -10.789  14.861  65.775  1.00  0.00    -0.343 A  
HETATM   22  C   UNL     1     -10.806  16.105  65.130  1.00  0.00    -0.376 A  
HETATM   23  C   UNL     1     -10.472  17.252  65.836  1.00  0.00    -0.267 A  
HETATM   24  C   UNL     1     -10.112  17.158  67.183  1.00  0.00    -0.295 A  
HETATM   25  C   UNL     1      -9.717  18.378  67.971  1.00  0.00    -0.316 C  
HETATM   26  C   UNL     1     -10.118  15.896  67.814  1.00  0.00    -0.244 A  
HETATM   27  F   UNL     1      -8.452  18.291  68.469  1.00  0.00    -0.289 F  
HETATM   28  F   UNL     1     -10.524  18.598  69.044  1.00  0.00    -0.344 F  
HETATM   29  F   UNL     1      -9.748  19.534  67.244  1.00  0.00    -0.356 F  
ENDBRANCH  17  20
ENDBRANCH  13  14
ENDBRANCH  12  13
ENDBRANCH   9  12
TORSDOF 4
ENDMDL
MODEL      100
REMARK 921   NORMALIZED FREE ENERGY PREDICTED BY IDOCK:   -5.75 KCAL/MOL
REMARK 922        TOTAL FREE ENERGY PREDICTED BY IDOCK:   -7.68 KCAL/MOL
REMARK 923 INTER-LIGAND FREE ENERGY PREDICTED BY IDOCK:   -7.20 KCAL/MOL
REMARK 924 INTRA-LIGAND FREE ENERGY PREDICTED BY IDOCK:   -0.48 KCAL/MOL
REMARK 927      BINDING AFFINITY PREDICTED BY RF-SCORE:    0.00 PKD
ROOT
HETATM    1  C   UNL     1      -9.461   8.959  67.023  1.00  0.00    -0.215 C  
HETATM    2  C   UNL     1      -9.151   8.667  65.532  1.00  0.00    -0.190 C  
HETATM    3  C   UNL     1      -8.725  10.020  64.938  1.00  0.00    -0.201 C  
HETATM    4  C   UNL     1      -9.456  11.070  65.786  1.00  0.00    -0.242 C  
HETATM    5  C   UNL     1     -10.372  10.210  66.635  1.00  0.00    -0.274 C  
HETATM    6  C   UNL     1     -10.871  10.706  67.924  1.00  0.00    -0.277 A  
HETATM    7  N   UNL     1     -12.029  11.100  68.392  1.00  0.00    -0.599 NA 
HETATM    8  N   UNL     1     -12.036  10.779  69.750  1.00  0.00    -0.323 NA 
HETATM    9  C   UNL     1     -10.923  10.139  70.029  1.00  0.00    -0.307 A  
HETATM   10  C   UNL     1      -8.999   9.450  68.446  1.00  0.00    -0.128 C  
HETATM   11  N   UNL     1     -10.133  10.197  68.936  1.00  0.00    -0.189 NA 
ENDROOT
BRANCH   9  12
HETATM   12  C   UNL     1     -10.538   9.445  71.283  1.00  0.00    -0.400 C  
BRANCH  12  13
HETATM   13  C   UNL     1     -11.770   8.938  72.062  1.00  0.00    -0.367 C  
BRANCH  13  14
HETATM   14  N   UNL     1     -11.707   7.483  72.314  1.00  0.00    -0.303 NA 
HETATM   15  C   UNL     1     -12.502   6.690  71.343  1.00  0.00    -0.251 C  
HETATM   16  C   UNL     1     -11.908   6.631  69.919  1.00  0.00    -0.175 C  
HETATM   17  N   UNL     1     -10.552   6.069  69.984  1.00  0.00    -0.246 NA 
HETATM   18  C   UNL     1     -10.310   6.976  72.288  1.00  0.00    -0.193 C  
HETATM   19  C   UNL     1      -9.651   6.803  70.890  1.00  0.00    -0.168 C  
BRANCH  17  20
HETATM   20  C   UNL     1     -10.141   5.026  69.176  1.00  0.00    -0.187 A  
HETATM   21  C   UNL     1      -9.603   3.843  69.712  1.00  0.00    -0.271 A  
HETATM   22  C   UNL     1      -9.159   2.784  68.908  1.00  0.00    -0.207 A  
HETATM   23  C   UNL     1      -9.240   2.886  67.527  1.00  0.00    -0.233 A  
HETATM   24  C   UNL     1      -9.756   4.047  66.945  1.00  0.00    -0.215 A  
HETATM   25  C   UNL     1      -9.832   4.203  65.450  1.00  0.00    -0.208 C  
HETATM   26  C   UNL     1     -10.211   5.093  67.777  1.00  0.00    -0.190 A  
HETATM   27  F   UNL     1      -9.117   5.272  64.999  1.00  0.00    -0.160 F  
HETATM   28  F   UNL     1     -11.103   4.391  65.002  1.00  0.00    -0.352 F  
HETATM   29  F   UNL     1      -9.355   3.124  64.761  1.00  0.00    -0.128 F  
ENDBRANCH  17  20
ENDBRANCH  13  14
ENDBRANCH  12  13
ENDBRANCH   9  12
TORSDOF 4
ENDMDL
MODEL      101
REMARK 921   NORMALIZED FREE ENERGY PREDICTED BY IDOCK:   -5.74 KCAL/MOL
REMARK 922        TOTAL FREE ENERGY PREDICTED BY IDOCK:   -7.67 KCAL/MOL
REMARK 923 INTER-LIGAND FREE ENERGY PREDICTED BY IDOCK:   -7.39 KCAL/MOL
REMARK 924 INTRA-LIGAND FREE ENERGY PREDICTED BY IDOCK:   -0.28 KCAL/MOL
REMARK 927      BINDING AFFINITY PREDICTED BY RF-SCORE:    0.00 PKD
ROOT
HETATM    1  C   UNL     1      -7.538  14.101  68.042  1.00  0.00    -0.142 C  
HETATM    2  C   UNL     1      -6.191  13.740  68.720  1.00  0.00    -0.089 C  
HETATM    3  C   UNL     1      -6.003  14.796  69.823  1.00  0.00    -0.123 C  
HETATM    4  C   UNL     1      -6.748  16.036  69.313  1.00  0.00    -0.185 C  
HETATM    5  C   UNL     1      -7.107  15.631  67.897  1.00  0.00    -0.153 C  
HETATM    6  C   UNL     1      -8.242  16.261  67.210  1.00  0.00    -0.172 A  
HETATM    7  N   UNL     1      -8.387  17.100  66.216  1.00  0.00    -0.391 NA 
HETATM    8  N   UNL     1      -9.598  16.781  65.601  1.00  0.00    -0.524 NA 
HETATM    9  C   UNL     1     -10.096  15.720  66.196  1.00  0.00    -0.318 A  
HETATM   10  C   UNL     1      -9.097  14.312  68.121  1.00  0.00    -0.193 C  
HETATM   11  N   UNL     1      -9.330  15.461  67.278  1.00  0.00    -0.207 NA 
ENDROOT
BRANCH   9  12
HETATM   12  C   UNL     1     -11.267  14.898  65.804  1.00  0.00    -0.334 C  
BRANCH  12  13
HETATM   13  C   UNL     1     -11.179  14.432  64.336  1.00  0.00    -0.222 C  
BRANCH  13  14
HETATM   14  N   UNL     1     -11.757  13.085  64.146  1.00  0.00    -0.385 NA 
HETATM   15  C   UNL     1     -10.729  12.039  63.910  1.00  0.00    -0.397 C  
HETATM   16  C   UNL     1      -9.883  11.677  65.149  1.00  0.00    -0.249 C  
HETATM   17  N   UNL     1     -10.774  11.224  66.227  1.00  0.00    -0.268 NA 
HETATM   18  C   UNL     1     -12.581  12.666  65.309  1.00  0.00    -0.316 C  
HETATM   19  C   UNL     1     -11.816  12.202  66.582  1.00  0.00    -0.237 C  
BRANCH  17  20
HETATM   20  C   UNL     1     -10.566  10.043  66.914  1.00  0.00    -0.192 A  
HETATM   21  C   UNL     1     -10.202   8.857  66.253  1.00  0.00    -0.203 A  
HETATM   22  C   UNL     1     -10.011   7.644  66.929  1.00  0.00    -0.325 A  
HETATM   23  C   UNL     1     -10.185   7.587  68.305  1.00  0.00    -0.218 A  
HETATM   24  C   UNL     1     -10.558   8.737  69.006  1.00  0.00    -0.191 A  
HETATM   25  C   UNL     1     -10.784   8.704  70.494  1.00  0.00    -0.221 C  
HETATM   26  C   UNL     1     -10.730   9.949  68.304  1.00  0.00    -0.276 A  
HETATM   27  F   UNL     1     -12.050   9.069  70.838  1.00  0.00    -0.307 F  
HETATM   28  F   UNL     1      -9.957   9.547  71.172  1.00  0.00    -0.340 F  
HETATM   29  F   UNL     1     -10.591   7.472  71.051  1.00  0.00    -0.216 F  
ENDBRANCH  17  20
ENDBRANCH  13  14
ENDBRANCH  12  13
ENDBRANCH   9  12
TORSDOF 4
ENDMDL
MODEL      102
REMARK 921   NORMALIZED FREE ENERGY PREDICTED BY IDOCK:   -5.74 KCAL/MOL
REMARK 922        TOTAL FREE ENERGY PREDICTED BY IDOCK:   -7.67 KCAL/MOL
REMARK 923 INTER-LIGAND FREE ENERGY PREDICTED BY IDOCK:   -7.19 KCAL/MOL
REMARK 924 INTRA-LIGAND FREE ENERGY PREDICTED BY IDOCK:   -0.48 KCAL/MOL
REMARK 927      BINDING AFFINITY PREDICTED BY RF-SCORE:    0.00 PKD
ROOT
HETATM    1  C   UNL     1      -9.097   5.854  66.282  1.00  0.00    -0.157 C  
HETATM    2  C   UNL     1      -8.493   5.338  64.951  1.00  0.00    -0.150 C  
HETATM    3  C   UNL     1      -9.489   4.282  64.441  1.00  0.00    -0.149 C  
HETATM    4  C   UNL     1     -10.151   3.722  65.707  1.00  0.00     0.045 C  
HETATM    5  C   UNL     1      -9.328   4.364  66.806  1.00  0.00    -0.173 C  
HETATM    6  C   UNL     1      -9.893   4.539  68.150  1.00  0.00    -0.088 A  
HETATM    7  N   UNL     1      -9.691   4.005  69.329  1.00  0.00    -0.172 NA 
HETATM    8  N   UNL     1      -9.975   4.998  70.267  1.00  0.00    -0.235 NA 
HETATM    9  C   UNL     1     -10.261   6.106  69.621  1.00  0.00    -0.201 A  
HETATM   10  C   UNL     1     -10.263   6.555  67.075  1.00  0.00    -0.215 C  
HETATM   11  N   UNL     1     -10.339   5.806  68.307  1.00  0.00    -0.195 NA 
ENDROOT
BRANCH   9  12
HETATM   12  C   UNL     1     -10.461   7.473  70.164  1.00  0.00    -0.226 C  
BRANCH  12  13
HETATM   13  C   UNL     1      -9.143   8.276  70.205  1.00  0.00    -0.147 C  
BRANCH  13  14
HETATM   14  N   UNL     1      -9.367   9.721  69.988  1.00  0.00    -0.238 NA 
HETATM   15  C   UNL     1      -8.453  10.304  68.973  1.00  0.00    -0.150 C  
HETATM   16  C   UNL     1      -8.748   9.878  67.519  1.00  0.00    -0.121 C  
HETATM   17  N   UNL     1     -10.129  10.250  67.177  1.00  0.00    -0.200 NA 
HETATM   18  C   UNL     1     -10.764  10.009  69.570  1.00  0.00    -0.244 C  
HETATM   19  C   UNL     1     -11.136   9.690  68.094  1.00  0.00    -0.050 C  
BRANCH  17  20
HETATM   20  C   UNL     1     -10.445  10.957  66.033  1.00  0.00    -0.225 A  
HETATM   21  C   UNL     1     -10.056  10.511  64.757  1.00  0.00    -0.406 A  
HETATM   22  C   UNL     1     -10.346  11.225  63.587  1.00  0.00    -0.464 A  
HETATM   23  C   UNL     1     -11.040  12.424  63.666  1.00  0.00    -0.535 A  
HETATM   24  C   UNL     1     -11.438  12.916  64.912  1.00  0.00    -0.351 A  
HETATM   25  C   UNL     1     -12.167  14.227  65.036  1.00  0.00    -0.433 C  
HETATM   26  C   UNL     1     -11.147  12.170  66.074  1.00  0.00    -0.354 A  
HETATM   27  F   UNL     1     -11.494  15.128  65.806  1.00  0.00    -0.342 F  
HETATM   28  F   UNL     1     -13.396  14.096  65.606  1.00  0.00    -0.541 F  
HETATM   29  F   UNL     1     -12.380  14.851  63.840  1.00  0.00    -0.475 F  
ENDBRANCH  17  20
ENDBRANCH  13  14
ENDBRANCH  12  13
ENDBRANCH   9  12
TORSDOF 4
ENDMDL
MODEL      103
REMARK 921   NORMALIZED FREE ENERGY PREDICTED BY IDOCK:   -5.72 KCAL/MOL
REMARK 922        TOTAL FREE ENERGY PREDICTED BY IDOCK:   -7.65 KCAL/MOL
REMARK 923 INTER-LIGAND FREE ENERGY PREDICTED BY IDOCK:   -6.97 KCAL/MOL
REMARK 924 INTRA-LIGAND FREE ENERGY PREDICTED BY IDOCK:   -0.68 KCAL/MOL
REMARK 927      BINDING AFFINITY PREDICTED BY RF-SCORE:    0.00 PKD
ROOT
HETATM    1  C   UNL     1     -10.628   7.829  71.037  1.00  0.00    -0.226 C  
HETATM    2  C   UNL     1     -10.824   7.345  72.497  1.00  0.00    -0.327 C  
HETATM    3  C   UNL     1      -9.626   7.920  73.274  1.00  0.00    -0.351 C  
HETATM    4  C   UNL     1      -8.505   8.042  72.234  1.00  0.00    -0.206 C  
HETATM    5  C   UNL     1      -9.108   7.342  71.032  1.00  0.00    -0.152 C  
HETATM    6  C   UNL     1      -8.635   7.654  69.677  1.00  0.00    -0.136 A  
HETATM    7  N   UNL     1      -7.940   7.029  68.760  1.00  0.00    -0.118 NA 
HETATM    8  N   UNL     1      -8.403   7.492  67.528  1.00  0.00    -0.116 NA 
HETATM    9  C   UNL     1      -9.404   8.315  67.746  1.00  0.00    -0.138 A  
HETATM   10  C   UNL     1     -10.495   8.996  69.989  1.00  0.00    -0.214 C  
HETATM   11  N   UNL     1      -9.479   8.524  69.078  1.00  0.00    -0.150 NA 
ENDROOT
BRANCH   9  12
HETATM   12  C   UNL     1     -10.333   8.929  66.766  1.00  0.00    -0.317 C  
BRANCH  12  13
HETATM   13  C   UNL     1      -9.972  10.401  66.473  1.00  0.00    -0.217 C  
BRANCH  13  14
HETATM   14  N   UNL     1     -11.065  11.324  66.847  1.00  0.00    -0.293 NA 
HETATM   15  C   UNL     1     -10.672  12.293  67.901  1.00  0.00    -0.215 C  
HETATM   16  C   UNL     1      -9.688  13.388  67.436  1.00  0.00    -0.221 C  
HETATM   17  N   UNL     1     -10.286  14.130  66.317  1.00  0.00    -0.285 NA 
HETATM   18  C   UNL     1     -11.564  12.094  65.677  1.00  0.00    -0.351 C  
HETATM   19  C   UNL     1     -10.680  13.275  65.184  1.00  0.00    -0.322 C  
BRANCH  17  20
HETATM   20  C   UNL     1     -10.354  15.510  66.294  1.00  0.00    -0.302 A  
HETATM   21  C   UNL     1     -10.820  16.209  65.167  1.00  0.00    -0.376 A  
HETATM   22  C   UNL     1     -10.874  17.608  65.115  1.00  0.00     0.320 A  
HETATM   23  C   UNL     1     -10.453  18.355  66.205  1.00  0.00    -0.421 A  
HETATM   24  C   UNL     1      -9.970  17.708  67.346  1.00  0.00    -0.321 A  
HETATM   25  C   UNL     1      -9.478  18.487  68.536  1.00  0.00    -0.347 C  
HETATM   26  C   UNL     1      -9.941  16.297  67.379  1.00  0.00    -0.249 A  
HETATM   27  F   UNL     1      -8.174  18.225  68.829  1.00  0.00    -0.307 F  
HETATM   28  F   UNL     1     -10.177  18.213  69.672  1.00  0.00    -0.215 F  
HETATM   29  F   UNL     1      -9.555  19.841  68.374  1.00  0.00    -0.392 F  
ENDBRANCH  17  20
ENDBRANCH  13  14
ENDBRANCH  12  13
ENDBRANCH   9  12
TORSDOF 4
ENDMDL
MODEL      104
REMARK 921   NORMALIZED FREE ENERGY PREDICTED BY IDOCK:   -5.72 KCAL/MOL
REMARK 922        TOTAL FREE ENERGY PREDICTED BY IDOCK:   -7.64 KCAL/MOL
REMARK 923 INTER-LIGAND FREE ENERGY PREDICTED BY IDOCK:   -7.12 KCAL/MOL
REMARK 924 INTRA-LIGAND FREE ENERGY PREDICTED BY IDOCK:   -0.52 KCAL/MOL
REMARK 927      BINDING AFFINITY PREDICTED BY RF-SCORE:    0.00 PKD
ROOT
HETATM    1  C   UNL     1      -9.128   6.519  66.336  1.00  0.00    -0.172 C  
HETATM    2  C   UNL     1      -8.915   5.115  66.957  1.00  0.00    -0.112 C  
HETATM    3  C   UNL     1      -7.425   5.065  67.337  1.00  0.00    -0.083 C  
HETATM    4  C   UNL     1      -6.735   6.011  66.345  1.00  0.00    -0.060 C  
HETATM    5  C   UNL     1      -7.860   6.340  65.384  1.00  0.00    -0.104 C  
HETATM    6  C   UNL     1      -7.824   7.578  64.595  1.00  0.00    -0.130 A  
HETATM    7  N   UNL     1      -7.653   7.881  63.332  1.00  0.00    -0.122 NA 
HETATM    8  N   UNL     1      -8.390   9.042  63.100  1.00  0.00    -0.191 NA 
HETATM    9  C   UNL     1      -9.035   9.349  64.203  1.00  0.00    -0.144 A  
HETATM   10  C   UNL     1      -9.097   8.089  66.459  1.00  0.00    -0.173 C  
HETATM   11  N   UNL     1      -8.596   8.523  65.177  1.00  0.00    -0.174 NA 
ENDROOT
BRANCH   9  12
HETATM   12  C   UNL     1     -10.076  10.386  64.413  1.00  0.00    -0.342 C  
BRANCH  12  13
HETATM   13  C   UNL     1      -9.546  11.574  65.244  1.00  0.00    -0.218 C  
BRANCH  13  14
HETATM   14  N   UNL     1     -10.630  12.269  65.970  1.00  0.00    -0.248 NA 
HETATM   15  C   UNL     1     -10.250  12.654  67.353  1.00  0.00    -0.217 C  
HETATM   16  C   UNL     1      -9.230  13.809  67.444  1.00  0.00    -0.221 C  
HETATM   17  N   UNL     1      -9.776  14.991  66.762  1.00  0.00    -0.233 NA 
HETATM   18  C   UNL     1     -11.076  13.495  65.258  1.00  0.00    -0.297 C  
HETATM   19  C   UNL     1     -10.152  14.742  65.360  1.00  0.00    -0.374 C  
BRANCH  17  20
HETATM   20  C   UNL     1      -9.814  16.238  67.355  1.00  0.00    -0.242 A  
HETATM   21  C   UNL     1      -9.944  16.391  68.747  1.00  0.00    -0.246 A  
HETATM   22  C   UNL     1     -10.009  17.647  69.365  1.00  0.00     0.010 A  
HETATM   23  C   UNL     1      -9.948  18.799  68.594  1.00  0.00    -0.444 A  
HETATM   24  C   UNL     1      -9.830  18.700  67.204  1.00  0.00    -0.340 A  
HETATM   25  C   UNL     1      -9.790  19.928  66.336  1.00  0.00    -0.459 C  
HETATM   26  C   UNL     1      -9.751  17.423  66.608  1.00  0.00    -0.296 A  
HETATM   27  F   UNL     1     -10.807  19.961  65.430  1.00  0.00    -0.600 F  
HETATM   28  F   UNL     1      -8.643  20.023  65.608  1.00  0.00    -0.343 F  
HETATM   29  F   UNL     1      -9.880  21.098  67.035  1.00  0.00    -0.547 F  
ENDBRANCH  17  20
ENDBRANCH  13  14
ENDBRANCH  12  13
ENDBRANCH   9  12
TORSDOF 4
ENDMDL
MODEL      105
REMARK 921   NORMALIZED FREE ENERGY PREDICTED BY IDOCK:   -5.69 KCAL/MOL
REMARK 922        TOTAL FREE ENERGY PREDICTED BY IDOCK:   -7.61 KCAL/MOL
REMARK 923 INTER-LIGAND FREE ENERGY PREDICTED BY IDOCK:   -7.01 KCAL/MOL
REMARK 924 INTRA-LIGAND FREE ENERGY PREDICTED BY IDOCK:   -0.60 KCAL/MOL
REMARK 927      BINDING AFFINITY PREDICTED BY RF-SCORE:    0.00 PKD
ROOT
HETATM    1  C   UNL     1      -8.136   4.336  66.241  1.00  0.00    -0.102 C  
HETATM    2  C   UNL     1      -7.529   3.911  64.879  1.00  0.00    -0.076 C  
HETATM    3  C   UNL     1      -8.656   3.154  64.156  1.00  0.00    -0.089 C  
HETATM    4  C   UNL     1      -9.513   2.557  65.280  1.00  0.00     0.009 C  
HETATM    5  C   UNL     1      -8.681   2.860  66.510  1.00  0.00    -0.134 C  
HETATM    6  C   UNL     1      -9.314   2.945  67.832  1.00  0.00    -0.205 A  
HETATM    7  N   UNL     1      -9.312   2.218  68.921  1.00  0.00    -0.154 NA 
HETATM    8  N   UNL     1      -9.485   3.100  69.987  1.00  0.00    -0.170 NA 
HETATM    9  C   UNL     1      -9.507   4.325  69.510  1.00  0.00    -0.187 A  
HETATM   10  C   UNL     1      -9.214   5.128  67.071  1.00  0.00    -0.117 C  
HETATM   11  N   UNL     1      -9.529   4.238  68.163  1.00  0.00    -0.155 NA 
ENDROOT
BRANCH   9  12
HETATM   12  C   UNL     1      -9.495   5.611  70.250  1.00  0.00    -0.202 C  
BRANCH  12  13
HETATM   13  C   UNL     1     -10.764   5.794  71.108  1.00  0.00    -0.261 C  
BRANCH  13  14
HETATM   14  N   UNL     1     -11.833   6.504  70.374  1.00  0.00    -0.384 NA 
HETATM   15  C   UNL     1     -12.817   7.160  71.271  1.00  0.00    -0.349 C  
HETATM   16  C   UNL     1     -12.283   8.403  72.015  1.00  0.00    -0.362 C  
HETATM   17  N   UNL     1     -11.813   9.390  71.033  1.00  0.00    -0.305 NA 
HETATM   18  C   UNL     1     -11.284   7.538  69.458  1.00  0.00     0.048 C  
HETATM   19  C   UNL     1     -10.795   8.863  70.108  1.00  0.00    -0.231 C  
BRANCH  17  20
HETATM   20  C   UNL     1     -12.209  10.713  71.063  1.00  0.00    -0.393 A  
HETATM   21  C   UNL     1     -13.085  11.201  72.048  1.00  0.00    -0.433 A  
HETATM   22  C   UNL     1     -13.517  12.533  72.081  1.00  0.00    -0.523 A  
HETATM   23  C   UNL     1     -13.078  13.425  71.113  1.00  0.00    -0.254 A  
HETATM   24  C   UNL     1     -12.214  12.986  70.106  1.00  0.00    -0.342 A  
HETATM   25  C   UNL     1     -11.741  13.919  69.024  1.00  0.00    -0.338 C  
HETATM   26  C   UNL     1     -11.782  11.642  70.103  1.00  0.00    -0.381 A  
HETATM   27  F   UNL     1     -12.095  13.496  67.778  1.00  0.00    -0.374 F  
HETATM   28  F   UNL     1     -10.387  14.055  68.998  1.00  0.00    -0.232 F  
HETATM   29  F   UNL     1     -12.236  15.187  69.137  1.00  0.00    -0.317 F  
ENDBRANCH  17  20
ENDBRANCH  13  14
ENDBRANCH  12  13
ENDBRANCH   9  12
TORSDOF 4
ENDMDL
MODEL      106
REMARK 921   NORMALIZED FREE ENERGY PREDICTED BY IDOCK:   -5.69 KCAL/MOL
REMARK 922        TOTAL FREE ENERGY PREDICTED BY IDOCK:   -7.60 KCAL/MOL
REMARK 923 INTER-LIGAND FREE ENERGY PREDICTED BY IDOCK:   -7.32 KCAL/MOL
REMARK 924 INTRA-LIGAND FREE ENERGY PREDICTED BY IDOCK:   -0.29 KCAL/MOL
REMARK 927      BINDING AFFINITY PREDICTED BY RF-SCORE:    0.00 PKD
ROOT
HETATM    1  C   UNL     1      -8.719  18.460  66.775  1.00  0.00    -0.284 C  
HETATM    2  C   UNL     1      -8.263  19.934  66.924  1.00  0.00    -0.358 C  
HETATM    3  C   UNL     1      -9.536  20.713  67.295  1.00  0.00    -0.558 C  
HETATM    4  C   UNL     1     -10.684  19.913  66.666  1.00  0.00    -0.451 C  
HETATM    5  C   UNL     1      -9.938  18.885  65.837  1.00  0.00    -0.172 C  
HETATM    6  C   UNL     1     -10.579  17.613  65.481  1.00  0.00    -0.068 A  
HETATM    7  N   UNL     1     -11.042  17.072  64.382  1.00  0.00    -0.986 NA 
HETATM    8  N   UNL     1     -10.869  15.694  64.515  1.00  0.00    -0.378 NA 
HETATM    9  C   UNL     1     -10.242  15.464  65.647  1.00  0.00    -0.376 A  
HETATM   10  C   UNL     1      -9.350  17.154  67.388  1.00  0.00    -0.234 C  
HETATM   11  N   UNL     1     -10.167  16.634  66.318  1.00  0.00    -0.322 NA 
ENDROOT
BRANCH   9  12
HETATM   12  C   UNL     1      -9.678  14.189  66.155  1.00  0.00    -0.310 C  
BRANCH  12  13
HETATM   13  C   UNL     1     -10.685  13.026  66.036  1.00  0.00    -0.274 C  
BRANCH  13  14
HETATM   14  N   UNL     1     -10.017  11.708  66.077  1.00  0.00    -0.220 NA 
HETATM   15  C   UNL     1      -8.710  11.741  66.782  1.00  0.00    -0.192 C  
HETATM   16  C   UNL     1      -8.807  11.918  68.312  1.00  0.00    -0.174 C  
HETATM   17  N   UNL     1      -9.616  10.828  68.875  1.00  0.00    -0.196 NA 
HETATM   18  C   UNL     1     -10.865  10.676  66.729  1.00  0.00    -0.169 C  
HETATM   19  C   UNL     1     -10.960  10.722  68.281  1.00  0.00    -0.255 C  
BRANCH  17  20
HETATM   20  C   UNL     1      -9.188  10.061  69.942  1.00  0.00    -0.158 A  
HETATM   21  C   UNL     1     -10.077   9.617  70.937  1.00  0.00    -0.257 A  
HETATM   22  C   UNL     1      -9.659   8.860  72.039  1.00  0.00    -0.277 A  
HETATM   23  C   UNL     1      -8.320   8.525  72.177  1.00  0.00    -0.197 A  
HETATM   24  C   UNL     1      -7.394   8.952  71.221  1.00  0.00    -0.115 A  
HETATM   25  C   UNL     1      -5.930   8.632  71.355  1.00  0.00    -0.047 C  
HETATM   26  C   UNL     1      -7.843   9.701  70.112  1.00  0.00    -0.185 A  
HETATM   27  F   UNL     1      -5.154   9.749  71.419  1.00  0.00    -0.043 F  
HETATM   28  F   UNL     1      -5.451   7.906  70.308  1.00  0.00    -0.023 F  
HETATM   29  F   UNL     1      -5.627   7.908  72.473  1.00  0.00    -0.036 F  
ENDBRANCH  17  20
ENDBRANCH  13  14
ENDBRANCH  12  13
ENDBRANCH   9  12
TORSDOF 4
ENDMDL
MODEL      107
REMARK 921   NORMALIZED FREE ENERGY PREDICTED BY IDOCK:   -5.68 KCAL/MOL
REMARK 922        TOTAL FREE ENERGY PREDICTED BY IDOCK:   -7.59 KCAL/MOL
REMARK 923 INTER-LIGAND FREE ENERGY PREDICTED BY IDOCK:   -7.31 KCAL/MOL
REMARK 924 INTRA-LIGAND FREE ENERGY PREDICTED BY IDOCK:   -0.28 KCAL/MOL
REMARK 927      BINDING AFFINITY PREDICTED BY RF-SCORE:    0.00 PKD
ROOT
HETATM    1  C   UNL     1      -7.488  14.493  68.554  1.00  0.00    -0.123 C  
HETATM    2  C   UNL     1      -7.373  12.947  68.529  1.00  0.00    -0.115 C  
HETATM    3  C   UNL     1      -5.905  12.649  68.883  1.00  0.00    -0.071 C  
HETATM    4  C   UNL     1      -5.126  13.878  68.397  1.00  0.00    -0.102 C  
HETATM    5  C   UNL     1      -6.189  14.650  67.641  1.00  0.00    -0.106 C  
HETATM    6  C   UNL     1      -6.057  16.100  67.449  1.00  0.00    -0.154 A  
HETATM    7  N   UNL     1      -5.814  16.893  66.435  1.00  0.00    -0.317 NA 
HETATM    8  N   UNL     1      -6.483  18.088  66.699  1.00  0.00    -0.182 NA 
HETATM    9  C   UNL     1      -7.161  17.945  67.815  1.00  0.00    -0.209 A  
HETATM   10  C   UNL     1      -7.387  15.860  69.328  1.00  0.00    -0.221 C  
HETATM   11  N   UNL     1      -6.807  16.760  68.359  1.00  0.00    -0.155 NA 
ENDROOT
BRANCH   9  12
HETATM   12  C   UNL     1      -8.159  18.861  68.422  1.00  0.00    -0.376 C  
BRANCH  12  13
HETATM   13  C   UNL     1      -8.893  19.701  67.356  1.00  0.00    -0.316 C  
BRANCH  13  14
HETATM   14  N   UNL     1     -10.291  19.258  67.168  1.00  0.00    -0.401 NA 
HETATM   15  C   UNL     1     -10.504  18.536  65.887  1.00  0.00    -0.347 C  
HETATM   16  C   UNL     1      -9.880  17.125  65.831  1.00  0.00    -0.155 C  
HETATM   17  N   UNL     1     -10.428  16.311  66.925  1.00  0.00    -0.309 NA 
HETATM   18  C   UNL     1     -10.747  18.377  68.274  1.00  0.00    -0.093 C  
HETATM   19  C   UNL     1     -10.237  16.907  68.259  1.00  0.00    -0.318 C  
BRANCH  17  20
HETATM   20  C   UNL     1     -10.960  15.052  66.719  1.00  0.00    -0.323 A  
HETATM   21  C   UNL     1     -11.550  14.690  65.496  1.00  0.00    -0.335 A  
HETATM   22  C   UNL     1     -12.116  13.427  65.276  1.00  0.00    -0.446 A  
HETATM   23  C   UNL     1     -12.109  12.482  66.291  1.00  0.00    -0.315 A  
HETATM   24  C   UNL     1     -11.544  12.797  67.530  1.00  0.00    -0.412 A  
HETATM   25  C   UNL     1     -11.545  11.806  68.662  1.00  0.00    -0.309 C  
HETATM   26  C   UNL     1     -10.967  14.071  67.722  1.00  0.00    -0.271 A  
HETATM   27  F   UNL     1     -12.205  12.268  69.761  1.00  0.00    -0.327 F  
HETATM   28  F   UNL     1     -10.291  11.490  69.088  1.00  0.00    -0.217 F  
HETATM   29  F   UNL     1     -12.138  10.616  68.349  1.00  0.00    -0.291 F  
ENDBRANCH  17  20
ENDBRANCH  13  14
ENDBRANCH  12  13
ENDBRANCH   9  12
TORSDOF 4
ENDMDL
MODEL      108
REMARK 921   NORMALIZED FREE ENERGY PREDICTED BY IDOCK:   -5.63 KCAL/MOL
REMARK 922        TOTAL FREE ENERGY PREDICTED BY IDOCK:   -7.54 KCAL/MOL
REMARK 923 INTER-LIGAND FREE ENERGY PREDICTED BY IDOCK:   -7.03 KCAL/MOL
REMARK 924 INTRA-LIGAND FREE ENERGY PREDICTED BY IDOCK:   -0.51 KCAL/MOL
REMARK 927      BINDING AFFINITY PREDICTED BY RF-SCORE:    0.00 PKD
ROOT
HETATM    1  C   UNL     1     -12.626  14.274  71.595  1.00  0.00    -0.431 C  
HETATM    2  C   UNL     1     -12.831  14.198  73.130  1.00  0.00    -0.285 C  
HETATM    3  C   UNL     1     -12.882  15.662  73.600  1.00  0.00    -0.704 C  
HETATM    4  C   UNL     1     -12.034  16.433  72.581  1.00  0.00    -0.595 C  
HETATM    5  C   UNL     1     -11.426  15.312  71.761  1.00  0.00    -0.494 C  
HETATM    6  C   UNL     1     -10.971  15.560  70.387  1.00  0.00    -0.339 A  
HETATM    7  N   UNL     1      -9.812  15.632  69.781  1.00  0.00    -0.286 NA 
HETATM    8  N   UNL     1     -10.021  15.195  68.473  1.00  0.00    -0.217 NA 
HETATM    9  C   UNL     1     -11.271  14.806  68.363  1.00  0.00    -0.284 A  
HETATM   10  C   UNL     1     -13.119  14.725  70.169  1.00  0.00     0.077 C  
HETATM   11  N   UNL     1     -11.907  15.144  69.505  1.00  0.00    -0.316 NA 
ENDROOT
BRANCH   9  12
HETATM   12  C   UNL     1     -11.931  14.106  67.232  1.00  0.00    -0.449 C  
BRANCH  12  13
HETATM   13  C   UNL     1     -11.510  12.624  67.147  1.00  0.00    -0.346 C  
BRANCH  13  14
HETATM   14  N   UNL     1     -10.560  12.255  68.218  1.00  0.00    -0.219 NA 
HETATM   15  C   UNL     1     -11.202  11.516  69.334  1.00  0.00    -0.259 C  
HETATM   16  C   UNL     1     -11.625  10.072  68.992  1.00  0.00     0.069 C  
HETATM   17  N   UNL     1     -10.447   9.316  68.545  1.00  0.00    -0.210 NA 
HETATM   18  C   UNL     1      -9.438  11.428  67.702  1.00  0.00    -0.162 C  
HETATM   19  C   UNL     1      -9.746   9.933  67.405  1.00  0.00    -0.162 C  
BRANCH  17  20
HETATM   20  C   UNL     1     -10.111   8.084  69.074  1.00  0.00    -0.201 A  
HETATM   21  C   UNL     1     -11.091   7.153  69.461  1.00  0.00    -0.170 A  
HETATM   22  C   UNL     1     -10.771   5.910  70.022  1.00  0.00    -0.396 A  
HETATM   23  C   UNL     1      -9.441   5.562  70.214  1.00  0.00    -0.211 A  
HETATM   24  C   UNL     1      -8.430   6.457  69.856  1.00  0.00    -0.131 A  
HETATM   25  C   UNL     1      -6.979   6.124  70.078  1.00  0.00    -0.070 C  
HETATM   26  C   UNL     1      -8.778   7.698  69.279  1.00  0.00    -0.136 A  
HETATM   27  F   UNL     1      -6.358   7.017  70.898  1.00  0.00    -0.037 F  
HETATM   28  F   UNL     1      -6.257   6.116  68.924  1.00  0.00    -0.029 F  
HETATM   29  F   UNL     1      -6.778   4.899  70.647  1.00  0.00    -0.031 F  
ENDBRANCH  17  20
ENDBRANCH  13  14
ENDBRANCH  12  13
ENDBRANCH   9  12
TORSDOF 4
ENDMDL
MODEL      109
REMARK 921   NORMALIZED FREE ENERGY PREDICTED BY IDOCK:   -5.60 KCAL/MOL
REMARK 922        TOTAL FREE ENERGY PREDICTED BY IDOCK:   -7.50 KCAL/MOL
REMARK 923 INTER-LIGAND FREE ENERGY PREDICTED BY IDOCK:   -6.99 KCAL/MOL
REMARK 924 INTRA-LIGAND FREE ENERGY PREDICTED BY IDOCK:   -0.51 KCAL/MOL
REMARK 927      BINDING AFFINITY PREDICTED BY RF-SCORE:    0.00 PKD
ROOT
HETATM    1  C   UNL     1      -9.210   8.326  65.815  1.00  0.00    -0.142 C  
HETATM    2  C   UNL     1      -8.325   7.127  66.243  1.00  0.00    -0.129 C  
HETATM    3  C   UNL     1      -6.910   7.710  66.400  1.00  0.00    -0.062 C  
HETATM    4  C   UNL     1      -6.863   8.897  65.430  1.00  0.00    -0.072 C  
HETATM    5  C   UNL     1      -8.171   8.745  64.679  1.00  0.00    -0.166 C  
HETATM    6  C   UNL     1      -8.794   9.907  64.032  1.00  0.00    -0.228 A  
HETATM    7  N   UNL     1      -8.988  10.301  62.798  1.00  0.00    -0.227 NA 
HETATM    8  N   UNL     1     -10.172  11.040  62.800  1.00  0.00    -0.088 NA 
HETATM    9  C   UNL     1     -10.683  10.998  64.010  1.00  0.00    -0.261 A  
HETATM   10  C   UNL     1      -9.818   9.750  66.102  1.00  0.00    -0.263 C  
HETATM   11  N   UNL     1      -9.776  10.406  64.816  1.00  0.00    -0.295 NA 
ENDROOT
BRANCH   9  12
HETATM   12  C   UNL     1     -12.007  11.477  64.477  1.00  0.00     0.043 C  
BRANCH  12  13
HETATM   13  C   UNL     1     -12.337  12.883  63.933  1.00  0.00    -0.396 C  
BRANCH  13  14
HETATM   14  N   UNL     1     -12.593  13.853  65.019  1.00  0.00    -0.636 NA 
HETATM   15  C   UNL     1     -11.890  13.509  66.281  1.00  0.00    -0.392 C  
HETATM   16  C   UNL     1     -10.360  13.712  66.243  1.00  0.00    -0.293 C  
HETATM   17  N   UNL     1     -10.067  15.113  65.909  1.00  0.00    -0.301 NA 
HETATM   18  C   UNL     1     -12.199  15.233  64.634  1.00  0.00    -0.138 C  
HETATM   19  C   UNL     1     -10.678  15.560  64.646  1.00  0.00    -0.165 C  
BRANCH  17  20
HETATM   20  C   UNL     1      -9.199  15.888  66.656  1.00  0.00    -0.252 A  
HETATM   21  C   UNL     1      -7.866  15.501  66.877  1.00  0.00    -0.229 A  
HETATM   22  C   UNL     1      -6.978  16.261  67.651  1.00  0.00    -0.168 A  
HETATM   23  C   UNL     1      -7.410  17.443  68.234  1.00  0.00    -0.214 A  
HETATM   24  C   UNL     1      -8.730  17.865  68.053  1.00  0.00    -0.256 A  
HETATM   25  C   UNL     1      -9.240  19.128  68.694  1.00  0.00    -0.380 C  
HETATM   26  C   UNL     1      -9.600  17.090  67.256  1.00  0.00    -0.244 A  
HETATM   27  F   UNL     1     -10.287  18.900  69.535  1.00  0.00    -0.290 F  
HETATM   28  F   UNL     1      -9.685  20.039  67.787  1.00  0.00    -0.432 F  
HETATM   29  F   UNL     1      -8.302  19.780  69.442  1.00  0.00    -0.318 F  
ENDBRANCH  17  20
ENDBRANCH  13  14
ENDBRANCH  12  13
ENDBRANCH   9  12
TORSDOF 4
ENDMDL
MODEL      110
REMARK 921   NORMALIZED FREE ENERGY PREDICTED BY IDOCK:   -5.60 KCAL/MOL
REMARK 922        TOTAL FREE ENERGY PREDICTED BY IDOCK:   -7.50 KCAL/MOL
REMARK 923 INTER-LIGAND FREE ENERGY PREDICTED BY IDOCK:   -7.39 KCAL/MOL
REMARK 924 INTRA-LIGAND FREE ENERGY PREDICTED BY IDOCK:   -0.11 KCAL/MOL
REMARK 927      BINDING AFFINITY PREDICTED BY RF-SCORE:    0.00 PKD
ROOT
HETATM    1  C   UNL     1     -10.575   7.900  71.536  1.00  0.00    -0.262 C  
HETATM    2  C   UNL     1     -10.745   7.965  73.076  1.00  0.00    -0.408 C  
HETATM    3  C   UNL     1      -9.352   7.648  73.647  1.00  0.00    -0.344 C  
HETATM    4  C   UNL     1      -8.688   6.756  72.590  1.00  0.00    -0.130 C  
HETATM    5  C   UNL     1      -9.832   6.492  71.632  1.00  0.00    -0.180 C  
HETATM    6  C   UNL     1      -9.561   6.131  70.234  1.00  0.00    -0.163 A  
HETATM    7  N   UNL     1      -9.680   5.050  69.505  1.00  0.00    -0.170 NA 
HETATM    8  N   UNL     1      -9.942   5.478  68.203  1.00  0.00    -0.144 NA 
HETATM    9  C   UNL     1     -10.048   6.787  68.212  1.00  0.00    -0.161 A  
HETATM   10  C   UNL     1      -9.903   8.420  70.210  1.00  0.00    -0.181 C  
HETATM   11  N   UNL     1      -9.689   7.218  69.440  1.00  0.00    -0.161 NA 
ENDROOT
BRANCH   9  12
HETATM   12  C   UNL     1     -10.487   7.692  67.121  1.00  0.00    -0.412 C  
BRANCH  12  13
HETATM   13  C   UNL     1      -9.406   7.848  66.030  1.00  0.00    -0.063 C  
BRANCH  13  14
HETATM   14  N   UNL     1      -8.679   9.129  66.149  1.00  0.00    -0.141 NA 
HETATM   15  C   UNL     1      -8.638   9.893  64.876  1.00  0.00    -0.169 C  
HETATM   16  C   UNL     1      -9.986  10.513  64.452  1.00  0.00    -0.343 C  
HETATM   17  N   UNL     1     -10.465  11.404  65.518  1.00  0.00    -0.261 NA 
HETATM   18  C   UNL     1      -9.270  10.007  67.193  1.00  0.00    -0.141 C  
HETATM   19  C   UNL     1     -10.590  10.743  66.829  1.00  0.00    -0.250 C  
BRANCH  17  20
HETATM   20  C   UNL     1     -10.871  12.702  65.274  1.00  0.00    -0.288 A  
HETATM   21  C   UNL     1     -11.944  12.992  64.413  1.00  0.00    -0.457 A  
HETATM   22  C   UNL     1     -12.355  14.302  64.134  1.00  0.00    -0.361 A  
HETATM   23  C   UNL     1     -11.691  15.372  64.716  1.00  0.00    -0.232 A  
HETATM   24  C   UNL     1     -10.609  15.137  65.571  1.00  0.00    -0.383 A  
HETATM   25  C   UNL     1      -9.848  16.274  66.196  1.00  0.00    -0.334 C  
HETATM   26  C   UNL     1     -10.225  13.807  65.848  1.00  0.00    -0.322 A  
HETATM   27  F   UNL     1      -8.529  16.270  65.854  1.00  0.00    -0.353 F  
HETATM   28  F   UNL     1      -9.879  16.246  67.556  1.00  0.00    -0.228 F  
HETATM   29  F   UNL     1     -10.317  17.508  65.843  1.00  0.00    -0.341 F  
ENDBRANCH  17  20
ENDBRANCH  13  14
ENDBRANCH  12  13
ENDBRANCH   9  12
TORSDOF 4
ENDMDL
MODEL      111
REMARK 921   NORMALIZED FREE ENERGY PREDICTED BY IDOCK:   -5.57 KCAL/MOL
REMARK 922        TOTAL FREE ENERGY PREDICTED BY IDOCK:   -7.46 KCAL/MOL
REMARK 923 INTER-LIGAND FREE ENERGY PREDICTED BY IDOCK:   -6.84 KCAL/MOL
REMARK 924 INTRA-LIGAND FREE ENERGY PREDICTED BY IDOCK:   -0.62 KCAL/MOL
REMARK 927      BINDING AFFINITY PREDICTED BY RF-SCORE:    0.00 PKD
ROOT
HETATM    1  C   UNL     1      -7.188  15.525  68.476  1.00  0.00    -0.119 C  
HETATM    2  C   UNL     1      -5.797  15.440  69.155  1.00  0.00    -0.104 C  
HETATM    3  C   UNL     1      -5.676  16.730  69.985  1.00  0.00    -0.221 C  
HETATM    4  C   UNL     1      -6.545  17.756  69.246  1.00  0.00    -0.239 C  
HETATM    5  C   UNL     1      -6.903  17.012  67.974  1.00  0.00    -0.166 C  
HETATM    6  C   UNL     1      -8.108  17.374  67.217  1.00  0.00    -0.201 A  
HETATM    7  N   UNL     1      -8.355  17.952  66.068  1.00  0.00    -0.523 NA 
HETATM    8  N   UNL     1      -9.547  17.401  65.597  1.00  0.00    -0.456 NA 
HETATM    9  C   UNL     1      -9.930  16.465  66.435  1.00  0.00    -0.303 A  
HETATM   10  C   UNL     1      -8.756  15.618  68.577  1.00  0.00    -0.182 C  
HETATM   11  N   UNL     1      -9.116  16.522  67.511  1.00  0.00    -0.197 NA 
ENDROOT
BRANCH   9  12
HETATM   12  C   UNL     1     -11.031  15.480  66.291  1.00  0.00    -0.242 C  
BRANCH  12  13
HETATM   13  C   UNL     1     -10.875  14.624  65.017  1.00  0.00    -0.417 C  
BRANCH  13  14
HETATM   14  N   UNL     1     -11.776  13.452  65.023  1.00  0.00    -0.314 NA 
HETATM   15  C   UNL     1     -11.365  12.398  64.060  1.00  0.00    -0.399 C  
HETATM   16  C   UNL     1     -10.092  11.623  64.459  1.00  0.00    -0.278 C  
HETATM   17  N   UNL     1     -10.297  11.001  65.776  1.00  0.00    -0.257 NA 
HETATM   18  C   UNL     1     -11.871  12.833  66.370  1.00  0.00    -0.408 C  
HETATM   19  C   UNL     1     -10.669  11.961  66.830  1.00  0.00    -0.246 C  
BRANCH  17  20
HETATM   20  C   UNL     1     -10.043   9.664  66.013  1.00  0.00    -0.248 A  
HETATM   21  C   UNL     1     -10.716   8.951  67.019  1.00  0.00    -0.180 A  
HETATM   22  C   UNL     1     -10.455   7.601  67.292  1.00  0.00    -0.396 A  
HETATM   23  C   UNL     1      -9.497   6.922  66.553  1.00  0.00    -0.199 A  
HETATM   24  C   UNL     1      -8.792   7.590  65.548  1.00  0.00    -0.012 A  
HETATM   25  C   UNL     1      -7.726   6.892  64.748  1.00  0.00    -0.115 C  
HETATM   26  C   UNL     1      -9.084   8.945  65.284  1.00  0.00    -0.196 A  
HETATM   27  F   UNL     1      -6.506   7.487  64.871  1.00  0.00    -0.037 F  
HETATM   28  F   UNL     1      -7.995   6.871  63.414  1.00  0.00    -0.116 F  
HETATM   29  F   UNL     1      -7.537   5.587  65.106  1.00  0.00    -0.071 F  
ENDBRANCH  17  20
ENDBRANCH  13  14
ENDBRANCH  12  13
ENDBRANCH   9  12
TORSDOF 4
ENDMDL
MODEL      112
REMARK 921   NORMALIZED FREE ENERGY PREDICTED BY IDOCK:   -5.57 KCAL/MOL
REMARK 922        TOTAL FREE ENERGY PREDICTED BY IDOCK:   -7.45 KCAL/MOL
REMARK 923 INTER-LIGAND FREE ENERGY PREDICTED BY IDOCK:   -6.83 KCAL/MOL
REMARK 924 INTRA-LIGAND FREE ENERGY PREDICTED BY IDOCK:   -0.62 KCAL/MOL
REMARK 927      BINDING AFFINITY PREDICTED BY RF-SCORE:    0.00 PKD
ROOT
HETATM    1  C   UNL     1      -7.437   7.354  65.476  1.00  0.00    -0.088 C  
HETATM    2  C   UNL     1      -6.558   6.081  65.381  1.00  0.00    -0.043 C  
HETATM    3  C   UNL     1      -7.491   4.988  64.831  1.00  0.00    -0.076 C  
HETATM    4  C   UNL     1      -8.893   5.396  65.301  1.00  0.00    -0.132 C  
HETATM    5  C   UNL     1      -8.592   6.554  66.232  1.00  0.00    -0.141 C  
HETATM    6  C   UNL     1      -9.615   7.571  66.505  1.00  0.00    -0.173 A  
HETATM    7  N   UNL     1     -10.355   7.905  67.533  1.00  0.00    -0.238 NA 
HETATM    8  N   UNL     1     -10.573   9.279  67.435  1.00  0.00    -0.278 NA 
HETATM    9  C   UNL     1      -9.898   9.732  66.402  1.00  0.00    -0.235 A  
HETATM   10  C   UNL     1      -8.335   8.451  64.790  1.00  0.00    -0.141 C  
HETATM   11  N   UNL     1      -9.400   8.665  65.740  1.00  0.00    -0.195 NA 
ENDROOT
BRANCH   9  12
HETATM   12  C   UNL     1      -9.667  11.137  65.985  1.00  0.00    -0.263 C  
BRANCH  12  13
HETATM   13  C   UNL     1      -8.381  11.720  66.608  1.00  0.00    -0.136 C  
BRANCH  13  14
HETATM   14  N   UNL     1      -8.664  12.514  67.822  1.00  0.00    -0.168 NA 
HETATM   15  C   UNL     1      -7.484  13.278  68.304  1.00  0.00    -0.126 C  
HETATM   16  C   UNL     1      -7.086  14.477  67.417  1.00  0.00    -0.110 C  
HETATM   17  N   UNL     1      -8.227  15.397  67.308  1.00  0.00    -0.179 NA 
HETATM   18  C   UNL     1      -9.778  13.475  67.609  1.00  0.00    -0.229 C  
HETATM   19  C   UNL     1      -9.453  14.759  66.795  1.00  0.00    -0.254 C  
BRANCH  17  20
HETATM   20  C   UNL     1      -8.114  16.752  67.550  1.00  0.00    -0.172 A  
HETATM   21  C   UNL     1      -7.056  17.282  68.309  1.00  0.00    -0.197 A  
HETATM   22  C   UNL     1      -6.937  18.650  68.586  1.00  0.00    -0.297 A  
HETATM   23  C   UNL     1      -7.890  19.536  68.106  1.00  0.00    -0.347 A  
HETATM   24  C   UNL     1      -8.968  19.058  67.355  1.00  0.00    -0.318 A  
HETATM   25  C   UNL     1     -10.035  19.987  66.843  1.00  0.00    -0.449 C  
HETATM   26  C   UNL     1      -9.057  17.677  67.077  1.00  0.00    -0.256 A  
HETATM   27  F   UNL     1     -11.274  19.670  67.313  1.00  0.00    -0.564 F  
HETATM   28  F   UNL     1     -10.139  19.975  65.486  1.00  0.00    -0.471 F  
HETATM   29  F   UNL     1      -9.835  21.294  67.186  1.00  0.00    -0.555 F  
ENDBRANCH  17  20
ENDBRANCH  13  14
ENDBRANCH  12  13
ENDBRANCH   9  12
TORSDOF 4
ENDMDL
MODEL      113
REMARK 921   NORMALIZED FREE ENERGY PREDICTED BY IDOCK:   -5.57 KCAL/MOL
REMARK 922        TOTAL FREE ENERGY PREDICTED BY IDOCK:   -7.45 KCAL/MOL
REMARK 923 INTER-LIGAND FREE ENERGY PREDICTED BY IDOCK:   -6.89 KCAL/MOL
REMARK 924 INTRA-LIGAND FREE ENERGY PREDICTED BY IDOCK:   -0.56 KCAL/MOL
REMARK 927      BINDING AFFINITY PREDICTED BY RF-SCORE:    0.00 PKD
ROOT
HETATM    1  C   UNL     1     -10.259  13.340  65.462  1.00  0.00    -0.298 C  
HETATM    2  C   UNL     1     -11.165  14.596  65.519  1.00  0.00    -0.343 C  
HETATM    3  C   UNL     1     -12.605  14.052  65.522  1.00  0.00    -0.543 C  
HETATM    4  C   UNL     1     -12.522  12.716  64.773  1.00  0.00    -0.555 C  
HETATM    5  C   UNL     1     -11.099  12.733  64.249  1.00  0.00    -0.410 C  
HETATM    6  C   UNL     1     -10.412  11.475  63.927  1.00  0.00    -0.385 A  
HETATM    7  N   UNL     1     -10.021  10.874  62.832  1.00  0.00    -0.273 NA 
HETATM    8  N   UNL     1      -8.880  10.145  63.166  1.00  0.00    -0.203 NA 
HETATM    9  C   UNL     1      -8.584  10.393  64.422  1.00  0.00    -0.179 A  
HETATM   10  C   UNL     1      -9.756  11.985  66.088  1.00  0.00    -0.238 C  
HETATM   11  N   UNL     1      -9.597  11.117  64.945  1.00  0.00    -0.231 NA 
ENDROOT
BRANCH   9  12
HETATM   12  C   UNL     1      -7.376   9.998  65.188  1.00  0.00    -0.139 C  
BRANCH  12  13
HETATM   13  C   UNL     1      -7.738   9.328  66.530  1.00  0.00    -0.093 C  
BRANCH  13  14
HETATM   14  N   UNL     1      -8.540   8.101  66.338  1.00  0.00    -0.132 NA 
HETATM   15  C   UNL     1      -7.797   6.862  66.680  1.00  0.00    -0.107 C  
HETATM   16  C   UNL     1      -7.547   6.655  68.189  1.00  0.00    -0.104 C  
HETATM   17  N   UNL     1      -8.836   6.638  68.894  1.00  0.00    -0.131 NA 
HETATM   18  C   UNL     1      -9.790   8.124  67.143  1.00  0.00    -0.217 C  
HETATM   19  C   UNL     1      -9.651   7.844  68.666  1.00  0.00    -0.155 C  
BRANCH  17  20
HETATM   20  C   UNL     1      -9.185   5.635  69.779  1.00  0.00    -0.138 A  
HETATM   21  C   UNL     1      -8.710   4.320  69.631  1.00  0.00    -0.114 A  
HETATM   22  C   UNL     1      -9.071   3.285  70.503  1.00  0.00    -0.192 A  
HETATM   23  C   UNL     1      -9.932   3.542  71.560  1.00  0.00    -0.172 A  
HETATM   24  C   UNL     1     -10.441   4.832  71.744  1.00  0.00    -0.182 A  
HETATM   25  C   UNL     1     -11.399   5.140  72.862  1.00  0.00    -0.282 C  
HETATM   26  C   UNL     1     -10.049   5.860  70.860  1.00  0.00    -0.251 A  
HETATM   27  F   UNL     1     -12.594   5.613  72.411  1.00  0.00    -0.272 F  
HETATM   28  F   UNL     1     -10.925   6.086  73.718  1.00  0.00    -0.256 F  
HETATM   29  F   UNL     1     -11.700   4.058  73.640  1.00  0.00    -0.299 F  
ENDBRANCH  17  20
ENDBRANCH  13  14
ENDBRANCH  12  13
ENDBRANCH   9  12
TORSDOF 4
ENDMDL
MODEL      114
REMARK 921   NORMALIZED FREE ENERGY PREDICTED BY IDOCK:   -5.55 KCAL/MOL
REMARK 922        TOTAL FREE ENERGY PREDICTED BY IDOCK:   -7.44 KCAL/MOL
REMARK 923 INTER-LIGAND FREE ENERGY PREDICTED BY IDOCK:   -6.94 KCAL/MOL
REMARK 924 INTRA-LIGAND FREE ENERGY PREDICTED BY IDOCK:   -0.50 KCAL/MOL
REMARK 927      BINDING AFFINITY PREDICTED BY RF-SCORE:    0.00 PKD
ROOT
HETATM    1  C   UNL     1     -10.141  18.728  67.297  1.00  0.00    -0.401 C  
HETATM    2  C   UNL     1      -9.969  20.257  67.489  1.00  0.00    -0.557 C  
HETATM    3  C   UNL     1      -8.602  20.588  66.868  1.00  0.00    -0.271 C  
HETATM    4  C   UNL     1      -7.779  19.301  67.018  1.00  0.00    -0.263 C  
HETATM    5  C   UNL     1      -8.684  18.445  67.882  1.00  0.00    -0.296 C  
HETATM    6  C   UNL     1      -8.564  16.982  67.859  1.00  0.00    -0.207 A  
HETATM    7  N   UNL     1      -8.139  16.062  68.689  1.00  0.00    -0.175 NA 
HETATM    8  N   UNL     1      -8.890  14.916  68.428  1.00  0.00    -0.171 NA 
HETATM    9  C   UNL     1      -9.784  15.207  67.511  1.00  0.00    -0.205 A  
HETATM   10  C   UNL     1     -10.254  17.471  66.355  1.00  0.00    -0.354 C  
HETATM   11  N   UNL     1      -9.514  16.450  67.056  1.00  0.00    -0.225 NA 
ENDROOT
BRANCH   9  12
HETATM   12  C   UNL     1     -10.919  14.384  67.024  1.00  0.00    -0.304 C  
BRANCH  12  13
HETATM   13  C   UNL     1     -11.183  13.169  67.936  1.00  0.00    -0.270 C  
BRANCH  13  14
HETATM   14  N   UNL     1     -11.793  12.043  67.198  1.00  0.00    -0.604 NA 
HETATM   15  C   UNL     1     -11.217  11.858  65.841  1.00  0.00    -0.322 C  
HETATM   16  C   UNL     1      -9.777  11.301  65.823  1.00  0.00    -0.227 C  
HETATM   17  N   UNL     1      -9.750  10.009  66.523  1.00  0.00    -0.189 NA 
HETATM   18  C   UNL     1     -11.657  10.759  67.934  1.00  0.00    -0.128 C  
HETATM   19  C   UNL     1     -10.261  10.075  67.904  1.00  0.00    -0.188 C  
BRANCH  17  20
HETATM   20  C   UNL     1      -9.185   8.876  65.970  1.00  0.00    -0.228 A  
HETATM   21  C   UNL     1      -8.264   8.952  64.910  1.00  0.00    -0.161 A  
HETATM   22  C   UNL     1      -7.698   7.814  64.319  1.00  0.00    -0.124 A  
HETATM   23  C   UNL     1      -8.047   6.553  64.780  1.00  0.00    -0.112 A  
HETATM   24  C   UNL     1      -8.967   6.424  65.824  1.00  0.00    -0.068 A  
HETATM   25  C   UNL     1      -9.389   5.071  66.329  1.00  0.00    -0.149 C  
HETATM   26  C   UNL     1      -9.511   7.586  66.412  1.00  0.00    -0.208 A  
HETATM   27  F   UNL     1     -10.730   4.863  66.209  1.00  0.00    -0.305 F  
HETATM   28  F   UNL     1      -9.102   4.885  67.647  1.00  0.00    -0.109 F  
HETATM   29  F   UNL     1      -8.795   4.030  65.673  1.00  0.00    -0.115 F  
ENDBRANCH  17  20
ENDBRANCH  13  14
ENDBRANCH  12  13
ENDBRANCH   9  12
TORSDOF 4
ENDMDL
MODEL      115
REMARK 921   NORMALIZED FREE ENERGY PREDICTED BY IDOCK:   -5.51 KCAL/MOL
REMARK 922        TOTAL FREE ENERGY PREDICTED BY IDOCK:   -7.38 KCAL/MOL
REMARK 923 INTER-LIGAND FREE ENERGY PREDICTED BY IDOCK:   -6.71 KCAL/MOL
REMARK 924 INTRA-LIGAND FREE ENERGY PREDICTED BY IDOCK:   -0.68 KCAL/MOL
REMARK 927      BINDING AFFINITY PREDICTED BY RF-SCORE:    0.00 PKD
ROOT
HETATM    1  C   UNL     1      -9.695   6.814  67.272  1.00  0.00    -0.175 C  
HETATM    2  C   UNL     1     -10.516   5.609  67.797  1.00  0.00    -0.275 C  
HETATM    3  C   UNL     1      -9.489   4.482  68.004  1.00  0.00    -0.197 C  
HETATM    4  C   UNL     1      -8.378   4.772  66.987  1.00  0.00    -0.106 C  
HETATM    5  C   UNL     1      -8.977   5.904  66.176  1.00  0.00    -0.157 C  
HETATM    6  C   UNL     1      -8.106   6.837  65.448  1.00  0.00    -0.129 A  
HETATM    7  N   UNL     1      -7.828   7.072  64.190  1.00  0.00    -0.116 NA 
HETATM    8  N   UNL     1      -7.530   8.432  64.098  1.00  0.00    -0.107 NA 
HETATM    9  C   UNL     1      -7.713   8.975  65.280  1.00  0.00    -0.100 A  
HETATM   10  C   UNL     1      -8.550   7.878  67.466  1.00  0.00    -0.122 C  
HETATM   11  N   UNL     1      -7.948   7.977  66.158  1.00  0.00    -0.099 NA 
ENDROOT
BRANCH   9  12
HETATM   12  C   UNL     1      -7.695  10.411  65.657  1.00  0.00    -0.150 C  
BRANCH  12  13
HETATM   13  C   UNL     1      -8.947  11.156  65.147  1.00  0.00    -0.093 C  
BRANCH  13  14
HETATM   14  N   UNL     1      -9.275  12.328  65.986  1.00  0.00    -0.147 NA 
HETATM   15  C   UNL     1     -10.736  12.569  66.101  1.00  0.00    -0.261 C  
HETATM   16  C   UNL     1     -11.493  11.537  66.964  1.00  0.00    -0.214 C  
HETATM   17  N   UNL     1     -10.913  11.518  68.315  1.00  0.00    -0.207 NA 
HETATM   18  C   UNL     1      -8.720  12.200  67.358  1.00  0.00    -0.177 C  
HETATM   19  C   UNL     1      -9.466  11.243  68.332  1.00  0.00    -0.192 C  
BRANCH  17  20
HETATM   20  C   UNL     1     -11.684  11.629  69.456  1.00  0.00    -0.344 A  
HETATM   21  C   UNL     1     -12.048  12.879  69.985  1.00  0.00    -0.357 A  
HETATM   22  C   UNL     1     -12.808  13.012  71.154  1.00  0.00    -0.331 A  
HETATM   23  C   UNL     1     -13.230  11.879  71.835  1.00  0.00    -0.467 A  
HETATM   24  C   UNL     1     -12.885  10.612  71.355  1.00  0.00    -0.556 A  
HETATM   25  C   UNL     1     -13.300   9.363  72.084  1.00  0.00    -0.468 C  
HETATM   26  C   UNL     1     -12.130  10.505  70.167  1.00  0.00    -0.380 A  
HETATM   27  F   UNL     1     -12.236   8.609  72.477  1.00  0.00    -0.422 F  
HETATM   28  F   UNL     1     -14.077   8.542  71.326  1.00  0.00    -0.401 F  
HETATM   29  F   UNL     1     -14.019   9.604  73.220  1.00  0.00     0.043 F  
ENDBRANCH  17  20
ENDBRANCH  13  14
ENDBRANCH  12  13
ENDBRANCH   9  12
TORSDOF 4
ENDMDL
MODEL      116
REMARK 921   NORMALIZED FREE ENERGY PREDICTED BY IDOCK:   -5.51 KCAL/MOL
REMARK 922        TOTAL FREE ENERGY PREDICTED BY IDOCK:   -7.38 KCAL/MOL
REMARK 923 INTER-LIGAND FREE ENERGY PREDICTED BY IDOCK:   -6.60 KCAL/MOL
REMARK 924 INTRA-LIGAND FREE ENERGY PREDICTED BY IDOCK:   -0.77 KCAL/MOL
REMARK 927      BINDING AFFINITY PREDICTED BY RF-SCORE:    0.00 PKD
ROOT
HETATM    1  C   UNL     1     -10.293   6.878  68.707  1.00  0.00    -0.200 C  
HETATM    2  C   UNL     1     -11.321   6.490  69.800  1.00  0.00    -0.456 C  
HETATM    3  C   UNL     1     -10.607   5.439  70.667  1.00  0.00    -0.302 C  
HETATM    4  C   UNL     1      -9.609   4.759  69.720  1.00  0.00    -0.249 C  
HETATM    5  C   UNL     1      -9.996   5.345  68.377  1.00  0.00    -0.217 C  
HETATM    6  C   UNL     1      -9.021   5.395  67.280  1.00  0.00    -0.111 A  
HETATM    7  N   UNL     1      -8.867   4.781  66.134  1.00  0.00    -0.118 NA 
HETATM    8  N   UNL     1      -8.239   5.687  65.280  1.00  0.00    -0.128 NA 
HETATM    9  C   UNL     1      -8.108   6.830  65.915  1.00  0.00    -0.123 A  
HETATM   10  C   UNL     1      -8.894   7.472  68.292  1.00  0.00    -0.125 C  
HETATM   11  N   UNL     1      -8.474   6.629  67.199  1.00  0.00    -0.113 NA 
ENDROOT
BRANCH   9  12
HETATM   12  C   UNL     1      -7.664   8.143  65.385  1.00  0.00    -0.101 C  
BRANCH  12  13
HETATM   13  C   UNL     1      -8.838   8.957  64.801  1.00  0.00    -0.086 C  
BRANCH  13  14
HETATM   14  N   UNL     1      -8.519  10.397  64.702  1.00  0.00    -0.177 NA 
HETATM   15  C   UNL     1      -9.703  11.232  64.374  1.00  0.00    -0.254 C  
HETATM   16  C   UNL     1     -10.729  11.374  65.519  1.00  0.00    -0.253 C  
HETATM   17  N   UNL     1     -10.062  11.947  66.697  1.00  0.00    -0.198 NA 
HETATM   18  C   UNL     1      -7.920  10.920  65.957  1.00  0.00    -0.132 C  
HETATM   19  C   UNL     1      -8.890  11.175  67.146  1.00  0.00    -0.143 C  
BRANCH  17  20
HETATM   20  C   UNL     1     -10.569  13.036  67.380  1.00  0.00    -0.234 A  
HETATM   21  C   UNL     1     -11.519  12.889  68.405  1.00  0.00    -0.347 A  
HETATM   22  C   UNL     1     -12.063  13.982  69.092  1.00  0.00    -0.375 A  
HETATM   23  C   UNL     1     -11.665  15.270  68.764  1.00  0.00    -0.374 A  
HETATM   24  C   UNL     1     -10.730  15.470  67.744  1.00  0.00    -0.297 A  
HETATM   25  C   UNL     1     -10.298  16.854  67.342  1.00  0.00    -0.309 C  
HETATM   26  C   UNL     1     -10.186  14.351  67.077  1.00  0.00    -0.263 A  
HETATM   27  F   UNL     1     -10.569  17.128  66.036  1.00  0.00    -0.329 F  
HETATM   28  F   UNL     1      -8.960  17.054  67.494  1.00  0.00    -0.211 F  
HETATM   29  F   UNL     1     -10.902  17.847  68.060  1.00  0.00    -0.380 F  
ENDBRANCH  17  20
ENDBRANCH  13  14
ENDBRANCH  12  13
ENDBRANCH   9  12
TORSDOF 4
ENDMDL
MODEL      117
REMARK 921   NORMALIZED FREE ENERGY PREDICTED BY IDOCK:   -5.49 KCAL/MOL
REMARK 922        TOTAL FREE ENERGY PREDICTED BY IDOCK:   -7.36 KCAL/MOL
REMARK 923 INTER-LIGAND FREE ENERGY PREDICTED BY IDOCK:   -6.78 KCAL/MOL
REMARK 924 INTRA-LIGAND FREE ENERGY PREDICTED BY IDOCK:   -0.58 KCAL/MOL
REMARK 927      BINDING AFFINITY PREDICTED BY RF-SCORE:    0.00 PKD
ROOT
HETATM    1  C   UNL     1      -7.387   4.236  68.226  1.00  0.00    -0.064 C  
HETATM    2  C   UNL     1      -6.553   3.587  67.092  1.00  0.00    -0.038 C  
HETATM    3  C   UNL     1      -7.574   2.833  66.223  1.00  0.00    -0.076 C  
HETATM    4  C   UNL     1      -8.710   2.461  67.185  1.00  0.00    -0.140 C  
HETATM    5  C   UNL     1      -8.131   2.858  68.529  1.00  0.00    -0.071 C  
HETATM    6  C   UNL     1      -9.019   3.168  69.657  1.00  0.00    -0.105 A  
HETATM    7  N   UNL     1      -9.327   2.594  70.793  1.00  0.00    -0.135 NA 
HETATM    8  N   UNL     1      -9.627   3.622  71.687  1.00  0.00    -0.146 NA 
HETATM    9  C   UNL     1      -9.416   4.769  71.084  1.00  0.00    -0.157 A  
HETATM   10  C   UNL     1      -8.526   5.216  68.698  1.00  0.00    -0.088 C  
HETATM   11  N   UNL     1      -9.159   4.507  69.784  1.00  0.00    -0.099 NA 
ENDROOT
BRANCH   9  12
HETATM   12  C   UNL     1      -9.424   6.138  71.658  1.00  0.00    -0.160 C  
BRANCH  12  13
HETATM   13  C   UNL     1     -10.836   6.563  72.115  1.00  0.00    -0.232 C  
BRANCH  13  14
HETATM   14  N   UNL     1     -11.631   7.128  71.005  1.00  0.00    -0.294 NA 
HETATM   15  C   UNL     1     -12.731   8.012  71.469  1.00  0.00    -0.307 C  
HETATM   16  C   UNL     1     -12.269   9.369  72.043  1.00  0.00    -0.326 C  
HETATM   17  N   UNL     1     -11.491  10.085  71.022  1.00  0.00    -0.374 NA 
HETATM   18  C   UNL     1     -10.788   7.903  70.057  1.00  0.00    -0.238 C  
HETATM   19  C   UNL     1     -10.340   9.321  70.512  1.00  0.00    -0.254 C  
BRANCH  17  20
HETATM   20  C   UNL     1     -11.755  11.396  70.672  1.00  0.00    -0.097 A  
HETATM   21  C   UNL     1     -11.432  11.901  69.400  1.00  0.00    -0.366 A  
HETATM   22  C   UNL     1     -11.669  13.233  69.035  1.00  0.00    -0.368 A  
HETATM   23  C   UNL     1     -12.242  14.107  69.948  1.00  0.00    -0.416 A  
HETATM   24  C   UNL     1     -12.571  13.655  71.229  1.00  0.00    -0.435 A  
HETATM   25  C   UNL     1     -13.166  14.583  72.253  1.00  0.00    -0.389 C  
HETATM   26  C   UNL     1     -12.336  12.305  71.568  1.00  0.00     0.058 A  
HETATM   27  F   UNL     1     -12.398  14.688  73.373  1.00  0.00    -0.445 F  
HETATM   28  F   UNL     1     -14.393  14.179  72.683  1.00  0.00    -0.511 F  
HETATM   29  F   UNL     1     -13.337  15.861  71.803  1.00  0.00    -0.510 F  
ENDBRANCH  17  20
ENDBRANCH  13  14
ENDBRANCH  12  13
ENDBRANCH   9  12
TORSDOF 4
ENDMDL
MODEL      118
REMARK 921   NORMALIZED FREE ENERGY PREDICTED BY IDOCK:   -5.47 KCAL/MOL
REMARK 922        TOTAL FREE ENERGY PREDICTED BY IDOCK:   -7.33 KCAL/MOL
REMARK 923 INTER-LIGAND FREE ENERGY PREDICTED BY IDOCK:   -6.73 KCAL/MOL
REMARK 924 INTRA-LIGAND FREE ENERGY PREDICTED BY IDOCK:   -0.61 KCAL/MOL
REMARK 927      BINDING AFFINITY PREDICTED BY RF-SCORE:    0.00 PKD
ROOT
HETATM    1  C   UNL     1     -11.016   7.303  69.860  1.00  0.00    -0.262 C  
HETATM    2  C   UNL     1     -12.097   7.306  70.971  1.00  0.00    -0.361 C  
HETATM    3  C   UNL     1     -11.480   6.509  72.134  1.00  0.00    -0.332 C  
HETATM    4  C   UNL     1     -10.508   5.528  71.466  1.00  0.00    -0.298 C  
HETATM    5  C   UNL     1     -10.818   5.725  69.995  1.00  0.00    -0.403 C  
HETATM    6  C   UNL     1      -9.813   5.400  68.974  1.00  0.00    -0.168 A  
HETATM    7  N   UNL     1      -9.672   4.474  68.059  1.00  0.00    -0.153 NA 
HETATM    8  N   UNL     1      -8.961   5.059  67.011  1.00  0.00    -0.112 NA 
HETATM    9  C   UNL     1      -8.768   6.326  67.299  1.00  0.00    -0.105 A  
HETATM   10  C   UNL     1      -9.570   7.670  69.357  1.00  0.00    -0.159 C  
HETATM   11  N   UNL     1      -9.180   6.524  68.570  1.00  0.00    -0.127 NA 
ENDROOT
BRANCH   9  12
HETATM   12  C   UNL     1      -8.220   7.403  66.437  1.00  0.00    -0.122 C  
BRANCH  12  13
HETATM   13  C   UNL     1      -9.334   8.294  65.849  1.00  0.00    -0.096 C  
BRANCH  13  14
HETATM   14  N   UNL     1      -8.786   9.459  65.123  1.00  0.00    -0.184 NA 
HETATM   15  C   UNL     1      -9.840  10.311  64.514  1.00  0.00    -0.315 C  
HETATM   16  C   UNL     1     -10.672  11.129  65.525  1.00  0.00    -0.185 C  
HETATM   17  N   UNL     1      -9.772  11.986  66.311  1.00  0.00    -0.230 NA 
HETATM   18  C   UNL     1      -7.952  10.318  66.003  1.00  0.00    -0.138 C  
HETATM   19  C   UNL     1      -8.704  11.243  67.002  1.00  0.00    -0.152 C  
BRANCH  17  20
HETATM   20  C   UNL     1      -9.992  13.340  66.474  1.00  0.00    -0.280 A  
HETATM   21  C   UNL     1      -9.873  14.243  65.403  1.00  0.00    -0.255 A  
HETATM   22  C   UNL     1     -10.068  15.622  65.554  1.00  0.00    -0.395 A  
HETATM   23  C   UNL     1     -10.388  16.141  66.800  1.00  0.00    -0.291 A  
HETATM   24  C   UNL     1     -10.506  15.286  67.899  1.00  0.00    -0.253 A  
HETATM   25  C   UNL     1     -10.824  15.818  69.271  1.00  0.00    -0.255 C  
HETATM   26  C   UNL     1     -10.320  13.898  67.718  1.00  0.00    -0.240 A  
HETATM   27  F   UNL     1      -9.853  15.528  70.181  1.00  0.00    -0.290 F  
HETATM   28  F   UNL     1     -11.976  15.306  69.782  1.00  0.00    -0.290 F  
HETATM   29  F   UNL     1     -10.974  17.175  69.311  1.00  0.00    -0.274 F  
ENDBRANCH  17  20
ENDBRANCH  13  14
ENDBRANCH  12  13
ENDBRANCH   9  12
TORSDOF 4
ENDMDL
MODEL      119
REMARK 921   NORMALIZED FREE ENERGY PREDICTED BY IDOCK:   -5.43 KCAL/MOL
REMARK 922        TOTAL FREE ENERGY PREDICTED BY IDOCK:   -7.28 KCAL/MOL
REMARK 923 INTER-LIGAND FREE ENERGY PREDICTED BY IDOCK:   -6.80 KCAL/MOL
REMARK 924 INTRA-LIGAND FREE ENERGY PREDICTED BY IDOCK:   -0.48 KCAL/MOL
REMARK 927      BINDING AFFINITY PREDICTED BY RF-SCORE:    0.00 PKD
ROOT
HETATM    1  C   UNL     1      -8.334  14.047  67.773  1.00  0.00    -0.176 C  
HETATM    2  C   UNL     1      -7.122  14.907  67.332  1.00  0.00    -0.194 C  
HETATM    3  C   UNL     1      -7.711  16.287  66.992  1.00  0.00    -0.250 C  
HETATM    4  C   UNL     1      -9.152  16.001  66.549  1.00  0.00    -0.319 C  
HETATM    5  C   UNL     1      -9.171  14.486  66.488  1.00  0.00    -0.282 C  
HETATM    6  C   UNL     1     -10.437  13.754  66.615  1.00  0.00    -0.272 A  
HETATM    7  N   UNL     1     -11.202  13.057  65.813  1.00  0.00    -0.285 NA 
HETATM    8  N   UNL     1     -11.820  12.085  66.601  1.00  0.00    -0.610 NA 
HETATM    9  C   UNL     1     -11.349  12.184  67.823  1.00  0.00    -0.307 A  
HETATM   10  C   UNL     1      -9.542  13.784  68.749  1.00  0.00    -0.040 C  
HETATM   11  N   UNL     1     -10.585  13.296  67.879  1.00  0.00    -0.233 NA 
ENDROOT
BRANCH   9  12
HETATM   12  C   UNL     1     -11.561  11.276  68.978  1.00  0.00    -0.386 C  
BRANCH  12  13
HETATM   13  C   UNL     1     -10.296  10.455  69.305  1.00  0.00    -0.230 C  
BRANCH  13  14
HETATM   14  N   UNL     1     -10.420   9.732  70.588  1.00  0.00    -0.302 NA 
HETATM   15  C   UNL     1     -11.473   8.685  70.566  1.00  0.00    -0.188 C  
HETATM   16  C   UNL     1     -11.129   7.443  69.716  1.00  0.00    -0.152 C  
HETATM   17  N   UNL     1      -9.884   6.845  70.216  1.00  0.00    -0.178 NA 
HETATM   18  C   UNL     1      -9.141   9.090  70.988  1.00  0.00    -0.257 C  
HETATM   19  C   UNL     1      -8.748   7.782  70.244  1.00  0.00    -0.143 C  
BRANCH  17  20
HETATM   20  C   UNL     1      -9.773   5.500  70.513  1.00  0.00    -0.183 A  
HETATM   21  C   UNL     1      -9.274   4.575  69.579  1.00  0.00    -0.192 A  
HETATM   22  C   UNL     1      -9.177   3.204  69.853  1.00  0.00    -0.222 A  
HETATM   23  C   UNL     1      -9.587   2.716  71.086  1.00  0.00    -0.220 A  
HETATM   24  C   UNL     1     -10.101   3.594  72.044  1.00  0.00    -0.199 A  
HETATM   25  C   UNL     1     -10.581   3.096  73.380  1.00  0.00    -0.182 C  
HETATM   26  C   UNL     1     -10.174   4.973  71.749  1.00  0.00    -0.272 A  
HETATM   27  F   UNL     1     -11.896   3.376  73.601  1.00  0.00    -0.274 F  
HETATM   28  F   UNL     1      -9.904   3.647  74.424  1.00  0.00    -0.123 F  
HETATM   29  F   UNL     1     -10.462   1.744  73.536  1.00  0.00    -0.131 F  
ENDBRANCH  17  20
ENDBRANCH  13  14
ENDBRANCH  12  13
ENDBRANCH   9  12
TORSDOF 4
ENDMDL
MODEL      120
REMARK 921   NORMALIZED FREE ENERGY PREDICTED BY IDOCK:   -5.41 KCAL/MOL
REMARK 922        TOTAL FREE ENERGY PREDICTED BY IDOCK:   -7.26 KCAL/MOL
REMARK 923 INTER-LIGAND FREE ENERGY PREDICTED BY IDOCK:   -6.69 KCAL/MOL
REMARK 924 INTRA-LIGAND FREE ENERGY PREDICTED BY IDOCK:   -0.57 KCAL/MOL
REMARK 927      BINDING AFFINITY PREDICTED BY RF-SCORE:    0.00 PKD
ROOT
HETATM    1  C   UNL     1      -9.864   4.515  71.325  1.00  0.00    -0.260 C  
HETATM    2  C   UNL     1     -10.143   3.629  72.565  1.00  0.00    -0.237 C  
HETATM    3  C   UNL     1     -11.203   4.395  73.376  1.00  0.00    -0.386 C  
HETATM    4  C   UNL     1     -10.965   5.872  73.037  1.00  0.00    -0.303 C  
HETATM    5  C   UNL     1      -9.679   5.812  72.237  1.00  0.00    -0.174 C  
HETATM    6  C   UNL     1      -9.347   6.878  71.284  1.00  0.00    -0.164 A  
HETATM    7  N   UNL     1      -8.465   7.845  71.228  1.00  0.00    -0.113 NA 
HETATM    8  N   UNL     1      -8.180   8.044  69.877  1.00  0.00    -0.117 NA 
HETATM    9  C   UNL     1      -8.838   7.145  69.180  1.00  0.00    -0.135 A  
HETATM   10  C   UNL     1     -10.363   5.232  70.014  1.00  0.00    -0.295 C  
HETATM   11  N   UNL     1      -9.665   6.495  70.027  1.00  0.00    -0.165 NA 
ENDROOT
BRANCH   9  12
HETATM   12  C   UNL     1      -8.735   6.832  67.732  1.00  0.00    -0.120 C  
BRANCH  12  13
HETATM   13  C   UNL     1      -8.389   8.082  66.896  1.00  0.00    -0.116 C  
BRANCH  13  14
HETATM   14  N   UNL     1      -9.559   8.591  66.150  1.00  0.00    -0.228 NA 
HETATM   15  C   UNL     1     -10.494   9.373  66.999  1.00  0.00    -0.231 C  
HETATM   16  C   UNL     1      -9.966  10.758  67.432  1.00  0.00    -0.184 C  
HETATM   17  N   UNL     1      -9.645  11.549  66.236  1.00  0.00    -0.211 NA 
HETATM   18  C   UNL     1      -9.156   9.445  65.002  1.00  0.00    -0.215 C  
HETATM   19  C   UNL     1      -8.686  10.890  65.332  1.00  0.00    -0.155 C  
BRANCH  17  20
HETATM   20  C   UNL     1     -10.111  12.836  66.051  1.00  0.00    -0.268 A  
HETATM   21  C   UNL     1     -10.494  13.309  64.783  1.00  0.00    -0.402 A  
HETATM   22  C   UNL     1     -10.946  14.618  64.571  1.00  0.00    -0.247 A  
HETATM   23  C   UNL     1     -11.025  15.502  65.637  1.00  0.00    -0.307 A  
HETATM   24  C   UNL     1     -10.645  15.083  66.916  1.00  0.00    -0.297 A  
HETATM   25  C   UNL     1     -10.690  16.024  68.089  1.00  0.00    -0.311 C  
HETATM   26  C   UNL     1     -10.207  13.755  67.106  1.00  0.00    -0.244 A  
HETATM   27  F   UNL     1      -9.470  16.195  68.670  1.00  0.00    -0.197 F  
HETATM   28  F   UNL     1     -11.515  15.591  69.082  1.00  0.00    -0.263 F  
HETATM   29  F   UNL     1     -11.126  17.279  67.770  1.00  0.00    -0.349 F  
ENDBRANCH  17  20
ENDBRANCH  13  14
ENDBRANCH  12  13
ENDBRANCH   9  12
TORSDOF 4
ENDMDL
MODEL      121
REMARK 921   NORMALIZED FREE ENERGY PREDICTED BY IDOCK:   -5.37 KCAL/MOL
REMARK 922        TOTAL FREE ENERGY PREDICTED BY IDOCK:   -7.21 KCAL/MOL
REMARK 923 INTER-LIGAND FREE ENERGY PREDICTED BY IDOCK:   -6.78 KCAL/MOL
REMARK 924 INTRA-LIGAND FREE ENERGY PREDICTED BY IDOCK:   -0.42 KCAL/MOL
REMARK 927      BINDING AFFINITY PREDICTED BY RF-SCORE:    0.00 PKD
ROOT
HETATM    1  C   UNL     1     -10.698   5.558  71.640  1.00  0.00    -0.296 C  
HETATM    2  C   UNL     1     -11.268   5.941  73.030  1.00  0.00    -0.258 C  
HETATM    3  C   UNL     1     -10.111   5.705  74.017  1.00  0.00    -0.242 C  
HETATM    4  C   UNL     1      -9.267   4.596  73.376  1.00  0.00    -0.118 C  
HETATM    5  C   UNL     1     -10.132   4.176  72.203  1.00  0.00    -0.248 C  
HETATM    6  C   UNL     1      -9.529   3.530  71.030  1.00  0.00    -0.156 A  
HETATM    7  N   UNL     1      -9.541   2.327  70.514  1.00  0.00    -0.103 NA 
HETATM    8  N   UNL     1      -9.407   2.487  69.134  1.00  0.00    -0.140 NA 
HETATM    9  C   UNL     1      -9.398   3.773  68.867  1.00  0.00    -0.166 A  
HETATM   10  C   UNL     1      -9.653   5.775  70.482  1.00  0.00    -0.173 C  
HETATM   11  N   UNL     1      -9.346   4.435  70.043  1.00  0.00    -0.139 NA 
ENDROOT
BRANCH   9  12
HETATM   12  C   UNL     1      -9.450   4.449  67.546  1.00  0.00    -0.201 C  
BRANCH  12  13
HETATM   13  C   UNL     1      -8.321   5.489  67.387  1.00  0.00    -0.103 C  
BRANCH  13  14
HETATM   14  N   UNL     1      -8.723   6.614  66.515  1.00  0.00    -0.130 NA 
HETATM   15  C   UNL     1     -10.175   6.917  66.589  1.00  0.00    -0.145 C  
HETATM   16  C   UNL     1     -10.630   7.570  67.912  1.00  0.00    -0.185 C  
HETATM   17  N   UNL     1      -9.879   8.817  68.119  1.00  0.00    -0.162 NA 
HETATM   18  C   UNL     1      -7.976   7.858  66.836  1.00  0.00    -0.108 C  
HETATM   19  C   UNL     1      -8.417   8.635  68.109  1.00  0.00    -0.131 C  
BRANCH  17  20
HETATM   20  C   UNL     1     -10.498  10.016  68.414  1.00  0.00    -0.205 A  
HETATM   21  C   UNL     1     -10.888  10.345  69.724  1.00  0.00    -0.342 A  
HETATM   22  C   UNL     1     -11.539  11.545  70.040  1.00  0.00    -0.364 A  
HETATM   23  C   UNL     1     -11.824  12.459  69.036  1.00  0.00    -0.349 A  
HETATM   24  C   UNL     1     -11.467  12.174  67.714  1.00  0.00    -0.398 A  
HETATM   25  C   UNL     1     -11.787  13.130  66.597  1.00  0.00    -0.391 C  
HETATM   26  C   UNL     1     -10.799  10.965  67.425  1.00  0.00    -0.333 A  
HETATM   27  F   UNL     1     -12.584  12.571  65.644  1.00  0.00    -0.485 F  
HETATM   28  F   UNL     1     -10.677  13.567  65.942  1.00  0.00    -0.270 F  
HETATM   29  F   UNL     1     -12.439  14.257  67.009  1.00  0.00    -0.442 F  
ENDBRANCH  17  20
ENDBRANCH  13  14
ENDBRANCH  12  13
ENDBRANCH   9  12
TORSDOF 4
ENDMDL
MODEL      122
REMARK 921   NORMALIZED FREE ENERGY PREDICTED BY IDOCK:   -5.35 KCAL/MOL
REMARK 922        TOTAL FREE ENERGY PREDICTED BY IDOCK:   -7.19 KCAL/MOL
REMARK 923 INTER-LIGAND FREE ENERGY PREDICTED BY IDOCK:   -6.72 KCAL/MOL
REMARK 924 INTRA-LIGAND FREE ENERGY PREDICTED BY IDOCK:   -0.47 KCAL/MOL
REMARK 927      BINDING AFFINITY PREDICTED BY RF-SCORE:    0.00 PKD
ROOT
HETATM    1  C   UNL     1     -11.914  13.565  65.934  1.00  0.00    -0.444 C  
HETATM    2  C   UNL     1     -12.143  14.578  64.783  1.00  0.00    -0.454 C  
HETATM    3  C   UNL     1     -10.990  15.590  64.904  1.00  0.00    -0.452 C  
HETATM    4  C   UNL     1     -10.623  15.592  66.394  1.00  0.00    -0.312 C  
HETATM    5  C   UNL     1     -11.727  14.743  66.994  1.00  0.00    -0.330 C  
HETATM    6  C   UNL     1     -11.518  14.050  68.271  1.00  0.00    -0.304 A  
HETATM    7  N   UNL     1     -11.968  14.180  69.494  1.00  0.00    -0.321 NA 
HETATM    8  N   UNL     1     -11.982  12.901  70.049  1.00  0.00    -0.340 NA 
HETATM    9  C   UNL     1     -11.617  12.044  69.123  1.00  0.00    -0.312 A  
HETATM   10  C   UNL     1     -11.022  12.479  66.645  1.00  0.00    -0.266 C  
HETATM   11  N   UNL     1     -11.203  12.753  68.051  1.00  0.00    -0.253 NA 
ENDROOT
BRANCH   9  12
HETATM   12  C   UNL     1     -11.639  10.561  69.166  1.00  0.00    -0.295 C  
BRANCH  12  13
HETATM   13  C   UNL     1     -12.369  10.032  70.419  1.00  0.00    -0.135 C  
BRANCH  13  14
HETATM   14  N   UNL     1     -11.447   9.837  71.557  1.00  0.00    -0.366 NA 
HETATM   15  C   UNL     1     -11.950   8.854  72.551  1.00  0.00    -0.148 C  
HETATM   16  C   UNL     1     -11.927   7.386  72.074  1.00  0.00    -0.297 C  
HETATM   17  N   UNL     1     -10.553   7.019  71.706  1.00  0.00    -0.210 NA 
HETATM   18  C   UNL     1     -10.101   9.391  71.110  1.00  0.00    -0.265 C  
HETATM   19  C   UNL     1      -9.958   7.902  70.687  1.00  0.00    -0.186 C  
BRANCH  17  20
HETATM   20  C   UNL     1      -9.935   5.880  72.187  1.00  0.00    -0.170 A  
HETATM   21  C   UNL     1     -10.661   4.715  72.487  1.00  0.00    -0.217 A  
HETATM   22  C   UNL     1     -10.057   3.559  72.999  1.00  0.00    -0.219 A  
HETATM   23  C   UNL     1      -8.689   3.541  73.229  1.00  0.00    -0.089 A  
HETATM   24  C   UNL     1      -7.923   4.679  72.957  1.00  0.00    -0.100 A  
HETATM   25  C   UNL     1      -6.442   4.704  73.221  1.00  0.00    -0.051 C  
HETATM   26  C   UNL     1      -8.554   5.825  72.428  1.00  0.00    -0.121 A  
HETATM   27  F   UNL     1      -6.086   5.673  74.109  1.00  0.00    -0.052 F  
HETATM   28  F   UNL     1      -5.709   4.941  72.099  1.00  0.00    -0.010 F  
HETATM   29  F   UNL     1      -5.957   3.535  73.738  1.00  0.00    -0.003 F  
ENDBRANCH  17  20
ENDBRANCH  13  14
ENDBRANCH  12  13
ENDBRANCH   9  12
TORSDOF 4
ENDMDL
MODEL      123
REMARK 921   NORMALIZED FREE ENERGY PREDICTED BY IDOCK:   -5.35 KCAL/MOL
REMARK 922        TOTAL FREE ENERGY PREDICTED BY IDOCK:   -7.19 KCAL/MOL
REMARK 923 INTER-LIGAND FREE ENERGY PREDICTED BY IDOCK:   -6.61 KCAL/MOL
REMARK 924 INTRA-LIGAND FREE ENERGY PREDICTED BY IDOCK:   -0.58 KCAL/MOL
REMARK 927      BINDING AFFINITY PREDICTED BY RF-SCORE:    0.00 PKD
ROOT
HETATM    1  C   UNL     1      -8.573  18.340  66.584  1.00  0.00    -0.287 C  
HETATM    2  C   UNL     1      -8.789  19.837  66.242  1.00  0.00    -0.417 C  
HETATM    3  C   UNL     1     -10.009  20.266  67.075  1.00  0.00    -0.601 C  
HETATM    4  C   UNL     1     -10.837  18.986  67.250  1.00  0.00    -0.494 C  
HETATM    5  C   UNL     1     -10.116  18.014  66.337  1.00  0.00    -0.384 C  
HETATM    6  C   UNL     1     -10.219  16.567  66.564  1.00  0.00    -0.300 A  
HETATM    7  N   UNL     1     -10.794  15.562  65.954  1.00  0.00    -0.327 NA 
HETATM    8  N   UNL     1     -10.000  14.442  66.201  1.00  0.00    -0.298 NA 
HETATM    9  C   UNL     1      -8.944  14.827  66.881  1.00  0.00    -0.253 A  
HETATM   10  C   UNL     1      -8.269  17.206  67.634  1.00  0.00    -0.187 C  
HETATM   11  N   UNL     1      -9.127  16.120  67.223  1.00  0.00    -0.201 NA 
ENDROOT
BRANCH   9  12
HETATM   12  C   UNL     1      -7.730  14.049  67.233  1.00  0.00    -0.120 C  
BRANCH  12  13
HETATM   13  C   UNL     1      -8.012  12.533  67.284  1.00  0.00    -0.173 C  
BRANCH  13  14
HETATM   14  N   UNL     1      -8.502  12.104  68.612  1.00  0.00    -0.067 NA 
HETATM   15  C   UNL     1      -9.873  11.533  68.568  1.00  0.00    -0.195 C  
HETATM   16  C   UNL     1      -9.971  10.143  67.906  1.00  0.00    -0.162 C  
HETATM   17  N   UNL     1      -9.094   9.204  68.620  1.00  0.00    -0.136 NA 
HETATM   18  C   UNL     1      -7.604  11.099  69.236  1.00  0.00    -0.055 C  
HETATM   19  C   UNL     1      -7.690   9.645  68.691  1.00  0.00    -0.080 C  
BRANCH  17  20
HETATM   20  C   UNL     1      -9.533   7.974  69.070  1.00  0.00    -0.151 A  
HETATM   21  C   UNL     1     -10.628   7.319  68.480  1.00  0.00    -0.207 A  
HETATM   22  C   UNL     1     -11.104   6.083  68.938  1.00  0.00    -0.349 A  
HETATM   23  C   UNL     1     -10.489   5.463  70.016  1.00  0.00    -0.373 A  
HETATM   24  C   UNL     1      -9.403   6.080  70.645  1.00  0.00    -0.176 A  
HETATM   25  C   UNL     1      -8.731   5.450  71.835  1.00  0.00    -0.135 C  
HETATM   26  C   UNL     1      -8.933   7.317  70.155  1.00  0.00    -0.148 A  
HETATM   27  F   UNL     1      -8.777   6.243  72.941  1.00  0.00    -0.125 F  
HETATM   28  F   UNL     1      -7.412   5.190  71.620  1.00  0.00    -0.082 F  
HETATM   29  F   UNL     1      -9.284   4.259  72.211  1.00  0.00    -0.123 F  
ENDBRANCH  17  20
ENDBRANCH  13  14
ENDBRANCH  12  13
ENDBRANCH   9  12
TORSDOF 4
ENDMDL
MODEL      124
REMARK 921   NORMALIZED FREE ENERGY PREDICTED BY IDOCK:   -5.35 KCAL/MOL
REMARK 922        TOTAL FREE ENERGY PREDICTED BY IDOCK:   -7.18 KCAL/MOL
REMARK 923 INTER-LIGAND FREE ENERGY PREDICTED BY IDOCK:   -6.68 KCAL/MOL
REMARK 924 INTRA-LIGAND FREE ENERGY PREDICTED BY IDOCK:   -0.50 KCAL/MOL
REMARK 927      BINDING AFFINITY PREDICTED BY RF-SCORE:    0.00 PKD
ROOT
HETATM    1  C   UNL     1      -9.860   3.645  71.353  1.00  0.00    -0.219 C  
HETATM    2  C   UNL     1      -9.631   2.368  72.201  1.00  0.00    -0.190 C  
HETATM    3  C   UNL     1      -8.154   1.998  71.979  1.00  0.00    -0.049 C  
HETATM    4  C   UNL     1      -7.819   2.538  70.582  1.00  0.00    -0.046 C  
HETATM    5  C   UNL     1      -9.180   2.974  70.075  1.00  0.00    -0.216 C  
HETATM    6  C   UNL     1      -9.288   3.998  69.029  1.00  0.00    -0.169 A  
HETATM    7  N   UNL     1      -9.636   4.016  67.767  1.00  0.00    -0.172 NA 
HETATM    8  N   UNL     1     -10.200   5.270  67.529  1.00  0.00    -0.187 NA 
HETATM    9  C   UNL     1     -10.242   5.926  68.667  1.00  0.00    -0.192 A  
HETATM   10  C   UNL     1      -9.522   5.148  71.024  1.00  0.00    -0.160 C  
HETATM   11  N   UNL     1      -9.565   5.201  69.582  1.00  0.00    -0.152 NA 
ENDROOT
BRANCH   9  12
HETATM   12  C   UNL     1     -10.903   7.220  68.970  1.00  0.00    -0.137 C  
BRANCH  12  13
HETATM   13  C   UNL     1     -10.088   8.421  68.445  1.00  0.00    -0.198 C  
BRANCH  13  14
HETATM   14  N   UNL     1      -9.946   9.483  69.463  1.00  0.00    -0.182 NA 
HETATM   15  C   UNL     1      -8.983  10.542  69.067  1.00  0.00    -0.176 C  
HETATM   16  C   UNL     1      -9.474  11.470  67.935  1.00  0.00    -0.178 C  
HETATM   17  N   UNL     1     -10.731  12.110  68.347  1.00  0.00    -0.220 NA 
HETATM   18  C   UNL     1     -11.246  10.135  69.769  1.00  0.00    -0.272 C  
HETATM   19  C   UNL     1     -11.786  11.152  68.724  1.00  0.00    -0.326 C  
BRANCH  17  20
HETATM   20  C   UNL     1     -10.931  13.475  68.266  1.00  0.00    -0.258 A  
HETATM   21  C   UNL     1     -11.691  14.169  69.224  1.00  0.00    -0.368 A  
HETATM   22  C   UNL     1     -11.924  15.549  69.146  1.00  0.00    -0.331 A  
HETATM   23  C   UNL     1     -11.397  16.279  68.091  1.00  0.00    -0.248 A  
HETATM   24  C   UNL     1     -10.643  15.633  67.106  1.00  0.00    -0.308 A  
HETATM   25  C   UNL     1     -10.081  16.389  65.933  1.00  0.00    -0.347 C  
HETATM   26  C   UNL     1     -10.410  14.245  67.216  1.00  0.00    -0.260 A  
HETATM   27  F   UNL     1     -10.539  15.917  64.740  1.00  0.00    -0.424 F  
HETATM   28  F   UNL     1      -8.724  16.321  65.863  1.00  0.00    -0.347 F  
HETATM   29  F   UNL     1     -10.384  17.721  65.943  1.00  0.00    -0.349 F  
ENDBRANCH  17  20
ENDBRANCH  13  14
ENDBRANCH  12  13
ENDBRANCH   9  12
TORSDOF 4
ENDMDL
MODEL      125
REMARK 921   NORMALIZED FREE ENERGY PREDICTED BY IDOCK:   -5.34 KCAL/MOL
REMARK 922        TOTAL FREE ENERGY PREDICTED BY IDOCK:   -7.17 KCAL/MOL
REMARK 923 INTER-LIGAND FREE ENERGY PREDICTED BY IDOCK:   -6.69 KCAL/MOL
REMARK 924 INTRA-LIGAND FREE ENERGY PREDICTED BY IDOCK:   -0.49 KCAL/MOL
REMARK 927      BINDING AFFINITY PREDICTED BY RF-SCORE:    0.00 PKD
ROOT
HETATM    1  C   UNL     1      -9.733   6.507  70.165  1.00  0.00    -0.180 C  
HETATM    2  C   UNL     1     -10.231   6.112  71.578  1.00  0.00    -0.243 C  
HETATM    3  C   UNL     1      -9.700   4.686  71.807  1.00  0.00    -0.230 C  
HETATM    4  C   UNL     1      -9.592   4.076  70.404  1.00  0.00    -0.265 C  
HETATM    5  C   UNL     1     -10.259   5.134  69.546  1.00  0.00    -0.318 C  
HETATM    6  C   UNL     1      -9.942   5.238  68.116  1.00  0.00    -0.155 A  
HETATM    7  N   UNL     1     -10.572   4.990  66.995  1.00  0.00    -0.158 NA 
HETATM    8  N   UNL     1     -10.079   5.896  66.056  1.00  0.00     0.052 NA 
HETATM    9  C   UNL     1      -9.233   6.699  66.660  1.00  0.00    -0.157 A  
HETATM   10  C   UNL     1      -8.555   6.773  69.154  1.00  0.00    -0.131 C  
HETATM   11  N   UNL     1      -9.041   6.225  67.910  1.00  0.00    -0.113 NA 
ENDROOT
BRANCH   9  12
HETATM   12  C   UNL     1      -8.581   7.927  66.139  1.00  0.00    -0.164 C  
BRANCH  12  13
HETATM   13  C   UNL     1      -8.838   9.146  67.049  1.00  0.00    -0.123 C  
BRANCH  13  14
HETATM   14  N   UNL     1     -10.211   9.672  66.898  1.00  0.00    -0.230 NA 
HETATM   15  C   UNL     1     -11.145   9.162  67.935  1.00  0.00     0.185 C  
HETATM   16  C   UNL     1     -10.911   9.732  69.350  1.00  0.00    -0.232 C  
HETATM   17  N   UNL     1     -11.015  11.197  69.304  1.00  0.00    -0.237 NA 
HETATM   18  C   UNL     1     -10.244  11.157  66.939  1.00  0.00    -0.222 C  
HETATM   19  C   UNL     1     -10.099  11.825  68.336  1.00  0.00    -0.201 C  
BRANCH  17  20
HETATM   20  C   UNL     1     -11.813  11.912  70.177  1.00  0.00    -0.308 A  
HETATM   21  C   UNL     1     -12.591  11.274  71.159  1.00  0.00    -0.501 A  
HETATM   22  C   UNL     1     -13.425  11.979  72.037  1.00  0.00    -0.364 A  
HETATM   23  C   UNL     1     -13.504  13.362  71.951  1.00  0.00    -0.526 A  
HETATM   24  C   UNL     1     -12.759  14.042  70.984  1.00  0.00    -0.431 A  
HETATM   25  C   UNL     1     -12.844  15.538  70.844  1.00  0.00    -0.477 C  
HETATM   26  C   UNL     1     -11.915  13.310  70.121  1.00  0.00    -0.388 A  
HETATM   27  F   UNL     1     -13.275  15.924  69.611  1.00  0.00     0.150 F  
HETATM   28  F   UNL     1     -11.644  16.154  71.028  1.00  0.00    -0.369 F  
HETATM   29  F   UNL     1     -13.699  16.124  71.733  1.00  0.00    -0.350 F  
ENDBRANCH  17  20
ENDBRANCH  13  14
ENDBRANCH  12  13
ENDBRANCH   9  12
TORSDOF 4
ENDMDL
MODEL      126
REMARK 921   NORMALIZED FREE ENERGY PREDICTED BY IDOCK:   -5.33 KCAL/MOL
REMARK 922        TOTAL FREE ENERGY PREDICTED BY IDOCK:   -7.16 KCAL/MOL
REMARK 923 INTER-LIGAND FREE ENERGY PREDICTED BY IDOCK:   -6.50 KCAL/MOL
REMARK 924 INTRA-LIGAND FREE ENERGY PREDICTED BY IDOCK:   -0.66 KCAL/MOL
REMARK 927      BINDING AFFINITY PREDICTED BY RF-SCORE:    0.00 PKD
ROOT
HETATM    1  C   UNL     1     -12.554  13.696  72.480  1.00  0.00    -0.049 C  
HETATM    2  C   UNL     1     -12.275  15.199  72.740  1.00  0.00    -0.485 C  
HETATM    3  C   UNL     1     -12.991  15.943  71.600  1.00  0.00    -0.376 C  
HETATM    4  C   UNL     1     -13.002  14.952  70.428  1.00  0.00    -0.272 C  
HETATM    5  C   UNL     1     -12.121  13.834  70.950  1.00  0.00    -0.366 C  
HETATM    6  C   UNL     1     -12.253  12.474  70.414  1.00  0.00    -0.286 A  
HETATM    7  N   UNL     1     -11.528  11.690  69.656  1.00  0.00    -0.290 NA 
HETATM    8  N   UNL     1     -11.798  10.383  70.065  1.00  0.00    -0.276 NA 
HETATM    9  C   UNL     1     -12.611  10.433  71.096  1.00  0.00    -0.410 A  
HETATM   10  C   UNL     1     -13.565  12.500  72.320  1.00  0.00    -0.342 C  
HETATM   11  N   UNL     1     -13.003  11.716  71.246  1.00  0.00    -0.338 NA 
ENDROOT
BRANCH   9  12
HETATM   12  C   UNL     1     -13.051   9.331  71.988  1.00  0.00    -0.512 C  
BRANCH  12  13
HETATM   13  C   UNL     1     -11.899   8.355  72.308  1.00  0.00    -0.389 C  
BRANCH  13  14
HETATM   14  N   UNL     1     -12.227   6.965  71.925  1.00  0.00    -0.334 NA 
HETATM   15  C   UNL     1     -12.342   6.780  70.456  1.00  0.00    -0.101 C  
HETATM   16  C   UNL     1     -11.003   6.844  69.691  1.00  0.00    -0.259 C  
HETATM   17  N   UNL     1     -10.093   5.820  70.224  1.00  0.00    -0.196 NA 
HETATM   18  C   UNL     1     -11.220   5.998  72.434  1.00  0.00    -0.292 C  
HETATM   19  C   UNL     1      -9.865   5.930  71.675  1.00  0.00    -0.165 C  
BRANCH  17  20
HETATM   20  C   UNL     1      -9.427   4.923  69.410  1.00  0.00    -0.152 A  
HETATM   21  C   UNL     1      -9.958   4.510  68.176  1.00  0.00    -0.098 A  
HETATM   22  C   UNL     1      -9.311   3.583  67.348  1.00  0.00    -0.246 A  
HETATM   23  C   UNL     1      -8.098   3.037  67.742  1.00  0.00    -0.082 A  
HETATM   24  C   UNL     1      -7.533   3.407  68.966  1.00  0.00    -0.049 A  
HETATM   25  C   UNL     1      -6.234   2.813  69.437  1.00  0.00    -0.028 C  
HETATM   26  C   UNL     1      -8.198   4.354  69.774  1.00  0.00    -0.067 A  
HETATM   27  F   UNL     1      -6.360   2.153  70.622  1.00  0.00    -0.021 F  
HETATM   28  F   UNL     1      -5.266   3.749  69.635  1.00  0.00    -0.006 F  
HETATM   29  F   UNL     1      -5.697   1.907  68.566  1.00  0.00    -0.016 F  
ENDBRANCH  17  20
ENDBRANCH  13  14
ENDBRANCH  12  13
ENDBRANCH   9  12
TORSDOF 4
ENDMDL
MODEL      127
REMARK 921   NORMALIZED FREE ENERGY PREDICTED BY IDOCK:   -5.31 KCAL/MOL
REMARK 922        TOTAL FREE ENERGY PREDICTED BY IDOCK:   -7.14 KCAL/MOL
REMARK 923 INTER-LIGAND FREE ENERGY PREDICTED BY IDOCK:   -6.56 KCAL/MOL
REMARK 924 INTRA-LIGAND FREE ENERGY PREDICTED BY IDOCK:   -0.58 KCAL/MOL
REMARK 927      BINDING AFFINITY PREDICTED BY RF-SCORE:    0.00 PKD
ROOT
HETATM    1  C   UNL     1      -9.498   3.260  71.604  1.00  0.00    -0.220 C  
HETATM    2  C   UNL     1      -9.188   1.759  71.838  1.00  0.00    -0.143 C  
HETATM    3  C   UNL     1      -7.898   1.487  71.045  1.00  0.00    -0.035 C  
HETATM    4  C   UNL     1      -7.924   2.500  69.892  1.00  0.00    -0.053 C  
HETATM    5  C   UNL     1      -9.310   3.100  70.027  1.00  0.00    -0.226 C  
HETATM    6  C   UNL     1      -9.594   4.437  69.493  1.00  0.00    -0.201 A  
HETATM    7  N   UNL     1     -10.291   4.919  68.495  1.00  0.00    -0.034 NA 
HETATM    8  N   UNL     1     -10.744   6.176  68.898  1.00  0.00    -0.278 NA 
HETATM    9  C   UNL     1     -10.370   6.370  70.142  1.00  0.00    -0.198 A  
HETATM   10  C   UNL     1      -9.091   4.777  71.726  1.00  0.00    -0.135 C  
HETATM   11  N   UNL     1      -9.548   5.355  70.485  1.00  0.00    -0.167 NA 
ENDROOT
BRANCH   9  12
HETATM   12  C   UNL     1     -10.750   7.466  71.067  1.00  0.00    -0.244 C  
BRANCH  12  13
HETATM   13  C   UNL     1     -11.461   8.621  70.332  1.00  0.00    -0.136 C  
BRANCH  13  14
HETATM   14  N   UNL     1     -10.681   9.875  70.382  1.00  0.00    -0.300 NA 
HETATM   15  C   UNL     1      -9.691   9.988  69.281  1.00  0.00    -0.215 C  
HETATM   16  C   UNL     1     -10.304  10.238  67.886  1.00  0.00    -0.196 C  
HETATM   17  N   UNL     1     -11.105  11.469  67.924  1.00  0.00    -0.237 NA 
HETATM   18  C   UNL     1     -11.556  11.075  70.339  1.00  0.00    -0.293 C  
HETATM   19  C   UNL     1     -12.157  11.458  68.956  1.00  0.00    -0.249 C  
BRANCH  17  20
HETATM   20  C   UNL     1     -10.955  12.481  66.996  1.00  0.00    -0.267 A  
HETATM   21  C   UNL     1     -11.664  12.482  65.781  1.00  0.00    -0.478 A  
HETATM   22  C   UNL     1     -11.507  13.486  64.817  1.00  0.00    -0.365 A  
HETATM   23  C   UNL     1     -10.622  14.530  65.045  1.00  0.00    -0.458 A  
HETATM   24  C   UNL     1      -9.886  14.569  66.233  1.00  0.00    -0.322 A  
HETATM   25  C   UNL     1      -8.896  15.670  66.501  1.00  0.00    -0.310 C  
HETATM   26  C   UNL     1     -10.073  13.553  67.195  1.00  0.00    -0.245 A  
HETATM   27  F   UNL     1      -7.631  15.202  66.687  1.00  0.00    -0.175 F  
HETATM   28  F   UNL     1      -9.194  16.387  67.619  1.00  0.00    -0.196 F  
HETATM   29  F   UNL     1      -8.806  16.585  65.490  1.00  0.00    -0.184 F  
ENDBRANCH  17  20
ENDBRANCH  13  14
ENDBRANCH  12  13
ENDBRANCH   9  12
TORSDOF 4
ENDMDL
MODEL      128
REMARK 921   NORMALIZED FREE ENERGY PREDICTED BY IDOCK:   -5.31 KCAL/MOL
REMARK 922        TOTAL FREE ENERGY PREDICTED BY IDOCK:   -7.14 KCAL/MOL
REMARK 923 INTER-LIGAND FREE ENERGY PREDICTED BY IDOCK:   -6.71 KCAL/MOL
REMARK 924 INTRA-LIGAND FREE ENERGY PREDICTED BY IDOCK:   -0.42 KCAL/MOL
REMARK 927      BINDING AFFINITY PREDICTED BY RF-SCORE:    0.00 PKD
ROOT
HETATM    1  C   UNL     1      -8.950   5.661  65.924  1.00  0.00    -0.160 C  
HETATM    2  C   UNL     1      -8.451   5.273  64.509  1.00  0.00    -0.133 C  
HETATM    3  C   UNL     1      -9.527   4.328  63.948  1.00  0.00    -0.125 C  
HETATM    4  C   UNL     1     -10.145   3.659  65.183  1.00  0.00    -0.028 C  
HETATM    5  C   UNL     1      -9.229   4.133  66.293  1.00  0.00    -0.156 C  
HETATM    6  C   UNL     1      -9.707   4.179  67.681  1.00  0.00    -0.122 A  
HETATM    7  N   UNL     1      -9.466   3.507  68.778  1.00  0.00    -0.162 NA 
HETATM    8  N   UNL     1      -9.644   4.399  69.837  1.00  0.00    -0.188 NA 
HETATM    9  C   UNL     1      -9.908   5.585  69.337  1.00  0.00    -0.177 A  
HETATM   10  C   UNL     1     -10.031   6.319  66.861  1.00  0.00    -0.169 C  
HETATM   11  N   UNL     1     -10.075   5.440  68.005  1.00  0.00    -0.171 NA 
ENDROOT
BRANCH   9  12
HETATM   12  C   UNL     1     -10.004   6.889  70.038  1.00  0.00    -0.190 C  
BRANCH  12  13
HETATM   13  C   UNL     1      -8.730   7.739  69.853  1.00  0.00    -0.142 C  
BRANCH  13  14
HETATM   14  N   UNL     1      -8.879   9.094  70.426  1.00  0.00    -0.200 NA 
HETATM   15  C   UNL     1      -8.213  10.144  69.613  1.00  0.00    -0.165 C  
HETATM   16  C   UNL     1      -8.910  10.460  68.272  1.00  0.00    -0.135 C  
HETATM   17  N   UNL     1     -10.295  10.876  68.534  1.00  0.00    -0.178 NA 
HETATM   18  C   UNL     1     -10.306   9.473  70.588  1.00  0.00    -0.302 C  
HETATM   19  C   UNL     1     -11.074   9.889  69.301  1.00  0.00    -0.181 C  
BRANCH  17  20
HETATM   20  C   UNL     1     -10.836  12.031  68.001  1.00  0.00    -0.216 A  
HETATM   21  C   UNL     1     -11.418  13.019  68.815  1.00  0.00    -0.340 A  
HETATM   22  C   UNL     1     -11.993  14.184  68.292  1.00  0.00    -0.367 A  
HETATM   23  C   UNL     1     -12.003  14.393  66.920  1.00  0.00    -0.425 A  
HETATM   24  C   UNL     1     -11.447  13.435  66.068  1.00  0.00    -0.351 A  
HETATM   25  C   UNL     1     -11.467  13.615  64.574  1.00  0.00    -0.379 C  
HETATM   26  C   UNL     1     -10.860  12.276  66.620  1.00  0.00    -0.296 A  
HETATM   27  F   UNL     1     -12.133  12.613  63.935  1.00  0.00    -0.415 F  
HETATM   28  F   UNL     1     -10.220  13.638  64.028  1.00  0.00    -0.376 F  
HETATM   29  F   UNL     1     -12.068  14.773  64.169  1.00  0.00    -0.464 F  
ENDBRANCH  17  20
ENDBRANCH  13  14
ENDBRANCH  12  13
ENDBRANCH   9  12
TORSDOF 4
ENDMDL
MODEL      129
REMARK 921   NORMALIZED FREE ENERGY PREDICTED BY IDOCK:   -5.29 KCAL/MOL
REMARK 922        TOTAL FREE ENERGY PREDICTED BY IDOCK:   -7.12 KCAL/MOL
REMARK 923 INTER-LIGAND FREE ENERGY PREDICTED BY IDOCK:   -6.69 KCAL/MOL
REMARK 924 INTRA-LIGAND FREE ENERGY PREDICTED BY IDOCK:   -0.43 KCAL/MOL
REMARK 927      BINDING AFFINITY PREDICTED BY RF-SCORE:    0.00 PKD
ROOT
HETATM    1  C   UNL     1      -8.757   7.365  72.877  1.00  0.00    -0.165 C  
HETATM    2  C   UNL     1      -8.417   8.093  74.203  1.00  0.00    -0.250 C  
HETATM    3  C   UNL     1      -6.991   7.636  74.557  1.00  0.00    -0.134 C  
HETATM    4  C   UNL     1      -6.859   6.240  73.934  1.00  0.00    -0.082 C  
HETATM    5  C   UNL     1      -8.276   5.964  73.470  1.00  0.00    -0.111 C  
HETATM    6  C   UNL     1      -8.529   5.008  72.385  1.00  0.00    -0.121 A  
HETATM    7  N   UNL     1      -9.057   3.813  72.293  1.00  0.00    -0.111 NA 
HETATM    8  N   UNL     1      -9.641   3.735  71.028  1.00  0.00    -0.169 NA 
HETATM    9  C   UNL     1      -9.511   4.903  70.441  1.00  0.00    -0.167 A  
HETATM   10  C   UNL     1      -8.461   7.080  71.357  1.00  0.00    -0.114 C  
HETATM   11  N   UNL     1      -8.713   5.665  71.218  1.00  0.00    -0.131 NA 
ENDROOT
BRANCH   9  12
HETATM   12  C   UNL     1     -10.111   5.376  69.168  1.00  0.00    -0.293 C  
BRANCH  12  13
HETATM   13  C   UNL     1      -9.045   5.929  68.199  1.00  0.00    -0.117 C  
BRANCH  13  14
HETATM   14  N   UNL     1      -9.587   6.139  66.840  1.00  0.00    -0.137 NA 
HETATM   15  C   UNL     1     -10.838   6.940  66.831  1.00  0.00    -0.310 C  
HETATM   16  C   UNL     1     -10.648   8.436  67.160  1.00  0.00    -0.256 C  
HETATM   17  N   UNL     1      -9.706   9.026  66.198  1.00  0.00    -0.274 NA 
HETATM   18  C   UNL     1      -8.605   6.810  65.949  1.00  0.00    -0.147 C  
HETATM   19  C   UNL     1      -8.404   8.339  66.149  1.00  0.00    -0.124 C  
BRANCH  17  20
HETATM   20  C   UNL     1      -9.986  10.187  65.503  1.00  0.00    -0.293 A  
HETATM   21  C   UNL     1      -9.676  10.325  64.139  1.00  0.00    -0.357 A  
HETATM   22  C   UNL     1      -9.929  11.503  63.422  1.00  0.00    -0.445 A  
HETATM   23  C   UNL     1     -10.504  12.590  64.064  1.00  0.00    -0.449 A  
HETATM   24  C   UNL     1     -10.821  12.507  65.423  1.00  0.00    -0.316 A  
HETATM   25  C   UNL     1     -11.419  13.676  66.157  1.00  0.00    -0.325 C  
HETATM   26  C   UNL     1     -10.570  11.304  66.118  1.00  0.00    -0.312 A  
HETATM   27  F   UNL     1     -10.645  14.092  67.198  1.00  0.00    -0.266 F  
HETATM   28  F   UNL     1     -12.639  13.396  66.692  1.00  0.00    -0.381 F  
HETATM   29  F   UNL     1     -11.606  14.779  65.373  1.00  0.00    -0.335 F  
ENDBRANCH  17  20
ENDBRANCH  13  14
ENDBRANCH  12  13
ENDBRANCH   9  12
TORSDOF 4
ENDMDL
MODEL      130
REMARK 921   NORMALIZED FREE ENERGY PREDICTED BY IDOCK:   -5.29 KCAL/MOL
REMARK 922        TOTAL FREE ENERGY PREDICTED BY IDOCK:   -7.11 KCAL/MOL
REMARK 923 INTER-LIGAND FREE ENERGY PREDICTED BY IDOCK:   -6.52 KCAL/MOL
REMARK 924 INTRA-LIGAND FREE ENERGY PREDICTED BY IDOCK:   -0.59 KCAL/MOL
REMARK 927      BINDING AFFINITY PREDICTED BY RF-SCORE:    0.00 PKD
ROOT
HETATM    1  C   UNL     1     -10.346  16.044  67.888  1.00  0.00    -0.269 C  
HETATM    2  C   UNL     1      -9.643  17.351  67.442  1.00  0.00    -0.257 C  
HETATM    3  C   UNL     1     -10.236  17.674  66.059  1.00  0.00    -0.301 C  
HETATM    4  C   UNL     1     -10.631  16.312  65.473  1.00  0.00    -0.369 C  
HETATM    5  C   UNL     1     -10.043  15.348  66.484  1.00  0.00    -0.282 C  
HETATM    6  C   UNL     1     -10.594  13.995  66.626  1.00  0.00    -0.274 A  
HETATM    7  N   UNL     1     -10.189  12.782  66.342  1.00  0.00    -0.249 NA 
HETATM    8  N   UNL     1     -10.765  11.939  67.292  1.00  0.00    -0.227 NA 
HETATM    9  C   UNL     1     -11.429  12.678  68.152  1.00  0.00    -0.313 A  
HETATM   10  C   UNL     1     -11.657  15.251  68.254  1.00  0.00    -0.341 C  
HETATM   11  N   UNL     1     -11.438  13.944  67.682  1.00  0.00    -0.306 NA 
ENDROOT
BRANCH   9  12
HETATM   12  C   UNL     1     -12.064  12.273  69.431  1.00  0.00    -0.234 C  
BRANCH  12  13
HETATM   13  C   UNL     1     -12.036  10.744  69.630  1.00  0.00    -0.313 C  
BRANCH  13  14
HETATM   14  N   UNL     1     -11.087  10.339  70.689  1.00  0.00    -0.319 NA 
HETATM   15  C   UNL     1     -11.581   9.203  71.508  1.00  0.00    -0.368 C  
HETATM   16  C   UNL     1     -11.597   7.842  70.780  1.00  0.00    -0.247 C  
HETATM   17  N   UNL     1     -10.239   7.528  70.313  1.00  0.00    -0.202 NA 
HETATM   18  C   UNL     1      -9.762   9.963  70.132  1.00  0.00    -0.202 C  
HETATM   19  C   UNL     1      -9.656   8.570  69.450  1.00  0.00    -0.170 C  
BRANCH  17  20
HETATM   20  C   UNL     1      -9.628   6.316  70.568  1.00  0.00    -0.165 A  
HETATM   21  C   UNL     1     -10.127   5.111  70.043  1.00  0.00    -0.345 A  
HETATM   22  C   UNL     1      -9.537   3.869  70.309  1.00  0.00    -0.271 A  
HETATM   23  C   UNL     1      -8.416   3.799  71.124  1.00  0.00    -0.097 A  
HETATM   24  C   UNL     1      -7.887   4.968  71.680  1.00  0.00    -0.108 A  
HETATM   25  C   UNL     1      -6.690   4.925  72.591  1.00  0.00    -0.061 C  
HETATM   26  C   UNL     1      -8.492   6.208  71.384  1.00  0.00    -0.128 A  
HETATM   27  F   UNL     1      -6.957   5.428  73.828  1.00  0.00    -0.077 F  
HETATM   28  F   UNL     1      -5.639   5.649  72.116  1.00  0.00    -0.018 F  
HETATM   29  F   UNL     1      -6.205   3.666  72.801  1.00  0.00    -0.010 F  
ENDBRANCH  17  20
ENDBRANCH  13  14
ENDBRANCH  12  13
ENDBRANCH   9  12
TORSDOF 4
ENDMDL
MODEL      131
REMARK 921   NORMALIZED FREE ENERGY PREDICTED BY IDOCK:   -5.28 KCAL/MOL
REMARK 922        TOTAL FREE ENERGY PREDICTED BY IDOCK:   -7.10 KCAL/MOL
REMARK 923 INTER-LIGAND FREE ENERGY PREDICTED BY IDOCK:   -6.54 KCAL/MOL
REMARK 924 INTRA-LIGAND FREE ENERGY PREDICTED BY IDOCK:   -0.57 KCAL/MOL
REMARK 927      BINDING AFFINITY PREDICTED BY RF-SCORE:    0.00 PKD
ROOT
HETATM    1  C   UNL     1      -9.068  15.094  67.089  1.00  0.00    -0.226 C  
HETATM    2  C   UNL     1      -8.089  16.154  66.522  1.00  0.00    -0.331 C  
HETATM    3  C   UNL     1      -8.975  17.349  66.128  1.00  0.00    -0.174 C  
HETATM    4  C   UNL     1     -10.339  16.732  65.790  1.00  0.00    -0.322 C  
HETATM    5  C   UNL     1     -10.035  15.248  65.829  1.00  0.00    -0.391 C  
HETATM    6  C   UNL     1     -11.108  14.277  66.078  1.00  0.00    -0.319 A  
HETATM    7  N   UNL     1     -11.739  13.375  65.369  1.00  0.00    -0.319 NA 
HETATM    8  N   UNL     1     -12.099  12.357  66.253  1.00  0.00    -0.630 NA 
HETATM    9  C   UNL     1     -11.608  12.646  67.437  1.00  0.00    -0.360 A  
HETATM   10  C   UNL     1     -10.147  14.657  68.149  1.00  0.00    -0.224 C  
HETATM   11  N   UNL     1     -11.099  13.895  67.375  1.00  0.00    -0.291 NA 
ENDROOT
BRANCH   9  12
HETATM   12  C   UNL     1     -11.569  11.804  68.658  1.00  0.00    -0.367 C  
BRANCH  12  13
HETATM   13  C   UNL     1     -10.272  10.973  68.745  1.00  0.00    -0.198 C  
BRANCH  13  14
HETATM   14  N   UNL     1     -10.540   9.520  68.701  1.00  0.00    -0.217 NA 
HETATM   15  C   UNL     1      -9.306   8.707  68.553  1.00  0.00    -0.138 C  
HETATM   16  C   UNL     1      -8.407   8.665  69.808  1.00  0.00    -0.123 C  
HETATM   17  N   UNL     1      -9.183   8.140  70.941  1.00  0.00    -0.148 NA 
HETATM   18  C   UNL     1     -11.258   9.052  69.914  1.00  0.00    -0.079 C  
HETATM   19  C   UNL     1     -10.417   8.898  71.214  1.00  0.00    -0.287 C  
BRANCH  17  20
HETATM   20  C   UNL     1      -8.725   7.110  71.739  1.00  0.00    -0.117 A  
HETATM   21  C   UNL     1      -7.429   7.114  72.282  1.00  0.00    -0.084 A  
HETATM   22  C   UNL     1      -6.938   6.068  73.073  1.00  0.00    -0.080 A  
HETATM   23  C   UNL     1      -7.744   4.972  73.344  1.00  0.00    -0.096 A  
HETATM   24  C   UNL     1      -9.038   4.914  72.818  1.00  0.00    -0.135 A  
HETATM   25  C   UNL     1      -9.928   3.727  73.067  1.00  0.00    -0.141 C  
HETATM   26  C   UNL     1      -9.514   5.988  72.036  1.00  0.00    -0.161 A  
HETATM   27  F   UNL     1     -10.309   3.108  71.915  1.00  0.00    -0.223 F  
HETATM   28  F   UNL     1     -11.082   4.058  73.709  1.00  0.00    -0.275 F  
HETATM   29  F   UNL     1      -9.347   2.756  73.832  1.00  0.00    -0.082 F  
ENDBRANCH  17  20
ENDBRANCH  13  14
ENDBRANCH  12  13
ENDBRANCH   9  12
TORSDOF 4
ENDMDL
MODEL      132
REMARK 921   NORMALIZED FREE ENERGY PREDICTED BY IDOCK:   -5.27 KCAL/MOL
REMARK 922        TOTAL FREE ENERGY PREDICTED BY IDOCK:   -7.08 KCAL/MOL
REMARK 923 INTER-LIGAND FREE ENERGY PREDICTED BY IDOCK:   -6.51 KCAL/MOL
REMARK 924 INTRA-LIGAND FREE ENERGY PREDICTED BY IDOCK:   -0.57 KCAL/MOL
REMARK 927      BINDING AFFINITY PREDICTED BY RF-SCORE:    0.00 PKD
ROOT
HETATM    1  C   UNL     1      -9.686   3.880  69.617  1.00  0.00    -0.208 C  
HETATM    2  C   UNL     1      -9.388   2.552  70.358  1.00  0.00    -0.204 C  
HETATM    3  C   UNL     1      -8.393   2.927  71.470  1.00  0.00    -0.081 C  
HETATM    4  C   UNL     1      -7.636   4.146  70.926  1.00  0.00    -0.051 C  
HETATM    5  C   UNL     1      -8.130   4.213  69.494  1.00  0.00    -0.063 C  
HETATM    6  C   UNL     1      -8.090   5.481  68.755  1.00  0.00    -0.099 A  
HETATM    7  N   UNL     1      -7.394   5.962  67.756  1.00  0.00    -0.076 NA 
HETATM    8  N   UNL     1      -8.231   6.854  67.084  1.00  0.00    -0.117 NA 
HETATM    9  C   UNL     1      -9.414   6.819  67.653  1.00  0.00    -0.118 A  
HETATM   10  C   UNL     1     -10.232   5.357  69.622  1.00  0.00    -0.274 C  
HETATM   11  N   UNL     1      -9.309   6.067  68.770  1.00  0.00    -0.122 NA 
ENDROOT
BRANCH   9  12
HETATM   12  C   UNL     1     -10.681   7.450  67.205  1.00  0.00    -0.379 C  
BRANCH  12  13
HETATM   13  C   UNL     1     -10.485   8.933  66.828  1.00  0.00    -0.199 C  
BRANCH  13  14
HETATM   14  N   UNL     1      -9.733   9.674  67.863  1.00  0.00    -0.143 NA 
HETATM   15  C   UNL     1      -9.073  10.896  67.339  1.00  0.00    -0.140 C  
HETATM   16  C   UNL     1     -10.038  12.049  66.987  1.00  0.00    -0.203 C  
HETATM   17  N   UNL     1     -10.815  12.411  68.181  1.00  0.00    -0.212 NA 
HETATM   18  C   UNL     1     -10.602  10.072  69.001  1.00  0.00    -0.214 C  
HETATM   19  C   UNL     1     -11.554  11.280  68.770  1.00  0.00    -0.316 C  
BRANCH  17  20
HETATM   20  C   UNL     1     -10.929  13.714  68.626  1.00  0.00    -0.267 A  
HETATM   21  C   UNL     1     -10.530  14.803  67.832  1.00  0.00    -0.246 A  
HETATM   22  C   UNL     1     -10.615  16.130  68.274  1.00  0.00    -0.288 A  
HETATM   23  C   UNL     1     -11.106  16.404  69.542  1.00  0.00    -0.293 A  
HETATM   24  C   UNL     1     -11.505  15.355  70.375  1.00  0.00    -0.355 A  
HETATM   25  C   UNL     1     -12.015  15.614  71.766  1.00  0.00    -0.440 C  
HETATM   26  C   UNL     1     -11.424  14.028  69.900  1.00  0.00    -0.272 A  
HETATM   27  F   UNL     1     -11.260  15.003  72.722  1.00  0.00    -0.464 F  
HETATM   28  F   UNL     1     -13.286  15.164  71.956  1.00  0.00    -0.353 F  
HETATM   29  F   UNL     1     -12.039  16.937  72.105  1.00  0.00    -0.317 F  
ENDBRANCH  17  20
ENDBRANCH  13  14
ENDBRANCH  12  13
ENDBRANCH   9  12
TORSDOF 4
ENDMDL
MODEL      133
REMARK 921   NORMALIZED FREE ENERGY PREDICTED BY IDOCK:   -5.27 KCAL/MOL
REMARK 922        TOTAL FREE ENERGY PREDICTED BY IDOCK:   -7.08 KCAL/MOL
REMARK 923 INTER-LIGAND FREE ENERGY PREDICTED BY IDOCK:   -6.59 KCAL/MOL
REMARK 924 INTRA-LIGAND FREE ENERGY PREDICTED BY IDOCK:   -0.50 KCAL/MOL
REMARK 927      BINDING AFFINITY PREDICTED BY RF-SCORE:    0.00 PKD
ROOT
HETATM    1  C   UNL     1     -12.445  13.259  70.689  1.00  0.00    -0.373 C  
HETATM    2  C   UNL     1     -13.284  13.086  71.981  1.00  0.00    -0.543 C  
HETATM    3  C   UNL     1     -14.162  14.346  72.061  1.00  0.00    -0.639 C  
HETATM    4  C   UNL     1     -13.356  15.434  71.340  1.00  0.00    -0.601 C  
HETATM    5  C   UNL     1     -12.028  14.742  71.104  1.00  0.00    -0.392 C  
HETATM    6  C   UNL     1     -11.143  15.185  70.019  1.00  0.00    -0.275 A  
HETATM    7  N   UNL     1      -9.991  15.803  69.942  1.00  0.00    -0.254 NA 
HETATM    8  N   UNL     1      -9.362  15.327  68.792  1.00  0.00    -0.199 NA 
HETATM    9  C   UNL     1     -10.119  14.391  68.265  1.00  0.00    -0.239 A  
HETATM   10  C   UNL     1     -12.359  13.431  69.126  1.00  0.00    -0.009 C  
HETATM   11  N   UNL     1     -11.287  14.379  68.943  1.00  0.00    -0.258 NA 
ENDROOT
BRANCH   9  12
HETATM   12  C   UNL     1      -9.813  13.469  67.143  1.00  0.00    -0.245 C  
BRANCH  12  13
HETATM   13  C   UNL     1      -8.468  12.740  67.347  1.00  0.00    -0.191 C  
BRANCH  13  14
HETATM   14  N   UNL     1      -8.543  11.730  68.425  1.00  0.00    -0.164 NA 
HETATM   15  C   UNL     1      -9.843  11.014  68.461  1.00  0.00    -0.192 C  
HETATM   16  C   UNL     1     -10.066  10.024  67.298  1.00  0.00    -0.209 C  
HETATM   17  N   UNL     1      -8.984   9.030  67.296  1.00  0.00    -0.126 NA 
HETATM   18  C   UNL     1      -7.462  10.716  68.310  1.00  0.00    -0.091 C  
HETATM   19  C   UNL     1      -7.637   9.623  67.218  1.00  0.00    -0.091 C  
BRANCH  17  20
HETATM   20  C   UNL     1      -9.225   7.670  67.248  1.00  0.00    -0.131 A  
HETATM   21  C   UNL     1     -10.480   7.154  66.880  1.00  0.00    -0.364 A  
HETATM   22  C   UNL     1     -10.751   5.779  66.850  1.00  0.00    -0.381 A  
HETATM   23  C   UNL     1      -9.759   4.873  67.194  1.00  0.00    -0.194 A  
HETATM   24  C   UNL     1      -8.497   5.337  67.578  1.00  0.00    -0.105 A  
HETATM   25  C   UNL     1      -7.407   4.383  67.986  1.00  0.00    -0.065 C  
HETATM   26  C   UNL     1      -8.245   6.725  67.586  1.00  0.00    -0.119 A  
HETATM   27  F   UNL     1      -6.974   4.598  69.260  1.00  0.00    -0.046 F  
HETATM   28  F   UNL     1      -6.301   4.477  67.198  1.00  0.00    -0.035 F  
HETATM   29  F   UNL     1      -7.781   3.070  67.941  1.00  0.00    -0.056 F  
ENDBRANCH  17  20
ENDBRANCH  13  14
ENDBRANCH  12  13
ENDBRANCH   9  12
TORSDOF 4
ENDMDL
MODEL      134
REMARK 921   NORMALIZED FREE ENERGY PREDICTED BY IDOCK:   -5.26 KCAL/MOL
REMARK 922        TOTAL FREE ENERGY PREDICTED BY IDOCK:   -7.08 KCAL/MOL
REMARK 923 INTER-LIGAND FREE ENERGY PREDICTED BY IDOCK:   -6.44 KCAL/MOL
REMARK 924 INTRA-LIGAND FREE ENERGY PREDICTED BY IDOCK:   -0.63 KCAL/MOL
REMARK 927      BINDING AFFINITY PREDICTED BY RF-SCORE:    0.00 PKD
ROOT
HETATM    1  C   UNL     1      -7.632  15.601  68.763  1.00  0.00    -0.162 C  
HETATM    2  C   UNL     1      -6.204  15.705  69.358  1.00  0.00    -0.136 C  
HETATM    3  C   UNL     1      -6.034  17.186  69.738  1.00  0.00    -0.237 C  
HETATM    4  C   UNL     1      -6.943  17.948  68.765  1.00  0.00    -0.262 C  
HETATM    5  C   UNL     1      -7.374  16.853  67.809  1.00  0.00    -0.169 C  
HETATM    6  C   UNL     1      -8.621  16.986  67.043  1.00  0.00    -0.210 A  
HETATM    7  N   UNL     1      -8.933  17.182  65.787  1.00  0.00    -0.501 NA 
HETATM    8  N   UNL     1     -10.151  16.536  65.576  1.00  0.00    -0.579 NA 
HETATM    9  C   UNL     1     -10.486  15.914  66.684  1.00  0.00    -0.306 A  
HETATM   10  C   UNL     1      -9.192  15.751  68.916  1.00  0.00    -0.227 C  
HETATM   11  N   UNL     1      -9.611  16.287  67.642  1.00  0.00    -0.226 NA 
ENDROOT
BRANCH   9  12
HETATM   12  C   UNL     1     -11.595  14.955  66.913  1.00  0.00    -0.286 C  
BRANCH  12  13
HETATM   13  C   UNL     1     -11.612  13.830  65.857  1.00  0.00    -0.333 C  
BRANCH  13  14
HETATM   14  N   UNL     1     -12.020  12.532  66.436  1.00  0.00    -0.577 NA 
HETATM   15  C   UNL     1     -11.283  11.380  65.856  1.00  0.00    -0.107 C  
HETATM   16  C   UNL     1      -9.801  11.285  66.278  1.00  0.00    -0.214 C  
HETATM   17  N   UNL     1      -9.720  11.204  67.744  1.00  0.00    -0.169 NA 
HETATM   18  C   UNL     1     -11.836  12.501  67.910  1.00  0.00    -0.323 C  
HETATM   19  C   UNL     1     -10.383  12.323  68.435  1.00  0.00    -0.224 C  
BRANCH  17  20
HETATM   20  C   UNL     1      -8.986  10.231  68.394  1.00  0.00    -0.132 A  
HETATM   21  C   UNL     1      -7.870  10.552  69.186  1.00  0.00    -0.138 A  
HETATM   22  C   UNL     1      -7.098   9.578  69.834  1.00  0.00    -0.084 A  
HETATM   23  C   UNL     1      -7.427   8.237  69.700  1.00  0.00    -0.081 A  
HETATM   24  C   UNL     1      -8.521   7.865  68.913  1.00  0.00    -0.128 A  
HETATM   25  C   UNL     1      -8.888   6.418  68.722  1.00  0.00    -0.124 C  
HETATM   26  C   UNL     1      -9.291   8.866  68.284  1.00  0.00    -0.149 A  
HETATM   27  F   UNL     1      -8.855   6.038  67.414  1.00  0.00    -0.111 F  
HETATM   28  F   UNL     1     -10.144   6.130  69.161  1.00  0.00    -0.158 F  
HETATM   29  F   UNL     1      -8.061   5.551  69.378  1.00  0.00    -0.089 F  
ENDBRANCH  17  20
ENDBRANCH  13  14
ENDBRANCH  12  13
ENDBRANCH   9  12
TORSDOF 4
ENDMDL
MODEL      135
REMARK 921   NORMALIZED FREE ENERGY PREDICTED BY IDOCK:   -5.26 KCAL/MOL
REMARK 922        TOTAL FREE ENERGY PREDICTED BY IDOCK:   -7.07 KCAL/MOL
REMARK 923 INTER-LIGAND FREE ENERGY PREDICTED BY IDOCK:   -6.43 KCAL/MOL
REMARK 924 INTRA-LIGAND FREE ENERGY PREDICTED BY IDOCK:   -0.65 KCAL/MOL
REMARK 927      BINDING AFFINITY PREDICTED BY RF-SCORE:    0.00 PKD
ROOT
HETATM    1  C   UNL     1      -9.087  14.152  67.854  1.00  0.00    -0.189 C  
HETATM    2  C   UNL     1      -7.983  14.917  67.080  1.00  0.00    -0.170 C  
HETATM    3  C   UNL     1      -8.734  15.745  66.023  1.00  0.00    -0.169 C  
HETATM    4  C   UNL     1     -10.012  14.947  65.733  1.00  0.00    -0.376 C  
HETATM    5  C   UNL     1      -9.763  13.660  66.494  1.00  0.00    -0.298 C  
HETATM    6  C   UNL     1     -10.890  12.827  66.933  1.00  0.00    -0.253 A  
HETATM    7  N   UNL     1     -11.381  11.662  66.595  1.00  0.00    -0.400 NA 
HETATM    8  N   UNL     1     -11.946  11.120  67.749  1.00  0.00    -0.603 NA 
HETATM    9  C   UNL     1     -11.708  11.939  68.749  1.00  0.00    -0.321 A  
HETATM   10  C   UNL     1     -10.377  14.155  68.758  1.00  0.00    -0.229 C  
HETATM   11  N   UNL     1     -11.164  13.063  68.236  1.00  0.00    -0.258 NA 
ENDROOT
BRANCH   9  12
HETATM   12  C   UNL     1     -11.950  11.732  70.199  1.00  0.00    -0.421 C  
BRANCH  12  13
HETATM   13  C   UNL     1     -12.147  10.241  70.543  1.00  0.00    -0.310 C  
BRANCH  13  14
HETATM   14  N   UNL     1     -11.024   9.702  71.339  1.00  0.00    -0.344 NA 
HETATM   15  C   UNL     1     -11.201   8.272  71.700  1.00  0.00    -0.270 C  
HETATM   16  C   UNL     1     -11.048   7.287  70.521  1.00  0.00    -0.267 C  
HETATM   17  N   UNL     1      -9.719   7.458  69.918  1.00  0.00    -0.171 NA 
HETATM   18  C   UNL     1      -9.725   9.841  70.631  1.00  0.00    -0.065 C  
HETATM   19  C   UNL     1      -9.442   8.836  69.478  1.00  0.00    -0.165 C  
BRANCH  17  20
HETATM   20  C   UNL     1      -8.868   6.394  69.682  1.00  0.00    -0.137 A  
HETATM   21  C   UNL     1      -7.486   6.578  69.508  1.00  0.00    -0.093 A  
HETATM   22  C   UNL     1      -6.611   5.516  69.244  1.00  0.00    -0.047 A  
HETATM   23  C   UNL     1      -7.106   4.223  69.143  1.00  0.00    -0.051 A  
HETATM   24  C   UNL     1      -8.476   3.990  69.297  1.00  0.00    -0.101 A  
HETATM   25  C   UNL     1      -9.050   2.606  69.166  1.00  0.00    -0.127 C  
HETATM   26  C   UNL     1      -9.333   5.075  69.578  1.00  0.00    -0.184 A  
HETATM   27  F   UNL     1      -9.976   2.516  68.170  1.00  0.00    -0.166 F  
HETATM   28  F   UNL     1      -9.681   2.186  70.297  1.00  0.00    -0.193 F  
HETATM   29  F   UNL     1      -8.117   1.648  68.888  1.00  0.00    -0.048 F  
ENDBRANCH  17  20
ENDBRANCH  13  14
ENDBRANCH  12  13
ENDBRANCH   9  12
TORSDOF 4
ENDMDL
MODEL      136
REMARK 921   NORMALIZED FREE ENERGY PREDICTED BY IDOCK:   -5.24 KCAL/MOL
REMARK 922        TOTAL FREE ENERGY PREDICTED BY IDOCK:   -7.05 KCAL/MOL
REMARK 923 INTER-LIGAND FREE ENERGY PREDICTED BY IDOCK:   -6.40 KCAL/MOL
REMARK 924 INTRA-LIGAND FREE ENERGY PREDICTED BY IDOCK:   -0.65 KCAL/MOL
REMARK 927      BINDING AFFINITY PREDICTED BY RF-SCORE:    0.00 PKD
ROOT
HETATM    1  C   UNL     1     -10.763   7.284  70.627  1.00  0.00    -0.252 C  
HETATM    2  C   UNL     1     -12.277   6.952  70.591  1.00  0.00    -0.311 C  
HETATM    3  C   UNL     1     -12.616   6.472  72.013  1.00  0.00    -0.212 C  
HETATM    4  C   UNL     1     -11.310   5.870  72.547  1.00  0.00    -0.352 C  
HETATM    5  C   UNL     1     -10.426   5.885  71.316  1.00  0.00    -0.289 C  
HETATM    6  C   UNL     1      -8.964   5.893  71.452  1.00  0.00    -0.140 A  
HETATM    7  N   UNL     1      -7.997   5.039  71.226  1.00  0.00    -0.106 NA 
HETATM    8  N   UNL     1      -6.878   5.794  70.873  1.00  0.00    -0.056 NA 
HETATM    9  C   UNL     1      -7.231   7.058  70.825  1.00  0.00    -0.071 A  
HETATM   10  C   UNL     1      -9.558   8.116  71.207  1.00  0.00    -0.162 C  
HETATM   11  N   UNL     1      -8.490   7.150  71.304  1.00  0.00    -0.113 NA 
ENDROOT
BRANCH   9  12
HETATM   12  C   UNL     1      -6.453   8.223  70.333  1.00  0.00    -0.036 C  
BRANCH  12  13
HETATM   13  C   UNL     1      -6.818   8.588  68.879  1.00  0.00    -0.061 C  
BRANCH  13  14
HETATM   14  N   UNL     1      -6.331   9.933  68.507  1.00  0.00    -0.050 NA 
HETATM   15  C   UNL     1      -6.465  10.218  67.055  1.00  0.00    -0.073 C  
HETATM   16  C   UNL     1      -7.915  10.433  66.571  1.00  0.00    -0.123 C  
HETATM   17  N   UNL     1      -8.516  11.543  67.324  1.00  0.00    -0.146 NA 
HETATM   18  C   UNL     1      -7.040  11.005  69.253  1.00  0.00    -0.123 C  
HETATM   19  C   UNL     1      -8.481  11.353  68.784  1.00  0.00    -0.089 C  
BRANCH  17  20
HETATM   20  C   UNL     1      -9.156  12.599  66.704  1.00  0.00    -0.193 A  
HETATM   21  C   UNL     1      -8.899  13.933  67.063  1.00  0.00    -0.231 A  
HETATM   22  C   UNL     1      -9.556  15.016  66.464  1.00  0.00    -0.299 A  
HETATM   23  C   UNL     1     -10.504  14.787  65.477  1.00  0.00    -0.378 A  
HETATM   24  C   UNL     1     -10.804  13.477  65.092  1.00  0.00    -0.336 A  
HETATM   25  C   UNL     1     -11.847  13.191  64.046  1.00  0.00    -0.453 C  
HETATM   26  C   UNL     1     -10.117  12.404  65.701  1.00  0.00    -0.277 A  
HETATM   27  F   UNL     1     -12.864  12.419  64.520  1.00  0.00    -0.538 F  
HETATM   28  F   UNL     1     -11.347  12.525  62.970  1.00  0.00    -0.481 F  
HETATM   29  F   UNL     1     -12.440  14.313  63.542  1.00  0.00    -0.451 F  
ENDBRANCH  17  20
ENDBRANCH  13  14
ENDBRANCH  12  13
ENDBRANCH   9  12
TORSDOF 4
ENDMDL
MODEL      137
REMARK 921   NORMALIZED FREE ENERGY PREDICTED BY IDOCK:   -5.23 KCAL/MOL
REMARK 922        TOTAL FREE ENERGY PREDICTED BY IDOCK:   -7.04 KCAL/MOL
REMARK 923 INTER-LIGAND FREE ENERGY PREDICTED BY IDOCK:   -6.41 KCAL/MOL
REMARK 924 INTRA-LIGAND FREE ENERGY PREDICTED BY IDOCK:   -0.63 KCAL/MOL
REMARK 927      BINDING AFFINITY PREDICTED BY RF-SCORE:    0.00 PKD
ROOT
HETATM    1  C   UNL     1     -12.213  13.444  70.678  1.00  0.00    -0.427 C  
HETATM    2  C   UNL     1     -12.860  13.179  72.062  1.00  0.00    -0.304 C  
HETATM    3  C   UNL     1     -13.865  14.328  72.261  1.00  0.00    -0.622 C  
HETATM    4  C   UNL     1     -13.287  15.500  71.457  1.00  0.00    -0.593 C  
HETATM    5  C   UNL     1     -11.926  14.968  71.053  1.00  0.00    -0.376 C  
HETATM    6  C   UNL     1     -11.239  15.506  69.872  1.00  0.00    -0.316 A  
HETATM    7  N   UNL     1     -10.186  16.255  69.660  1.00  0.00    -0.245 NA 
HETATM    8  N   UNL     1      -9.652  15.851  68.436  1.00  0.00    -0.204 NA 
HETATM    9  C   UNL     1     -10.353  14.830  67.997  1.00  0.00    -0.237 A  
HETATM   10  C   UNL     1     -12.342  13.616  69.118  1.00  0.00    -0.076 C  
HETATM   11  N   UNL     1     -11.418  14.683  68.814  1.00  0.00    -0.281 NA 
ENDROOT
BRANCH   9  12
HETATM   12  C   UNL     1     -10.081  13.944  66.838  1.00  0.00    -0.260 C  
BRANCH  12  13
HETATM   13  C   UNL     1      -8.827  13.072  67.061  1.00  0.00    -0.212 C  
BRANCH  13  14
HETATM   14  N   UNL     1      -8.760  12.539  68.438  1.00  0.00    -0.158 NA 
HETATM   15  C   UNL     1      -9.747  11.458  68.690  1.00  0.00    -0.176 C  
HETATM   16  C   UNL     1      -9.432  10.121  67.986  1.00  0.00    -0.145 C  
HETATM   17  N   UNL     1      -8.104   9.653  68.409  1.00  0.00    -0.104 NA 
HETATM   18  C   UNL     1      -7.409  12.014  68.764  1.00  0.00    -0.098 C  
HETATM   19  C   UNL     1      -7.029  10.630  68.166  1.00  0.00    -0.073 C  
BRANCH  17  20
HETATM   20  C   UNL     1      -7.882   8.371  68.874  1.00  0.00    -0.113 A  
HETATM   21  C   UNL     1      -6.607   7.781  68.838  1.00  0.00    -0.049 A  
HETATM   22  C   UNL     1      -6.367   6.474  69.283  1.00  0.00    -0.035 A  
HETATM   23  C   UNL     1      -7.414   5.712  69.780  1.00  0.00    -0.074 A  
HETATM   24  C   UNL     1      -8.704   6.249  69.826  1.00  0.00    -0.137 A  
HETATM   25  C   UNL     1      -9.867   5.440  70.332  1.00  0.00    -0.205 C  
HETATM   26  C   UNL     1      -8.916   7.573  69.386  1.00  0.00    -0.139 A  
HETATM   27  F   UNL     1     -10.844   5.287  69.395  1.00  0.00    -0.338 F  
HETATM   28  F   UNL     1     -10.474   6.005  71.411  1.00  0.00    -0.234 F  
HETATM   29  F   UNL     1      -9.528   4.175  70.721  1.00  0.00    -0.178 F  
ENDBRANCH  17  20
ENDBRANCH  13  14
ENDBRANCH  12  13
ENDBRANCH   9  12
TORSDOF 4
ENDMDL
MODEL      138
REMARK 921   NORMALIZED FREE ENERGY PREDICTED BY IDOCK:   -5.21 KCAL/MOL
REMARK 922        TOTAL FREE ENERGY PREDICTED BY IDOCK:   -7.02 KCAL/MOL
REMARK 923 INTER-LIGAND FREE ENERGY PREDICTED BY IDOCK:   -6.58 KCAL/MOL
REMARK 924 INTRA-LIGAND FREE ENERGY PREDICTED BY IDOCK:   -0.43 KCAL/MOL
REMARK 927      BINDING AFFINITY PREDICTED BY RF-SCORE:    0.00 PKD
ROOT
HETATM    1  C   UNL     1      -7.573   9.223  70.120  1.00  0.00    -0.111 C  
HETATM    2  C   UNL     1      -6.308   9.070  71.003  1.00  0.00    -0.061 C  
HETATM    3  C   UNL     1      -6.521   7.764  71.788  1.00  0.00    -0.043 C  
HETATM    4  C   UNL     1      -8.044   7.623  71.910  1.00  0.00    -0.112 C  
HETATM    5  C   UNL     1      -8.531   8.952  71.367  1.00  0.00    -0.216 C  
HETATM    6  C   UNL     1      -9.886   9.076  70.814  1.00  0.00    -0.243 A  
HETATM    7  N   UNL     1     -10.998   9.661  71.181  1.00  0.00    -0.360 NA 
HETATM    8  N   UNL     1     -11.663  10.018  70.008  1.00  0.00    -0.213 NA 
HETATM    9  C   UNL     1     -10.897   9.706  68.987  1.00  0.00    -0.183 A  
HETATM   10  C   UNL     1      -8.522   8.684  68.985  1.00  0.00    -0.124 C  
HETATM   11  N   UNL     1      -9.846   9.006  69.464  1.00  0.00    -0.175 NA 
ENDROOT
BRANCH   9  12
HETATM   12  C   UNL     1     -11.078  10.038  67.552  1.00  0.00    -0.190 C  
BRANCH  12  13
HETATM   13  C   UNL     1     -10.758  11.519  67.259  1.00  0.00    -0.244 C  
BRANCH  13  14
HETATM   14  N   UNL     1     -10.318  12.242  68.471  1.00  0.00    -0.230 NA 
HETATM   15  C   UNL     1      -9.010  12.924  68.298  1.00  0.00    -0.175 C  
HETATM   16  C   UNL     1      -9.046  14.163  67.377  1.00  0.00    -0.198 C  
HETATM   17  N   UNL     1     -10.013  15.132  67.909  1.00  0.00    -0.220 NA 
HETATM   18  C   UNL     1     -11.313  13.258  68.902  1.00  0.00    -0.288 C  
HETATM   19  C   UNL     1     -11.368  14.580  68.085  1.00  0.00    -0.298 C  
BRANCH  17  20
HETATM   20  C   UNL     1      -9.698  16.463  68.107  1.00  0.00    -0.229 A  
HETATM   21  C   UNL     1     -10.678  17.471  68.053  1.00  0.00    -0.342 A  
HETATM   22  C   UNL     1     -10.374  18.828  68.226  1.00  0.00    -0.391 A  
HETATM   23  C   UNL     1      -9.063  19.217  68.458  1.00  0.00    -0.425 A  
HETATM   24  C   UNL     1      -8.051  18.254  68.509  1.00  0.00    -0.330 A  
HETATM   25  C   UNL     1      -6.615  18.644  68.729  1.00  0.00    -0.265 C  
HETATM   26  C   UNL     1      -8.385  16.892  68.346  1.00  0.00    -0.238 A  
HETATM   27  F   UNL     1      -5.806  18.261  67.702  1.00  0.00    -0.151 F  
HETATM   28  F   UNL     1      -6.081  18.084  69.849  1.00  0.00    -0.228 F  
HETATM   29  F   UNL     1      -6.426  19.990  68.865  1.00  0.00    -0.303 F  
ENDBRANCH  17  20
ENDBRANCH  13  14
ENDBRANCH  12  13
ENDBRANCH   9  12
TORSDOF 4
ENDMDL
MODEL      139
REMARK 921   NORMALIZED FREE ENERGY PREDICTED BY IDOCK:   -5.20 KCAL/MOL
REMARK 922        TOTAL FREE ENERGY PREDICTED BY IDOCK:   -7.00 KCAL/MOL
REMARK 923 INTER-LIGAND FREE ENERGY PREDICTED BY IDOCK:   -6.49 KCAL/MOL
REMARK 924 INTRA-LIGAND FREE ENERGY PREDICTED BY IDOCK:   -0.50 KCAL/MOL
REMARK 927      BINDING AFFINITY PREDICTED BY RF-SCORE:    0.00 PKD
ROOT
HETATM    1  C   UNL     1      -8.764   8.715  68.342  1.00  0.00    -0.142 C  
HETATM    2  C   UNL     1      -7.736   7.942  67.477  1.00  0.00    -0.117 C  
HETATM    3  C   UNL     1      -6.877   9.029  66.807  1.00  0.00    -0.080 C  
HETATM    4  C   UNL     1      -7.803  10.248  66.695  1.00  0.00    -0.116 C  
HETATM    5  C   UNL     1      -9.139   9.672  67.121  1.00  0.00    -0.152 C  
HETATM    6  C   UNL     1     -10.187  10.549  67.660  1.00  0.00    -0.197 A  
HETATM    7  N   UNL     1     -11.348  10.988  67.242  1.00  0.00    -0.452 NA 
HETATM    8  N   UNL     1     -12.136  11.166  68.379  1.00  0.00    -0.603 NA 
HETATM    9  C   UNL     1     -11.452  10.758  69.424  1.00  0.00    -0.295 A  
HETATM   10  C   UNL     1      -9.090   9.711  69.517  1.00  0.00    -0.199 C  
HETATM   11  N   UNL     1     -10.195  10.490  69.011  1.00  0.00    -0.205 NA 
ENDROOT
BRANCH   9  12
HETATM   12  C   UNL     1     -11.910  10.582  70.825  1.00  0.00    -0.465 C  
BRANCH  12  13
HETATM   13  C   UNL     1     -13.192   9.728  70.910  1.00  0.00    -0.203 C  
BRANCH  13  14
HETATM   14  N   UNL     1     -13.100   8.693  71.960  1.00  0.00    -0.358 NA 
HETATM   15  C   UNL     1     -13.511   7.346  71.486  1.00  0.00    -0.372 C  
HETATM   16  C   UNL     1     -12.517   6.675  70.514  1.00  0.00     0.118 C  
HETATM   17  N   UNL     1     -11.204   6.563  71.165  1.00  0.00    -0.286 NA 
HETATM   18  C   UNL     1     -11.726   8.586  72.515  1.00  0.00    -0.320 C  
HETATM   19  C   UNL     1     -10.670   7.851  71.642  1.00  0.00    -0.223 C  
BRANCH  17  20
HETATM   20  C   UNL     1     -10.496   5.377  71.209  1.00  0.00    -0.226 A  
HETATM   21  C   UNL     1     -10.208   4.734  72.425  1.00  0.00    -0.252 A  
HETATM   22  C   UNL     1      -9.470   3.544  72.493  1.00  0.00    -0.179 A  
HETATM   23  C   UNL     1      -8.994   2.961  71.327  1.00  0.00    -0.161 A  
HETATM   24  C   UNL     1      -9.245   3.568  70.094  1.00  0.00    -0.224 A  
HETATM   25  C   UNL     1      -8.719   2.979  68.813  1.00  0.00    -0.092 C  
HETATM   26  C   UNL     1     -10.003   4.758  70.051  1.00  0.00    -0.314 A  
HETATM   27  F   UNL     1      -7.894   3.832  68.145  1.00  0.00    -0.070 F  
HETATM   28  F   UNL     1      -9.708   2.656  67.935  1.00  0.00    -0.261 F  
HETATM   29  F   UNL     1      -7.998   1.832  68.992  1.00  0.00    -0.046 F  
ENDBRANCH  17  20
ENDBRANCH  13  14
ENDBRANCH  12  13
ENDBRANCH   9  12
TORSDOF 4
ENDMDL
MODEL      140
REMARK 921   NORMALIZED FREE ENERGY PREDICTED BY IDOCK:   -5.19 KCAL/MOL
REMARK 922        TOTAL FREE ENERGY PREDICTED BY IDOCK:   -6.99 KCAL/MOL
REMARK 923 INTER-LIGAND FREE ENERGY PREDICTED BY IDOCK:   -6.36 KCAL/MOL
REMARK 924 INTRA-LIGAND FREE ENERGY PREDICTED BY IDOCK:   -0.63 KCAL/MOL
REMARK 927      BINDING AFFINITY PREDICTED BY RF-SCORE:    0.00 PKD
ROOT
HETATM    1  C   UNL     1      -9.166  15.947  67.065  1.00  0.00    -0.231 C  
HETATM    2  C   UNL     1      -8.187  17.022  66.525  1.00  0.00    -0.314 C  
HETATM    3  C   UNL     1      -9.066  18.247  66.217  1.00  0.00    -0.205 C  
HETATM    4  C   UNL     1     -10.447  17.667  65.887  1.00  0.00    -0.247 C  
HETATM    5  C   UNL     1     -10.165  16.178  65.842  1.00  0.00    -0.381 C  
HETATM    6  C   UNL     1     -11.245  15.211  66.071  1.00  0.00    -0.275 A  
HETATM    7  N   UNL     1     -11.909  14.355  65.335  1.00  0.00    -0.360 NA 
HETATM    8  N   UNL     1     -12.260  13.299  66.176  1.00  0.00    -0.420 NA 
HETATM    9  C   UNL     1     -11.733  13.520  67.359  1.00  0.00    -0.380 A  
HETATM   10  C   UNL     1     -10.223  15.471  68.131  1.00  0.00    -0.227 C  
HETATM   11  N   UNL     1     -11.206  14.763  67.346  1.00  0.00    -0.328 NA 
ENDROOT
BRANCH   9  12
HETATM   12  C   UNL     1     -11.673  12.615  68.535  1.00  0.00    -0.372 C  
BRANCH  12  13
HETATM   13  C   UNL     1     -10.290  11.947  68.677  1.00  0.00    -0.203 C  
BRANCH  13  14
HETATM   14  N   UNL     1     -10.400  10.505  68.986  1.00  0.00    -0.200 NA 
HETATM   15  C   UNL     1     -11.065   9.729  67.908  1.00  0.00    -0.096 C  
HETATM   16  C   UNL     1     -10.222   9.554  66.627  1.00  0.00    -0.240 C  
HETATM   17  N   UNL     1      -8.955   8.892  66.968  1.00  0.00    -0.125 NA 
HETATM   18  C   UNL     1      -9.072   9.890  69.244  1.00  0.00    -0.189 C  
HETATM   19  C   UNL     1      -8.180   9.597  68.003  1.00  0.00    -0.110 C  
BRANCH  17  20
HETATM   20  C   UNL     1      -8.492   7.781  66.289  1.00  0.00    -0.141 A  
HETATM   21  C   UNL     1      -7.267   7.795  65.598  1.00  0.00    -0.068 A  
HETATM   22  C   UNL     1      -6.792   6.687  64.884  1.00  0.00    -0.050 A  
HETATM   23  C   UNL     1      -7.543   5.521  64.839  1.00  0.00    -0.078 A  
HETATM   24  C   UNL     1      -8.773   5.462  65.500  1.00  0.00    -0.154 A  
HETATM   25  C   UNL     1      -9.626   4.223  65.448  1.00  0.00    -0.187 C  
HETATM   26  C   UNL     1      -9.223   6.586  66.225  1.00  0.00    -0.160 A  
HETATM   27  F   UNL     1     -10.853   4.456  64.903  1.00  0.00    -0.279 F  
HETATM   28  F   UNL     1      -9.863   3.693  66.679  1.00  0.00    -0.220 F  
HETATM   29  F   UNL     1      -9.081   3.211  64.710  1.00  0.00    -0.118 F  
ENDBRANCH  17  20
ENDBRANCH  13  14
ENDBRANCH  12  13
ENDBRANCH   9  12
TORSDOF 4
ENDMDL
MODEL      141
REMARK 921   NORMALIZED FREE ENERGY PREDICTED BY IDOCK:   -5.18 KCAL/MOL
REMARK 922        TOTAL FREE ENERGY PREDICTED BY IDOCK:   -6.98 KCAL/MOL
REMARK 923 INTER-LIGAND FREE ENERGY PREDICTED BY IDOCK:   -6.56 KCAL/MOL
REMARK 924 INTRA-LIGAND FREE ENERGY PREDICTED BY IDOCK:   -0.43 KCAL/MOL
REMARK 927      BINDING AFFINITY PREDICTED BY RF-SCORE:    0.00 PKD
ROOT
HETATM    1  C   UNL     1      -7.572   4.686  66.118  1.00  0.00    -0.090 C  
HETATM    2  C   UNL     1      -7.002   3.244  66.128  1.00  0.00    -0.057 C  
HETATM    3  C   UNL     1      -7.994   2.415  65.293  1.00  0.00    -0.079 C  
HETATM    4  C   UNL     1      -9.341   3.130  65.459  1.00  0.00    -0.117 C  
HETATM    5  C   UNL     1      -9.024   4.163  66.522  1.00  0.00    -0.125 C  
HETATM    6  C   UNL     1      -9.830   5.385  66.632  1.00  0.00    -0.174 A  
HETATM    7  N   UNL     1     -10.703   5.859  67.485  1.00  0.00    -0.273 NA 
HETATM    8  N   UNL     1     -10.579   7.248  67.449  1.00  0.00    -0.281 NA 
HETATM    9  C   UNL     1      -9.590   7.553  66.639  1.00  0.00    -0.200 A  
HETATM   10  C   UNL     1      -8.009   5.979  65.333  1.00  0.00    -0.118 C  
HETATM   11  N   UNL     1      -9.197   6.416  66.027  1.00  0.00    -0.109 NA 
ENDROOT
BRANCH   9  12
HETATM   12  C   UNL     1      -8.958   8.874  66.399  1.00  0.00    -0.193 C  
BRANCH  12  13
HETATM   13  C   UNL     1      -9.842   9.786  65.522  1.00  0.00    -0.308 C  
BRANCH  13  14
HETATM   14  N   UNL     1      -9.326  11.170  65.464  1.00  0.00    -0.219 NA 
HETATM   15  C   UNL     1     -10.393  12.179  65.242  1.00  0.00    -0.277 C  
HETATM   16  C   UNL     1     -11.326  12.406  66.450  1.00  0.00    -0.342 C  
HETATM   17  N   UNL     1     -10.523  12.820  67.610  1.00  0.00    -0.218 NA 
HETATM   18  C   UNL     1      -8.593  11.540  66.702  1.00  0.00    -0.176 C  
HETATM   19  C   UNL     1      -9.452  11.870  67.956  1.00  0.00    -0.197 C  
BRANCH  17  20
HETATM   20  C   UNL     1     -10.831  13.935  68.366  1.00  0.00    -0.254 A  
HETATM   21  C   UNL     1     -11.834  13.906  69.351  1.00  0.00    -0.384 A  
HETATM   22  C   UNL     1     -12.178  15.031  70.111  1.00  0.00    -0.392 A  
HETATM   23  C   UNL     1     -11.519  16.233  69.900  1.00  0.00    -0.202 A  
HETATM   24  C   UNL     1     -10.521  16.317  68.924  1.00  0.00    -0.273 A  
HETATM   25  C   UNL     1      -9.806  17.612  68.649  1.00  0.00    -0.347 C  
HETATM   26  C   UNL     1     -10.183  15.165  68.182  1.00  0.00    -0.227 A  
HETATM   27  F   UNL     1      -9.962  18.032  67.363  1.00  0.00    -0.286 F  
HETATM   28  F   UNL     1      -8.463  17.527  68.851  1.00  0.00    -0.271 F  
HETATM   29  F   UNL     1     -10.230  18.650  69.430  1.00  0.00    -0.367 F  
ENDBRANCH  17  20
ENDBRANCH  13  14
ENDBRANCH  12  13
ENDBRANCH   9  12
TORSDOF 4
ENDMDL
MODEL      142
REMARK 921   NORMALIZED FREE ENERGY PREDICTED BY IDOCK:   -5.16 KCAL/MOL
REMARK 922        TOTAL FREE ENERGY PREDICTED BY IDOCK:   -6.95 KCAL/MOL
REMARK 923 INTER-LIGAND FREE ENERGY PREDICTED BY IDOCK:   -6.55 KCAL/MOL
REMARK 924 INTRA-LIGAND FREE ENERGY PREDICTED BY IDOCK:   -0.40 KCAL/MOL
REMARK 927      BINDING AFFINITY PREDICTED BY RF-SCORE:    0.00 PKD
ROOT
HETATM    1  C   UNL     1      -8.962   9.180  67.590  1.00  0.00    -0.130 C  
HETATM    2  C   UNL     1      -8.121   8.611  66.418  1.00  0.00    -0.100 C  
HETATM    3  C   UNL     1      -7.486   9.841  65.746  1.00  0.00    -0.105 C  
HETATM    4  C   UNL     1      -8.467  10.989  66.019  1.00  0.00    -0.158 C  
HETATM    5  C   UNL     1      -9.645  10.260  66.635  1.00  0.00    -0.220 C  
HETATM    6  C   UNL     1     -10.583  10.973  67.511  1.00  0.00    -0.227 A  
HETATM    7  N   UNL     1     -11.827  11.374  67.424  1.00  0.00    -0.601 NA 
HETATM    8  N   UNL     1     -12.345  11.337  68.719  1.00  0.00    -0.456 NA 
HETATM    9  C   UNL     1     -11.426  10.846  69.518  1.00  0.00    -0.301 A  
HETATM   10  C   UNL     1      -9.059   9.981  68.942  1.00  0.00    -0.159 C  
HETATM   11  N   UNL     1     -10.283  10.733  68.807  1.00  0.00    -0.184 NA 
ENDROOT
BRANCH   9  12
HETATM   12  C   UNL     1     -11.547  10.449  70.944  1.00  0.00    -0.428 C  
BRANCH  12  13
HETATM   13  C   UNL     1     -12.854   9.677  71.217  1.00  0.00    -0.350 C  
BRANCH  13  14
HETATM   14  N   UNL     1     -12.647   8.550  72.152  1.00  0.00    -0.358 NA 
HETATM   15  C   UNL     1     -13.121   7.251  71.611  1.00  0.00    -0.369 C  
HETATM   16  C   UNL     1     -12.255   6.674  70.471  1.00  0.00    -0.146 C  
HETATM   17  N   UNL     1     -10.875   6.507  70.949  1.00  0.00    -0.241 NA 
HETATM   18  C   UNL     1     -11.218   8.398  72.529  1.00  0.00    -0.336 C  
HETATM   19  C   UNL     1     -10.278   7.748  71.474  1.00  0.00    -0.182 C  
BRANCH  17  20
HETATM   20  C   UNL     1     -10.176   5.324  70.803  1.00  0.00    -0.246 A  
HETATM   21  C   UNL     1     -10.004   4.718  69.546  1.00  0.00    -0.287 A  
HETATM   22  C   UNL     1      -9.320   3.507  69.380  1.00  0.00    -0.243 A  
HETATM   23  C   UNL     1      -8.785   2.860  70.484  1.00  0.00    -0.126 A  
HETATM   24  C   UNL     1      -8.939   3.416  71.758  1.00  0.00    -0.155 A  
HETATM   25  C   UNL     1      -8.397   2.727  72.980  1.00  0.00    -0.071 C  
HETATM   26  C   UNL     1      -9.620   4.645  71.896  1.00  0.00    -0.210 A  
HETATM   27  F   UNL     1      -9.370   2.426  73.885  1.00  0.00    -0.077 F  
HETATM   28  F   UNL     1      -7.486   3.483  73.653  1.00  0.00    -0.054 F  
HETATM   29  F   UNL     1      -7.767   1.545  72.710  1.00  0.00    -0.032 F  
ENDBRANCH  17  20
ENDBRANCH  13  14
ENDBRANCH  12  13
ENDBRANCH   9  12
TORSDOF 4
ENDMDL
MODEL      143
REMARK 921   NORMALIZED FREE ENERGY PREDICTED BY IDOCK:   -5.14 KCAL/MOL
REMARK 922        TOTAL FREE ENERGY PREDICTED BY IDOCK:   -6.93 KCAL/MOL
REMARK 923 INTER-LIGAND FREE ENERGY PREDICTED BY IDOCK:   -6.75 KCAL/MOL
REMARK 924 INTRA-LIGAND FREE ENERGY PREDICTED BY IDOCK:   -0.18 KCAL/MOL
REMARK 927      BINDING AFFINITY PREDICTED BY RF-SCORE:    0.00 PKD
ROOT
HETATM    1  C   UNL     1     -10.118   7.245  70.586  1.00  0.00    -0.198 C  
HETATM    2  C   UNL     1     -11.058   6.615  71.645  1.00  0.00    -0.290 C  
HETATM    3  C   UNL     1     -10.585   7.185  72.993  1.00  0.00    -0.346 C  
HETATM    4  C   UNL     1      -9.091   7.474  72.794  1.00  0.00    -0.200 C  
HETATM    5  C   UNL     1      -8.825   6.855  71.436  1.00  0.00    -0.133 C  
HETATM    6  C   UNL     1      -7.700   7.321  70.616  1.00  0.00    -0.093 A  
HETATM    7  N   UNL     1      -6.546   6.829  70.241  1.00  0.00    -0.043 NA 
HETATM    8  N   UNL     1      -6.270   7.378  68.988  1.00  0.00    -0.034 NA 
HETATM    9  C   UNL     1      -7.295   8.113  68.624  1.00  0.00    -0.089 A  
HETATM   10  C   UNL     1      -9.533   8.512  69.855  1.00  0.00    -0.163 C  
HETATM   11  N   UNL     1      -8.137   8.191  69.677  1.00  0.00    -0.115 NA 
ENDROOT
BRANCH   9  12
HETATM   12  C   UNL     1      -7.558   8.759  67.314  1.00  0.00    -0.089 C  
BRANCH  12  13
HETATM   13  C   UNL     1      -9.039   9.165  67.159  1.00  0.00    -0.126 C  
BRANCH  13  14
HETATM   14  N   UNL     1      -9.185  10.541  66.636  1.00  0.00    -0.155 NA 
HETATM   15  C   UNL     1     -10.602  10.969  66.515  1.00  0.00    -0.254 C  
HETATM   16  C   UNL     1     -11.313  11.232  67.860  1.00  0.00    -0.299 C  
HETATM   17  N   UNL     1     -10.574  12.262  68.603  1.00  0.00    -0.232 NA 
HETATM   18  C   UNL     1      -8.475  11.534  67.484  1.00  0.00    -0.143 C  
HETATM   19  C   UNL     1      -9.156  11.928  68.825  1.00  0.00     0.051 C  
BRANCH  17  20
HETATM   20  C   UNL     1     -11.191  13.376  69.141  1.00  0.00    -0.248 A  
HETATM   21  C   UNL     1     -11.071  14.646  68.551  1.00  0.00    -0.273 A  
HETATM   22  C   UNL     1     -11.668  15.790  69.094  1.00  0.00    -0.398 A  
HETATM   23  C   UNL     1     -12.410  15.692  70.263  1.00  0.00    -0.402 A  
HETATM   24  C   UNL     1     -12.550  14.453  70.895  1.00  0.00    -0.422 A  
HETATM   25  C   UNL     1     -13.323  14.316  72.178  1.00  0.00    -0.416 C  
HETATM   26  C   UNL     1     -11.951  13.313  70.319  1.00  0.00    -0.372 A  
HETATM   27  F   UNL     1     -12.560  13.835  73.199  1.00  0.00    -0.313 F  
HETATM   28  F   UNL     1     -14.378  13.463  72.071  1.00  0.00    -0.445 F  
HETATM   29  F   UNL     1     -13.846  15.493  72.633  1.00  0.00    -0.509 F  
ENDBRANCH  17  20
ENDBRANCH  13  14
ENDBRANCH  12  13
ENDBRANCH   9  12
TORSDOF 4
ENDMDL
MODEL      144
REMARK 921   NORMALIZED FREE ENERGY PREDICTED BY IDOCK:   -5.14 KCAL/MOL
REMARK 922        TOTAL FREE ENERGY PREDICTED BY IDOCK:   -6.93 KCAL/MOL
REMARK 923 INTER-LIGAND FREE ENERGY PREDICTED BY IDOCK:   -6.41 KCAL/MOL
REMARK 924 INTRA-LIGAND FREE ENERGY PREDICTED BY IDOCK:   -0.51 KCAL/MOL
REMARK 927      BINDING AFFINITY PREDICTED BY RF-SCORE:    0.00 PKD
ROOT
HETATM    1  C   UNL     1      -9.904   4.455  71.420  1.00  0.00    -0.262 C  
HETATM    2  C   UNL     1     -10.387   3.723  72.698  1.00  0.00    -0.226 C  
HETATM    3  C   UNL     1     -11.443   4.654  73.319  1.00  0.00    -0.346 C  
HETATM    4  C   UNL     1     -11.032   6.065  72.876  1.00  0.00    -0.303 C  
HETATM    5  C   UNL     1      -9.686   5.814  72.227  1.00  0.00    -0.174 C  
HETATM    6  C   UNL     1      -9.161   6.749  71.223  1.00  0.00    -0.150 A  
HETATM    7  N   UNL     1      -8.189   7.626  71.176  1.00  0.00    -0.099 NA 
HETATM    8  N   UNL     1      -7.756   7.665  69.850  1.00  0.00    -0.095 NA 
HETATM    9  C   UNL     1      -8.425   6.762  69.170  1.00  0.00    -0.128 A  
HETATM   10  C   UNL     1     -10.201   5.079  70.005  1.00  0.00    -0.269 C  
HETATM   11  N   UNL     1      -9.389   6.272  69.979  1.00  0.00    -0.155 NA 
ENDROOT
BRANCH   9  12
HETATM   12  C   UNL     1      -8.211   6.300  67.776  1.00  0.00    -0.118 C  
BRANCH  12  13
HETATM   13  C   UNL     1      -7.836   7.463  66.834  1.00  0.00    -0.115 C  
BRANCH  13  14
HETATM   14  N   UNL     1      -9.018   8.022  66.145  1.00  0.00    -0.171 NA 
HETATM   15  C   UNL     1      -9.893   8.817  67.045  1.00  0.00    -0.216 C  
HETATM   16  C   UNL     1      -9.305  10.176  67.481  1.00  0.00    -0.151 C  
HETATM   17  N   UNL     1      -9.007  10.979  66.287  1.00  0.00    -0.178 NA 
HETATM   18  C   UNL     1      -8.634   8.885  64.997  1.00  0.00    -0.176 C  
HETATM   19  C   UNL     1      -8.106  10.309  65.333  1.00  0.00    -0.147 C  
BRANCH  17  20
HETATM   20  C   UNL     1      -9.440  12.283  66.143  1.00  0.00    -0.217 A  
HETATM   21  C   UNL     1      -8.745  13.361  66.720  1.00  0.00    -0.093 A  
HETATM   22  C   UNL     1      -9.181  14.688  66.606  1.00  0.00    -0.291 A  
HETATM   23  C   UNL     1     -10.343  14.974  65.904  1.00  0.00    -0.329 A  
HETATM   24  C   UNL     1     -11.076  13.936  65.322  1.00  0.00    -0.318 A  
HETATM   25  C   UNL     1     -12.356  14.208  64.579  1.00  0.00    -0.392 C  
HETATM   26  C   UNL     1     -10.608  12.610  65.438  1.00  0.00    -0.307 A  
HETATM   27  F   UNL     1     -13.425  13.563  65.125  1.00  0.00    -0.258 F  
HETATM   28  F   UNL     1     -12.307  13.807  63.278  1.00  0.00    -0.550 F  
HETATM   29  F   UNL     1     -12.701  15.529  64.544  1.00  0.00    -0.179 F  
ENDBRANCH  17  20
ENDBRANCH  13  14
ENDBRANCH  12  13
ENDBRANCH   9  12
TORSDOF 4
ENDMDL
MODEL      145
REMARK 921   NORMALIZED FREE ENERGY PREDICTED BY IDOCK:   -5.13 KCAL/MOL
REMARK 922        TOTAL FREE ENERGY PREDICTED BY IDOCK:   -6.91 KCAL/MOL
REMARK 923 INTER-LIGAND FREE ENERGY PREDICTED BY IDOCK:   -6.27 KCAL/MOL
REMARK 924 INTRA-LIGAND FREE ENERGY PREDICTED BY IDOCK:   -0.65 KCAL/MOL
REMARK 927      BINDING AFFINITY PREDICTED BY RF-SCORE:    0.00 PKD
ROOT
HETATM    1  C   UNL     1     -10.635  18.529  67.280  1.00  0.00    -0.453 C  
HETATM    2  C   UNL     1     -10.716  20.074  67.388  1.00  0.00    -0.359 C  
HETATM    3  C   UNL     1      -9.276  20.568  67.164  1.00  0.00    -0.485 C  
HETATM    4  C   UNL     1      -8.385  19.417  67.651  1.00  0.00    -0.334 C  
HETATM    5  C   UNL     1      -9.395  18.479  68.284  1.00  0.00    -0.350 C  
HETATM    6  C   UNL     1      -9.097  17.048  68.416  1.00  0.00    -0.256 A  
HETATM    7  N   UNL     1      -8.830  16.234  69.407  1.00  0.00    -0.148 NA 
HETATM    8  N   UNL     1      -9.323  14.983  69.035  1.00  0.00    -0.207 NA 
HETATM    9  C   UNL     1      -9.932  15.106  67.877  1.00  0.00    -0.221 A  
HETATM   10  C   UNL     1     -10.307  17.231  66.453  1.00  0.00    -0.316 C  
HETATM   11  N   UNL     1      -9.691  16.354  67.420  1.00  0.00    -0.236 NA 
ENDROOT
BRANCH   9  12
HETATM   12  C   UNL     1     -10.761  14.112  67.151  1.00  0.00    -0.280 C  
BRANCH  12  13
HETATM   13  C   UNL     1     -11.272  12.996  68.086  1.00  0.00    -0.272 C  
BRANCH  13  14
HETATM   14  N   UNL     1     -10.987  11.648  67.548  1.00  0.00    -0.242 NA 
HETATM   15  C   UNL     1      -9.534  11.363  67.436  1.00  0.00    -0.167 C  
HETATM   16  C   UNL     1      -8.812  11.152  68.785  1.00  0.00    -0.125 C  
HETATM   17  N   UNL     1      -9.454  10.045  69.508  1.00  0.00    -0.217 NA 
HETATM   18  C   UNL     1     -11.603  10.579  68.376  1.00  0.00    -0.128 C  
HETATM   19  C   UNL     1     -10.899  10.236  69.719  1.00  0.00    -0.287 C  
BRANCH  17  20
HETATM   20  C   UNL     1      -8.735   8.991  70.038  1.00  0.00    -0.157 A  
HETATM   21  C   UNL     1      -7.640   9.199  70.895  1.00  0.00    -0.146 A  
HETATM   22  C   UNL     1      -6.884   8.144  71.423  1.00  0.00    -0.057 A  
HETATM   23  C   UNL     1      -7.209   6.834  71.101  1.00  0.00    -0.077 A  
HETATM   24  C   UNL     1      -8.282   6.575  70.244  1.00  0.00    -0.126 A  
HETATM   25  C   UNL     1      -8.644   5.168  69.850  1.00  0.00    -0.100 C  
HETATM   26  C   UNL     1      -9.037   7.654  69.737  1.00  0.00    -0.147 A  
HETATM   27  F   UNL     1      -8.578   4.969  68.504  1.00  0.00    -0.094 F  
HETATM   28  F   UNL     1      -9.910   4.827  70.214  1.00  0.00    -0.232 F  
HETATM   29  F   UNL     1      -7.833   4.218  70.403  1.00  0.00    -0.050 F  
ENDBRANCH  17  20
ENDBRANCH  13  14
ENDBRANCH  12  13
ENDBRANCH   9  12
TORSDOF 4
ENDMDL
MODEL      146
REMARK 921   NORMALIZED FREE ENERGY PREDICTED BY IDOCK:   -5.12 KCAL/MOL
REMARK 922        TOTAL FREE ENERGY PREDICTED BY IDOCK:   -6.90 KCAL/MOL
REMARK 923 INTER-LIGAND FREE ENERGY PREDICTED BY IDOCK:   -6.52 KCAL/MOL
REMARK 924 INTRA-LIGAND FREE ENERGY PREDICTED BY IDOCK:   -0.37 KCAL/MOL
REMARK 927      BINDING AFFINITY PREDICTED BY RF-SCORE:    0.00 PKD
ROOT
HETATM    1  C   UNL     1     -11.503  12.983  69.947  1.00  0.00    -0.151 C  
HETATM    2  C   UNL     1     -11.455  14.438  69.414  1.00  0.00    -0.330 C  
HETATM    3  C   UNL     1     -11.880  14.340  67.939  1.00  0.00    -0.393 C  
HETATM    4  C   UNL     1     -11.460  12.930  67.502  1.00  0.00    -0.386 C  
HETATM    5  C   UNL     1     -10.664  12.450  68.699  1.00  0.00    -0.260 C  
HETATM    6  C   UNL     1     -10.507  11.013  68.958  1.00  0.00    -0.216 A  
HETATM    7  N   UNL     1      -9.524  10.151  68.894  1.00  0.00    -0.172 NA 
HETATM    8  N   UNL     1      -9.775   9.191  69.874  1.00  0.00    -0.181 NA 
HETATM    9  C   UNL     1     -10.851   9.549  70.538  1.00  0.00    -0.292 A  
HETATM   10  C   UNL     1     -12.308  11.666  70.257  1.00  0.00    -0.258 C  
HETATM   11  N   UNL     1     -11.389  10.611  69.901  1.00  0.00    -0.290 NA 
ENDROOT
BRANCH   9  12
HETATM   12  C   UNL     1     -11.421   8.958  71.774  1.00  0.00    -0.423 C  
BRANCH  12  13
HETATM   13  C   UNL     1     -10.334   8.319  72.662  1.00  0.00    -0.304 C  
BRANCH  13  14
HETATM   14  N   UNL     1     -10.653   6.917  73.007  1.00  0.00    -0.254 NA 
HETATM   15  C   UNL     1     -11.596   6.284  72.050  1.00  0.00    -0.322 C  
HETATM   16  C   UNL     1     -10.996   5.975  70.662  1.00  0.00    -0.307 C  
HETATM   17  N   UNL     1      -9.831   5.093  70.825  1.00  0.00    -0.189 NA 
HETATM   18  C   UNL     1      -9.432   6.072  73.077  1.00  0.00    -0.143 C  
HETATM   19  C   UNL     1      -8.799   5.638  71.724  1.00  0.00    -0.136 C  
BRANCH  17  20
HETATM   20  C   UNL     1      -9.677   3.925  70.103  1.00  0.00    -0.172 A  
HETATM   21  C   UNL     1      -9.714   2.663  70.721  1.00  0.00    -0.103 A  
HETATM   22  C   UNL     1      -9.536   1.469  70.010  1.00  0.00    -0.093 A  
HETATM   23  C   UNL     1      -9.311   1.508  68.642  1.00  0.00    -0.225 A  
HETATM   24  C   UNL     1      -9.254   2.739  67.982  1.00  0.00    -0.253 A  
HETATM   25  C   UNL     1      -8.983   2.820  66.504  1.00  0.00    -0.148 C  
HETATM   26  C   UNL     1      -9.451   3.927  68.718  1.00  0.00    -0.224 A  
HETATM   27  F   UNL     1      -7.860   3.536  66.217  1.00  0.00    -0.084 F  
HETATM   28  F   UNL     1      -9.991   3.419  65.814  1.00  0.00    -0.113 F  
HETATM   29  F   UNL     1      -8.804   1.602  65.912  1.00  0.00    -0.105 F  
ENDBRANCH  17  20
ENDBRANCH  13  14
ENDBRANCH  12  13
ENDBRANCH   9  12
TORSDOF 4
ENDMDL
MODEL      147
REMARK 921   NORMALIZED FREE ENERGY PREDICTED BY IDOCK:   -5.09 KCAL/MOL
REMARK 922        TOTAL FREE ENERGY PREDICTED BY IDOCK:   -6.87 KCAL/MOL
REMARK 923 INTER-LIGAND FREE ENERGY PREDICTED BY IDOCK:   -6.69 KCAL/MOL
REMARK 924 INTRA-LIGAND FREE ENERGY PREDICTED BY IDOCK:   -0.18 KCAL/MOL
REMARK 927      BINDING AFFINITY PREDICTED BY RF-SCORE:    0.00 PKD
ROOT
HETATM    1  C   UNL     1     -11.567  13.362  65.601  1.00  0.00    -0.350 C  
HETATM    2  C   UNL     1     -12.503  12.143  65.402  1.00  0.00     0.187 C  
HETATM    3  C   UNL     1     -12.329  11.739  63.928  1.00  0.00    -0.393 C  
HETATM    4  C   UNL     1     -11.950  13.039  63.207  1.00  0.00    -0.493 C  
HETATM    5  C   UNL     1     -12.144  14.075  64.296  1.00  0.00    -0.476 C  
HETATM    6  C   UNL     1     -11.427  15.356  64.238  1.00  0.00    -0.171 A  
HETATM    7  N   UNL     1     -11.754  16.605  64.020  1.00  0.00    -1.036 NA 
HETATM    8  N   UNL     1     -10.861  17.383  64.757  1.00  0.00    -0.709 NA 
HETATM    9  C   UNL     1     -10.084  16.578  65.446  1.00  0.00    -0.066 A  
HETATM   10  C   UNL     1     -10.126  13.997  65.587  1.00  0.00    -0.322 C  
HETATM   11  N   UNL     1     -10.338  15.316  65.040  1.00  0.00    -0.379 NA 
ENDROOT
BRANCH   9  12
HETATM   12  C   UNL     1      -9.097  16.917  66.502  1.00  0.00    -0.302 C  
BRANCH  12  13
HETATM   13  C   UNL     1      -9.764  17.077  67.884  1.00  0.00    -0.263 C  
BRANCH  13  14
HETATM   14  N   UNL     1      -8.906  16.571  68.976  1.00  0.00    -0.250 NA 
HETATM   15  C   UNL     1      -9.456  15.359  69.634  1.00  0.00    -0.216 C  
HETATM   16  C   UNL     1      -9.395  14.077  68.776  1.00  0.00    -0.059 C  
HETATM   17  N   UNL     1      -7.999  13.813  68.400  1.00  0.00    -0.140 NA 
HETATM   18  C   UNL     1      -7.534  16.255  68.501  1.00  0.00    -0.176 C  
HETATM   19  C   UNL     1      -7.355  14.936  67.696  1.00  0.00    -0.187 C  
BRANCH  17  20
HETATM   20  C   UNL     1      -7.399  12.582  68.585  1.00  0.00    -0.099 A  
HETATM   21  C   UNL     1      -6.045  12.366  68.278  1.00  0.00    -0.055 A  
HETATM   22  C   UNL     1      -5.425  11.119  68.437  1.00  0.00    -0.042 A  
HETATM   23  C   UNL     1      -6.158  10.040  68.911  1.00  0.00    -0.040 A  
HETATM   24  C   UNL     1      -7.512  10.202  69.220  1.00  0.00    -0.111 A  
HETATM   25  C   UNL     1      -8.343   9.047  69.709  1.00  0.00    -0.129 C  
HETATM   26  C   UNL     1      -8.108  11.471  69.066  1.00  0.00     0.037 A  
HETATM   27  F   UNL     1      -9.399   8.780  68.891  1.00  0.00    -0.142 F  
HETATM   28  F   UNL     1      -8.875   9.264  70.943  1.00  0.00    -0.223 F  
HETATM   29  F   UNL     1      -7.649   7.874  69.808  1.00  0.00    -0.081 F  
ENDBRANCH  17  20
ENDBRANCH  13  14
ENDBRANCH  12  13
ENDBRANCH   9  12
TORSDOF 4
ENDMDL
MODEL      148
REMARK 921   NORMALIZED FREE ENERGY PREDICTED BY IDOCK:   -5.09 KCAL/MOL
REMARK 922        TOTAL FREE ENERGY PREDICTED BY IDOCK:   -6.87 KCAL/MOL
REMARK 923 INTER-LIGAND FREE ENERGY PREDICTED BY IDOCK:   -6.29 KCAL/MOL
REMARK 924 INTRA-LIGAND FREE ENERGY PREDICTED BY IDOCK:   -0.58 KCAL/MOL
REMARK 927      BINDING AFFINITY PREDICTED BY RF-SCORE:    0.00 PKD
ROOT
HETATM    1  C   UNL     1      -8.726   3.538  66.190  1.00  0.00    -0.123 C  
HETATM    2  C   UNL     1      -9.021   2.150  65.567  1.00  0.00    -0.120 C  
HETATM    3  C   UNL     1      -9.473   2.445  64.126  1.00  0.00    -0.134 C  
HETATM    4  C   UNL     1     -10.099   3.844  64.189  1.00  0.00    -0.207 C  
HETATM    5  C   UNL     1     -10.124   4.115  65.680  1.00  0.00    -0.189 C  
HETATM    6  C   UNL     1     -10.150   5.494  66.184  1.00  0.00    -0.092 A  
HETATM    7  N   UNL     1     -11.030   6.257  66.782  1.00  0.00    -0.326 NA 
HETATM    8  N   UNL     1     -10.309   7.129  67.598  1.00  0.00    -0.195 NA 
HETATM    9  C   UNL     1      -9.037   6.810  67.520  1.00  0.00    -0.117 A  
HETATM   10  C   UNL     1      -7.916   4.889  66.202  1.00  0.00    -0.107 C  
HETATM   11  N   UNL     1      -8.907   5.880  66.550  1.00  0.00    -0.124 NA 
ENDROOT
BRANCH   9  12
HETATM   12  C   UNL     1      -7.899   7.321  68.324  1.00  0.00    -0.122 C  
BRANCH  12  13
HETATM   13  C   UNL     1      -8.160   8.748  68.849  1.00  0.00    -0.114 C  
BRANCH  13  14
HETATM   14  N   UNL     1      -7.360   9.760  68.126  1.00  0.00    -0.080 NA 
HETATM   15  C   UNL     1      -7.827   9.983  66.734  1.00  0.00    -0.110 C  
HETATM   16  C   UNL     1      -9.173  10.729  66.617  1.00  0.00    -0.166 C  
HETATM   17  N   UNL     1      -9.063  12.032  67.289  1.00  0.00    -0.172 NA 
HETATM   18  C   UNL     1      -7.360  11.071  68.827  1.00  0.00    -0.111 C  
HETATM   19  C   UNL     1      -8.646  11.936  68.698  1.00  0.00    -0.037 C  
BRANCH  17  20
HETATM   20  C   UNL     1      -9.435  13.215  66.679  1.00  0.00    -0.260 A  
HETATM   21  C   UNL     1      -8.678  14.391  66.823  1.00  0.00    -0.187 A  
HETATM   22  C   UNL     1      -9.052  15.606  66.234  1.00  0.00    -0.376 A  
HETATM   23  C   UNL     1     -10.212  15.676  65.475  1.00  0.00    -0.414 A  
HETATM   24  C   UNL     1     -11.005  14.537  65.312  1.00  0.00    -0.366 A  
HETATM   25  C   UNL     1     -12.284  14.585  64.520  1.00  0.00    -0.465 C  
HETATM   26  C   UNL     1     -10.598  13.322  65.903  1.00  0.00    -0.288 A  
HETATM   27  F   UNL     1     -13.372  14.239  65.264  1.00  0.00    -0.419 F  
HETATM   28  F   UNL     1     -12.278  13.737  63.455  1.00  0.00    -0.520 F  
HETATM   29  F   UNL     1     -12.565  15.819  64.006  1.00  0.00    -0.352 F  
ENDBRANCH  17  20
ENDBRANCH  13  14
ENDBRANCH  12  13
ENDBRANCH   9  12
TORSDOF 4
ENDMDL
MODEL      149
REMARK 921   NORMALIZED FREE ENERGY PREDICTED BY IDOCK:   -5.09 KCAL/MOL
REMARK 922        TOTAL FREE ENERGY PREDICTED BY IDOCK:   -6.87 KCAL/MOL
REMARK 923 INTER-LIGAND FREE ENERGY PREDICTED BY IDOCK:   -6.23 KCAL/MOL
REMARK 924 INTRA-LIGAND FREE ENERGY PREDICTED BY IDOCK:   -0.63 KCAL/MOL
REMARK 927      BINDING AFFINITY PREDICTED BY RF-SCORE:    0.00 PKD
ROOT
HETATM    1  C   UNL     1      -9.519   7.611  71.944  1.00  0.00    -0.183 C  
HETATM    2  C   UNL     1      -9.875   7.849  73.434  1.00  0.00    -0.298 C  
HETATM    3  C   UNL     1      -8.522   7.920  74.163  1.00  0.00    -0.312 C  
HETATM    4  C   UNL     1      -7.575   7.054  73.321  1.00  0.00    -0.086 C  
HETATM    5  C   UNL     1      -8.526   6.421  72.324  1.00  0.00    -0.110 C  
HETATM    6  C   UNL     1      -8.030   5.938  71.029  1.00  0.00    -0.116 A  
HETATM    7  N   UNL     1      -7.845   4.767  70.473  1.00  0.00    -0.061 NA 
HETATM    8  N   UNL     1      -8.036   4.945  69.103  1.00  0.00    -0.075 NA 
HETATM    9  C   UNL     1      -8.401   6.190  68.894  1.00  0.00    -0.115 A  
HETATM   10  C   UNL     1      -8.815   8.075  70.614  1.00  0.00    -0.143 C  
HETATM   11  N   UNL     1      -8.279   6.853  70.065  1.00  0.00    -0.131 NA 
ENDROOT
BRANCH   9  12
HETATM   12  C   UNL     1      -8.883   6.820  67.640  1.00  0.00    -0.117 C  
BRANCH  12  13
HETATM   13  C   UNL     1      -8.061   8.073  67.273  1.00  0.00    -0.121 C  
BRANCH  13  14
HETATM   14  N   UNL     1      -8.762   8.927  66.289  1.00  0.00    -0.134 NA 
HETATM   15  C   UNL     1     -10.210   9.080  66.580  1.00  0.00    -0.263 C  
HETATM   16  C   UNL     1     -10.531   9.957  67.809  1.00  0.00    -0.242 C  
HETATM   17  N   UNL     1      -9.947  11.292  67.616  1.00  0.00    -0.177 NA 
HETATM   18  C   UNL     1      -8.162  10.284  66.207  1.00  0.00    -0.131 C  
HETATM   19  C   UNL     1      -8.496  11.271  67.361  1.00  0.00    -0.137 C  
BRANCH  17  20
HETATM   20  C   UNL     1     -10.678  12.453  67.781  1.00  0.00    -0.221 A  
HETATM   21  C   UNL     1     -10.917  13.335  66.713  1.00  0.00    -0.302 A  
HETATM   22  C   UNL     1     -11.635  14.529  66.865  1.00  0.00    -0.399 A  
HETATM   23  C   UNL     1     -12.137  14.877  68.111  1.00  0.00    -0.120 A  
HETATM   24  C   UNL     1     -11.916  14.039  69.208  1.00  0.00    -0.396 A  
HETATM   25  C   UNL     1     -12.422  14.399  70.578  1.00  0.00    -0.350 C  
HETATM   26  C   UNL     1     -11.203  12.835  69.024  1.00  0.00    -0.317 A  
HETATM   27  F   UNL     1     -11.418  14.507  71.493  1.00  0.00    -0.342 F  
HETATM   28  F   UNL     1     -13.286  13.476  71.083  1.00  0.00    -0.377 F  
HETATM   29  F   UNL     1     -13.089  15.590  70.621  1.00  0.00    -0.457 F  
ENDBRANCH  17  20
ENDBRANCH  13  14
ENDBRANCH  12  13
ENDBRANCH   9  12
TORSDOF 4
ENDMDL
MODEL      150
REMARK 921   NORMALIZED FREE ENERGY PREDICTED BY IDOCK:   -5.07 KCAL/MOL
REMARK 922        TOTAL FREE ENERGY PREDICTED BY IDOCK:   -6.84 KCAL/MOL
REMARK 923 INTER-LIGAND FREE ENERGY PREDICTED BY IDOCK:   -6.36 KCAL/MOL
REMARK 924 INTRA-LIGAND FREE ENERGY PREDICTED BY IDOCK:   -0.48 KCAL/MOL
REMARK 927      BINDING AFFINITY PREDICTED BY RF-SCORE:    0.00 PKD
ROOT
HETATM    1  C   UNL     1      -9.553   5.925  72.099  1.00  0.00    -0.164 C  
HETATM    2  C   UNL     1     -10.442   4.682  72.357  1.00  0.00    -0.250 C  
HETATM    3  C   UNL     1     -10.581   4.599  73.887  1.00  0.00    -0.337 C  
HETATM    4  C   UNL     1      -9.300   5.240  74.434  1.00  0.00    -0.134 C  
HETATM    5  C   UNL     1      -8.480   5.436  73.174  1.00  0.00    -0.118 C  
HETATM    6  C   UNL     1      -7.428   6.460  73.125  1.00  0.00    -0.090 A  
HETATM    7  N   UNL     1      -6.119   6.459  73.088  1.00  0.00    -0.057 NA 
HETATM    8  N   UNL     1      -5.742   7.594  72.370  1.00  0.00    -0.036 NA 
HETATM    9  C   UNL     1      -6.831   8.191  71.940  1.00  0.00    -0.076 A  
HETATM   10  C   UNL     1      -9.299   7.475  72.217  1.00  0.00    -0.145 C  
HETATM   11  N   UNL     1      -7.888   7.571  72.506  1.00  0.00    -0.095 NA 
ENDROOT
BRANCH   9  12
HETATM   12  C   UNL     1      -6.956   9.330  70.996  1.00  0.00    -0.090 C  
BRANCH  12  13
HETATM   13  C   UNL     1      -7.492   8.881  69.620  1.00  0.00    -0.071 C  
BRANCH  13  14
HETATM   14  N   UNL     1      -7.002   9.745  68.526  1.00  0.00    -0.063 NA 
HETATM   15  C   UNL     1      -7.272   9.185  67.177  1.00  0.00    -0.086 C  
HETATM   16  C   UNL     1      -8.756   9.216  66.753  1.00  0.00    -0.127 C  
HETATM   17  N   UNL     1      -9.241  10.603  66.790  1.00  0.00    -0.155 NA 
HETATM   18  C   UNL     1      -7.595  11.107  68.586  1.00  0.00    -0.127 C  
HETATM   19  C   UNL     1      -9.065  11.255  68.099  1.00  0.00    -0.166 C  
BRANCH  17  20
HETATM   20  C   UNL     1      -9.906  11.186  65.728  1.00  0.00    -0.235 A  
HETATM   21  C   UNL     1      -9.848  10.644  64.432  1.00  0.00    -0.395 A  
HETATM   22  C   UNL     1     -10.495  11.234  63.338  1.00  0.00    -0.424 A  
HETATM   23  C   UNL     1     -11.226  12.399  63.516  1.00  0.00    -0.540 A  
HETATM   24  C   UNL     1     -11.305  12.983  64.784  1.00  0.00    -0.348 A  
HETATM   25  C   UNL     1     -12.066  14.263  65.006  1.00  0.00    -0.425 C  
HETATM   26  C   UNL     1     -10.657  12.361  65.872  1.00  0.00    -0.289 A  
HETATM   27  F   UNL     1     -11.276  15.262  65.491  1.00  0.00    -0.327 F  
HETATM   28  F   UNL     1     -13.081  14.125  65.902  1.00  0.00    -0.525 F  
HETATM   29  F   UNL     1     -12.641  14.764  63.873  1.00  0.00    -0.463 F  
ENDBRANCH  17  20
ENDBRANCH  13  14
ENDBRANCH  12  13
ENDBRANCH   9  12
TORSDOF 4
ENDMDL
MODEL      151
REMARK 921   NORMALIZED FREE ENERGY PREDICTED BY IDOCK:   -5.06 KCAL/MOL
REMARK 922        TOTAL FREE ENERGY PREDICTED BY IDOCK:   -6.83 KCAL/MOL
REMARK 923 INTER-LIGAND FREE ENERGY PREDICTED BY IDOCK:   -6.79 KCAL/MOL
REMARK 924 INTRA-LIGAND FREE ENERGY PREDICTED BY IDOCK:   -0.05 KCAL/MOL
REMARK 927      BINDING AFFINITY PREDICTED BY RF-SCORE:    0.00 PKD
ROOT
HETATM    1  C   UNL     1     -12.159  13.104  67.191  1.00  0.00    -0.343 C  
HETATM    2  C   UNL     1     -11.989  13.660  65.754  1.00  0.00    -0.425 C  
HETATM    3  C   UNL     1     -10.508  14.063  65.652  1.00  0.00    -0.328 C  
HETATM    4  C   UNL     1     -10.097  14.416  67.087  1.00  0.00    -0.253 C  
HETATM    5  C   UNL     1     -11.424  14.375  67.818  1.00  0.00    -0.360 C  
HETATM    6  C   UNL     1     -11.467  14.137  69.266  1.00  0.00    -0.292 A  
HETATM    7  N   UNL     1     -11.751  14.853  70.326  1.00  0.00    -0.285 NA 
HETATM    8  N   UNL     1     -12.286  13.973  71.266  1.00  0.00    -0.360 NA 
HETATM    9  C   UNL     1     -12.377  12.784  70.715  1.00  0.00    -0.287 A  
HETATM   10  C   UNL     1     -11.786  12.056  68.306  1.00  0.00    -0.287 C  
HETATM   11  N   UNL     1     -11.756  12.840  69.517  1.00  0.00    -0.316 NA 
ENDROOT
BRANCH   9  12
HETATM   12  C   UNL     1     -13.035  11.562  71.241  1.00  0.00    -0.397 C  
BRANCH  12  13
HETATM   13  C   UNL     1     -12.494  10.282  70.572  1.00  0.00    -0.267 C  
BRANCH  13  14
HETATM   14  N   UNL     1     -11.259   9.796  71.223  1.00  0.00    -0.370 NA 
HETATM   15  C   UNL     1     -11.409   8.443  71.818  1.00  0.00    -0.300 C  
HETATM   16  C   UNL     1     -11.511   7.295  70.790  1.00  0.00    -0.299 C  
HETATM   17  N   UNL     1     -10.313   7.302  69.938  1.00  0.00    -0.213 NA 
HETATM   18  C   UNL     1     -10.112   9.758  70.279  1.00  0.00    -0.266 C  
HETATM   19  C   UNL     1     -10.081   8.587  69.256  1.00  0.00    -0.202 C  
BRANCH  17  20
HETATM   20  C   UNL     1      -9.555   6.169  69.713  1.00  0.00    -0.150 A  
HETATM   21  C   UNL     1     -10.126   4.986  69.213  1.00  0.00    -0.270 A  
HETATM   22  C   UNL     1      -9.380   3.819  69.001  1.00  0.00    -0.240 A  
HETATM   23  C   UNL     1      -8.023   3.806  69.292  1.00  0.00    -0.059 A  
HETATM   24  C   UNL     1      -7.411   4.954  69.803  1.00  0.00    -0.056 A  
HETATM   25  C   UNL     1      -5.949   4.966  70.157  1.00  0.00    -0.018 C  
HETATM   26  C   UNL     1      -8.182   6.121  69.993  1.00  0.00    -0.124 A  
HETATM   27  F   UNL     1      -5.731   5.253  71.470  1.00  0.00    -0.010 F  
HETATM   28  F   UNL     1      -5.242   5.892  69.452  1.00  0.00    -0.004 F  
HETATM   29  F   UNL     1      -5.320   3.774  69.931  1.00  0.00    -0.006 F  
ENDBRANCH  17  20
ENDBRANCH  13  14
ENDBRANCH  12  13
ENDBRANCH   9  12
TORSDOF 4
ENDMDL
MODEL      152
REMARK 921   NORMALIZED FREE ENERGY PREDICTED BY IDOCK:   -5.06 KCAL/MOL
REMARK 922        TOTAL FREE ENERGY PREDICTED BY IDOCK:   -6.83 KCAL/MOL
REMARK 923 INTER-LIGAND FREE ENERGY PREDICTED BY IDOCK:   -6.24 KCAL/MOL
REMARK 924 INTRA-LIGAND FREE ENERGY PREDICTED BY IDOCK:   -0.59 KCAL/MOL
REMARK 927      BINDING AFFINITY PREDICTED BY RF-SCORE:    0.00 PKD
ROOT
HETATM    1  C   UNL     1     -10.105   3.847  64.575  1.00  0.00    -0.224 C  
HETATM    2  C   UNL     1     -10.612   3.787  63.111  1.00  0.00    -0.217 C  
HETATM    3  C   UNL     1      -9.637   2.842  62.387  1.00  0.00    -0.092 C  
HETATM    4  C   UNL     1      -8.314   2.982  63.150  1.00  0.00    -0.085 C  
HETATM    5  C   UNL     1      -8.611   4.131  64.093  1.00  0.00    -0.110 C  
HETATM    6  C   UNL     1      -7.852   4.282  65.342  1.00  0.00    -0.086 A  
HETATM    7  N   UNL     1      -6.951   5.115  65.797  1.00  0.00    -0.065 NA 
HETATM    8  N   UNL     1      -7.136   5.184  67.178  1.00  0.00    -0.068 NA 
HETATM    9  C   UNL     1      -8.183   4.453  67.491  1.00  0.00    -0.099 A  
HETATM   10  C   UNL     1      -9.770   3.131  65.937  1.00  0.00     0.132 C  
HETATM   11  N   UNL     1      -8.563   3.786  66.380  1.00  0.00    -0.110 NA 
ENDROOT
BRANCH   9  12
HETATM   12  C   UNL     1      -8.883   4.342  68.794  1.00  0.00    -0.133 C  
BRANCH  12  13
HETATM   13  C   UNL     1      -9.143   5.725  69.429  1.00  0.00    -0.126 C  
BRANCH  13  14
HETATM   14  N   UNL     1     -10.533   6.181  69.216  1.00  0.00    -0.225 NA 
HETATM   15  C   UNL     1     -11.218   6.563  70.477  1.00  0.00    -0.344 C  
HETATM   16  C   UNL     1     -10.715   7.877  71.111  1.00  0.00    -0.227 C  
HETATM   17  N   UNL     1     -10.869   8.972  70.143  1.00  0.00    -0.234 NA 
HETATM   18  C   UNL     1     -10.600   7.338  68.286  1.00  0.00    -0.172 C  
HETATM   19  C   UNL     1     -10.190   8.725  68.859  1.00  0.00    -0.207 C  
BRANCH  17  20
HETATM   20  C   UNL     1     -11.491  10.163  70.463  1.00  0.00    -0.337 A  
HETATM   21  C   UNL     1     -12.393  10.262  71.537  1.00  0.00    -0.488 A  
HETATM   22  C   UNL     1     -13.052  11.455  71.862  1.00  0.00    -0.505 A  
HETATM   23  C   UNL     1     -12.824  12.596  71.107  1.00  0.00    -0.311 A  
HETATM   24  C   UNL     1     -11.945  12.547  70.021  1.00  0.00    -0.372 A  
HETATM   25  C   UNL     1     -11.697  13.758  69.164  1.00  0.00    -0.334 C  
HETATM   26  C   UNL     1     -11.282  11.337  69.724  1.00  0.00    -0.294 A  
HETATM   27  F   UNL     1     -12.030  13.552  67.859  1.00  0.00    -0.353 F  
HETATM   28  F   UNL     1     -10.391  14.142  69.157  1.00  0.00    -0.230 F  
HETATM   29  F   UNL     1     -12.403  14.861  69.554  1.00  0.00    -0.323 F  
ENDBRANCH  17  20
ENDBRANCH  13  14
ENDBRANCH  12  13
ENDBRANCH   9  12
TORSDOF 4
ENDMDL
MODEL      153
REMARK 921   NORMALIZED FREE ENERGY PREDICTED BY IDOCK:   -5.04 KCAL/MOL
REMARK 922        TOTAL FREE ENERGY PREDICTED BY IDOCK:   -6.81 KCAL/MOL
REMARK 923 INTER-LIGAND FREE ENERGY PREDICTED BY IDOCK:   -6.30 KCAL/MOL
REMARK 924 INTRA-LIGAND FREE ENERGY PREDICTED BY IDOCK:   -0.51 KCAL/MOL
REMARK 927      BINDING AFFINITY PREDICTED BY RF-SCORE:    0.00 PKD
ROOT
HETATM    1  C   UNL     1      -8.528   4.240  73.642  1.00  0.00    -0.093 C  
HETATM    2  C   UNL     1      -7.654   3.311  74.524  1.00  0.00    -0.057 C  
HETATM    3  C   UNL     1      -6.247   3.378  73.904  1.00  0.00    -0.020 C  
HETATM    4  C   UNL     1      -6.485   3.679  72.419  1.00  0.00    -0.014 C  
HETATM    5  C   UNL     1      -7.992   3.552  72.306  1.00  0.00    -0.068 C  
HETATM    6  C   UNL     1      -8.716   4.241  71.231  1.00  0.00    -0.102 A  
HETATM    7  N   UNL     1      -9.347   3.876  70.143  1.00  0.00    -0.153 NA 
HETATM    8  N   UNL     1     -10.364   4.811  69.944  1.00  0.00    -0.172 NA 
HETATM    9  C   UNL     1     -10.356   5.652  70.953  1.00  0.00    -0.238 A  
HETATM   10  C   UNL     1      -8.845   5.664  73.051  1.00  0.00    -0.123 C  
HETATM   11  N   UNL     1      -9.259   5.388  71.696  1.00  0.00    -0.145 NA 
ENDROOT
BRANCH   9  12
HETATM   12  C   UNL     1     -11.340   6.711  71.290  1.00  0.00    -0.346 C  
BRANCH  12  13
HETATM   13  C   UNL     1     -11.385   7.818  70.216  1.00  0.00    -0.163 C  
BRANCH  13  14
HETATM   14  N   UNL     1     -10.739   9.065  70.677  1.00  0.00    -0.223 NA 
HETATM   15  C   UNL     1      -9.821   9.651  69.667  1.00  0.00    -0.215 C  
HETATM   16  C   UNL     1     -10.523  10.277  68.444  1.00  0.00    -0.200 C  
HETATM   17  N   UNL     1     -11.447  11.325  68.901  1.00  0.00    -0.267 NA 
HETATM   18  C   UNL     1     -11.738  10.102  71.047  1.00  0.00    -0.382 C  
HETATM   19  C   UNL     1     -12.441  10.850  69.879  1.00  0.00    -0.224 C  
BRANCH  17  20
HETATM   20  C   UNL     1     -11.449  12.598  68.365  1.00  0.00    -0.310 A  
HETATM   21  C   UNL     1     -11.931  12.854  67.069  1.00  0.00    -0.390 A  
HETATM   22  C   UNL     1     -11.919  14.134  66.499  1.00  0.00    -0.466 A  
HETATM   23  C   UNL     1     -11.414  15.206  67.220  1.00  0.00    -0.284 A  
HETATM   24  C   UNL     1     -10.912  15.001  68.509  1.00  0.00    -0.259 A  
HETATM   25  C   UNL     1     -10.330  16.135  69.308  1.00  0.00    -0.265 C  
HETATM   26  C   UNL     1     -10.949  13.705  69.067  1.00  0.00    -0.271 A  
HETATM   27  F   UNL     1      -9.028  15.922  69.648  1.00  0.00    -0.248 F  
HETATM   28  F   UNL     1     -10.989  16.348  70.480  1.00  0.00    -0.326 F  
HETATM   29  F   UNL     1     -10.348  17.334  68.653  1.00  0.00    -0.276 F  
ENDBRANCH  17  20
ENDBRANCH  13  14
ENDBRANCH  12  13
ENDBRANCH   9  12
TORSDOF 4
ENDMDL
MODEL      154
REMARK 921   NORMALIZED FREE ENERGY PREDICTED BY IDOCK:   -5.04 KCAL/MOL
REMARK 922        TOTAL FREE ENERGY PREDICTED BY IDOCK:   -6.80 KCAL/MOL
REMARK 923 INTER-LIGAND FREE ENERGY PREDICTED BY IDOCK:   -6.36 KCAL/MOL
REMARK 924 INTRA-LIGAND FREE ENERGY PREDICTED BY IDOCK:   -0.44 KCAL/MOL
REMARK 927      BINDING AFFINITY PREDICTED BY RF-SCORE:    0.00 PKD
ROOT
HETATM    1  C   UNL     1      -8.836   5.791  65.810  1.00  0.00    -0.151 C  
HETATM    2  C   UNL     1      -8.188   5.317  64.483  1.00  0.00    -0.135 C  
HETATM    3  C   UNL     1      -9.198   4.328  63.875  1.00  0.00    -0.143 C  
HETATM    4  C   UNL     1      -9.941   3.735  65.080  1.00  0.00    -0.152 C  
HETATM    5  C   UNL     1      -9.148   4.289  66.247  1.00  0.00    -0.129 C  
HETATM    6  C   UNL     1      -9.770   4.421  67.570  1.00  0.00    -0.163 A  
HETATM    7  N   UNL     1      -9.645   3.823  68.729  1.00  0.00    -0.143 NA 
HETATM    8  N   UNL     1      -9.936   4.780  69.701  1.00  0.00    -0.225 NA 
HETATM    9  C   UNL     1     -10.148   5.929  69.100  1.00  0.00    -0.190 A  
HETATM   10  C   UNL     1     -10.011   6.500  66.583  1.00  0.00    -0.143 C  
HETATM   11  N   UNL     1     -10.174   5.696  67.770  1.00  0.00    -0.176 NA 
ENDROOT
BRANCH   9  12
HETATM   12  C   UNL     1     -10.321   7.275  69.701  1.00  0.00    -0.227 C  
BRANCH  12  13
HETATM   13  C   UNL     1      -9.062   8.149  69.529  1.00  0.00    -0.151 C  
BRANCH  13  14
HETATM   14  N   UNL     1      -9.270   9.526  70.025  1.00  0.00    -0.218 NA 
HETATM   15  C   UNL     1      -8.485  10.539  69.275  1.00  0.00    -0.129 C  
HETATM   16  C   UNL     1      -8.986  10.809  67.840  1.00  0.00    -0.139 C  
HETATM   17  N   UNL     1     -10.388  11.246  67.891  1.00  0.00    -0.177 NA 
HETATM   18  C   UNL     1     -10.701   9.922  69.974  1.00  0.00    -0.292 C  
HETATM   19  C   UNL     1     -11.279  10.295  68.579  1.00  0.00    -0.214 C  
BRANCH  17  20
HETATM   20  C   UNL     1     -10.835  12.383  67.247  1.00  0.00    -0.243 A  
HETATM   21  C   UNL     1     -11.733  12.317  66.167  1.00  0.00    -0.440 A  
HETATM   22  C   UNL     1     -12.179  13.457  65.485  1.00  0.00    -0.499 A  
HETATM   23  C   UNL     1     -11.728  14.711  65.871  1.00  0.00    -0.301 A  
HETATM   24  C   UNL     1     -10.826  14.829  66.932  1.00  0.00    -0.316 A  
HETATM   25  C   UNL     1     -10.296  16.171  67.358  1.00  0.00    -0.294 C  
HETATM   26  C   UNL     1     -10.404  13.667  67.612  1.00  0.00    -0.239 A  
HETATM   27  F   UNL     1      -8.939  16.250  67.265  1.00  0.00    -0.187 F  
HETATM   28  F   UNL     1     -10.597  16.472  68.651  1.00  0.00    -0.246 F  
HETATM   29  F   UNL     1     -10.777  17.213  66.616  1.00  0.00    -0.299 F  
ENDBRANCH  17  20
ENDBRANCH  13  14
ENDBRANCH  12  13
ENDBRANCH   9  12
TORSDOF 4
ENDMDL
MODEL      155
REMARK 921   NORMALIZED FREE ENERGY PREDICTED BY IDOCK:   -5.02 KCAL/MOL
REMARK 922        TOTAL FREE ENERGY PREDICTED BY IDOCK:   -6.78 KCAL/MOL
REMARK 923 INTER-LIGAND FREE ENERGY PREDICTED BY IDOCK:   -6.15 KCAL/MOL
REMARK 924 INTRA-LIGAND FREE ENERGY PREDICTED BY IDOCK:   -0.63 KCAL/MOL
REMARK 927      BINDING AFFINITY PREDICTED BY RF-SCORE:    0.00 PKD
ROOT
HETATM    1  C   UNL     1      -7.856   4.261  64.213  1.00  0.00    -0.085 C  
HETATM    2  C   UNL     1      -7.757   3.050  63.251  1.00  0.00    -0.064 C  
HETATM    3  C   UNL     1      -9.203   2.773  62.804  1.00  0.00    -0.087 C  
HETATM    4  C   UNL     1     -10.075   3.261  63.969  1.00  0.00    -0.188 C  
HETATM    5  C   UNL     1      -9.040   3.572  65.031  1.00  0.00    -0.140 C  
HETATM    6  C   UNL     1      -9.342   4.530  66.103  1.00  0.00    -0.156 A  
HETATM    7  N   UNL     1      -9.561   4.456  67.392  1.00  0.00    -0.174 NA 
HETATM    8  N   UNL     1      -9.098   5.652  67.941  1.00  0.00    -0.108 NA 
HETATM    9  C   UNL     1      -8.552   6.364  66.981  1.00  0.00    -0.112 A  
HETATM   10  C   UNL     1      -8.238   5.764  64.486  1.00  0.00    -0.122 C  
HETATM   11  N   UNL     1      -8.808   5.738  65.812  1.00  0.00    -0.151 NA 
ENDROOT
BRANCH   9  12
HETATM   12  C   UNL     1      -7.772   7.622  67.084  1.00  0.00    -0.112 C  
BRANCH  12  13
HETATM   13  C   UNL     1      -8.563   8.733  67.806  1.00  0.00    -0.129 C  
BRANCH  13  14
HETATM   14  N   UNL     1      -9.822   9.063  67.105  1.00  0.00    -0.186 NA 
HETATM   15  C   UNL     1     -10.620  10.103  67.802  1.00  0.00    -0.256 C  
HETATM   16  C   UNL     1     -10.023  11.525  67.736  1.00  0.00    -0.183 C  
HETATM   17  N   UNL     1      -9.867  11.919  66.329  1.00  0.00    -0.219 NA 
HETATM   18  C   UNL     1      -9.576   9.526  65.714  1.00  0.00    -0.270 C  
HETATM   19  C   UNL     1      -9.052  10.980  65.539  1.00  0.00    -0.207 C  
BRANCH  17  20
HETATM   20  C   UNL     1     -10.343  13.119  65.837  1.00  0.00    -0.290 A  
HETATM   21  C   UNL     1     -11.303  13.169  64.811  1.00  0.00    -0.352 A  
HETATM   22  C   UNL     1     -11.780  14.376  64.282  1.00  0.00    -0.328 A  
HETATM   23  C   UNL     1     -11.299  15.581  64.772  1.00  0.00    -0.362 A  
HETATM   24  C   UNL     1     -10.335  15.585  65.784  1.00  0.00    -0.384 A  
HETATM   25  C   UNL     1      -9.770  16.873  66.318  1.00  0.00    -0.280 C  
HETATM   26  C   UNL     1      -9.882  14.356  66.310  1.00  0.00    -0.321 A  
HETATM   27  F   UNL     1      -8.420  16.960  66.153  1.00  0.00    -0.284 F  
HETATM   28  F   UNL     1      -9.992  17.035  67.651  1.00  0.00    -0.253 F  
HETATM   29  F   UNL     1     -10.286  17.988  65.721  1.00  0.00    -0.354 F  
ENDBRANCH  17  20
ENDBRANCH  13  14
ENDBRANCH  12  13
ENDBRANCH   9  12
TORSDOF 4
ENDMDL
MODEL      156
REMARK 921   NORMALIZED FREE ENERGY PREDICTED BY IDOCK:   -5.02 KCAL/MOL
REMARK 922        TOTAL FREE ENERGY PREDICTED BY IDOCK:   -6.78 KCAL/MOL
REMARK 923 INTER-LIGAND FREE ENERGY PREDICTED BY IDOCK:   -6.47 KCAL/MOL
REMARK 924 INTRA-LIGAND FREE ENERGY PREDICTED BY IDOCK:   -0.31 KCAL/MOL
REMARK 927      BINDING AFFINITY PREDICTED BY RF-SCORE:    0.00 PKD
ROOT
HETATM    1  C   UNL     1      -6.909  18.864  65.563  1.00  0.00    -0.262 C  
HETATM    2  C   UNL     1      -5.615  19.717  65.530  1.00  0.00    -0.188 C  
HETATM    3  C   UNL     1      -5.280  19.995  67.006  1.00  0.00    -0.160 C  
HETATM    4  C   UNL     1      -6.633  19.970  67.728  1.00  0.00    -0.277 C  
HETATM    5  C   UNL     1      -7.609  19.884  66.571  1.00  0.00    -0.303 C  
HETATM    6  C   UNL     1      -8.952  19.326  66.774  1.00  0.00    -0.327 A  
HETATM    7  N   UNL     1     -10.172  19.802  66.799  1.00  0.00    -0.427 NA 
HETATM    8  N   UNL     1     -11.005  18.783  66.337  1.00  0.00    -0.045 NA 
HETATM    9  C   UNL     1     -10.254  17.766  65.980  1.00  0.00    -0.293 A  
HETATM   10  C   UNL     1      -7.677  17.559  65.994  1.00  0.00    -0.202 C  
HETATM   11  N   UNL     1      -8.988  18.038  66.363  1.00  0.00    -0.388 NA 
ENDROOT
BRANCH   9  12
HETATM   12  C   UNL     1     -10.648  16.522  65.272  1.00  0.00    -0.273 C  
BRANCH  12  13
HETATM   13  C   UNL     1     -10.023  15.268  65.919  1.00  0.00    -0.340 C  
BRANCH  13  14
HETATM   14  N   UNL     1     -11.040  14.416  66.571  1.00  0.00    -0.324 NA 
HETATM   15  C   UNL     1     -11.293  13.149  65.838  1.00  0.00    -0.311 C  
HETATM   16  C   UNL     1     -10.146  12.119  65.917  1.00  0.00    -0.245 C  
HETATM   17  N   UNL     1      -9.880  11.800  67.327  1.00  0.00    -0.185 NA 
HETATM   18  C   UNL     1     -10.663  14.072  67.967  1.00  0.00    -0.246 C  
HETATM   19  C   UNL     1      -9.571  12.981  68.152  1.00  0.00    -0.227 C  
BRANCH  17  20
HETATM   20  C   UNL     1      -9.809  10.501  67.794  1.00  0.00    -0.165 A  
HETATM   21  C   UNL     1     -10.239  10.155  69.087  1.00  0.00    -0.229 A  
HETATM   22  C   UNL     1     -10.153   8.849  69.587  1.00  0.00    -0.202 A  
HETATM   23  C   UNL     1      -9.625   7.841  68.794  1.00  0.00    -0.154 A  
HETATM   24  C   UNL     1      -9.173   8.136  67.504  1.00  0.00    -0.154 A  
HETATM   25  C   UNL     1      -8.568   7.073  66.628  1.00  0.00    -0.124 C  
HETATM   26  C   UNL     1      -9.284   9.456  67.019  1.00  0.00    -0.171 A  
HETATM   27  F   UNL     1      -7.288   7.363  66.263  1.00  0.00    -0.074 F  
HETATM   28  F   UNL     1      -9.253   6.893  65.466  1.00  0.00    -0.067 F  
HETATM   29  F   UNL     1      -8.513   5.841  67.217  1.00  0.00    -0.108 F  
ENDBRANCH  17  20
ENDBRANCH  13  14
ENDBRANCH  12  13
ENDBRANCH   9  12
TORSDOF 4
ENDMDL
MODEL      157
REMARK 921   NORMALIZED FREE ENERGY PREDICTED BY IDOCK:   -5.01 KCAL/MOL
REMARK 922        TOTAL FREE ENERGY PREDICTED BY IDOCK:   -6.77 KCAL/MOL
REMARK 923 INTER-LIGAND FREE ENERGY PREDICTED BY IDOCK:   -6.36 KCAL/MOL
REMARK 924 INTRA-LIGAND FREE ENERGY PREDICTED BY IDOCK:   -0.41 KCAL/MOL
REMARK 927      BINDING AFFINITY PREDICTED BY RF-SCORE:    0.00 PKD
ROOT
HETATM    1  C   UNL     1      -7.772   9.019  70.644  1.00  0.00    -0.131 C  
HETATM    2  C   UNL     1      -8.189   8.306  71.956  1.00  0.00    -0.211 C  
HETATM    3  C   UNL     1      -6.886   8.146  72.758  1.00  0.00    -0.105 C  
HETATM    4  C   UNL     1      -5.779   8.068  71.698  1.00  0.00    -0.035 C  
HETATM    5  C   UNL     1      -6.576   7.988  70.411  1.00  0.00    -0.037 C  
HETATM    6  C   UNL     1      -5.977   8.413  69.139  1.00  0.00    -0.042 A  
HETATM    7  N   UNL     1      -5.565   7.814  68.051  1.00  0.00    -0.031 NA 
HETATM    8  N   UNL     1      -5.765   8.713  67.003  1.00  0.00    -0.041 NA 
HETATM    9  C   UNL     1      -6.357   9.783  67.485  1.00  0.00    -0.064 A  
HETATM   10  C   UNL     1      -7.149  10.259  69.899  1.00  0.00    -0.152 C  
HETATM   11  N   UNL     1      -6.382   9.666  68.830  1.00  0.00    -0.046 NA 
ENDROOT
BRANCH   9  12
HETATM   12  C   UNL     1      -6.931  10.938  66.751  1.00  0.00    -0.126 C  
BRANCH  12  13
HETATM   13  C   UNL     1      -7.960  10.493  65.690  1.00  0.00    -0.158 C  
BRANCH  13  14
HETATM   14  N   UNL     1      -9.221  11.259  65.785  1.00  0.00    -0.217 NA 
HETATM   15  C   UNL     1     -10.392  10.410  66.125  1.00  0.00    -0.200 C  
HETATM   16  C   UNL     1     -10.411   9.890  67.578  1.00  0.00    -0.255 C  
HETATM   17  N   UNL     1     -10.377  11.033  68.501  1.00  0.00    -0.182 NA 
HETATM   18  C   UNL     1      -9.134  12.347  66.794  1.00  0.00    -0.212 C  
HETATM   19  C   UNL     1      -9.228  11.929  68.289  1.00  0.00    -0.187 C  
BRANCH  17  20
HETATM   20  C   UNL     1     -11.276  11.173  69.541  1.00  0.00    -0.277 A  
HETATM   21  C   UNL     1     -11.768  12.432  69.928  1.00  0.00    -0.339 A  
HETATM   22  C   UNL     1     -12.661  12.598  70.995  1.00  0.00    -0.354 A  
HETATM   23  C   UNL     1     -13.087  11.492  71.715  1.00  0.00    -0.503 A  
HETATM   24  C   UNL     1     -12.617  10.219  71.378  1.00  0.00    -0.539 A  
HETATM   25  C   UNL     1     -13.036   9.001  72.156  1.00  0.00    -0.435 C  
HETATM   26  C   UNL     1     -11.731  10.077  70.289  1.00  0.00    -0.327 A  
HETATM   27  F   UNL     1     -11.980   8.351  72.717  1.00  0.00    -0.454 F  
HETATM   28  F   UNL     1     -13.674   8.077  71.387  1.00  0.00    -0.346 F  
HETATM   29  F   UNL     1     -13.890   9.276  73.186  1.00  0.00    -0.353 F  
ENDBRANCH  17  20
ENDBRANCH  13  14
ENDBRANCH  12  13
ENDBRANCH   9  12
TORSDOF 4
ENDMDL
MODEL      158
REMARK 921   NORMALIZED FREE ENERGY PREDICTED BY IDOCK:   -4.98 KCAL/MOL
REMARK 922        TOTAL FREE ENERGY PREDICTED BY IDOCK:   -6.74 KCAL/MOL
REMARK 923 INTER-LIGAND FREE ENERGY PREDICTED BY IDOCK:   -6.08 KCAL/MOL
REMARK 924 INTRA-LIGAND FREE ENERGY PREDICTED BY IDOCK:   -0.65 KCAL/MOL
REMARK 927      BINDING AFFINITY PREDICTED BY RF-SCORE:    0.00 PKD
ROOT
HETATM    1  C   UNL     1      -8.354   7.763  66.557  1.00  0.00    -0.128 C  
HETATM    2  C   UNL     1      -7.852   8.826  65.546  1.00  0.00    -0.098 C  
HETATM    3  C   UNL     1      -7.635   8.059  64.230  1.00  0.00    -0.118 C  
HETATM    4  C   UNL     1      -7.307   6.623  64.662  1.00  0.00    -0.085 C  
HETATM    5  C   UNL     1      -7.171   6.767  66.165  1.00  0.00    -0.067 C  
HETATM    6  C   UNL     1      -7.372   5.606  67.042  1.00  0.00    -0.080 A  
HETATM    7  N   UNL     1      -6.607   4.852  67.790  1.00  0.00    -0.048 NA 
HETATM    8  N   UNL     1      -7.395   4.422  68.857  1.00  0.00    -0.055 NA 
HETATM    9  C   UNL     1      -8.575   4.991  68.755  1.00  0.00    -0.086 A  
HETATM   10  C   UNL     1      -9.418   6.689  66.997  1.00  0.00    -0.144 C  
HETATM   11  N   UNL     1      -8.619   5.629  67.566  1.00  0.00    -0.109 NA 
ENDROOT
BRANCH   9  12
HETATM   12  C   UNL     1      -9.696   4.990  69.727  1.00  0.00    -0.266 C  
BRANCH  12  13
HETATM   13  C   UNL     1      -9.291   5.624  71.075  1.00  0.00    -0.153 C  
BRANCH  13  14
HETATM   14  N   UNL     1     -10.459   6.139  71.819  1.00  0.00    -0.211 NA 
HETATM   15  C   UNL     1     -10.141   7.330  72.647  1.00  0.00    -0.194 C  
HETATM   16  C   UNL     1      -9.881   8.622  71.844  1.00  0.00    -0.314 C  
HETATM   17  N   UNL     1     -11.060   8.925  71.021  1.00  0.00    -0.258 NA 
HETATM   18  C   UNL     1     -11.581   6.495  70.912  1.00  0.00    -0.359 C  
HETATM   19  C   UNL     1     -11.449   7.827  70.119  1.00  0.00    -0.043 C  
BRANCH  17  20
HETATM   20  C   UNL     1     -11.662  10.169  71.015  1.00  0.00    -0.382 A  
HETATM   21  C   UNL     1     -12.668  10.508  71.937  1.00  0.00    -0.436 A  
HETATM   22  C   UNL     1     -13.307  11.755  71.931  1.00  0.00    -0.401 A  
HETATM   23  C   UNL     1     -12.952  12.708  70.988  1.00  0.00    -0.156 A  
HETATM   24  C   UNL     1     -11.965  12.415  70.042  1.00  0.00    -0.372 A  
HETATM   25  C   UNL     1     -11.575  13.414  68.986  1.00  0.00    -0.312 C  
HETATM   26  C   UNL     1     -11.325  11.157  70.078  1.00  0.00    -0.326 A  
HETATM   27  F   UNL     1     -11.775  12.944  67.723  1.00  0.00    -0.320 F  
HETATM   28  F   UNL     1     -10.261  13.764  69.049  1.00  0.00    -0.223 F  
HETATM   29  F   UNL     1     -12.272  14.587  69.058  1.00  0.00    -0.340 F  
ENDBRANCH  17  20
ENDBRANCH  13  14
ENDBRANCH  12  13
ENDBRANCH   9  12
TORSDOF 4
ENDMDL
MODEL      159
REMARK 921   NORMALIZED FREE ENERGY PREDICTED BY IDOCK:   -4.98 KCAL/MOL
REMARK 922        TOTAL FREE ENERGY PREDICTED BY IDOCK:   -6.73 KCAL/MOL
REMARK 923 INTER-LIGAND FREE ENERGY PREDICTED BY IDOCK:   -6.15 KCAL/MOL
REMARK 924 INTRA-LIGAND FREE ENERGY PREDICTED BY IDOCK:   -0.58 KCAL/MOL
REMARK 927      BINDING AFFINITY PREDICTED BY RF-SCORE:    0.00 PKD
ROOT
HETATM    1  C   UNL     1     -12.022  12.942  66.457  1.00  0.00    -0.447 C  
HETATM    2  C   UNL     1     -12.233  13.747  65.149  1.00  0.00    -0.453 C  
HETATM    3  C   UNL     1     -11.222  14.904  65.222  1.00  0.00    -0.369 C  
HETATM    4  C   UNL     1     -11.025  15.160  66.721  1.00  0.00    -0.321 C  
HETATM    5  C   UNL     1     -12.086  14.270  67.338  1.00  0.00    -0.371 C  
HETATM    6  C   UNL     1     -11.943  13.793  68.720  1.00  0.00    -0.365 A  
HETATM    7  N   UNL     1     -12.538  14.035  69.861  1.00  0.00    -0.241 NA 
HETATM    8  N   UNL     1     -12.471  12.854  70.600  1.00  0.00    -0.297 NA 
HETATM    9  C   UNL     1     -11.911  11.930  69.852  1.00  0.00    -0.343 A  
HETATM   10  C   UNL     1     -11.098  12.088  67.403  1.00  0.00    -0.281 C  
HETATM   11  N   UNL     1     -11.463  12.529  68.728  1.00  0.00    -0.286 NA 
ENDROOT
BRANCH   9  12
HETATM   12  C   UNL     1     -11.772  10.476  70.118  1.00  0.00    -0.410 C  
BRANCH  12  13
HETATM   13  C   UNL     1     -10.294  10.051  70.241  1.00  0.00    -0.242 C  
BRANCH  13  14
HETATM   14  N   UNL     1     -10.151   8.595  70.449  1.00  0.00    -0.183 NA 
HETATM   15  C   UNL     1     -10.893   7.789  69.446  1.00  0.00    -0.113 C  
HETATM   16  C   UNL     1     -10.286   7.808  68.027  1.00  0.00    -0.201 C  
HETATM   17  N   UNL     1      -8.900   7.320  68.088  1.00  0.00    -0.127 NA 
HETATM   18  C   UNL     1      -8.728   8.168  70.421  1.00  0.00    -0.136 C  
HETATM   19  C   UNL     1      -8.049   8.075  69.024  1.00  0.00    -0.123 C  
BRANCH  17  20
HETATM   20  C   UNL     1      -8.425   6.328  67.253  1.00  0.00    -0.108 A  
HETATM   21  C   UNL     1      -7.760   6.628  66.051  1.00  0.00    -0.089 A  
HETATM   22  C   UNL     1      -7.293   5.636  65.178  1.00  0.00    -0.075 A  
HETATM   23  C   UNL     1      -7.485   4.298  65.490  1.00  0.00    -0.081 A  
HETATM   24  C   UNL     1      -8.150   3.947  66.669  1.00  0.00    -0.097 A  
HETATM   25  C   UNL     1      -8.401   2.507  67.023  1.00  0.00    -0.087 C  
HETATM   26  C   UNL     1      -8.598   4.965  67.538  1.00  0.00    -0.104 A  
HETATM   27  F   UNL     1      -9.727   2.223  67.153  1.00  0.00    -0.079 F  
HETATM   28  F   UNL     1      -7.827   2.146  68.204  1.00  0.00    -0.056 F  
HETATM   29  F   UNL     1      -7.924   1.623  66.098  1.00  0.00    -0.067 F  
ENDBRANCH  17  20
ENDBRANCH  13  14
ENDBRANCH  12  13
ENDBRANCH   9  12
TORSDOF 4
ENDMDL
MODEL      160
REMARK 921   NORMALIZED FREE ENERGY PREDICTED BY IDOCK:   -4.98 KCAL/MOL
REMARK 922        TOTAL FREE ENERGY PREDICTED BY IDOCK:   -6.73 KCAL/MOL
REMARK 923 INTER-LIGAND FREE ENERGY PREDICTED BY IDOCK:   -6.07 KCAL/MOL
REMARK 924 INTRA-LIGAND FREE ENERGY PREDICTED BY IDOCK:   -0.66 KCAL/MOL
REMARK 927      BINDING AFFINITY PREDICTED BY RF-SCORE:    0.00 PKD
ROOT
HETATM    1  C   UNL     1      -8.178   3.933  63.995  1.00  0.00    -0.091 C  
HETATM    2  C   UNL     1      -8.253   2.955  62.794  1.00  0.00    -0.074 C  
HETATM    3  C   UNL     1      -9.744   2.892  62.421  1.00  0.00    -0.091 C  
HETATM    4  C   UNL     1     -10.490   3.179  63.730  1.00  0.00    -0.218 C  
HETATM    5  C   UNL     1      -9.364   3.174  64.745  1.00  0.00    -0.148 C  
HETATM    6  C   UNL     1      -9.508   3.896  66.016  1.00  0.00    -0.180 A  
HETATM    7  N   UNL     1      -9.649   3.561  67.274  1.00  0.00    -0.185 NA 
HETATM    8  N   UNL     1      -9.044   4.571  68.023  1.00  0.00    -0.117 NA 
HETATM    9  C   UNL     1      -8.499   5.430  67.192  1.00  0.00    -0.106 A  
HETATM   10  C   UNL     1      -8.403   5.365  64.610  1.00  0.00    -0.141 C  
HETATM   11  N   UNL     1      -8.886   5.094  65.943  1.00  0.00    -0.137 NA 
ENDROOT
BRANCH   9  12
HETATM   12  C   UNL     1      -7.602   6.574  67.494  1.00  0.00    -0.105 C  
BRANCH  12  13
HETATM   13  C   UNL     1      -8.264   7.590  68.448  1.00  0.00    -0.125 C  
BRANCH  13  14
HETATM   14  N   UNL     1      -9.613   7.984  67.989  1.00  0.00    -0.149 NA 
HETATM   15  C   UNL     1     -10.423   8.630  69.053  1.00  0.00    -0.199 C  
HETATM   16  C   UNL     1      -9.964  10.052  69.439  1.00  0.00    -0.223 C  
HETATM   17  N   UNL     1      -9.989  10.909  68.245  1.00  0.00    -0.170 NA 
HETATM   18  C   UNL     1      -9.555   8.911  66.829  1.00  0.00    -0.202 C  
HETATM   19  C   UNL     1      -9.180  10.390  67.129  1.00  0.00    -0.143 C  
BRANCH  17  20
HETATM   20  C   UNL     1     -10.617  12.140  68.229  1.00  0.00    -0.217 A  
HETATM   21  C   UNL     1     -10.593  12.967  67.092  1.00  0.00    -0.246 A  
HETATM   22  C   UNL     1     -11.202  14.228  67.063  1.00  0.00    -0.332 A  
HETATM   23  C   UNL     1     -11.859  14.702  68.190  1.00  0.00    -0.332 A  
HETATM   24  C   UNL     1     -11.902  13.922  69.349  1.00  0.00    -0.384 A  
HETATM   25  C   UNL     1     -12.581  14.417  70.597  1.00  0.00    -0.357 C  
HETATM   26  C   UNL     1     -11.293  12.649  69.347  1.00  0.00    -0.273 A  
HETATM   27  F   UNL     1     -11.731  14.494  71.659  1.00  0.00    -0.379 F  
HETATM   28  F   UNL     1     -13.603  13.612  70.998  1.00  0.00    -0.268 F  
HETATM   29  F   UNL     1     -13.124  15.664  70.469  1.00  0.00    -0.482 F  
ENDBRANCH  17  20
ENDBRANCH  13  14
ENDBRANCH  12  13
ENDBRANCH   9  12
TORSDOF 4
ENDMDL
MODEL      161
REMARK 921   NORMALIZED FREE ENERGY PREDICTED BY IDOCK:   -4.98 KCAL/MOL
REMARK 922        TOTAL FREE ENERGY PREDICTED BY IDOCK:   -6.73 KCAL/MOL
REMARK 923 INTER-LIGAND FREE ENERGY PREDICTED BY IDOCK:   -6.19 KCAL/MOL
REMARK 924 INTRA-LIGAND FREE ENERGY PREDICTED BY IDOCK:   -0.54 KCAL/MOL
REMARK 927      BINDING AFFINITY PREDICTED BY RF-SCORE:    0.00 PKD
ROOT
HETATM    1  C   UNL     1     -11.120   5.993  71.940  1.00  0.00    -0.331 C  
HETATM    2  C   UNL     1     -11.336   5.059  73.158  1.00  0.00    -0.397 C  
HETATM    3  C   UNL     1      -9.951   4.459  73.454  1.00  0.00    -0.175 C  
HETATM    4  C   UNL     1      -9.228   4.451  72.100  1.00  0.00    -0.164 C  
HETATM    5  C   UNL     1     -10.336   4.853  71.147  1.00  0.00    -0.222 C  
HETATM    6  C   UNL     1     -10.014   5.469  69.853  1.00  0.00    -0.215 A  
HETATM    7  N   UNL     1     -10.078   5.102  68.598  1.00  0.00    -0.168 NA 
HETATM    8  N   UNL     1     -10.316   6.261  67.858  1.00  0.00    -0.169 NA 
HETATM    9  C   UNL     1     -10.463   7.263  68.696  1.00  0.00    -0.194 A  
HETATM   10  C   UNL     1     -10.427   7.244  71.281  1.00  0.00    -0.201 C  
HETATM   11  N   UNL     1     -10.154   6.812  69.930  1.00  0.00    -0.178 NA 
ENDROOT
BRANCH   9  12
HETATM   12  C   UNL     1     -10.900   8.653  68.415  1.00  0.00     0.003 C  
BRANCH  12  13
HETATM   13  C   UNL     1      -9.707   9.629  68.344  1.00  0.00    -0.150 C  
BRANCH  13  14
HETATM   14  N   UNL     1      -9.865  10.620  67.259  1.00  0.00    -0.172 NA 
HETATM   15  C   UNL     1     -11.051  11.496  67.441  1.00  0.00    -0.282 C  
HETATM   16  C   UNL     1     -10.921  12.527  68.583  1.00  0.00    -0.255 C  
HETATM   17  N   UNL     1      -9.745  13.375  68.337  1.00  0.00    -0.220 NA 
HETATM   18  C   UNL     1      -8.667  11.490  67.123  1.00  0.00    -0.160 C  
HETATM   19  C   UNL     1      -8.492  12.616  68.182  1.00  0.00    -0.177 C  
BRANCH  17  20
HETATM   20  C   UNL     1      -9.805  14.755  68.373  1.00  0.00    -0.220 A  
HETATM   21  C   UNL     1     -10.860  15.433  69.007  1.00  0.00    -0.244 A  
HETATM   22  C   UNL     1     -10.951  16.831  69.032  1.00  0.00    -0.239 A  
HETATM   23  C   UNL     1      -9.974  17.597  68.412  1.00  0.00    -0.356 A  
HETATM   24  C   UNL     1      -8.910  16.969  67.757  1.00  0.00    -0.223 A  
HETATM   25  C   UNL     1      -7.850  17.768  67.049  1.00  0.00    -0.213 C  
HETATM   26  C   UNL     1      -8.834  15.560  67.759  1.00  0.00    -0.173 A  
HETATM   27  F   UNL     1      -7.774  17.474  65.721  1.00  0.00    -0.294 F  
HETATM   28  F   UNL     1      -6.603  17.551  67.549  1.00  0.00    -0.146 F  
HETATM   29  F   UNL     1      -8.044  19.119  67.117  1.00  0.00    -0.257 F  
ENDBRANCH  17  20
ENDBRANCH  13  14
ENDBRANCH  12  13
ENDBRANCH   9  12
TORSDOF 4
ENDMDL
MODEL      162
REMARK 921   NORMALIZED FREE ENERGY PREDICTED BY IDOCK:   -4.97 KCAL/MOL
REMARK 922        TOTAL FREE ENERGY PREDICTED BY IDOCK:   -6.72 KCAL/MOL
REMARK 923 INTER-LIGAND FREE ENERGY PREDICTED BY IDOCK:   -6.17 KCAL/MOL
REMARK 924 INTRA-LIGAND FREE ENERGY PREDICTED BY IDOCK:   -0.55 KCAL/MOL
REMARK 927      BINDING AFFINITY PREDICTED BY RF-SCORE:    0.00 PKD
ROOT
HETATM    1  C   UNL     1     -10.727  12.389  64.571  1.00  0.00    -0.355 C  
HETATM    2  C   UNL     1     -11.809  12.029  63.521  1.00  0.00    -0.587 C  
HETATM    3  C   UNL     1     -12.469  13.368  63.150  1.00  0.00     0.018 C  
HETATM    4  C   UNL     1     -12.313  14.244  64.400  1.00  0.00    -0.417 C  
HETATM    5  C   UNL     1     -11.768  13.257  65.413  1.00  0.00    -0.370 C  
HETATM    6  C   UNL     1     -10.993  13.730  66.567  1.00  0.00    -0.299 A  
HETATM    7  N   UNL     1     -11.190  13.813  67.859  1.00  0.00    -0.263 NA 
HETATM    8  N   UNL     1      -9.940  13.667  68.460  1.00  0.00    -0.229 NA 
HETATM    9  C   UNL     1      -9.055  13.427  67.520  1.00  0.00    -0.215 A  
HETATM   10  C   UNL     1      -9.414  13.160  64.974  1.00  0.00     0.427 C  
HETATM   11  N   UNL     1      -9.669  13.588  66.329  1.00  0.00    -0.289 NA 
ENDROOT
BRANCH   9  12
HETATM   12  C   UNL     1      -7.631  13.031  67.662  1.00  0.00    -0.160 C  
BRANCH  12  13
HETATM   13  C   UNL     1      -7.354  11.643  67.046  1.00  0.00    -0.143 C  
BRANCH  13  14
HETATM   14  N   UNL     1      -6.779  10.704  68.032  1.00  0.00    -0.064 NA 
HETATM   15  C   UNL     1      -7.492  10.721  69.335  1.00  0.00    -0.124 C  
HETATM   16  C   UNL     1      -8.898  10.084  69.309  1.00  0.00    -0.178 C  
HETATM   17  N   UNL     1      -8.789   8.691  68.852  1.00  0.00    -0.137 NA 
HETATM   18  C   UNL     1      -6.774   9.306  67.528  1.00  0.00    -0.069 C  
HETATM   19  C   UNL     1      -8.133   8.550  67.540  1.00  0.00    -0.107 C  
BRANCH  17  20
HETATM   20  C   UNL     1      -9.360   7.638  69.539  1.00  0.00    -0.153 A  
HETATM   21  C   UNL     1      -8.827   6.338  69.477  1.00  0.00    -0.135 A  
HETATM   22  C   UNL     1      -9.405   5.252  70.147  1.00  0.00    -0.202 A  
HETATM   23  C   UNL     1     -10.551   5.442  70.907  1.00  0.00    -0.283 A  
HETATM   24  C   UNL     1     -11.126   6.713  70.991  1.00  0.00    -0.330 A  
HETATM   25  C   UNL     1     -12.385   6.948  71.782  1.00  0.00    -0.361 C  
HETATM   26  C   UNL     1     -10.516   7.793  70.319  1.00  0.00    -0.225 A  
HETATM   27  F   UNL     1     -13.401   7.431  71.015  1.00  0.00    -0.359 F  
HETATM   28  F   UNL     1     -12.216   7.851  72.787  1.00  0.00    -0.313 F  
HETATM   29  F   UNL     1     -12.876   5.821  72.378  1.00  0.00    -0.251 F  
ENDBRANCH  17  20
ENDBRANCH  13  14
ENDBRANCH  12  13
ENDBRANCH   9  12
TORSDOF 4
ENDMDL
MODEL      163
REMARK 921   NORMALIZED FREE ENERGY PREDICTED BY IDOCK:   -4.97 KCAL/MOL
REMARK 922        TOTAL FREE ENERGY PREDICTED BY IDOCK:   -6.72 KCAL/MOL
REMARK 923 INTER-LIGAND FREE ENERGY PREDICTED BY IDOCK:   -6.40 KCAL/MOL
REMARK 924 INTRA-LIGAND FREE ENERGY PREDICTED BY IDOCK:   -0.32 KCAL/MOL
REMARK 927      BINDING AFFINITY PREDICTED BY RF-SCORE:    0.00 PKD
ROOT
HETATM    1  C   UNL     1      -7.011  18.578  65.707  1.00  0.00    -0.287 C  
HETATM    2  C   UNL     1      -5.978  19.733  65.714  1.00  0.00    -0.200 C  
HETATM    3  C   UNL     1      -5.983  20.267  67.158  1.00  0.00    -0.207 C  
HETATM    4  C   UNL     1      -7.394  19.970  67.682  1.00  0.00    -0.323 C  
HETATM    5  C   UNL     1      -8.103  19.489  66.431  1.00  0.00    -0.331 C  
HETATM    6  C   UNL     1      -9.284  18.622  66.535  1.00  0.00    -0.320 A  
HETATM    7  N   UNL     1     -10.567  18.757  66.315  1.00  0.00    -0.412 NA 
HETATM    8  N   UNL     1     -11.034  17.505  65.914  1.00  0.00     0.040 NA 
HETATM    9  C   UNL     1     -10.008  16.688  65.833  1.00  0.00    -0.295 A  
HETATM   10  C   UNL     1      -7.501  17.177  66.234  1.00  0.00    -0.309 C  
HETATM   11  N   UNL     1      -8.933  17.332  66.337  1.00  0.00    -0.331 NA 
ENDROOT
BRANCH   9  12
HETATM   12  C   UNL     1      -9.958  15.309  65.289  1.00  0.00    -0.322 C  
BRANCH  12  13
HETATM   13  C   UNL     1      -9.161  14.356  66.205  1.00  0.00    -0.008 C  
BRANCH  13  14
HETATM   14  N   UNL     1     -10.047  13.508  67.029  1.00  0.00    -0.241 NA 
HETATM   15  C   UNL     1     -10.416  12.233  66.361  1.00  0.00    -0.236 C  
HETATM   16  C   UNL     1      -9.269  11.207  66.251  1.00  0.00    -0.195 C  
HETATM   17  N   UNL     1      -8.764  10.901  67.597  1.00  0.00    -0.126 NA 
HETATM   18  C   UNL     1      -9.435  13.178  68.342  1.00  0.00    -0.166 C  
HETATM   19  C   UNL     1      -8.323  12.091  68.346  1.00  0.00    -0.151 C  
BRANCH  17  20
HETATM   20  C   UNL     1      -8.609   9.607  68.056  1.00  0.00    -0.119 A  
HETATM   21  C   UNL     1      -7.339   9.052  68.290  1.00  0.00    -0.082 A  
HETATM   22  C   UNL     1      -7.161   7.734  68.732  1.00  0.00    -0.076 A  
HETATM   23  C   UNL     1      -8.266   6.926  68.951  1.00  0.00    -0.121 A  
HETATM   24  C   UNL     1      -9.551   7.427  68.722  1.00  0.00    -0.147 A  
HETATM   25  C   UNL     1     -10.770   6.569  68.922  1.00  0.00    -0.273 C  
HETATM   26  C   UNL     1      -9.704   8.763  68.292  1.00  0.00    -0.175 A  
HETATM   27  F   UNL     1     -11.505   6.430  67.783  1.00  0.00    -0.394 F  
HETATM   28  F   UNL     1     -11.624   7.073  69.855  1.00  0.00    -0.294 F  
HETATM   29  F   UNL     1     -10.485   5.298  69.334  1.00  0.00    -0.295 F  
ENDBRANCH  17  20
ENDBRANCH  13  14
ENDBRANCH  12  13
ENDBRANCH   9  12
TORSDOF 4
ENDMDL
MODEL      164
REMARK 921   NORMALIZED FREE ENERGY PREDICTED BY IDOCK:   -4.97 KCAL/MOL
REMARK 922        TOTAL FREE ENERGY PREDICTED BY IDOCK:   -6.71 KCAL/MOL
REMARK 923 INTER-LIGAND FREE ENERGY PREDICTED BY IDOCK:   -6.42 KCAL/MOL
REMARK 924 INTRA-LIGAND FREE ENERGY PREDICTED BY IDOCK:   -0.30 KCAL/MOL
REMARK 927      BINDING AFFINITY PREDICTED BY RF-SCORE:    0.00 PKD
ROOT
HETATM    1  C   UNL     1      -9.204   5.379  71.548  1.00  0.00    -0.169 C  
HETATM    2  C   UNL     1      -9.001   5.005  73.039  1.00  0.00    -0.115 C  
HETATM    3  C   UNL     1      -7.593   4.389  73.110  1.00  0.00    -0.082 C  
HETATM    4  C   UNL     1      -7.359   3.782  71.721  1.00  0.00    -0.055 C  
HETATM    5  C   UNL     1      -8.722   3.934  71.074  1.00  0.00    -0.123 C  
HETATM    6  C   UNL     1      -8.848   3.975  69.611  1.00  0.00    -0.086 A  
HETATM    7  N   UNL     1      -9.322   3.175  68.689  1.00  0.00    -0.174 NA 
HETATM    8  N   UNL     1      -9.796   3.992  67.662  1.00  0.00    -0.108 NA 
HETATM    9  C   UNL     1      -9.662   5.245  68.036  1.00  0.00    -0.141 A  
HETATM   10  C   UNL     1      -8.773   6.192  70.271  1.00  0.00    -0.145 C  
HETATM   11  N   UNL     1      -8.960   5.255  69.189  1.00  0.00    -0.102 NA 
ENDROOT
BRANCH   9  12
HETATM   12  C   UNL     1     -10.172   6.472  67.375  1.00  0.00    -0.227 C  
BRANCH  12  13
HETATM   13  C   UNL     1      -9.166   7.036  66.350  1.00  0.00    -0.149 C  
BRANCH  13  14
HETATM   14  N   UNL     1      -8.600   8.331  66.783  1.00  0.00    -0.124 NA 
HETATM   15  C   UNL     1      -8.625   9.363  65.715  1.00  0.00    -0.145 C  
HETATM   16  C   UNL     1     -10.030   9.907  65.379  1.00  0.00    -0.279 C  
HETATM   17  N   UNL     1     -10.632  10.475  66.594  1.00  0.00    -0.226 NA 
HETATM   18  C   UNL     1      -9.310   8.878  67.969  1.00  0.00    -0.142 C  
HETATM   19  C   UNL     1     -10.702   9.525  67.718  1.00  0.00    -0.242 C  
BRANCH  17  20
HETATM   20  C   UNL     1     -11.185  11.741  66.626  1.00  0.00    -0.323 A  
HETATM   21  C   UNL     1     -11.673  12.365  65.465  1.00  0.00    -0.459 A  
HETATM   22  C   UNL     1     -12.215  13.657  65.473  1.00  0.00    -0.476 A  
HETATM   23  C   UNL     1     -12.281  14.369  66.661  1.00  0.00    -0.340 A  
HETATM   24  C   UNL     1     -11.799  13.797  67.842  1.00  0.00    -0.413 A  
HETATM   25  C   UNL     1     -11.829  14.552  69.143  1.00  0.00    -0.319 C  
HETATM   26  C   UNL     1     -11.271  12.488  67.810  1.00  0.00    -0.318 A  
HETATM   27  F   UNL     1     -10.587  14.720  69.679  1.00  0.00    -0.232 F  
HETATM   28  F   UNL     1     -12.564  13.924  70.102  1.00  0.00    -0.373 F  
HETATM   29  F   UNL     1     -12.357  15.807  69.037  1.00  0.00    -0.331 F  
ENDBRANCH  17  20
ENDBRANCH  13  14
ENDBRANCH  12  13
ENDBRANCH   9  12
TORSDOF 4
ENDMDL
MODEL      165
REMARK 921   NORMALIZED FREE ENERGY PREDICTED BY IDOCK:   -4.95 KCAL/MOL
REMARK 922        TOTAL FREE ENERGY PREDICTED BY IDOCK:   -6.69 KCAL/MOL
REMARK 923 INTER-LIGAND FREE ENERGY PREDICTED BY IDOCK:   -6.14 KCAL/MOL
REMARK 924 INTRA-LIGAND FREE ENERGY PREDICTED BY IDOCK:   -0.55 KCAL/MOL
REMARK 927      BINDING AFFINITY PREDICTED BY RF-SCORE:    0.00 PKD
ROOT
HETATM    1  C   UNL     1      -8.323   4.144  63.978  1.00  0.00    -0.096 C  
HETATM    2  C   UNL     1      -8.364   3.365  62.638  1.00  0.00    -0.073 C  
HETATM    3  C   UNL     1      -9.859   3.163  62.336  1.00  0.00    -0.094 C  
HETATM    4  C   UNL     1     -10.538   3.138  63.712  1.00  0.00    -0.220 C  
HETATM    5  C   UNL     1      -9.349   3.124  64.653  1.00  0.00    -0.146 C  
HETATM    6  C   UNL     1      -9.488   3.613  66.031  1.00  0.00    -0.160 A  
HETATM    7  N   UNL     1      -9.494   3.069  67.222  1.00  0.00    -0.160 NA 
HETATM    8  N   UNL     1      -8.967   4.020  68.095  1.00  0.00    -0.112 NA 
HETATM    9  C   UNL     1      -8.594   5.065  67.390  1.00  0.00    -0.104 A  
HETATM   10  C   UNL     1      -8.678   5.419  64.831  1.00  0.00    -0.096 C  
HETATM   11  N   UNL     1      -9.026   4.880  66.124  1.00  0.00    -0.121 NA 
ENDROOT
BRANCH   9  12
HETATM   12  C   UNL     1      -7.826   6.256  67.829  1.00  0.00    -0.106 C  
BRANCH  12  13
HETATM   13  C   UNL     1      -8.590   7.076  68.889  1.00  0.00    -0.128 C  
BRANCH  13  14
HETATM   14  N   UNL     1      -9.962   7.408  68.451  1.00  0.00    -0.159 NA 
HETATM   15  C   UNL     1     -10.701   8.240  69.434  1.00  0.00    -0.151 C  
HETATM   16  C   UNL     1     -10.211   9.700  69.541  1.00  0.00    -0.218 C  
HETATM   17  N   UNL     1     -10.305  10.339  68.221  1.00  0.00    -0.172 NA 
HETATM   18  C   UNL     1      -9.970   8.121  67.147  1.00  0.00    -0.236 C  
HETATM   19  C   UNL     1      -9.570   9.623  67.164  1.00  0.00    -0.166 C  
BRANCH  17  20
HETATM   20  C   UNL     1     -10.925  11.559  68.030  1.00  0.00    -0.231 A  
HETATM   21  C   UNL     1     -11.331  12.360  69.112  1.00  0.00    -0.327 A  
HETATM   22  C   UNL     1     -11.984  13.588  68.938  1.00  0.00    -0.378 A  
HETATM   23  C   UNL     1     -12.253  14.051  67.659  1.00  0.00    -0.235 A  
HETATM   24  C   UNL     1     -11.880  13.286  66.550  1.00  0.00    -0.450 A  
HETATM   25  C   UNL     1     -12.182  13.744  65.149  1.00  0.00    -0.431 C  
HETATM   26  C   UNL     1     -11.210  12.060  66.751  1.00  0.00    -0.376 A  
HETATM   27  F   UNL     1     -12.968  12.863  64.469  1.00  0.00    -0.402 F  
HETATM   28  F   UNL     1     -11.062  13.903  64.392  1.00  0.00    -0.363 F  
HETATM   29  F   UNL     1     -12.837  14.942  65.093  1.00  0.00    -0.224 F  
ENDBRANCH  17  20
ENDBRANCH  13  14
ENDBRANCH  12  13
ENDBRANCH   9  12
TORSDOF 4
ENDMDL
MODEL      166
REMARK 921   NORMALIZED FREE ENERGY PREDICTED BY IDOCK:   -4.94 KCAL/MOL
REMARK 922        TOTAL FREE ENERGY PREDICTED BY IDOCK:   -6.68 KCAL/MOL
REMARK 923 INTER-LIGAND FREE ENERGY PREDICTED BY IDOCK:   -6.13 KCAL/MOL
REMARK 924 INTRA-LIGAND FREE ENERGY PREDICTED BY IDOCK:   -0.55 KCAL/MOL
REMARK 927      BINDING AFFINITY PREDICTED BY RF-SCORE:    0.00 PKD
ROOT
HETATM    1  C   UNL     1      -8.225   3.953  72.641  1.00  0.00    -0.094 C  
HETATM    2  C   UNL     1      -8.054   3.309  74.041  1.00  0.00    -0.070 C  
HETATM    3  C   UNL     1      -9.306   2.437  74.237  1.00  0.00    -0.100 C  
HETATM    4  C   UNL     1     -10.396   3.120  73.401  1.00  0.00    -0.231 C  
HETATM    5  C   UNL     1      -9.715   4.409  72.983  1.00  0.00    -0.167 C  
HETATM    6  C   UNL     1     -10.158   5.126  71.780  1.00  0.00    -0.200 A  
HETATM    7  N   UNL     1     -10.787   6.248  71.535  1.00  0.00    -0.245 NA 
HETATM    8  N   UNL     1     -10.308   6.712  70.310  1.00  0.00    -0.198 NA 
HETATM    9  C   UNL     1      -9.360   5.898  69.903  1.00  0.00    -0.150 A  
HETATM   10  C   UNL     1      -8.384   3.814  71.080  1.00  0.00    -0.068 C  
HETATM   11  N   UNL     1      -9.342   4.839  70.741  1.00  0.00    -0.138 NA 
ENDROOT
BRANCH   9  12
HETATM   12  C   UNL     1      -8.432   6.051  68.755  1.00  0.00    -0.113 C  
BRANCH  12  13
HETATM   13  C   UNL     1      -7.993   7.518  68.561  1.00  0.00    -0.123 C  
BRANCH  13  14
HETATM   14  N   UNL     1      -7.712   7.830  67.143  1.00  0.00    -0.103 NA 
HETATM   15  C   UNL     1      -8.902   7.679  66.268  1.00  0.00    -0.156 C  
HETATM   16  C   UNL     1      -9.984   8.763  66.458  1.00  0.00    -0.290 C  
HETATM   17  N   UNL     1      -9.390  10.086  66.218  1.00  0.00    -0.161 NA 
HETATM   18  C   UNL     1      -7.188   9.210  66.973  1.00  0.00    -0.090 C  
HETATM   19  C   UNL     1      -8.219  10.370  67.065  1.00  0.00    -0.123 C  
BRANCH  17  20
HETATM   20  C   UNL     1      -9.959  11.010  65.363  1.00  0.00    -0.260 A  
HETATM   21  C   UNL     1     -10.130  10.744  63.993  1.00  0.00    -0.410 A  
HETATM   22  C   UNL     1     -10.682  11.678  63.106  1.00  0.00    -0.312 A  
HETATM   23  C   UNL     1     -11.081  12.921  63.574  1.00  0.00    -0.288 A  
HETATM   24  C   UNL     1     -10.922  13.239  64.926  1.00  0.00    -0.345 A  
HETATM   25  C   UNL     1     -11.317  14.588  65.462  1.00  0.00    -0.335 C  
HETATM   26  C   UNL     1     -10.377  12.275  65.802  1.00  0.00    -0.287 A  
HETATM   27  F   UNL     1     -10.269  15.256  66.021  1.00  0.00    -0.262 F  
HETATM   28  F   UNL     1     -12.269  14.513  66.432  1.00  0.00    -0.411 F  
HETATM   29  F   UNL     1     -11.824  15.429  64.512  1.00  0.00    -0.401 F  
ENDBRANCH  17  20
ENDBRANCH  13  14
ENDBRANCH  12  13
ENDBRANCH   9  12
TORSDOF 4
ENDMDL
MODEL      167
REMARK 921   NORMALIZED FREE ENERGY PREDICTED BY IDOCK:   -4.93 KCAL/MOL
REMARK 922        TOTAL FREE ENERGY PREDICTED BY IDOCK:   -6.66 KCAL/MOL
REMARK 923 INTER-LIGAND FREE ENERGY PREDICTED BY IDOCK:   -6.15 KCAL/MOL
REMARK 924 INTRA-LIGAND FREE ENERGY PREDICTED BY IDOCK:   -0.52 KCAL/MOL
REMARK 927      BINDING AFFINITY PREDICTED BY RF-SCORE:    0.00 PKD
ROOT
HETATM    1  C   UNL     1     -11.231  13.318  66.205  1.00  0.00    -0.321 C  
HETATM    2  C   UNL     1     -12.677  13.612  65.732  1.00  0.00    -0.470 C  
HETATM    3  C   UNL     1     -12.522  14.572  64.540  1.00  0.00    -0.346 C  
HETATM    4  C   UNL     1     -11.215  15.327  64.810  1.00  0.00    -0.405 C  
HETATM    5  C   UNL     1     -10.869  14.872  66.214  1.00  0.00    -0.331 C  
HETATM    6  C   UNL     1      -9.480  14.916  66.688  1.00  0.00    -0.265 A  
HETATM    7  N   UNL     1      -8.806  15.632  67.552  1.00  0.00    -0.177 NA 
HETATM    8  N   UNL     1      -7.805  14.803  68.059  1.00  0.00    -0.121 NA 
HETATM    9  C   UNL     1      -7.960  13.605  67.542  1.00  0.00    -0.182 A  
HETATM   10  C   UNL     1      -9.788  12.752  65.925  1.00  0.00    -0.238 C  
HETATM   11  N   UNL     1      -8.917  13.690  66.593  1.00  0.00    -0.175 NA 
ENDROOT
BRANCH   9  12
HETATM   12  C   UNL     1      -7.263  12.343  67.894  1.00  0.00    -0.110 C  
BRANCH  12  13
HETATM   13  C   UNL     1      -8.159  11.402  68.725  1.00  0.00    -0.112 C  
BRANCH  13  14
HETATM   14  N   UNL     1      -7.707   9.996  68.651  1.00  0.00    -0.084 NA 
HETATM   15  C   UNL     1      -7.325   9.438  69.973  1.00  0.00    -0.101 C  
HETATM   16  C   UNL     1      -8.509   9.174  70.928  1.00  0.00    -0.201 C  
HETATM   17  N   UNL     1      -9.453   8.250  70.283  1.00  0.00    -0.163 NA 
HETATM   18  C   UNL     1      -8.744   9.111  68.060  1.00  0.00    -0.129 C  
HETATM   19  C   UNL     1      -9.939   8.720  68.975  1.00  0.00    -0.191 C  
BRANCH  17  20
HETATM   20  C   UNL     1      -9.922   7.112  70.911  1.00  0.00    -0.189 A  
HETATM   21  C   UNL     1     -10.832   7.180  71.981  1.00  0.00    -0.252 A  
HETATM   22  C   UNL     1     -11.301   6.039  72.646  1.00  0.00    -0.320 A  
HETATM   23  C   UNL     1     -10.863   4.783  72.253  1.00  0.00    -0.131 A  
HETATM   24  C   UNL     1      -9.949   4.663  71.202  1.00  0.00    -0.265 A  
HETATM   25  C   UNL     1      -9.431   3.319  70.769  1.00  0.00    -0.166 C  
HETATM   26  C   UNL     1      -9.504   5.827  70.538  1.00  0.00    -0.201 A  
HETATM   27  F   UNL     1      -8.077   3.221  70.877  1.00  0.00    -0.051 F  
HETATM   28  F   UNL     1      -9.720   3.035  69.469  1.00  0.00    -0.230 F  
HETATM   29  F   UNL     1      -9.936   2.277  71.494  1.00  0.00    -0.217 F  
ENDBRANCH  17  20
ENDBRANCH  13  14
ENDBRANCH  12  13
ENDBRANCH   9  12
TORSDOF 4
ENDMDL
MODEL      168
REMARK 921   NORMALIZED FREE ENERGY PREDICTED BY IDOCK:   -4.92 KCAL/MOL
REMARK 922        TOTAL FREE ENERGY PREDICTED BY IDOCK:   -6.66 KCAL/MOL
REMARK 923 INTER-LIGAND FREE ENERGY PREDICTED BY IDOCK:   -6.04 KCAL/MOL
REMARK 924 INTRA-LIGAND FREE ENERGY PREDICTED BY IDOCK:   -0.63 KCAL/MOL
REMARK 927      BINDING AFFINITY PREDICTED BY RF-SCORE:    0.00 PKD
ROOT
HETATM    1  C   UNL     1     -10.862   6.995  70.141  1.00  0.00    -0.285 C  
HETATM    2  C   UNL     1     -12.342   6.682  70.480  1.00  0.00    -0.088 C  
HETATM    3  C   UNL     1     -12.411   6.683  72.017  1.00  0.00    -0.316 C  
HETATM    4  C   UNL     1     -11.005   6.272  72.474  1.00  0.00    -0.286 C  
HETATM    5  C   UNL     1     -10.346   5.885  71.164  1.00  0.00    -0.276 C  
HETATM    6  C   UNL     1      -8.884   5.924  71.030  1.00  0.00    -0.139 A  
HETATM    7  N   UNL     1      -7.929   5.035  70.918  1.00  0.00    -0.090 NA 
HETATM    8  N   UNL     1      -6.924   5.627  70.152  1.00  0.00    -0.062 NA 
HETATM    9  C   UNL     1      -7.341   6.813  69.771  1.00  0.00    -0.089 A  
HETATM   10  C   UNL     1      -9.618   7.958  70.206  1.00  0.00    -0.171 C  
HETATM   11  N   UNL     1      -8.503   7.064  70.411  1.00  0.00    -0.139 NA 
ENDROOT
BRANCH   9  12
HETATM   12  C   UNL     1      -6.716   7.754  68.808  1.00  0.00    -0.054 C  
BRANCH  12  13
HETATM   13  C   UNL     1      -7.606   7.988  67.569  1.00  0.00    -0.101 C  
BRANCH  13  14
HETATM   14  N   UNL     1      -7.358   9.307  66.949  1.00  0.00    -0.090 NA 
HETATM   15  C   UNL     1      -8.421   9.707  65.992  1.00  0.00    -0.124 C  
HETATM   16  C   UNL     1      -9.766  10.089  66.645  1.00  0.00    -0.194 C  
HETATM   17  N   UNL     1      -9.548  11.191  67.593  1.00  0.00    -0.168 NA 
HETATM   18  C   UNL     1      -7.226  10.382  67.967  1.00  0.00    -0.084 C  
HETATM   19  C   UNL     1      -8.540  10.893  68.624  1.00  0.00    -0.153 C  
BRANCH  17  20
HETATM   20  C   UNL     1     -10.311  12.344  67.578  1.00  0.00    -0.215 A  
HETATM   21  C   UNL     1     -10.557  13.052  66.390  1.00  0.00    -0.294 A  
HETATM   22  C   UNL     1     -11.307  14.236  66.358  1.00  0.00    -0.346 A  
HETATM   23  C   UNL     1     -11.834  14.749  67.534  1.00  0.00    -0.326 A  
HETATM   24  C   UNL     1     -11.607  14.088  68.745  1.00  0.00    -0.366 A  
HETATM   25  C   UNL     1     -12.140  14.632  70.042  1.00  0.00    -0.329 C  
HETATM   26  C   UNL     1     -10.862  12.889  68.747  1.00  0.00    -0.277 A  
HETATM   27  F   UNL     1     -11.152  14.900  70.941  1.00  0.00    -0.300 F  
HETATM   28  F   UNL     1     -12.987  13.770  70.669  1.00  0.00    -0.352 F  
HETATM   29  F   UNL     1     -12.838  15.798  69.903  1.00  0.00    -0.320 F  
ENDBRANCH  17  20
ENDBRANCH  13  14
ENDBRANCH  12  13
ENDBRANCH   9  12
TORSDOF 4
ENDMDL
MODEL      169
REMARK 921   NORMALIZED FREE ENERGY PREDICTED BY IDOCK:   -4.92 KCAL/MOL
REMARK 922        TOTAL FREE ENERGY PREDICTED BY IDOCK:   -6.66 KCAL/MOL
REMARK 923 INTER-LIGAND FREE ENERGY PREDICTED BY IDOCK:   -6.00 KCAL/MOL
REMARK 924 INTRA-LIGAND FREE ENERGY PREDICTED BY IDOCK:   -0.65 KCAL/MOL
REMARK 927      BINDING AFFINITY PREDICTED BY RF-SCORE:    0.00 PKD
ROOT
HETATM    1  C   UNL     1      -7.480   4.294  70.093  1.00  0.00    -0.046 C  
HETATM    2  C   UNL     1      -6.921   3.229  71.072  1.00  0.00    -0.033 C  
HETATM    3  C   UNL     1      -7.997   2.131  71.129  1.00  0.00    -0.049 C  
HETATM    4  C   UNL     1      -9.316   2.858  70.838  1.00  0.00    -0.220 C  
HETATM    5  C   UNL     1      -8.887   4.312  70.847  1.00  0.00    -0.142 C  
HETATM    6  C   UNL     1      -9.670   5.321  70.123  1.00  0.00    -0.196 A  
HETATM    7  N   UNL     1     -10.449   6.320  70.455  1.00  0.00    -0.209 NA 
HETATM    8  N   UNL     1     -10.321   7.275  69.447  1.00  0.00    -0.202 NA 
HETATM    9  C   UNL     1      -9.419   6.853  68.590  1.00  0.00    -0.134 A  
HETATM   10  C   UNL     1      -7.988   4.701  68.659  1.00  0.00    -0.079 C  
HETATM   11  N   UNL     1      -9.097   5.586  68.927  1.00  0.00    -0.117 NA 
ENDROOT
BRANCH   9  12
HETATM   12  C   UNL     1      -8.807   7.580  67.450  1.00  0.00    -0.127 C  
BRANCH  12  13
HETATM   13  C   UNL     1      -9.815   8.521  66.758  1.00  0.00    -0.257 C  
BRANCH  13  14
HETATM   14  N   UNL     1      -9.260   9.875  66.552  1.00  0.00    -0.151 NA 
HETATM   15  C   UNL     1     -10.268  10.848  66.060  1.00  0.00    -0.254 C  
HETATM   16  C   UNL     1     -11.324  11.266  67.105  1.00  0.00    -0.220 C  
HETATM   17  N   UNL     1     -10.645  11.845  68.273  1.00  0.00    -0.205 NA 
HETATM   18  C   UNL     1      -8.660  10.423  67.796  1.00  0.00    -0.122 C  
HETATM   19  C   UNL     1      -9.645  10.949  68.879  1.00  0.00    -0.181 C  
BRANCH  17  20
HETATM   20  C   UNL     1     -11.006  13.065  68.813  1.00  0.00    -0.258 A  
HETATM   21  C   UNL     1     -11.935  13.163  69.863  1.00  0.00    -0.387 A  
HETATM   22  C   UNL     1     -12.332  14.391  70.407  1.00  0.00    -0.406 A  
HETATM   23  C   UNL     1     -11.803  15.571  69.904  1.00  0.00    -0.380 A  
HETATM   24  C   UNL     1     -10.884  15.528  68.852  1.00  0.00    -0.254 A  
HETATM   25  C   UNL     1     -10.313  16.789  68.263  1.00  0.00    -0.319 C  
HETATM   26  C   UNL     1     -10.489  14.277  68.331  1.00  0.00    -0.249 A  
HETATM   27  F   UNL     1     -10.591  16.919  66.936  1.00  0.00    -0.313 F  
HETATM   28  F   UNL     1      -8.957  16.853  68.365  1.00  0.00    -0.211 F  
HETATM   29  F   UNL     1     -10.781  17.930  68.851  1.00  0.00    -0.283 F  
ENDBRANCH  17  20
ENDBRANCH  13  14
ENDBRANCH  12  13
ENDBRANCH   9  12
TORSDOF 4
ENDMDL
MODEL      170
REMARK 921   NORMALIZED FREE ENERGY PREDICTED BY IDOCK:   -4.89 KCAL/MOL
REMARK 922        TOTAL FREE ENERGY PREDICTED BY IDOCK:   -6.62 KCAL/MOL
REMARK 923 INTER-LIGAND FREE ENERGY PREDICTED BY IDOCK:   -5.93 KCAL/MOL
REMARK 924 INTRA-LIGAND FREE ENERGY PREDICTED BY IDOCK:   -0.69 KCAL/MOL
REMARK 927      BINDING AFFINITY PREDICTED BY RF-SCORE:    0.00 PKD
ROOT
HETATM    1  C   UNL     1      -8.880   5.866  69.653  1.00  0.00    -0.131 C  
HETATM    2  C   UNL     1      -7.592   5.728  68.802  1.00  0.00    -0.089 C  
HETATM    3  C   UNL     1      -7.058   4.317  69.107  1.00  0.00    -0.051 C  
HETATM    4  C   UNL     1      -7.546   4.011  70.529  1.00  0.00    -0.045 C  
HETATM    5  C   UNL     1      -8.127   5.344  70.960  1.00  0.00    -0.113 C  
HETATM    6  C   UNL     1      -9.148   5.403  72.013  1.00  0.00    -0.137 A  
HETATM    7  N   UNL     1      -9.194   5.823  73.252  1.00  0.00    -0.136 NA 
HETATM    8  N   UNL     1     -10.501   6.260  73.474  1.00  0.00    -0.252 NA 
HETATM    9  C   UNL     1     -11.167   6.159  72.346  1.00  0.00    -0.287 A  
HETATM   10  C   UNL     1     -10.333   5.386  70.024  1.00  0.00    -0.296 C  
HETATM   11  N   UNL     1     -10.379   5.511  71.462  1.00  0.00    -0.215 NA 
ENDROOT
BRANCH   9  12
HETATM   12  C   UNL     1     -12.529   6.653  72.023  1.00  0.00    -0.288 C  
BRANCH  12  13
HETATM   13  C   UNL     1     -12.496   7.794  70.985  1.00  0.00    -0.148 C  
BRANCH  13  14
HETATM   14  N   UNL     1     -11.834   9.006  71.513  1.00  0.00    -0.320 NA 
HETATM   15  C   UNL     1     -10.488   9.234  70.930  1.00  0.00    -0.302 C  
HETATM   16  C   UNL     1     -10.493   9.685  69.454  1.00  0.00    -0.220 C  
HETATM   17  N   UNL     1     -11.273  10.925  69.331  1.00  0.00    -0.250 NA 
HETATM   18  C   UNL     1     -12.649  10.227  71.282  1.00  0.00    -0.418 C  
HETATM   19  C   UNL     1     -12.650  10.809  69.840  1.00  0.00    -0.132 C  
BRANCH  17  20
HETATM   20  C   UNL     1     -10.787  12.047  68.686  1.00  0.00    -0.237 A  
HETATM   21  C   UNL     1     -11.646  12.992  68.100  1.00  0.00    -0.379 A  
HETATM   22  C   UNL     1     -11.173  14.123  67.421  1.00  0.00    -0.334 A  
HETATM   23  C   UNL     1      -9.807  14.338  67.308  1.00  0.00    -0.244 A  
HETATM   24  C   UNL     1      -8.911  13.420  67.864  1.00  0.00    -0.201 A  
HETATM   25  C   UNL     1      -7.424  13.607  67.735  1.00  0.00    -0.168 C  
HETATM   26  C   UNL     1      -9.414  12.297  68.556  1.00  0.00    -0.115 A  
HETATM   27  F   UNL     1      -6.821  12.568  67.091  1.00  0.00    -0.142 F  
HETATM   28  F   UNL     1      -6.798  13.710  68.939  1.00  0.00    -0.090 F  
HETATM   29  F   UNL     1      -7.069  14.727  67.039  1.00  0.00    -0.193 F  
ENDBRANCH  17  20
ENDBRANCH  13  14
ENDBRANCH  12  13
ENDBRANCH   9  12
TORSDOF 4
ENDMDL
MODEL      171
REMARK 921   NORMALIZED FREE ENERGY PREDICTED BY IDOCK:   -4.89 KCAL/MOL
REMARK 922        TOTAL FREE ENERGY PREDICTED BY IDOCK:   -6.62 KCAL/MOL
REMARK 923 INTER-LIGAND FREE ENERGY PREDICTED BY IDOCK:   -6.40 KCAL/MOL
REMARK 924 INTRA-LIGAND FREE ENERGY PREDICTED BY IDOCK:   -0.21 KCAL/MOL
REMARK 927      BINDING AFFINITY PREDICTED BY RF-SCORE:    0.00 PKD
ROOT
HETATM    1  C   UNL     1     -10.221  15.550  66.530  1.00  0.00    -0.291 C  
HETATM    2  C   UNL     1      -9.994  16.946  67.166  1.00  0.00    -0.276 C  
HETATM    3  C   UNL     1     -10.649  16.865  68.555  1.00  0.00    -0.367 C  
HETATM    4  C   UNL     1     -11.771  15.830  68.402  1.00  0.00    -0.279 C  
HETATM    5  C   UNL     1     -11.771  15.581  66.906  1.00  0.00     0.218 C  
HETATM    6  C   UNL     1     -12.298  14.322  66.364  1.00  0.00    -0.350 A  
HETATM    7  N   UNL     1     -13.353  13.968  65.674  1.00  0.00    -0.539 NA 
HETATM    8  N   UNL     1     -12.969  12.875  64.896  1.00  0.00    -0.823 NA 
HETATM    9  C   UNL     1     -11.687  12.662  65.088  1.00  0.00    -0.367 A  
HETATM   10  C   UNL     1     -10.016  13.989  66.548  1.00  0.00    -0.284 C  
HETATM   11  N   UNL     1     -11.283  13.471  66.091  1.00  0.00    -0.293 NA 
ENDROOT
BRANCH   9  12
HETATM   12  C   UNL     1     -10.780  11.735  64.366  1.00  0.00    -0.381 C  
BRANCH  12  13
HETATM   13  C   UNL     1      -9.564  11.332  65.227  1.00  0.00    -0.232 C  
BRANCH  13  14
HETATM   14  N   UNL     1      -9.695   9.961  65.764  1.00  0.00    -0.247 NA 
HETATM   15  C   UNL     1      -8.567   9.573  66.648  1.00  0.00    -0.134 C  
HETATM   16  C   UNL     1      -8.550  10.280  68.020  1.00  0.00    -0.118 C  
HETATM   17  N   UNL     1      -9.812  10.003  68.721  1.00  0.00    -0.161 NA 
HETATM   18  C   UNL     1     -10.959   9.781  66.525  1.00  0.00     0.269 C  
HETATM   19  C   UNL     1     -11.010  10.389  67.955  1.00  0.00    -0.291 C  
BRANCH  17  20
HETATM   20  C   UNL     1      -9.852   9.539  70.022  1.00  0.00    -0.233 A  
HETATM   21  C   UNL     1     -10.961   9.769  70.856  1.00  0.00    -0.411 A  
HETATM   22  C   UNL     1     -11.010   9.328  72.185  1.00  0.00     0.051 A  
HETATM   23  C   UNL     1      -9.934   8.636  72.722  1.00  0.00    -0.053 A  
HETATM   24  C   UNL     1      -8.803   8.392  71.937  1.00  0.00    -0.267 A  
HETATM   25  C   UNL     1      -7.607   7.671  72.496  1.00  0.00    -0.088 C  
HETATM   26  C   UNL     1      -8.785   8.834  70.596  1.00  0.00    -0.208 A  
HETATM   27  F   UNL     1      -6.473   8.424  72.449  1.00  0.00    -0.062 F  
HETATM   28  F   UNL     1      -7.318   6.524  71.821  1.00  0.00    -0.081 F  
HETATM   29  F   UNL     1      -7.750   7.302  73.804  1.00  0.00    -0.106 F  
ENDBRANCH  17  20
ENDBRANCH  13  14
ENDBRANCH  12  13
ENDBRANCH   9  12
TORSDOF 4
ENDMDL
MODEL      172
REMARK 921   NORMALIZED FREE ENERGY PREDICTED BY IDOCK:   -4.87 KCAL/MOL
REMARK 922        TOTAL FREE ENERGY PREDICTED BY IDOCK:   -6.60 KCAL/MOL
REMARK 923 INTER-LIGAND FREE ENERGY PREDICTED BY IDOCK:   -5.91 KCAL/MOL
REMARK 924 INTRA-LIGAND FREE ENERGY PREDICTED BY IDOCK:   -0.69 KCAL/MOL
REMARK 927      BINDING AFFINITY PREDICTED BY RF-SCORE:    0.00 PKD
ROOT
HETATM    1  C   UNL     1      -9.196   7.246  72.076  1.00  0.00    -0.149 C  
HETATM    2  C   UNL     1      -9.427   7.413  73.600  1.00  0.00    -0.321 C  
HETATM    3  C   UNL     1      -8.196   8.182  74.111  1.00  0.00    -0.310 C  
HETATM    4  C   UNL     1      -7.066   7.803  73.144  1.00  0.00    -0.103 C  
HETATM    5  C   UNL     1      -7.712   6.710  72.314  1.00  0.00    -0.096 C  
HETATM    6  C   UNL     1      -7.215   6.413  70.965  1.00  0.00    -0.078 A  
HETATM    7  N   UNL     1      -6.561   5.428  70.402  1.00  0.00    -0.037 NA 
HETATM    8  N   UNL     1      -6.989   5.375  69.075  1.00  0.00    -0.055 NA 
HETATM    9  C   UNL     1      -7.934   6.273  68.910  1.00  0.00    -0.109 A  
HETATM   10  C   UNL     1      -8.983   7.873  70.648  1.00  0.00    -0.148 C  
HETATM   11  N   UNL     1      -7.998   7.011  70.038  1.00  0.00    -0.113 NA 
ENDROOT
BRANCH   9  12
HETATM   12  C   UNL     1      -8.818   6.487  67.737  1.00  0.00    -0.113 C  
BRANCH  12  13
HETATM   13  C   UNL     1      -8.288   7.603  66.812  1.00  0.00    -0.125 C  
BRANCH  13  14
HETATM   14  N   UNL     1      -9.384   8.355  66.166  1.00  0.00    -0.209 NA 
HETATM   15  C   UNL     1     -10.447   8.765  67.119  1.00  0.00    -0.283 C  
HETATM   16  C   UNL     1     -10.038   9.887  68.098  1.00  0.00    -0.165 C  
HETATM   17  N   UNL     1      -9.615  11.067  67.330  1.00  0.00    -0.163 NA 
HETATM   18  C   UNL     1      -8.889   9.575  65.477  1.00  0.00    -0.168 C  
HETATM   19  C   UNL     1      -8.528  10.792  66.375  1.00  0.00    -0.158 C  
BRANCH  17  20
HETATM   20  C   UNL     1     -10.115  12.331  67.577  1.00  0.00    -0.201 A  
HETATM   21  C   UNL     1     -10.834  12.626  68.749  1.00  0.00    -0.267 A  
HETATM   22  C   UNL     1     -11.370  13.895  69.007  1.00  0.00    -0.324 A  
HETATM   23  C   UNL     1     -11.199  14.916  68.083  1.00  0.00    -0.310 A  
HETATM   24  C   UNL     1     -10.501  14.670  66.897  1.00  0.00    -0.270 A  
HETATM   25  C   UNL     1     -10.322  15.746  65.861  1.00  0.00    -0.354 C  
HETATM   26  C   UNL     1      -9.958  13.388  66.668  1.00  0.00    -0.277 A  
HETATM   27  F   UNL     1     -10.862  15.407  64.656  1.00  0.00    -0.399 F  
HETATM   28  F   UNL     1      -9.014  16.030  65.614  1.00  0.00    -0.333 F  
HETATM   29  F   UNL     1     -10.899  16.937  66.201  1.00  0.00    -0.267 F  
ENDBRANCH  17  20
ENDBRANCH  13  14
ENDBRANCH  12  13
ENDBRANCH   9  12
TORSDOF 4
ENDMDL
MODEL      173
REMARK 921   NORMALIZED FREE ENERGY PREDICTED BY IDOCK:   -4.85 KCAL/MOL
REMARK 922        TOTAL FREE ENERGY PREDICTED BY IDOCK:   -6.58 KCAL/MOL
REMARK 923 INTER-LIGAND FREE ENERGY PREDICTED BY IDOCK:   -5.97 KCAL/MOL
REMARK 924 INTRA-LIGAND FREE ENERGY PREDICTED BY IDOCK:   -0.60 KCAL/MOL
REMARK 927      BINDING AFFINITY PREDICTED BY RF-SCORE:    0.00 PKD
ROOT
HETATM    1  C   UNL     1      -9.835   4.220  69.722  1.00  0.00    -0.258 C  
HETATM    2  C   UNL     1      -9.638   2.896  70.504  1.00  0.00    -0.172 C  
HETATM    3  C   UNL     1      -9.090   3.319  71.878  1.00  0.00    -0.164 C  
HETATM    4  C   UNL     1      -8.342   4.633  71.616  1.00  0.00    -0.105 C  
HETATM    5  C   UNL     1      -8.367   4.716  70.102  1.00  0.00    -0.078 C  
HETATM    6  C   UNL     1      -8.240   6.015  69.428  1.00  0.00    -0.115 A  
HETATM    7  N   UNL     1      -7.324   6.610  68.706  1.00  0.00    -0.088 NA 
HETATM    8  N   UNL     1      -8.002   7.442  67.814  1.00  0.00    -0.117 NA 
HETATM    9  C   UNL     1      -9.293   7.259  67.979  1.00  0.00    -0.130 A  
HETATM   10  C   UNL     1     -10.518   5.631  69.571  1.00  0.00    -0.302 C  
HETATM   11  N   UNL     1      -9.459   6.471  69.063  1.00  0.00    -0.131 NA 
ENDROOT
BRANCH   9  12
HETATM   12  C   UNL     1     -10.418   7.776  67.161  1.00  0.00    -0.413 C  
BRANCH  12  13
HETATM   13  C   UNL     1     -10.351   9.309  66.992  1.00  0.00    -0.255 C  
BRANCH  13  14
HETATM   14  N   UNL     1     -10.129   9.999  68.280  1.00  0.00    -0.153 NA 
HETATM   15  C   UNL     1      -9.061  11.029  68.210  1.00  0.00    -0.158 C  
HETATM   16  C   UNL     1      -9.438  12.296  67.412  1.00  0.00    -0.181 C  
HETATM   17  N   UNL     1     -10.636  12.903  68.008  1.00  0.00    -0.221 NA 
HETATM   18  C   UNL     1     -11.367  10.653  68.778  1.00  0.00    -0.277 C  
HETATM   19  C   UNL     1     -11.785  11.984  68.091  1.00  0.00    -0.333 C  
BRANCH  17  20
HETATM   20  C   UNL     1     -10.702  14.242  68.341  1.00  0.00    -0.251 A  
HETATM   21  C   UNL     1     -11.909  14.850  68.728  1.00  0.00    -0.328 A  
HETATM   22  C   UNL     1     -12.002  16.211  69.046  1.00  0.00    -0.060 A  
HETATM   23  C   UNL     1     -10.871  17.012  68.981  1.00  0.00    -0.206 A  
HETATM   24  C   UNL     1      -9.648  16.458  68.590  1.00  0.00    -0.240 A  
HETATM   25  C   UNL     1      -8.408  17.304  68.481  1.00  0.00    -0.267 C  
HETATM   26  C   UNL     1      -9.579  15.081  68.290  1.00  0.00    -0.210 A  
HETATM   27  F   UNL     1      -7.883  17.301  67.224  1.00  0.00    -0.182 F  
HETATM   28  F   UNL     1      -7.408  16.883  69.302  1.00  0.00    -0.239 F  
HETATM   29  F   UNL     1      -8.611  18.618  68.792  1.00  0.00    -0.339 F  
ENDBRANCH  17  20
ENDBRANCH  13  14
ENDBRANCH  12  13
ENDBRANCH   9  12
TORSDOF 4
ENDMDL
MODEL      174
REMARK 921   NORMALIZED FREE ENERGY PREDICTED BY IDOCK:   -4.85 KCAL/MOL
REMARK 922        TOTAL FREE ENERGY PREDICTED BY IDOCK:   -6.58 KCAL/MOL
REMARK 923 INTER-LIGAND FREE ENERGY PREDICTED BY IDOCK:   -6.57 KCAL/MOL
REMARK 924 INTRA-LIGAND FREE ENERGY PREDICTED BY IDOCK:   -0.00 KCAL/MOL
REMARK 927      BINDING AFFINITY PREDICTED BY RF-SCORE:    0.00 PKD
ROOT
HETATM    1  C   UNL     1     -11.364  12.205  64.274  1.00  0.00    -0.426 C  
HETATM    2  C   UNL     1     -12.259  13.188  63.476  1.00  0.00    -0.552 C  
HETATM    3  C   UNL     1     -12.190  14.514  64.252  1.00  0.00    -0.441 C  
HETATM    4  C   UNL     1     -11.931  14.105  65.708  1.00  0.00    -0.410 C  
HETATM    5  C   UNL     1     -12.080  12.597  65.645  1.00  0.00    -0.502 C  
HETATM    6  C   UNL     1     -11.428  11.745  66.648  1.00  0.00    -0.267 A  
HETATM    7  N   UNL     1     -11.829  11.000  67.648  1.00  0.00    -0.562 NA 
HETATM    8  N   UNL     1     -10.913   9.953  67.753  1.00  0.00    -0.268 NA 
HETATM    9  C   UNL     1     -10.045  10.063  66.773  1.00  0.00    -0.226 A  
HETATM   10  C   UNL     1      -9.959  11.801  64.861  1.00  0.00    -0.247 C  
HETATM   11  N   UNL     1     -10.276  11.241  66.153  1.00  0.00    -0.237 NA 
ENDROOT
BRANCH   9  12
HETATM   12  C   UNL     1      -8.990   9.108  66.352  1.00  0.00    -0.182 C  
BRANCH  12  13
HETATM   13  C   UNL     1      -8.442   8.294  67.543  1.00  0.00    -0.130 C  
BRANCH  13  14
HETATM   14  N   UNL     1      -7.068   8.699  67.906  1.00  0.00    -0.081 NA 
HETATM   15  C   UNL     1      -6.607   9.909  67.178  1.00  0.00    -0.070 C  
HETATM   16  C   UNL     1      -7.284  11.224  67.621  1.00  0.00    -0.092 C  
HETATM   17  N   UNL     1      -7.053  11.425  69.059  1.00  0.00    -0.110 NA 
HETATM   18  C   UNL     1      -6.933   8.959  69.363  1.00  0.00    -0.053 C  
HETATM   19  C   UNL     1      -7.512  10.302  69.894  1.00  0.00    -0.158 C  
BRANCH  17  20
HETATM   20  C   UNL     1      -6.564  12.611  69.573  1.00  0.00    -0.032 A  
HETATM   21  C   UNL     1      -5.659  12.633  70.649  1.00  0.00    -0.177 A  
HETATM   22  C   UNL     1      -5.170  13.825  71.200  1.00  0.00    -0.158 A  
HETATM   23  C   UNL     1      -5.583  15.044  70.682  1.00  0.00    -0.134 A  
HETATM   24  C   UNL     1      -6.491  15.076  69.619  1.00  0.00    -0.154 A  
HETATM   25  C   UNL     1      -6.981  16.380  69.052  1.00  0.00    -0.200 C  
HETATM   26  C   UNL     1      -6.956  13.861  69.072  1.00  0.00    -0.109 A  
HETATM   27  F   UNL     1      -8.334  16.514  69.144  1.00  0.00    -0.233 F  
HETATM   28  F   UNL     1      -6.683  16.528  67.732  1.00  0.00    -0.120 F  
HETATM   29  F   UNL     1      -6.460  17.479  69.673  1.00  0.00    -0.241 F  
ENDBRANCH  17  20
ENDBRANCH  13  14
ENDBRANCH  12  13
ENDBRANCH   9  12
TORSDOF 4
ENDMDL
MODEL      175
REMARK 921   NORMALIZED FREE ENERGY PREDICTED BY IDOCK:   -4.85 KCAL/MOL
REMARK 922        TOTAL FREE ENERGY PREDICTED BY IDOCK:   -6.57 KCAL/MOL
REMARK 923 INTER-LIGAND FREE ENERGY PREDICTED BY IDOCK:   -6.67 KCAL/MOL
REMARK 924 INTRA-LIGAND FREE ENERGY PREDICTED BY IDOCK:    0.10 KCAL/MOL
REMARK 927      BINDING AFFINITY PREDICTED BY RF-SCORE:    0.00 PKD
ROOT
HETATM    1  C   UNL     1     -10.736  15.434  67.620  1.00  0.00    -0.292 C  
HETATM    2  C   UNL     1     -10.368  16.516  66.572  1.00  0.00    -0.307 C  
HETATM    3  C   UNL     1      -9.638  17.613  67.367  1.00  0.00    -0.267 C  
HETATM    4  C   UNL     1     -10.218  17.523  68.784  1.00  0.00    -0.373 C  
HETATM    5  C   UNL     1     -11.351  16.532  68.602  1.00  0.00    -0.237 C  
HETATM    6  C   UNL     1     -11.848  15.754  69.745  1.00  0.00    -0.341 A  
HETATM    7  N   UNL     1     -12.941  15.741  70.466  1.00  0.00    -0.407 NA 
HETATM    8  N   UNL     1     -13.122  14.423  70.886  1.00  0.00    -0.352 NA 
HETATM    9  C   UNL     1     -12.182  13.684  70.343  1.00  0.00    -0.363 A  
HETATM   10  C   UNL     1     -10.306  14.377  68.705  1.00  0.00    -0.245 C  
HETATM   11  N   UNL     1     -11.308  14.514  69.734  1.00  0.00    -0.263 NA 
ENDROOT
BRANCH   9  12
HETATM   12  C   UNL     1     -12.045  12.206  70.342  1.00  0.00    -0.395 C  
BRANCH  12  13
HETATM   13  C   UNL     1     -11.457  11.682  69.015  1.00  0.00    -0.294 C  
BRANCH  13  14
HETATM   14  N   UNL     1     -10.190  10.949  69.221  1.00  0.00    -0.201 NA 
HETATM   15  C   UNL     1     -10.381   9.482  69.348  1.00  0.00    -0.214 C  
HETATM   16  C   UNL     1     -10.768   8.766  68.036  1.00  0.00    -0.090 C  
HETATM   17  N   UNL     1      -9.732   9.018  67.025  1.00  0.00    -0.174 NA 
HETATM   18  C   UNL     1      -9.224  11.193  68.119  1.00  0.00    -0.166 C  
HETATM   19  C   UNL     1      -9.483  10.449  66.778  1.00  0.00    -0.166 C  
BRANCH  17  20
HETATM   20  C   UNL     1      -9.144   8.002  66.296  1.00  0.00    -0.186 A  
HETATM   21  C   UNL     1      -7.980   8.215  65.536  1.00  0.00    -0.112 A  
HETATM   22  C   UNL     1      -7.383   7.205  64.771  1.00  0.00    -0.082 A  
HETATM   23  C   UNL     1      -7.946   5.937  64.745  1.00  0.00    -0.126 A  
HETATM   24  C   UNL     1      -9.110   5.677  65.474  1.00  0.00    -0.072 A  
HETATM   25  C   UNL     1      -9.762   4.322  65.444  1.00  0.00    -0.200 C  
HETATM   26  C   UNL     1      -9.683   6.708  66.248  1.00  0.00    -0.057 A  
HETATM   27  F   UNL     1     -11.041   4.367  64.976  1.00  0.00    -0.352 F  
HETATM   28  F   UNL     1      -9.839   3.745  66.675  1.00  0.00    -0.223 F  
HETATM   29  F   UNL     1      -9.112   3.417  64.654  1.00  0.00    -0.116 F  
ENDBRANCH  17  20
ENDBRANCH  13  14
ENDBRANCH  12  13
ENDBRANCH   9  12
TORSDOF 4
ENDMDL
MODEL      176
REMARK 921   NORMALIZED FREE ENERGY PREDICTED BY IDOCK:   -4.85 KCAL/MOL
REMARK 922        TOTAL FREE ENERGY PREDICTED BY IDOCK:   -6.57 KCAL/MOL
REMARK 923 INTER-LIGAND FREE ENERGY PREDICTED BY IDOCK:   -6.29 KCAL/MOL
REMARK 924 INTRA-LIGAND FREE ENERGY PREDICTED BY IDOCK:   -0.28 KCAL/MOL
REMARK 927      BINDING AFFINITY PREDICTED BY RF-SCORE:    0.00 PKD
ROOT
HETATM    1  C   UNL     1     -10.176  18.944  68.209  1.00  0.00    -0.442 C  
HETATM    2  C   UNL     1      -9.812  20.449  68.288  1.00  0.00    -0.247 C  
HETATM    3  C   UNL     1      -8.629  20.627  67.321  1.00  0.00    -0.310 C  
HETATM    4  C   UNL     1      -7.926  19.264  67.305  1.00  0.00    -0.285 C  
HETATM    5  C   UNL     1      -8.651  18.519  68.408  1.00  0.00    -0.355 C  
HETATM    6  C   UNL     1      -8.685  17.051  68.414  1.00  0.00    -0.247 A  
HETATM    7  N   UNL     1      -8.149  16.104  69.143  1.00  0.00    -0.237 NA 
HETATM    8  N   UNL     1      -9.049  15.038  69.132  1.00  0.00    -0.201 NA 
HETATM    9  C   UNL     1     -10.120  15.409  68.467  1.00  0.00    -0.213 A  
HETATM   10  C   UNL     1     -10.653  17.693  67.380  1.00  0.00    -0.318 C  
HETATM   11  N   UNL     1      -9.858  16.610  67.907  1.00  0.00    -0.243 NA 
ENDROOT
BRANCH   9  12
HETATM   12  C   UNL     1     -11.417  14.702  68.324  1.00  0.00    -0.337 C  
BRANCH  12  13
HETATM   13  C   UNL     1     -11.485  13.439  69.207  1.00  0.00    -0.290 C  
BRANCH  13  14
HETATM   14  N   UNL     1     -11.903  12.247  68.438  1.00  0.00    -0.327 NA 
HETATM   15  C   UNL     1     -11.821  12.446  66.968  1.00  0.00    -0.297 C  
HETATM   16  C   UNL     1     -10.385  12.505  66.405  1.00  0.00    -0.243 C  
HETATM   17  N   UNL     1      -9.679  11.262  66.750  1.00  0.00    -0.191 NA 
HETATM   18  C   UNL     1     -11.092  11.051  68.786  1.00  0.00    -0.239 C  
HETATM   19  C   UNL     1      -9.656  10.979  68.195  1.00  0.00    -0.171 C  
BRANCH  17  20
HETATM   20  C   UNL     1      -9.003  10.507  65.811  1.00  0.00    -0.180 A  
HETATM   21  C   UNL     1      -9.109  10.772  64.434  1.00  0.00    -0.217 A  
HETATM   22  C   UNL     1      -8.451  10.002  63.465  1.00  0.00    -0.187 A  
HETATM   23  C   UNL     1      -7.661   8.931  63.855  1.00  0.00    -0.121 A  
HETATM   24  C   UNL     1      -7.532   8.621  65.212  1.00  0.00    -0.086 A  
HETATM   25  C   UNL     1      -6.706   7.449  65.668  1.00  0.00    -0.048 C  
HETATM   26  C   UNL     1      -8.193   9.420  66.169  1.00  0.00    -0.111 A  
HETATM   27  F   UNL     1      -7.437   6.534  66.364  1.00  0.00    -0.078 F  
HETATM   28  F   UNL     1      -5.684   7.811  66.492  1.00  0.00    -0.034 F  
HETATM   29  F   UNL     1      -6.125   6.755  64.645  1.00  0.00    -0.032 F  
ENDBRANCH  17  20
ENDBRANCH  13  14
ENDBRANCH  12  13
ENDBRANCH   9  12
TORSDOF 4
ENDMDL
MODEL      177
REMARK 921   NORMALIZED FREE ENERGY PREDICTED BY IDOCK:   -4.85 KCAL/MOL
REMARK 922        TOTAL FREE ENERGY PREDICTED BY IDOCK:   -6.57 KCAL/MOL
REMARK 923 INTER-LIGAND FREE ENERGY PREDICTED BY IDOCK:   -6.12 KCAL/MOL
REMARK 924 INTRA-LIGAND FREE ENERGY PREDICTED BY IDOCK:   -0.45 KCAL/MOL
REMARK 927      BINDING AFFINITY PREDICTED BY RF-SCORE:    0.00 PKD
ROOT
HETATM    1  C   UNL     1      -7.720   4.945  68.976  1.00  0.00    -0.072 C  
HETATM    2  C   UNL     1      -6.830   3.695  69.199  1.00  0.00    -0.045 C  
HETATM    3  C   UNL     1      -6.167   3.427  67.837  1.00  0.00    -0.032 C  
HETATM    4  C   UNL     1      -7.158   3.975  66.802  1.00  0.00    -0.064 C  
HETATM    5  C   UNL     1      -8.362   4.311  67.661  1.00  0.00    -0.098 C  
HETATM    6  C   UNL     1      -9.335   5.315  67.214  1.00  0.00    -0.119 A  
HETATM    7  N   UNL     1     -10.574   5.297  66.790  1.00  0.00    -0.276 NA 
HETATM    8  N   UNL     1     -11.146   6.505  67.187  1.00  0.00    -0.401 NA 
HETATM    9  C   UNL     1     -10.261   7.168  67.896  1.00  0.00    -0.187 A  
HETATM   10  C   UNL     1      -7.873   6.465  68.591  1.00  0.00    -0.102 C  
HETATM   11  N   UNL     1      -9.090   6.501  67.816  1.00  0.00    -0.114 NA 
ENDROOT
BRANCH   9  12
HETATM   12  C   UNL     1     -10.443   8.416  68.680  1.00  0.00    -0.197 C  
BRANCH  12  13
HETATM   13  C   UNL     1      -9.433   9.507  68.268  1.00  0.00    -0.133 C  
BRANCH  13  14
HETATM   14  N   UNL     1      -9.793  10.832  68.816  1.00  0.00    -0.187 NA 
HETATM   15  C   UNL     1      -8.870  11.911  68.383  1.00  0.00    -0.159 C  
HETATM   16  C   UNL     1      -8.998  12.312  66.898  1.00  0.00    -0.207 C  
HETATM   17  N   UNL     1     -10.379  12.741  66.631  1.00  0.00    -0.239 NA 
HETATM   18  C   UNL     1     -11.175  11.230  68.439  1.00  0.00    -0.262 C  
HETATM   19  C   UNL     1     -11.390  11.729  66.982  1.00  0.00    -0.321 C  
BRANCH  17  20
HETATM   20  C   UNL     1     -10.676  13.933  65.998  1.00  0.00    -0.287 A  
HETATM   21  C   UNL     1     -11.340  13.967  64.760  1.00  0.00    -0.366 A  
HETATM   22  C   UNL     1     -11.629  15.164  64.091  1.00  0.00    -0.069 A  
HETATM   23  C   UNL     1     -11.252  16.376  64.653  1.00  0.00    -0.201 A  
HETATM   24  C   UNL     1     -10.579  16.395  65.878  1.00  0.00    -0.294 A  
HETATM   25  C   UNL     1     -10.130  17.688  66.501  1.00  0.00    -0.350 C  
HETATM   26  C   UNL     1     -10.313  15.176  66.538  1.00  0.00    -0.286 A  
HETATM   27  F   UNL     1      -8.781  17.740  66.685  1.00  0.00    -0.235 F  
HETATM   28  F   UNL     1     -10.680  17.903  67.727  1.00  0.00    -0.371 F  
HETATM   29  F   UNL     1     -10.443  18.792  65.759  1.00  0.00    -0.443 F  
ENDBRANCH  17  20
ENDBRANCH  13  14
ENDBRANCH  12  13
ENDBRANCH   9  12
TORSDOF 4
ENDMDL
MODEL      178
REMARK 921   NORMALIZED FREE ENERGY PREDICTED BY IDOCK:   -4.84 KCAL/MOL
REMARK 922        TOTAL FREE ENERGY PREDICTED BY IDOCK:   -6.56 KCAL/MOL
REMARK 923 INTER-LIGAND FREE ENERGY PREDICTED BY IDOCK:   -6.07 KCAL/MOL
REMARK 924 INTRA-LIGAND FREE ENERGY PREDICTED BY IDOCK:   -0.49 KCAL/MOL
REMARK 927      BINDING AFFINITY PREDICTED BY RF-SCORE:    0.00 PKD
ROOT
HETATM    1  C   UNL     1      -9.756   4.908  65.538  1.00  0.00    -0.129 C  
HETATM    2  C   UNL     1      -9.558   3.492  64.937  1.00  0.00    -0.166 C  
HETATM    3  C   UNL     1      -8.390   2.880  65.730  1.00  0.00    -0.092 C  
HETATM    4  C   UNL     1      -7.544   4.080  66.174  1.00  0.00    -0.089 C  
HETATM    5  C   UNL     1      -8.197   5.224  65.423  1.00  0.00    -0.127 C  
HETATM    6  C   UNL     1      -8.072   6.602  65.916  1.00  0.00    -0.126 A  
HETATM    7  N   UNL     1      -7.445   7.684  65.526  1.00  0.00    -0.074 NA 
HETATM    8  N   UNL     1      -8.225   8.764  65.940  1.00  0.00    -0.112 NA 
HETATM    9  C   UNL     1      -9.322   8.295  66.490  1.00  0.00    -0.206 A  
HETATM   10  C   UNL     1     -10.086   5.840  66.763  1.00  0.00    -0.196 C  
HETATM   11  N   UNL     1      -9.185   6.956  66.597  1.00  0.00    -0.153 NA 
ENDROOT
BRANCH   9  12
HETATM   12  C   UNL     1     -10.533   9.033  66.925  1.00  0.00    -0.293 C  
BRANCH  12  13
HETATM   13  C   UNL     1     -10.435  10.540  66.608  1.00  0.00    -0.228 C  
BRANCH  13  14
HETATM   14  N   UNL     1     -10.948  11.374  67.716  1.00  0.00    -0.229 NA 
HETATM   15  C   UNL     1      -9.870  11.931  68.572  1.00  0.00    -0.183 C  
HETATM   16  C   UNL     1      -9.031  13.044  67.910  1.00  0.00    -0.200 C  
HETATM   17  N   UNL     1      -9.919  14.141  67.502  1.00  0.00    -0.234 NA 
HETATM   18  C   UNL     1     -11.773  12.507  67.220  1.00  0.00    -0.362 C  
HETATM   19  C   UNL     1     -11.011  13.716  66.609  1.00  0.00    -0.292 C  
BRANCH  17  20
HETATM   20  C   UNL     1      -9.671  15.459  67.834  1.00  0.00    -0.207 A  
HETATM   21  C   UNL     1     -10.661  16.451  67.716  1.00  0.00    -0.328 A  
HETATM   22  C   UNL     1     -10.423  17.796  68.025  1.00  0.00    -0.399 A  
HETATM   23  C   UNL     1      -9.167  18.191  68.463  1.00  0.00    -0.326 A  
HETATM   24  C   UNL     1      -8.145  17.245  68.586  1.00  0.00    -0.261 A  
HETATM   25  C   UNL     1      -6.764  17.643  69.030  1.00  0.00    -0.250 C  
HETATM   26  C   UNL     1      -8.415  15.893  68.283  1.00  0.00    -0.170 A  
HETATM   27  F   UNL     1      -5.811  17.351  68.101  1.00  0.00    -0.136 F  
HETATM   28  F   UNL     1      -6.373  17.011  70.172  1.00  0.00    -0.217 F  
HETATM   29  F   UNL     1      -6.633  18.978  69.286  1.00  0.00    -0.284 F  
ENDBRANCH  17  20
ENDBRANCH  13  14
ENDBRANCH  12  13
ENDBRANCH   9  12
TORSDOF 4
ENDMDL
MODEL      179
REMARK 921   NORMALIZED FREE ENERGY PREDICTED BY IDOCK:   -4.81 KCAL/MOL
REMARK 922        TOTAL FREE ENERGY PREDICTED BY IDOCK:   -6.53 KCAL/MOL
REMARK 923 INTER-LIGAND FREE ENERGY PREDICTED BY IDOCK:   -6.19 KCAL/MOL
REMARK 924 INTRA-LIGAND FREE ENERGY PREDICTED BY IDOCK:   -0.34 KCAL/MOL
REMARK 927      BINDING AFFINITY PREDICTED BY RF-SCORE:    0.00 PKD
ROOT
HETATM    1  C   UNL     1      -9.332   5.881  66.121  1.00  0.00    -0.150 C  
HETATM    2  C   UNL     1      -9.412   4.455  66.724  1.00  0.00    -0.194 C  
HETATM    3  C   UNL     1      -8.018   4.193  67.319  1.00  0.00    -0.096 C  
HETATM    4  C   UNL     1      -7.062   5.040  66.470  1.00  0.00    -0.069 C  
HETATM    5  C   UNL     1      -7.972   5.533  65.363  1.00  0.00    -0.109 C  
HETATM    6  C   UNL     1      -7.646   6.761  64.626  1.00  0.00    -0.105 A  
HETATM    7  N   UNL     1      -7.246   7.048  63.412  1.00  0.00    -0.068 NA 
HETATM    8  N   UNL     1      -7.772   8.303  63.108  1.00  0.00    -0.131 NA 
HETATM    9  C   UNL     1      -8.527   8.689  64.112  1.00  0.00    -0.076 A  
HETATM   10  C   UNL     1      -9.104   7.430  66.295  1.00  0.00    -0.156 C  
HETATM   11  N   UNL     1      -8.359   7.801  65.115  1.00  0.00    -0.133 NA 
ENDROOT
BRANCH   9  12
HETATM   12  C   UNL     1      -9.434   9.860  64.197  1.00  0.00    -0.254 C  
BRANCH  12  13
HETATM   13  C   UNL     1      -9.284  10.610  65.537  1.00  0.00    -0.196 C  
BRANCH  13  14
HETATM   14  N   UNL     1     -10.551  11.238  65.967  1.00  0.00    -0.264 NA 
HETATM   15  C   UNL     1     -10.679  11.337  67.443  1.00  0.00    -0.242 C  
HETATM   16  C   UNL     1      -9.752  12.381  68.102  1.00  0.00    -0.214 C  
HETATM   17  N   UNL     1     -10.021  13.703  67.518  1.00  0.00    -0.227 NA 
HETATM   18  C   UNL     1     -10.715  12.601  65.398  1.00  0.00    -0.280 C  
HETATM   19  C   UNL     1      -9.882  13.740  66.052  1.00  0.00    -0.282 C  
BRANCH  17  20
HETATM   20  C   UNL     1     -10.262  14.821  68.293  1.00  0.00    -0.227 A  
HETATM   21  C   UNL     1      -9.805  16.096  67.913  1.00  0.00    -0.235 A  
HETATM   22  C   UNL     1     -10.017  17.238  68.697  1.00  0.00    -0.327 A  
HETATM   23  C   UNL     1     -10.700  17.131  69.900  1.00  0.00     0.231 A  
HETATM   24  C   UNL     1     -11.165  15.884  70.327  1.00  0.00    -0.388 A  
HETATM   25  C   UNL     1     -11.884  15.727  71.639  1.00  0.00    -0.464 C  
HETATM   26  C   UNL     1     -10.951  14.751  69.512  1.00  0.00    -0.287 A  
HETATM   27  F   UNL     1     -11.247  14.870  72.485  1.00  0.00    -0.416 F  
HETATM   28  F   UNL     1     -13.146  15.237  71.495  1.00  0.00    -0.351 F  
HETATM   29  F   UNL     1     -12.020  16.896  72.333  1.00  0.00    -0.478 F  
ENDBRANCH  17  20
ENDBRANCH  13  14
ENDBRANCH  12  13
ENDBRANCH   9  12
TORSDOF 4
ENDMDL
MODEL      180
REMARK 921   NORMALIZED FREE ENERGY PREDICTED BY IDOCK:   -4.80 KCAL/MOL
REMARK 922        TOTAL FREE ENERGY PREDICTED BY IDOCK:   -6.51 KCAL/MOL
REMARK 923 INTER-LIGAND FREE ENERGY PREDICTED BY IDOCK:   -5.99 KCAL/MOL
REMARK 924 INTRA-LIGAND FREE ENERGY PREDICTED BY IDOCK:   -0.52 KCAL/MOL
REMARK 927      BINDING AFFINITY PREDICTED BY RF-SCORE:    0.00 PKD
ROOT
HETATM    1  C   UNL     1      -8.696  17.289  68.056  1.00  0.00    -0.231 C  
HETATM    2  C   UNL     1      -9.171  18.736  68.346  1.00  0.00    -0.376 C  
HETATM    3  C   UNL     1      -8.062  19.642  67.785  1.00  0.00    -0.336 C  
HETATM    4  C   UNL     1      -6.781  18.802  67.878  1.00  0.00    -0.226 C  
HETATM    5  C   UNL     1      -7.252  17.593  68.663  1.00  0.00    -0.255 C  
HETATM    6  C   UNL     1      -6.538  16.314  68.554  1.00  0.00    -0.130 A  
HETATM    7  N   UNL     1      -5.771  15.598  69.337  1.00  0.00    -0.110 NA 
HETATM    8  N   UNL     1      -5.981  14.265  68.986  1.00  0.00    -0.087 NA 
HETATM    9  C   UNL     1      -6.916  14.223  68.064  1.00  0.00    -0.144 A  
HETATM   10  C   UNL     1      -8.279  16.164  67.036  1.00  0.00    -0.216 C  
HETATM   11  N   UNL     1      -7.183  15.494  67.694  1.00  0.00    -0.161 NA 
ENDROOT
BRANCH   9  12
HETATM   12  C   UNL     1      -7.609  13.040  67.495  1.00  0.00    -0.166 C  
BRANCH  12  13
HETATM   13  C   UNL     1      -8.364  12.239  68.577  1.00  0.00    -0.084 C  
BRANCH  13  14
HETATM   14  N   UNL     1      -9.115  11.103  68.003  1.00  0.00    -0.147 NA 
HETATM   15  C   UNL     1      -8.726   9.794  68.587  1.00  0.00    -0.122 C  
HETATM   16  C   UNL     1      -9.191   9.574  70.042  1.00  0.00    -0.234 C  
HETATM   17  N   UNL     1     -10.654   9.699  70.106  1.00  0.00    -0.250 NA 
HETATM   18  C   UNL     1     -10.582  11.265  68.174  1.00  0.00    -0.192 C  
HETATM   19  C   UNL     1     -11.160  10.983  69.590  1.00  0.00    -0.256 C  
BRANCH  17  20
HETATM   20  C   UNL     1     -11.455   8.746  70.706  1.00  0.00    -0.270 A  
HETATM   21  C   UNL     1     -12.843   8.927  70.843  1.00  0.00     0.058 A  
HETATM   22  C   UNL     1     -13.668   7.984  71.470  1.00  0.00    -0.365 A  
HETATM   23  C   UNL     1     -13.117   6.820  71.986  1.00  0.00    -0.122 A  
HETATM   24  C   UNL     1     -11.740   6.599  71.885  1.00  0.00    -0.355 A  
HETATM   25  C   UNL     1     -11.105   5.362  72.459  1.00  0.00    -0.253 C  
HETATM   26  C   UNL     1     -10.933   7.557  71.235  1.00  0.00    -0.262 A  
HETATM   27  F   UNL     1     -10.166   5.647  73.404  1.00  0.00    -0.171 F  
HETATM   28  F   UNL     1     -10.469   4.610  71.519  1.00  0.00    -0.262 F  
HETATM   29  F   UNL     1     -11.994   4.519  73.065  1.00  0.00    -0.267 F  
ENDBRANCH  17  20
ENDBRANCH  13  14
ENDBRANCH  12  13
ENDBRANCH   9  12
TORSDOF 4
ENDMDL
MODEL      181
REMARK 921   NORMALIZED FREE ENERGY PREDICTED BY IDOCK:   -4.78 KCAL/MOL
REMARK 922        TOTAL FREE ENERGY PREDICTED BY IDOCK:   -6.48 KCAL/MOL
REMARK 923 INTER-LIGAND FREE ENERGY PREDICTED BY IDOCK:   -6.10 KCAL/MOL
REMARK 924 INTRA-LIGAND FREE ENERGY PREDICTED BY IDOCK:   -0.38 KCAL/MOL
REMARK 927      BINDING AFFINITY PREDICTED BY RF-SCORE:    0.00 PKD
ROOT
HETATM    1  C   UNL     1      -8.270   4.298  69.732  1.00  0.00    -0.069 C  
HETATM    2  C   UNL     1      -6.920   3.730  69.223  1.00  0.00    -0.046 C  
HETATM    3  C   UNL     1      -6.638   2.508  70.114  1.00  0.00    -0.033 C  
HETATM    4  C   UNL     1      -7.336   2.821  71.444  1.00  0.00    -0.033 C  
HETATM    5  C   UNL     1      -7.767   4.261  71.246  1.00  0.00    -0.071 C  
HETATM    6  C   UNL     1      -8.891   4.811  72.013  1.00  0.00    -0.124 A  
HETATM    7  N   UNL     1      -9.028   5.681  72.982  1.00  0.00    -0.123 NA 
HETATM    8  N   UNL     1     -10.275   6.281  72.803  1.00  0.00    -0.181 NA 
HETATM    9  C   UNL     1     -10.805   5.808  71.697  1.00  0.00    -0.255 A  
HETATM   10  C   UNL     1      -9.812   4.127  70.003  1.00  0.00    -0.175 C  
HETATM   11  N   UNL     1     -10.016   4.803  71.263  1.00  0.00    -0.192 NA 
ENDROOT
BRANCH   9  12
HETATM   12  C   UNL     1     -12.031   6.254  70.989  1.00  0.00    -0.138 C  
BRANCH  12  13
HETATM   13  C   UNL     1     -11.904   7.703  70.474  1.00  0.00    -0.080 C  
BRANCH  13  14
HETATM   14  N   UNL     1     -11.777   8.675  71.581  1.00  0.00    -0.291 NA 
HETATM   15  C   UNL     1     -10.648   9.622  71.394  1.00  0.00    -0.114 C  
HETATM   16  C   UNL     1     -10.865  10.672  70.283  1.00  0.00    -0.087 C  
HETATM   17  N   UNL     1     -12.081  11.444  70.578  1.00  0.00    -0.379 NA 
HETATM   18  C   UNL     1     -13.019   9.470  71.767  1.00  0.00    -0.412 C  
HETATM   19  C   UNL     1     -13.284  10.609  70.742  1.00  0.00    -0.094 C  
BRANCH  17  20
HETATM   20  C   UNL     1     -12.102  12.825  70.577  1.00  0.00    -0.285 A  
HETATM   21  C   UNL     1     -11.810  13.569  69.421  1.00  0.00    -0.389 A  
HETATM   22  C   UNL     1     -11.802  14.970  69.406  1.00  0.00    -0.358 A  
HETATM   23  C   UNL     1     -12.088  15.673  70.567  1.00  0.00    -0.430 A  
HETATM   24  C   UNL     1     -12.373  14.980  71.747  1.00  0.00    -0.412 A  
HETATM   25  C   UNL     1     -12.659  15.710  73.031  1.00  0.00    -0.459 C  
HETATM   26  C   UNL     1     -12.389  13.568  71.732  1.00  0.00    -0.037 A  
HETATM   27  F   UNL     1     -11.777  15.393  74.020  1.00  0.00    -0.523 F  
HETATM   28  F   UNL     1     -13.893  15.434  73.533  1.00  0.00    -0.345 F  
HETATM   29  F   UNL     1     -12.606  17.070  72.912  1.00  0.00     0.038 F  
ENDBRANCH  17  20
ENDBRANCH  13  14
ENDBRANCH  12  13
ENDBRANCH   9  12
TORSDOF 4
ENDMDL
MODEL      182
REMARK 921   NORMALIZED FREE ENERGY PREDICTED BY IDOCK:   -4.76 KCAL/MOL
REMARK 922        TOTAL FREE ENERGY PREDICTED BY IDOCK:   -6.46 KCAL/MOL
REMARK 923 INTER-LIGAND FREE ENERGY PREDICTED BY IDOCK:   -6.43 KCAL/MOL
REMARK 924 INTRA-LIGAND FREE ENERGY PREDICTED BY IDOCK:   -0.03 KCAL/MOL
REMARK 927      BINDING AFFINITY PREDICTED BY RF-SCORE:    0.00 PKD
ROOT
HETATM    1  C   UNL     1      -9.615   5.829  70.581  1.00  0.00    -0.214 C  
HETATM    2  C   UNL     1     -10.570   5.824  71.802  1.00  0.00    -0.293 C  
HETATM    3  C   UNL     1     -10.258   4.517  72.550  1.00  0.00    -0.246 C  
HETATM    4  C   UNL     1      -9.757   3.553  71.467  1.00  0.00    -0.237 C  
HETATM    5  C   UNL     1     -10.025   4.335  70.197  1.00  0.00    -0.206 C  
HETATM    6  C   UNL     1      -9.259   4.054  68.976  1.00  0.00    -0.152 A  
HETATM    7  N   UNL     1      -9.515   3.509  67.813  1.00  0.00    -0.197 NA 
HETATM    8  N   UNL     1      -8.675   4.133  66.890  1.00  0.00    -0.112 NA 
HETATM    9  C   UNL     1      -8.005   5.076  67.513  1.00  0.00    -0.095 A  
HETATM   10  C   UNL     1      -8.158   5.822  69.984  1.00  0.00    -0.108 C  
HETATM   11  N   UNL     1      -8.262   4.956  68.833  1.00  0.00    -0.083 NA 
ENDROOT
BRANCH   9  12
HETATM   12  C   UNL     1      -7.122   6.123  66.941  1.00  0.00    -0.073 C  
BRANCH  12  13
HETATM   13  C   UNL     1      -7.313   7.484  67.642  1.00  0.00    -0.103 C  
BRANCH  13  14
HETATM   14  N   UNL     1      -8.714   7.951  67.575  1.00  0.00    -0.125 NA 
HETATM   15  C   UNL     1      -8.985   9.108  68.465  1.00  0.00    -0.133 C  
HETATM   16  C   UNL     1      -8.351  10.438  68.004  1.00  0.00    -0.118 C  
HETATM   17  N   UNL     1      -8.835  10.762  66.655  1.00  0.00    -0.142 NA 
HETATM   18  C   UNL     1      -9.106   8.332  66.193  1.00  0.00    -0.189 C  
HETATM   19  C   UNL     1      -8.583   9.699  65.666  1.00  0.00    -0.136 C  
BRANCH  17  20
HETATM   20  C   UNL     1      -9.365  11.997  66.332  1.00  0.00    -0.228 A  
HETATM   21  C   UNL     1      -8.925  13.176  66.959  1.00  0.00    -0.228 A  
HETATM   22  C   UNL     1      -9.467  14.434  66.664  1.00  0.00    -0.300 A  
HETATM   23  C   UNL     1     -10.479  14.545  65.722  1.00  0.00    -0.335 A  
HETATM   24  C   UNL     1     -10.958  13.400  65.079  1.00  0.00    -0.328 A  
HETATM   25  C   UNL     1     -12.074  13.481  64.073  1.00  0.00    -0.441 C  
HETATM   26  C   UNL     1     -10.386  12.147  65.383  1.00  0.00    -0.301 A  
HETATM   27  F   UNL     1     -13.159  12.741  64.435  1.00  0.00    -0.347 F  
HETATM   28  F   UNL     1     -11.710  13.028  62.842  1.00  0.00    -0.499 F  
HETATM   29  F   UNL     1     -12.543  14.749  63.874  1.00  0.00    -0.463 F  
ENDBRANCH  17  20
ENDBRANCH  13  14
ENDBRANCH  12  13
ENDBRANCH   9  12
TORSDOF 4
ENDMDL
MODEL      183
REMARK 921   NORMALIZED FREE ENERGY PREDICTED BY IDOCK:   -4.75 KCAL/MOL
REMARK 922        TOTAL FREE ENERGY PREDICTED BY IDOCK:   -6.45 KCAL/MOL
REMARK 923 INTER-LIGAND FREE ENERGY PREDICTED BY IDOCK:   -5.95 KCAL/MOL
REMARK 924 INTRA-LIGAND FREE ENERGY PREDICTED BY IDOCK:   -0.50 KCAL/MOL
REMARK 927      BINDING AFFINITY PREDICTED BY RF-SCORE:    0.00 PKD
ROOT
HETATM    1  C   UNL     1      -8.796   7.101  72.798  1.00  0.00    -0.145 C  
HETATM    2  C   UNL     1      -8.480   7.860  74.112  1.00  0.00    -0.312 C  
HETATM    3  C   UNL     1      -6.960   7.717  74.303  1.00  0.00    -0.138 C  
HETATM    4  C   UNL     1      -6.600   6.395  73.613  1.00  0.00    -0.070 C  
HETATM    5  C   UNL     1      -7.966   5.827  73.282  1.00  0.00    -0.110 C  
HETATM    6  C   UNL     1      -8.122   4.859  72.189  1.00  0.00    -0.111 A  
HETATM    7  N   UNL     1      -8.389   3.580  72.100  1.00  0.00    -0.078 NA 
HETATM    8  N   UNL     1      -9.074   3.401  70.898  1.00  0.00    -0.102 NA 
HETATM    9  C   UNL     1      -9.260   4.580  70.349  1.00  0.00    -0.128 A  
HETATM   10  C   UNL     1      -8.608   6.916  71.245  1.00  0.00    -0.123 C  
HETATM   11  N   UNL     1      -8.565   5.483  71.074  1.00  0.00    -0.124 NA 
ENDROOT
BRANCH   9  12
HETATM   12  C   UNL     1     -10.079   4.935  69.163  1.00  0.00    -0.229 C  
BRANCH  12  13
HETATM   13  C   UNL     1      -9.236   4.974  67.871  1.00  0.00    -0.119 C  
BRANCH  13  14
HETATM   14  N   UNL     1      -9.926   5.695  66.781  1.00  0.00    -0.162 NA 
HETATM   15  C   UNL     1     -10.938   6.663  67.274  1.00  0.00    -0.385 C  
HETATM   16  C   UNL     1     -10.352   7.920  67.951  1.00  0.00    -0.221 C  
HETATM   17  N   UNL     1      -9.465   8.611  67.004  1.00  0.00    -0.160 NA 
HETATM   18  C   UNL     1      -8.970   6.431  65.912  1.00  0.00    -0.096 C  
HETATM   19  C   UNL     1      -8.386   7.758  66.475  1.00  0.00    -0.128 C  
BRANCH  17  20
HETATM   20  C   UNL     1      -9.572   9.962  66.737  1.00  0.00    -0.183 A  
HETATM   21  C   UNL     1      -9.232  10.934  67.694  1.00  0.00    -0.155 A  
HETATM   22  C   UNL     1      -9.356  12.308  67.452  1.00  0.00    -0.183 A  
HETATM   23  C   UNL     1      -9.835  12.752  66.228  1.00  0.00    -0.269 A  
HETATM   24  C   UNL     1     -10.198  11.825  65.246  1.00  0.00    -0.307 A  
HETATM   25  C   UNL     1     -10.747  12.270  63.918  1.00  0.00    -0.420 C  
HETATM   26  C   UNL     1     -10.048  10.446  65.510  1.00  0.00    -0.352 A  
HETATM   27  F   UNL     1     -11.999  11.786  63.682  1.00  0.00    -0.495 F  
HETATM   28  F   UNL     1      -9.986  11.859  62.867  1.00  0.00    -0.404 F  
HETATM   29  F   UNL     1     -10.847  13.627  63.793  1.00  0.00    -0.239 F  
ENDBRANCH  17  20
ENDBRANCH  13  14
ENDBRANCH  12  13
ENDBRANCH   9  12
TORSDOF 4
ENDMDL
MODEL      184
REMARK 921   NORMALIZED FREE ENERGY PREDICTED BY IDOCK:   -4.72 KCAL/MOL
REMARK 922        TOTAL FREE ENERGY PREDICTED BY IDOCK:   -6.41 KCAL/MOL
REMARK 923 INTER-LIGAND FREE ENERGY PREDICTED BY IDOCK:   -5.78 KCAL/MOL
REMARK 924 INTRA-LIGAND FREE ENERGY PREDICTED BY IDOCK:   -0.63 KCAL/MOL
REMARK 927      BINDING AFFINITY PREDICTED BY RF-SCORE:    0.00 PKD
ROOT
HETATM    1  C   UNL     1      -8.834   4.449  70.845  1.00  0.00    -0.146 C  
HETATM    2  C   UNL     1      -7.550   3.695  70.413  1.00  0.00    -0.041 C  
HETATM    3  C   UNL     1      -7.373   2.576  71.454  1.00  0.00    -0.033 C  
HETATM    4  C   UNL     1      -8.022   3.121  72.732  1.00  0.00    -0.063 C  
HETATM    5  C   UNL     1      -8.317   4.558  72.351  1.00  0.00    -0.110 C  
HETATM    6  C   UNL     1      -9.375   5.307  73.041  1.00  0.00    -0.133 A  
HETATM    7  N   UNL     1      -9.418   6.303  73.890  1.00  0.00    -0.144 NA 
HETATM    8  N   UNL     1     -10.605   6.990  73.635  1.00  0.00    -0.374 NA 
HETATM    9  C   UNL     1     -11.191   6.433  72.600  1.00  0.00    -0.255 A  
HETATM   10  C   UNL     1     -10.381   4.461  71.136  1.00  0.00     0.040 C  
HETATM   11  N   UNL     1     -10.505   5.309  72.298  1.00  0.00    -0.212 NA 
ENDROOT
BRANCH   9  12
HETATM   12  C   UNL     1     -12.378   6.898  71.840  1.00  0.00    -0.364 C  
BRANCH  12  13
HETATM   13  C   UNL     1     -11.985   7.814  70.662  1.00  0.00    -0.070 C  
BRANCH  13  14
HETATM   14  N   UNL     1     -11.465   9.119  71.123  1.00  0.00    -0.293 NA 
HETATM   15  C   UNL     1     -10.032   9.322  70.793  1.00  0.00    -0.290 C  
HETATM   16  C   UNL     1      -9.742   9.555  69.294  1.00  0.00    -0.176 C  
HETATM   17  N   UNL     1     -10.500  10.726  68.832  1.00  0.00    -0.194 NA 
HETATM   18  C   UNL     1     -12.235  10.255  70.552  1.00  0.00    -0.301 C  
HETATM   19  C   UNL     1     -11.951  10.621  69.067  1.00  0.00    -0.114 C  
BRANCH  17  20
HETATM   20  C   UNL     1      -9.912  11.764  68.135  1.00  0.00    -0.194 A  
HETATM   21  C   UNL     1      -8.561  12.108  68.323  1.00  0.00    -0.175 A  
HETATM   22  C   UNL     1      -7.953  13.172  67.644  1.00  0.00    -0.174 A  
HETATM   23  C   UNL     1      -8.692  13.933  66.750  1.00  0.00    -0.119 A  
HETATM   24  C   UNL     1     -10.042  13.638  66.537  1.00  0.00    -0.286 A  
HETATM   25  C   UNL     1     -10.880  14.460  65.596  1.00  0.00    -0.317 C  
HETATM   26  C   UNL     1     -10.627  12.551  67.221  1.00  0.00    -0.246 A  
HETATM   27  F   UNL     1     -11.945  15.040  66.217  1.00  0.00    -0.272 F  
HETATM   28  F   UNL     1     -11.401  13.726  64.575  1.00  0.00    -0.340 F  
HETATM   29  F   UNL     1     -10.197  15.483  65.003  1.00  0.00    -0.380 F  
ENDBRANCH  17  20
ENDBRANCH  13  14
ENDBRANCH  12  13
ENDBRANCH   9  12
TORSDOF 4
ENDMDL
MODEL      185
REMARK 921   NORMALIZED FREE ENERGY PREDICTED BY IDOCK:   -4.71 KCAL/MOL
REMARK 922        TOTAL FREE ENERGY PREDICTED BY IDOCK:   -6.40 KCAL/MOL
REMARK 923 INTER-LIGAND FREE ENERGY PREDICTED BY IDOCK:   -5.85 KCAL/MOL
REMARK 924 INTRA-LIGAND FREE ENERGY PREDICTED BY IDOCK:   -0.56 KCAL/MOL
REMARK 927      BINDING AFFINITY PREDICTED BY RF-SCORE:    0.00 PKD
ROOT
HETATM    1  C   UNL     1     -11.086   7.813  70.070  1.00  0.00    -0.182 C  
HETATM    2  C   UNL     1     -11.976   6.830  70.874  1.00  0.00    -0.437 C  
HETATM    3  C   UNL     1     -12.460   7.632  72.094  1.00  0.00    -0.249 C  
HETATM    4  C   UNL     1     -11.357   8.668  72.347  1.00  0.00    -0.353 C  
HETATM    5  C   UNL     1     -10.275   8.222  71.383  1.00  0.00    -0.263 C  
HETATM    6  C   UNL     1      -9.270   9.178  70.902  1.00  0.00    -0.261 A  
HETATM    7  N   UNL     1      -7.988   9.365  71.092  1.00  0.00    -0.319 NA 
HETATM    8  N   UNL     1      -7.488   9.912  69.910  1.00  0.00    -0.136 NA 
HETATM    9  C   UNL     1      -8.465   9.962  69.033  1.00  0.00    -0.136 A  
HETATM   10  C   UNL     1     -10.910   9.157  69.269  1.00  0.00    -0.132 C  
HETATM   11  N   UNL     1      -9.606   9.628  69.672  1.00  0.00    -0.195 NA 
ENDROOT
BRANCH   9  12
HETATM   12  C   UNL     1      -8.402  10.300  67.589  1.00  0.00    -0.114 C  
BRANCH  12  13
HETATM   13  C   UNL     1      -7.647  11.622  67.338  1.00  0.00    -0.139 C  
BRANCH  13  14
HETATM   14  N   UNL     1      -8.074  12.689  68.267  1.00  0.00    -0.158 NA 
HETATM   15  C   UNL     1      -6.937  13.480  68.804  1.00  0.00    -0.102 C  
HETATM   16  C   UNL     1      -6.265  14.420  67.780  1.00  0.00    -0.136 C  
HETATM   17  N   UNL     1      -7.270  15.348  67.243  1.00  0.00    -0.207 NA 
HETATM   18  C   UNL     1      -9.029  13.631  67.628  1.00  0.00    -0.202 C  
HETATM   19  C   UNL     1      -8.434  14.674  66.640  1.00  0.00    -0.017 C  
BRANCH  17  20
HETATM   20  C   UNL     1      -7.073  16.715  67.205  1.00  0.00    -0.186 A  
HETATM   21  C   UNL     1      -7.071  17.428  65.993  1.00  0.00    -0.259 A  
HETATM   22  C   UNL     1      -6.848  18.810  65.932  1.00  0.00    -0.307 A  
HETATM   23  C   UNL     1      -6.617  19.524  67.099  1.00  0.00    -0.209 A  
HETATM   24  C   UNL     1      -6.598  18.858  68.328  1.00  0.00    -0.253 A  
HETATM   25  C   UNL     1      -6.321  19.596  69.610  1.00  0.00    -0.331 C  
HETATM   26  C   UNL     1      -6.840  17.468  68.365  1.00  0.00    -0.197 A  
HETATM   27  F   UNL     1      -5.222  19.122  70.259  1.00  0.00    -0.181 F  
HETATM   28  F   UNL     1      -7.346  19.508  70.502  1.00  0.00     0.195 F  
HETATM   29  F   UNL     1      -6.099  20.933  69.436  1.00  0.00    -0.381 F  
ENDBRANCH  17  20
ENDBRANCH  13  14
ENDBRANCH  12  13
ENDBRANCH   9  12
TORSDOF 4
ENDMDL
MODEL      186
REMARK 921   NORMALIZED FREE ENERGY PREDICTED BY IDOCK:   -4.67 KCAL/MOL
REMARK 922        TOTAL FREE ENERGY PREDICTED BY IDOCK:   -6.35 KCAL/MOL
REMARK 923 INTER-LIGAND FREE ENERGY PREDICTED BY IDOCK:   -5.77 KCAL/MOL
REMARK 924 INTRA-LIGAND FREE ENERGY PREDICTED BY IDOCK:   -0.58 KCAL/MOL
REMARK 927      BINDING AFFINITY PREDICTED BY RF-SCORE:    0.00 PKD
ROOT
HETATM    1  C   UNL     1     -10.178   3.837  64.659  1.00  0.00    -0.185 C  
HETATM    2  C   UNL     1     -10.722   3.122  63.396  1.00  0.00    -0.244 C  
HETATM    3  C   UNL     1      -9.565   2.234  62.907  1.00  0.00    -0.090 C  
HETATM    4  C   UNL     1      -8.293   2.954  63.375  1.00  0.00    -0.086 C  
HETATM    5  C   UNL     1      -8.844   4.267  63.897  1.00  0.00    -0.135 C  
HETATM    6  C   UNL     1      -8.094   5.043  64.892  1.00  0.00    -0.112 A  
HETATM    7  N   UNL     1      -7.433   6.173  64.896  1.00  0.00    -0.078 NA 
HETATM    8  N   UNL     1      -7.560   6.702  66.181  1.00  0.00    -0.084 NA 
HETATM    9  C   UNL     1      -8.351   5.916  66.875  1.00  0.00    -0.108 A  
HETATM   10  C   UNL     1      -9.594   3.778  66.120  1.00  0.00    -0.160 C  
HETATM   11  N   UNL     1      -8.589   4.815  66.130  1.00  0.00    -0.114 NA 
ENDROOT
BRANCH   9  12
HETATM   12  C   UNL     1      -8.929   6.134  68.224  1.00  0.00    -0.114 C  
BRANCH  12  13
HETATM   13  C   UNL     1      -9.026   7.634  68.574  1.00  0.00    -0.129 C  
BRANCH  13  14
HETATM   14  N   UNL     1     -10.391   8.163  68.367  1.00  0.00    -0.208 NA 
HETATM   15  C   UNL     1     -10.780   9.177  69.380  1.00  0.00    -0.198 C  
HETATM   16  C   UNL     1     -10.059  10.535  69.243  1.00  0.00    -0.224 C  
HETATM   17  N   UNL     1     -10.317  11.086  67.905  1.00  0.00    -0.180 NA 
HETATM   18  C   UNL     1     -10.551   8.773  67.021  1.00  0.00    -0.213 C  
HETATM   19  C   UNL     1      -9.928  10.182  66.809  1.00  0.00    -0.211 C  
BRANCH  17  20
HETATM   20  C   UNL     1     -10.768  12.378  67.709  1.00  0.00    -0.221 A  
HETATM   21  C   UNL     1     -11.766  12.677  66.765  1.00  0.00    -0.460 A  
HETATM   22  C   UNL     1     -12.219  13.983  66.534  1.00  0.00    -0.485 A  
HETATM   23  C   UNL     1     -11.674  15.038  67.250  1.00  0.00    -0.238 A  
HETATM   24  C   UNL     1     -10.670  14.794  68.193  1.00  0.00    -0.247 A  
HETATM   25  C   UNL     1     -10.038  15.919  68.967  1.00  0.00    -0.228 C  
HETATM   26  C   UNL     1     -10.243  13.468  68.417  1.00  0.00    -0.245 A  
HETATM   27  F   UNL     1      -8.694  16.003  68.761  1.00  0.00    -0.176 F  
HETATM   28  F   UNL     1     -10.200  15.791  70.312  1.00  0.00    -0.295 F  
HETATM   29  F   UNL     1     -10.536  17.151  68.651  1.00  0.00    -0.304 F  
ENDBRANCH  17  20
ENDBRANCH  13  14
ENDBRANCH  12  13
ENDBRANCH   9  12
TORSDOF 4
ENDMDL
MODEL      187
REMARK 921   NORMALIZED FREE ENERGY PREDICTED BY IDOCK:   -4.67 KCAL/MOL
REMARK 922        TOTAL FREE ENERGY PREDICTED BY IDOCK:   -6.34 KCAL/MOL
REMARK 923 INTER-LIGAND FREE ENERGY PREDICTED BY IDOCK:   -5.59 KCAL/MOL
REMARK 924 INTRA-LIGAND FREE ENERGY PREDICTED BY IDOCK:   -0.75 KCAL/MOL
REMARK 927      BINDING AFFINITY PREDICTED BY RF-SCORE:    0.00 PKD
ROOT
HETATM    1  C   UNL     1     -10.957  12.976  65.744  1.00  0.00    -0.299 C  
HETATM    2  C   UNL     1     -12.239  12.312  65.179  1.00  0.00    -0.345 C  
HETATM    3  C   UNL     1     -12.656  13.192  63.988  1.00  0.00    -0.249 C  
HETATM    4  C   UNL     1     -12.130  14.592  64.331  1.00  0.00    -0.481 C  
HETATM    5  C   UNL     1     -11.652  14.412  65.758  1.00  0.00    -0.353 C  
HETATM    6  C   UNL     1     -10.626  15.303  66.316  1.00  0.00    -0.309 A  
HETATM    7  N   UNL     1     -10.600  16.257  67.212  1.00  0.00    -0.311 NA 
HETATM    8  N   UNL     1      -9.330  16.224  67.789  1.00  0.00    -0.215 NA 
HETATM    9  C   UNL     1      -8.670  15.210  67.276  1.00  0.00    -0.202 A  
HETATM   10  C   UNL     1      -9.466  13.449  65.559  1.00  0.00     0.189 C  
HETATM   11  N   UNL     1      -9.415  14.704  66.269  1.00  0.00    -0.299 NA 
ENDROOT
BRANCH   9  12
HETATM   12  C   UNL     1      -7.356  14.654  67.683  1.00  0.00    -0.204 C  
BRANCH  12  13
HETATM   13  C   UNL     1      -7.509  13.468  68.659  1.00  0.00    -0.108 C  
BRANCH  13  14
HETATM   14  N   UNL     1      -6.473  12.435  68.443  1.00  0.00    -0.054 NA 
HETATM   15  C   UNL     1      -6.317  11.518  69.601  1.00  0.00    -0.133 C  
HETATM   16  C   UNL     1      -7.487  10.532  69.804  1.00  0.00    -0.119 C  
HETATM   17  N   UNL     1      -7.657   9.726  68.587  1.00  0.00    -0.078 NA 
HETATM   18  C   UNL     1      -6.755  11.611  67.238  1.00  0.00    -0.124 C  
HETATM   19  C   UNL     1      -7.865  10.530  67.370  1.00  0.00    -0.106 C  
BRANCH  17  20
HETATM   20  C   UNL     1      -7.733   8.346  68.615  1.00  0.00    -0.107 A  
HETATM   21  C   UNL     1      -6.702   7.538  68.106  1.00  0.00    -0.058 A  
HETATM   22  C   UNL     1      -6.772   6.138  68.103  1.00  0.00    -0.064 A  
HETATM   23  C   UNL     1      -7.893   5.503  68.615  1.00  0.00    -0.091 A  
HETATM   24  C   UNL     1      -8.951   6.263  69.123  1.00  0.00    -0.127 A  
HETATM   25  C   UNL     1     -10.195   5.607  69.660  1.00  0.00    -0.251 C  
HETATM   26  C   UNL     1      -8.850   7.670  69.128  1.00  0.00    -0.139 A  
HETATM   27  F   UNL     1     -11.317   5.987  68.988  1.00  0.00    -0.424 F  
HETATM   28  F   UNL     1     -10.427   5.905  70.968  1.00  0.00    -0.243 F  
HETATM   29  F   UNL     1     -10.169   4.243  69.592  1.00  0.00    -0.285 F  
ENDBRANCH  17  20
ENDBRANCH  13  14
ENDBRANCH  12  13
ENDBRANCH   9  12
TORSDOF 4
ENDMDL
MODEL      188
REMARK 921   NORMALIZED FREE ENERGY PREDICTED BY IDOCK:   -4.63 KCAL/MOL
REMARK 922        TOTAL FREE ENERGY PREDICTED BY IDOCK:   -6.30 KCAL/MOL
REMARK 923 INTER-LIGAND FREE ENERGY PREDICTED BY IDOCK:   -5.77 KCAL/MOL
REMARK 924 INTRA-LIGAND FREE ENERGY PREDICTED BY IDOCK:   -0.54 KCAL/MOL
REMARK 927      BINDING AFFINITY PREDICTED BY RF-SCORE:    0.00 PKD
ROOT
HETATM    1  C   UNL     1      -9.811  17.219  67.820  1.00  0.00    -0.281 C  
HETATM    2  C   UNL     1     -10.241  18.646  68.244  1.00  0.00    -0.423 C  
HETATM    3  C   UNL     1      -9.608  19.583  67.200  1.00  0.00    -0.430 C  
HETATM    4  C   UNL     1      -8.351  18.845  66.721  1.00  0.00    -0.289 C  
HETATM    5  C   UNL     1      -8.287  17.671  67.678  1.00  0.00    -0.226 C  
HETATM    6  C   UNL     1      -7.581  16.441  67.297  1.00  0.00    -0.166 A  
HETATM    7  N   UNL     1      -6.474  15.845  67.662  1.00  0.00    -0.152 NA 
HETATM    8  N   UNL     1      -6.688  14.476  67.497  1.00  0.00    -0.257 NA 
HETATM    9  C   UNL     1      -7.932  14.296  67.115  1.00  0.00    -0.101 A  
HETATM   10  C   UNL     1      -9.799  16.050  66.764  1.00  0.00    -0.250 C  
HETATM   11  N   UNL     1      -8.463  15.512  66.864  1.00  0.00    -0.233 NA 
ENDROOT
BRANCH   9  12
HETATM   12  C   UNL     1      -8.688  13.027  66.975  1.00  0.00    -0.195 C  
BRANCH  12  13
HETATM   13  C   UNL     1      -7.769  11.793  67.095  1.00  0.00    -0.162 C  
BRANCH  13  14
HETATM   14  N   UNL     1      -7.801  11.208  68.452  1.00  0.00    -0.125 NA 
HETATM   15  C   UNL     1      -9.160  10.773  68.866  1.00  0.00    -0.164 C  
HETATM   16  C   UNL     1      -9.684   9.517  68.138  1.00  0.00    -0.147 C  
HETATM   17  N   UNL     1      -8.749   8.405  68.359  1.00  0.00    -0.136 NA 
HETATM   18  C   UNL     1      -6.888  10.041  68.574  1.00  0.00    -0.054 C  
HETATM   19  C   UNL     1      -7.368   8.704  67.943  1.00  0.00    -0.092 C  
BRANCH  17  20
HETATM   20  C   UNL     1      -9.163   7.163  68.801  1.00  0.00    -0.136 A  
HETATM   21  C   UNL     1      -9.640   6.965  70.108  1.00  0.00    -0.162 A  
HETATM   22  C   UNL     1     -10.041   5.709  70.583  1.00  0.00    -0.274 A  
HETATM   23  C   UNL     1      -9.973   4.603  69.749  1.00  0.00    -0.295 A  
HETATM   24  C   UNL     1      -9.496   4.746  68.443  1.00  0.00    -0.196 A  
HETATM   25  C   UNL     1      -9.381   3.562  67.521  1.00  0.00    -0.206 C  
HETATM   26  C   UNL     1      -9.112   6.024  67.984  1.00  0.00    -0.117 A  
HETATM   27  F   UNL     1      -8.104   3.352  67.096  1.00  0.00    -0.081 F  
HETATM   28  F   UNL     1     -10.130   3.697  66.392  1.00  0.00    -0.152 F  
HETATM   29  F   UNL     1      -9.779   2.384  68.087  1.00  0.00    -0.266 F  
ENDBRANCH  17  20
ENDBRANCH  13  14
ENDBRANCH  12  13
ENDBRANCH   9  12
TORSDOF 4
ENDMDL
MODEL      189
REMARK 921   NORMALIZED FREE ENERGY PREDICTED BY IDOCK:   -4.63 KCAL/MOL
REMARK 922        TOTAL FREE ENERGY PREDICTED BY IDOCK:   -6.30 KCAL/MOL
REMARK 923 INTER-LIGAND FREE ENERGY PREDICTED BY IDOCK:   -5.62 KCAL/MOL
REMARK 924 INTRA-LIGAND FREE ENERGY PREDICTED BY IDOCK:   -0.68 KCAL/MOL
REMARK 927      BINDING AFFINITY PREDICTED BY RF-SCORE:    0.00 PKD
ROOT
HETATM    1  C   UNL     1      -8.837   5.308  65.919  1.00  0.00    -0.145 C  
HETATM    2  C   UNL     1      -8.281   5.237  64.473  1.00  0.00    -0.135 C  
HETATM    3  C   UNL     1      -9.264   4.334  63.709  1.00  0.00    -0.139 C  
HETATM    4  C   UNL     1      -9.845   3.395  64.774  1.00  0.00    -0.124 C  
HETATM    5  C   UNL     1      -8.993   3.721  65.984  1.00  0.00    -0.136 C  
HETATM    6  C   UNL     1      -9.498   3.465  67.339  1.00  0.00    -0.176 A  
HETATM    7  N   UNL     1      -9.222   2.617  68.298  1.00  0.00    -0.185 NA 
HETATM    8  N   UNL     1      -9.493   3.274  69.498  1.00  0.00    -0.162 NA 
HETATM    9  C   UNL     1      -9.847   4.509  69.222  1.00  0.00    -0.171 A  
HETATM   10  C   UNL     1      -9.986   5.689  66.925  1.00  0.00    -0.174 C  
HETATM   11  N   UNL     1      -9.977   4.607  67.881  1.00  0.00    -0.116 NA 
ENDROOT
BRANCH   9  12
HETATM   12  C   UNL     1     -10.066   5.645  70.152  1.00  0.00    -0.293 C  
BRANCH  12  13
HETATM   13  C   UNL     1      -8.763   6.423  70.428  1.00  0.00    -0.147 C  
BRANCH  13  14
HETATM   14  N   UNL     1      -9.023   7.730  71.069  1.00  0.00    -0.141 NA 
HETATM   15  C   UNL     1      -7.930   8.711  70.850  1.00  0.00    -0.122 C  
HETATM   16  C   UNL     1      -7.832   9.256  69.409  1.00  0.00    -0.083 C  
HETATM   17  N   UNL     1      -9.108   9.886  69.043  1.00  0.00    -0.154 NA 
HETATM   18  C   UNL     1     -10.291   8.339  70.591  1.00  0.00    -0.199 C  
HETATM   19  C   UNL     1     -10.270   8.990  69.179  1.00  0.00    -0.205 C  
BRANCH  17  20
HETATM   20  C   UNL     1      -9.182  11.159  68.509  1.00  0.00    -0.183 A  
HETATM   21  C   UNL     1      -8.028  11.879  68.153  1.00  0.00    -0.151 A  
HETATM   22  C   UNL     1      -8.081  13.179  67.633  1.00  0.00    -0.176 A  
HETATM   23  C   UNL     1      -9.308  13.802  67.457  1.00  0.00    -0.222 A  
HETATM   24  C   UNL     1     -10.484  13.132  67.807  1.00  0.00    -0.232 A  
HETATM   25  C   UNL     1     -11.829  13.789  67.657  1.00  0.00    -0.378 C  
HETATM   26  C   UNL     1     -10.405  11.817  68.314  1.00  0.00    -0.217 A  
HETATM   27  F   UNL     1     -12.498  13.887  68.839  1.00  0.00    -0.375 F  
HETATM   28  F   UNL     1     -12.658  13.108  66.818  1.00  0.00    -0.319 F  
HETATM   29  F   UNL     1     -11.767  15.060  67.161  1.00  0.00    -0.360 F  
ENDBRANCH  17  20
ENDBRANCH  13  14
ENDBRANCH  12  13
ENDBRANCH   9  12
TORSDOF 4
ENDMDL
MODEL      190
REMARK 921   NORMALIZED FREE ENERGY PREDICTED BY IDOCK:   -4.63 KCAL/MOL
REMARK 922        TOTAL FREE ENERGY PREDICTED BY IDOCK:   -6.29 KCAL/MOL
REMARK 923 INTER-LIGAND FREE ENERGY PREDICTED BY IDOCK:   -5.94 KCAL/MOL
REMARK 924 INTRA-LIGAND FREE ENERGY PREDICTED BY IDOCK:   -0.35 KCAL/MOL
REMARK 927      BINDING AFFINITY PREDICTED BY RF-SCORE:    0.00 PKD
ROOT
HETATM    1  C   UNL     1     -10.113  13.591  65.387  1.00  0.00    -0.279 C  
HETATM    2  C   UNL     1     -11.001  14.862  65.416  1.00  0.00    -0.371 C  
HETATM    3  C   UNL     1     -12.445  14.341  65.518  1.00  0.00    -0.434 C  
HETATM    4  C   UNL     1     -12.415  12.963  64.843  1.00  0.00    -0.540 C  
HETATM    5  C   UNL     1     -11.019  12.930  64.251  1.00  0.00    -0.419 C  
HETATM    6  C   UNL     1     -10.363  11.647  63.969  1.00  0.00    -0.357 A  
HETATM    7  N   UNL     1     -10.033  10.979  62.892  1.00  0.00    -0.281 NA 
HETATM    8  N   UNL     1      -8.886  10.253  63.212  1.00  0.00    -0.198 NA 
HETATM    9  C   UNL     1      -8.527  10.566  64.437  1.00  0.00    -0.129 A  
HETATM   10  C   UNL     1      -9.598  12.266  66.064  1.00  0.00    -0.222 C  
HETATM   11  N   UNL     1      -9.504  11.334  64.965  1.00  0.00    -0.223 NA 
ENDROOT
BRANCH   9  12
HETATM   12  C   UNL     1      -7.289  10.197  65.166  1.00  0.00    -0.141 C  
BRANCH  12  13
HETATM   13  C   UNL     1      -7.587   9.716  66.602  1.00  0.00    -0.098 C  
BRANCH  13  14
HETATM   14  N   UNL     1      -8.621   8.660  66.629  1.00  0.00    -0.115 NA 
HETATM   15  C   UNL     1      -8.082   7.328  67.006  1.00  0.00    -0.117 C  
HETATM   16  C   UNL     1      -7.677   7.193  68.489  1.00  0.00    -0.120 C  
HETATM   17  N   UNL     1      -8.842   7.485  69.337  1.00  0.00    -0.137 NA 
HETATM   18  C   UNL     1      -9.726   8.991  67.566  1.00  0.00    -0.161 C  
HETATM   19  C   UNL     1      -9.440   8.807  69.084  1.00  0.00    -0.157 C  
BRANCH  17  20
HETATM   20  C   UNL     1      -9.249   6.642  70.353  1.00  0.00    -0.156 A  
HETATM   21  C   UNL     1     -10.575   6.182  70.445  1.00  0.00    -0.317 A  
HETATM   22  C   UNL     1     -11.014   5.347  71.481  1.00  0.00    -0.164 A  
HETATM   23  C   UNL     1     -10.124   4.947  72.468  1.00  0.00    -0.233 A  
HETATM   24  C   UNL     1      -8.798   5.386  72.427  1.00  0.00    -0.132 A  
HETATM   25  C   UNL     1      -7.814   4.995  73.496  1.00  0.00    -0.099 C  
HETATM   26  C   UNL     1      -8.377   6.215  71.365  1.00  0.00    -0.123 A  
HETATM   27  F   UNL     1      -7.295   6.073  74.149  1.00  0.00    -0.086 F  
HETATM   28  F   UNL     1      -6.745   4.309  73.005  1.00  0.00    -0.042 F  
HETATM   29  F   UNL     1      -8.348   4.198  74.468  1.00  0.00    -0.087 F  
ENDBRANCH  17  20
ENDBRANCH  13  14
ENDBRANCH  12  13
ENDBRANCH   9  12
TORSDOF 4
ENDMDL
MODEL      191
REMARK 921   NORMALIZED FREE ENERGY PREDICTED BY IDOCK:   -4.60 KCAL/MOL
REMARK 922        TOTAL FREE ENERGY PREDICTED BY IDOCK:   -6.26 KCAL/MOL
REMARK 923 INTER-LIGAND FREE ENERGY PREDICTED BY IDOCK:   -6.35 KCAL/MOL
REMARK 924 INTRA-LIGAND FREE ENERGY PREDICTED BY IDOCK:    0.09 KCAL/MOL
REMARK 927      BINDING AFFINITY PREDICTED BY RF-SCORE:    0.00 PKD
ROOT
HETATM    1  C   UNL     1     -11.689  13.936  67.500  1.00  0.00    -0.416 C  
HETATM    2  C   UNL     1     -11.455  14.803  66.236  1.00  0.00    -0.316 C  
HETATM    3  C   UNL     1     -10.259  15.707  66.584  1.00  0.00    -0.283 C  
HETATM    4  C   UNL     1     -10.322  15.872  68.109  1.00  0.00    -0.256 C  
HETATM    5  C   UNL     1     -11.650  15.222  68.444  1.00  0.00    -0.365 C  
HETATM    6  C   UNL     1     -11.896  14.688  69.790  1.00  0.00    -0.316 A  
HETATM    7  N   UNL     1     -12.646  15.023  70.809  1.00  0.00    -0.343 NA 
HETATM    8  N   UNL     1     -12.981  13.837  71.462  1.00  0.00    -0.349 NA 
HETATM    9  C   UNL     1     -12.487  12.833  70.773  1.00  0.00    -0.271 A  
HETATM   10  C   UNL     1     -11.178  12.874  68.544  1.00  0.00    -0.274 C  
HETATM   11  N   UNL     1     -11.704  13.349  69.802  1.00  0.00    -0.298 NA 
ENDROOT
BRANCH   9  12
HETATM   12  C   UNL     1     -12.714  11.378  70.956  1.00  0.00    -0.447 C  
BRANCH  12  13
HETATM   13  C   UNL     1     -11.786  10.532  70.060  1.00  0.00    -0.312 C  
BRANCH  13  14
HETATM   14  N   UNL     1     -10.705   9.886  70.834  1.00  0.00    -0.297 NA 
HETATM   15  C   UNL     1     -11.036   8.498  71.247  1.00  0.00    -0.256 C  
HETATM   16  C   UNL     1     -11.045   7.468  70.097  1.00  0.00    -0.231 C  
HETATM   17  N   UNL     1      -9.729   7.462  69.443  1.00  0.00    -0.158 NA 
HETATM   18  C   UNL     1      -9.427   9.848  70.077  1.00  0.00    -0.202 C  
HETATM   19  C   UNL     1      -9.309   8.785  68.949  1.00  0.00    -0.145 C  
BRANCH  17  20
HETATM   20  C   UNL     1      -9.020   6.299  69.213  1.00  0.00    -0.125 A  
HETATM   21  C   UNL     1      -8.798   5.355  70.231  1.00  0.00    -0.143 A  
HETATM   22  C   UNL     1      -8.061   4.181  70.024  1.00  0.00    -0.062 A  
HETATM   23  C   UNL     1      -7.517   3.920  68.775  1.00  0.00    -0.054 A  
HETATM   24  C   UNL     1      -7.701   4.833  67.732  1.00  0.00    -0.083 A  
HETATM   25  C   UNL     1      -7.101   4.595  66.373  1.00  0.00    -0.075 C  
HETATM   26  C   UNL     1      -8.460   6.000  67.963  1.00  0.00    -0.115 A  
HETATM   27  F   UNL     1      -6.242   5.584  66.000  1.00  0.00    -0.029 F  
HETATM   28  F   UNL     1      -8.037   4.526  65.387  1.00  0.00    -0.097 F  
HETATM   29  F   UNL     1      -6.386   3.434  66.284  1.00  0.00    -0.029 F  
ENDBRANCH  17  20
ENDBRANCH  13  14
ENDBRANCH  12  13
ENDBRANCH   9  12
TORSDOF 4
ENDMDL
MODEL      192
REMARK 921   NORMALIZED FREE ENERGY PREDICTED BY IDOCK:   -4.59 KCAL/MOL
REMARK 922        TOTAL FREE ENERGY PREDICTED BY IDOCK:   -6.25 KCAL/MOL
REMARK 923 INTER-LIGAND FREE ENERGY PREDICTED BY IDOCK:   -5.69 KCAL/MOL
REMARK 924 INTRA-LIGAND FREE ENERGY PREDICTED BY IDOCK:   -0.56 KCAL/MOL
REMARK 927      BINDING AFFINITY PREDICTED BY RF-SCORE:    0.00 PKD
ROOT
HETATM    1  C   UNL     1      -9.922  15.908  67.135  1.00  0.00    -0.240 C  
HETATM    2  C   UNL     1     -10.206  17.397  66.808  1.00  0.00    -0.318 C  
HETATM    3  C   UNL     1     -10.212  18.113  68.170  1.00  0.00    -0.400 C  
HETATM    4  C   UNL     1     -10.655  17.042  69.175  1.00  0.00    -0.303 C  
HETATM    5  C   UNL     1     -11.048  15.895  68.265  1.00  0.00    -0.345 C  
HETATM    6  C   UNL     1     -11.039  14.514  68.766  1.00  0.00    -0.251 A  
HETATM    7  N   UNL     1     -11.947  13.617  69.058  1.00  0.00    -0.351 NA 
HETATM    8  N   UNL     1     -11.371  12.373  68.801  1.00  0.00    -0.270 NA 
HETATM    9  C   UNL     1     -10.174  12.568  68.294  1.00  0.00    -0.234 A  
HETATM   10  C   UNL     1      -8.985  14.794  67.736  1.00  0.00    -0.182 C  
HETATM   11  N   UNL     1      -9.903  13.888  68.384  1.00  0.00    -0.227 NA 
ENDROOT
BRANCH   9  12
HETATM   12  C   UNL     1      -9.242  11.577  67.702  1.00  0.00    -0.171 C  
BRANCH  12  13
HETATM   13  C   UNL     1      -9.654  10.128  68.034  1.00  0.00    -0.145 C  
BRANCH  13  14
HETATM   14  N   UNL     1     -10.344   9.474  66.902  1.00  0.00    -0.244 NA 
HETATM   15  C   UNL     1      -9.588   9.570  65.627  1.00  0.00    -0.277 C  
HETATM   16  C   UNL     1      -8.316   8.698  65.564  1.00  0.00    -0.150 C  
HETATM   17  N   UNL     1      -8.683   7.292  65.786  1.00  0.00    -0.141 NA 
HETATM   18  C   UNL     1     -10.611   8.037  67.171  1.00  0.00    -0.297 C  
HETATM   19  C   UNL     1      -9.404   7.063  67.050  1.00  0.00    -0.146 C  
BRANCH  17  20
HETATM   20  C   UNL     1      -8.277   6.277  64.942  1.00  0.00    -0.119 A  
HETATM   21  C   UNL     1      -7.235   6.458  64.015  1.00  0.00    -0.062 A  
HETATM   22  C   UNL     1      -6.826   5.449  63.133  1.00  0.00    -0.037 A  
HETATM   23  C   UNL     1      -7.459   4.215  63.156  1.00  0.00    -0.050 A  
HETATM   24  C   UNL     1      -8.508   3.989  64.052  1.00  0.00    -0.096 A  
HETATM   25  C   UNL     1      -9.236   2.672  64.083  1.00  0.00    -0.121 C  
HETATM   26  C   UNL     1      -8.892   5.017  64.939  1.00  0.00    -0.140 A  
HETATM   27  F   UNL     1     -10.567   2.805  63.824  1.00  0.00    -0.174 F  
HETATM   28  F   UNL     1      -9.154   2.051  65.291  1.00  0.00    -0.119 F  
HETATM   29  F   UNL     1      -8.772   1.767  63.171  1.00  0.00    -0.078 F  
ENDBRANCH  17  20
ENDBRANCH  13  14
ENDBRANCH  12  13
ENDBRANCH   9  12
TORSDOF 4
ENDMDL
MODEL      193
REMARK 921   NORMALIZED FREE ENERGY PREDICTED BY IDOCK:   -4.58 KCAL/MOL
REMARK 922        TOTAL FREE ENERGY PREDICTED BY IDOCK:   -6.24 KCAL/MOL
REMARK 923 INTER-LIGAND FREE ENERGY PREDICTED BY IDOCK:   -5.90 KCAL/MOL
REMARK 924 INTRA-LIGAND FREE ENERGY PREDICTED BY IDOCK:   -0.35 KCAL/MOL
REMARK 927      BINDING AFFINITY PREDICTED BY RF-SCORE:    0.00 PKD
ROOT
HETATM    1  C   UNL     1      -9.285   3.332  67.340  1.00  0.00    -0.233 C  
HETATM    2  C   UNL     1      -8.923   2.155  66.398  1.00  0.00    -0.109 C  
HETATM    3  C   UNL     1      -8.082   2.784  65.273  1.00  0.00    -0.086 C  
HETATM    4  C   UNL     1      -8.573   4.235  65.180  1.00  0.00    -0.123 C  
HETATM    5  C   UNL     1      -9.770   4.226  66.110  1.00  0.00    -0.220 C  
HETATM    6  C   UNL     1     -10.235   5.472  66.732  1.00  0.00    -0.233 A  
HETATM    7  N   UNL     1     -11.278   6.253  66.602  1.00  0.00    -0.105 NA 
HETATM    8  N   UNL     1     -11.508   6.821  67.855  1.00  0.00     0.092 NA 
HETATM    9  C   UNL     1     -10.648   6.306  68.705  1.00  0.00    -0.262 A  
HETATM   10  C   UNL     1      -8.846   4.496  68.305  1.00  0.00    -0.107 C  
HETATM   11  N   UNL     1      -9.770   5.562  67.999  1.00  0.00    -0.125 NA 
ENDROOT
BRANCH   9  12
HETATM   12  C   UNL     1     -10.597   6.455  70.181  1.00  0.00    -0.294 C  
BRANCH  12  13
HETATM   13  C   UNL     1     -11.502   7.602  70.677  1.00  0.00    -0.258 C  
BRANCH  13  14
HETATM   14  N   UNL     1     -10.720   8.724  71.237  1.00  0.00    -0.246 NA 
HETATM   15  C   UNL     1      -9.400   8.898  70.579  1.00  0.00    -0.202 C  
HETATM   16  C   UNL     1      -9.465   9.452  69.140  1.00  0.00    -0.163 C  
HETATM   17  N   UNL     1     -10.157  10.749  69.153  1.00  0.00    -0.217 NA 
HETATM   18  C   UNL     1     -11.454  10.013  71.144  1.00  0.00    -0.354 C  
HETATM   19  C   UNL     1     -11.504  10.694  69.747  1.00  0.00    -0.302 C  
BRANCH  17  20
HETATM   20  C   UNL     1      -9.631  11.877  68.553  1.00  0.00    -0.157 A  
HETATM   21  C   UNL     1      -8.269  11.968  68.215  1.00  0.00    -0.161 A  
HETATM   22  C   UNL     1      -7.712  13.112  67.628  1.00  0.00    -0.168 A  
HETATM   23  C   UNL     1      -8.516  14.211  67.362  1.00  0.00    -0.214 A  
HETATM   24  C   UNL     1      -9.874  14.175  67.690  1.00  0.00    -0.229 A  
HETATM   25  C   UNL     1     -10.768  15.359  67.443  1.00  0.00    -0.296 C  
HETATM   26  C   UNL     1     -10.414  13.005  68.267  1.00  0.00    -0.258 A  
HETATM   27  F   UNL     1     -11.340  15.830  68.586  1.00  0.00    -0.285 F  
HETATM   28  F   UNL     1     -11.800  15.076  66.602  1.00  0.00    -0.327 F  
HETATM   29  F   UNL     1     -10.123  16.427  66.887  1.00  0.00    -0.253 F  
ENDBRANCH  17  20
ENDBRANCH  13  14
ENDBRANCH  12  13
ENDBRANCH   9  12
TORSDOF 4
ENDMDL
MODEL      194
REMARK 921   NORMALIZED FREE ENERGY PREDICTED BY IDOCK:   -4.58 KCAL/MOL
REMARK 922        TOTAL FREE ENERGY PREDICTED BY IDOCK:   -6.24 KCAL/MOL
REMARK 923 INTER-LIGAND FREE ENERGY PREDICTED BY IDOCK:   -5.81 KCAL/MOL
REMARK 924 INTRA-LIGAND FREE ENERGY PREDICTED BY IDOCK:   -0.42 KCAL/MOL
REMARK 927      BINDING AFFINITY PREDICTED BY RF-SCORE:    0.00 PKD
ROOT
HETATM    1  C   UNL     1     -11.169  12.330  65.665  1.00  0.00    -0.375 C  
HETATM    2  C   UNL     1     -12.535  13.024  65.434  1.00  0.00    -0.531 C  
HETATM    3  C   UNL     1     -12.191  14.391  64.816  1.00  0.00    -0.458 C  
HETATM    4  C   UNL     1     -10.797  14.729  65.360  1.00  0.00    -0.372 C  
HETATM    5  C   UNL     1     -10.579  13.629  66.381  1.00  0.00    -0.284 C  
HETATM    6  C   UNL     1      -9.218  13.238  66.771  1.00  0.00    -0.233 A  
HETATM    7  N   UNL     1      -8.479  13.362  67.845  1.00  0.00    -0.160 NA 
HETATM    8  N   UNL     1      -7.634  12.253  67.874  1.00  0.00    -0.115 NA 
HETATM    9  C   UNL     1      -7.946  11.469  66.867  1.00  0.00    -0.164 A  
HETATM   10  C   UNL     1      -9.817  11.748  65.105  1.00  0.00    -0.235 C  
HETATM   11  N   UNL     1      -8.842  12.126  66.100  1.00  0.00    -0.049 NA 
ENDROOT
BRANCH   9  12
HETATM   12  C   UNL     1      -7.460  10.099  66.570  1.00  0.00    -0.109 C  
BRANCH  12  13
HETATM   13  C   UNL     1      -7.453   9.204  67.827  1.00  0.00    -0.085 C  
BRANCH  13  14
HETATM   14  N   UNL     1      -8.575   9.518  68.737  1.00  0.00    -0.121 NA 
HETATM   15  C   UNL     1      -9.755   8.640  68.530  1.00  0.00    -0.163 C  
HETATM   16  C   UNL     1      -9.566   7.184  69.005  1.00  0.00    -0.146 C  
HETATM   17  N   UNL     1      -9.226   7.182  70.435  1.00  0.00    -0.156 NA 
HETATM   18  C   UNL     1      -8.173   9.420  70.165  1.00  0.00    -0.168 C  
HETATM   19  C   UNL     1      -8.038   7.989  70.760  1.00  0.00    -0.101 C  
BRANCH  17  20
HETATM   20  C   UNL     1      -9.893   6.397  71.355  1.00  0.00    -0.176 A  
HETATM   21  C   UNL     1     -11.223   6.661  71.727  1.00  0.00    -0.299 A  
HETATM   22  C   UNL     1     -11.909   5.892  72.677  1.00  0.00    -0.192 A  
HETATM   23  C   UNL     1     -11.270   4.823  73.289  1.00  0.00    -0.421 A  
HETATM   24  C   UNL     1      -9.943   4.526  72.962  1.00  0.00    -0.190 A  
HETATM   25  C   UNL     1      -9.211   3.393  73.628  1.00  0.00    -0.092 C  
HETATM   26  C   UNL     1      -9.280   5.307  71.992  1.00  0.00    -0.154 A  
HETATM   27  F   UNL     1      -8.098   3.810  74.294  1.00  0.00    -0.078 F  
HETATM   28  F   UNL     1      -8.783   2.449  72.746  1.00  0.00    -0.064 F  
HETATM   29  F   UNL     1      -9.962   2.721  74.551  1.00  0.00    -0.122 F  
ENDBRANCH  17  20
ENDBRANCH  13  14
ENDBRANCH  12  13
ENDBRANCH   9  12
TORSDOF 4
ENDMDL
MODEL      195
REMARK 921   NORMALIZED FREE ENERGY PREDICTED BY IDOCK:   -4.54 KCAL/MOL
REMARK 922        TOTAL FREE ENERGY PREDICTED BY IDOCK:   -6.19 KCAL/MOL
REMARK 923 INTER-LIGAND FREE ENERGY PREDICTED BY IDOCK:   -5.77 KCAL/MOL
REMARK 924 INTRA-LIGAND FREE ENERGY PREDICTED BY IDOCK:   -0.42 KCAL/MOL
REMARK 927      BINDING AFFINITY PREDICTED BY RF-SCORE:    0.00 PKD
ROOT
HETATM    1  C   UNL     1     -11.240   7.131  69.927  1.00  0.00    -0.241 C  
HETATM    2  C   UNL     1     -12.519   6.935  70.782  1.00  0.00    -0.251 C  
HETATM    3  C   UNL     1     -12.059   7.116  72.239  1.00  0.00    -0.219 C  
HETATM    4  C   UNL     1     -10.585   6.689  72.243  1.00  0.00    -0.241 C  
HETATM    5  C   UNL     1     -10.416   6.121  70.847  1.00  0.00    -0.282 C  
HETATM    6  C   UNL     1      -9.087   6.069  70.224  1.00  0.00    -0.151 A  
HETATM    7  N   UNL     1      -8.236   5.126  69.909  1.00  0.00    -0.085 NA 
HETATM    8  N   UNL     1      -7.547   5.574  68.782  1.00  0.00    -0.082 NA 
HETATM    9  C   UNL     1      -8.058   6.728  68.417  1.00  0.00    -0.119 A  
HETATM   10  C   UNL     1     -10.040   8.030  69.447  1.00  0.00    -0.197 C  
HETATM   11  N   UNL     1      -8.930   7.110  69.375  1.00  0.00    -0.136 NA 
ENDROOT
BRANCH   9  12
HETATM   12  C   UNL     1      -7.790   7.518  67.189  1.00  0.00    -0.117 C  
BRANCH  12  13
HETATM   13  C   UNL     1      -9.094   7.950  66.486  1.00  0.00    -0.170 C  
BRANCH  13  14
HETATM   14  N   UNL     1      -8.942   9.241  65.782  1.00  0.00    -0.178 NA 
HETATM   15  C   UNL     1     -10.225   9.973  65.628  1.00  0.00    -0.188 C  
HETATM   16  C   UNL     1     -10.787  10.571  66.936  1.00  0.00    -0.187 C  
HETATM   17  N   UNL     1      -9.792  11.484  67.517  1.00  0.00    -0.188 NA 
HETATM   18  C   UNL     1      -7.979  10.139  66.471  1.00  0.00    -0.118 C  
HETATM   19  C   UNL     1      -8.481  10.854  67.757  1.00  0.00    -0.124 C  
BRANCH  17  20
HETATM   20  C   UNL     1     -10.105  12.772  67.907  1.00  0.00    -0.231 A  
HETATM   21  C   UNL     1     -11.116  13.034  68.848  1.00  0.00    -0.307 A  
HETATM   22  C   UNL     1     -11.465  14.334  69.239  1.00  0.00    -0.330 A  
HETATM   23  C   UNL     1     -10.802  15.420  68.687  1.00  0.00    -0.259 A  
HETATM   24  C   UNL     1      -9.797  15.213  67.737  1.00  0.00    -0.223 A  
HETATM   25  C   UNL     1      -9.079  16.369  67.097  1.00  0.00    -0.205 C  
HETATM   26  C   UNL     1      -9.454  13.893  67.372  1.00  0.00    -0.226 A  
HETATM   27  F   UNL     1      -9.224  16.390  65.743  1.00  0.00    -0.330 F  
HETATM   28  F   UNL     1      -7.737  16.350  67.325  1.00  0.00    -0.143 F  
HETATM   29  F   UNL     1      -9.508  17.591  67.532  1.00  0.00    -0.245 F  
ENDBRANCH  17  20
ENDBRANCH  13  14
ENDBRANCH  12  13
ENDBRANCH   9  12
TORSDOF 4
ENDMDL
MODEL      196
REMARK 921   NORMALIZED FREE ENERGY PREDICTED BY IDOCK:   -4.54 KCAL/MOL
REMARK 922        TOTAL FREE ENERGY PREDICTED BY IDOCK:   -6.18 KCAL/MOL
REMARK 923 INTER-LIGAND FREE ENERGY PREDICTED BY IDOCK:   -5.55 KCAL/MOL
REMARK 924 INTRA-LIGAND FREE ENERGY PREDICTED BY IDOCK:   -0.63 KCAL/MOL
REMARK 927      BINDING AFFINITY PREDICTED BY RF-SCORE:    0.00 PKD
ROOT
HETATM    1  C   UNL     1      -6.332   3.703  65.112  1.00  0.00    -0.028 C  
HETATM    2  C   UNL     1      -5.590   3.239  63.832  1.00  0.00    -0.010 C  
HETATM    3  C   UNL     1      -6.701   2.831  62.850  1.00  0.00    -0.027 C  
HETATM    4  C   UNL     1      -7.868   2.383  63.740  1.00  0.00    -0.069 C  
HETATM    5  C   UNL     1      -7.237   2.389  65.118  1.00  0.00    -0.058 C  
HETATM    6  C   UNL     1      -8.073   2.533  66.317  1.00  0.00    -0.084 A  
HETATM    7  N   UNL     1      -8.442   1.753  67.302  1.00  0.00    -0.079 NA 
HETATM    8  N   UNL     1      -8.609   2.575  68.416  1.00  0.00    -0.073 NA 
HETATM    9  C   UNL     1      -8.263   3.798  68.083  1.00  0.00    -0.083 A  
HETATM   10  C   UNL     1      -7.340   4.674  65.833  1.00  0.00    -0.077 C  
HETATM   11  N   UNL     1      -8.048   3.813  66.750  1.00  0.00    -0.095 NA 
ENDROOT
BRANCH   9  12
HETATM   12  C   UNL     1      -8.100   4.988  68.954  1.00  0.00    -0.084 C  
BRANCH  12  13
HETATM   13  C   UNL     1      -9.393   5.315  69.731  1.00  0.00    -0.134 C  
BRANCH  13  14
HETATM   14  N   UNL     1     -10.414   5.946  68.868  1.00  0.00    -0.230 NA 
HETATM   15  C   UNL     1     -11.540   6.535  69.637  1.00  0.00    -0.283 C  
HETATM   16  C   UNL     1     -11.184   7.814  70.425  1.00  0.00    -0.237 C  
HETATM   17  N   UNL     1     -10.671   8.828  69.494  1.00  0.00    -0.217 NA 
HETATM   18  C   UNL     1      -9.833   7.014  68.013  1.00  0.00    -0.138 C  
HETATM   19  C   UNL     1      -9.516   8.372  68.701  1.00  0.00    -0.147 C  
BRANCH  17  20
HETATM   20  C   UNL     1     -11.157  10.121  69.463  1.00  0.00    -0.250 A  
HETATM   21  C   UNL     1     -11.656  10.751  70.616  1.00  0.00    -0.388 A  
HETATM   22  C   UNL     1     -12.176  12.052  70.600  1.00  0.00    -0.409 A  
HETATM   23  C   UNL     1     -12.213  12.766  69.411  1.00  0.00    -0.131 A  
HETATM   24  C   UNL     1     -11.739  12.179  68.234  1.00  0.00    -0.401 A  
HETATM   25  C   UNL     1     -11.791  12.913  66.921  1.00  0.00    -0.379 C  
HETATM   26  C   UNL     1     -11.207  10.873  68.279  1.00  0.00    -0.347 A  
HETATM   27  F   UNL     1     -12.533  12.258  65.985  1.00  0.00    -0.374 F  
HETATM   28  F   UNL     1     -10.561  13.087  66.365  1.00  0.00    -0.272 F  
HETATM   29  F   UNL     1     -12.333  14.164  67.013  1.00  0.00    -0.444 F  
ENDBRANCH  17  20
ENDBRANCH  13  14
ENDBRANCH  12  13
ENDBRANCH   9  12
TORSDOF 4
ENDMDL
MODEL      197
REMARK 921   NORMALIZED FREE ENERGY PREDICTED BY IDOCK:   -4.50 KCAL/MOL
REMARK 922        TOTAL FREE ENERGY PREDICTED BY IDOCK:   -6.14 KCAL/MOL
REMARK 923 INTER-LIGAND FREE ENERGY PREDICTED BY IDOCK:   -5.44 KCAL/MOL
REMARK 924 INTRA-LIGAND FREE ENERGY PREDICTED BY IDOCK:   -0.70 KCAL/MOL
REMARK 927      BINDING AFFINITY PREDICTED BY RF-SCORE:    0.00 PKD
ROOT
HETATM    1  C   UNL     1      -8.545   5.972  65.331  1.00  0.00    -0.127 C  
HETATM    2  C   UNL     1      -9.064   4.514  65.413  1.00  0.00    -0.146 C  
HETATM    3  C   UNL     1      -7.919   3.647  64.862  1.00  0.00    -0.090 C  
HETATM    4  C   UNL     1      -7.176   4.559  63.876  1.00  0.00    -0.050 C  
HETATM    5  C   UNL     1      -8.086   5.770  63.816  1.00  0.00    -0.108 C  
HETATM    6  C   UNL     1      -7.551   7.081  63.423  1.00  0.00    -0.105 A  
HETATM    7  N   UNL     1      -7.667   7.867  62.383  1.00  0.00    -0.114 NA 
HETATM    8  N   UNL     1      -7.538   9.173  62.856  1.00  0.00    -0.103 NA 
HETATM    9  C   UNL     1      -7.427   9.128  64.165  1.00  0.00    -0.109 A  
HETATM   10  C   UNL     1      -7.499   7.077  65.737  1.00  0.00    -0.081 C  
HETATM   11  N   UNL     1      -7.307   7.831  64.521  1.00  0.00    -0.083 NA 
ENDROOT
BRANCH   9  12
HETATM   12  C   UNL     1      -7.440  10.249  65.138  1.00  0.00    -0.130 C  
BRANCH  12  13
HETATM   13  C   UNL     1      -8.824  10.927  65.218  1.00  0.00    -0.167 C  
BRANCH  13  14
HETATM   14  N   UNL     1      -9.029  11.617  66.509  1.00  0.00    -0.188 NA 
HETATM   15  C   UNL     1     -10.454  11.657  66.926  1.00  0.00    -0.227 C  
HETATM   16  C   UNL     1     -11.033  10.299  67.376  1.00  0.00    -0.252 C  
HETATM   17  N   UNL     1     -10.233   9.780  68.494  1.00  0.00    -0.179 NA 
HETATM   18  C   UNL     1      -8.248  10.987  67.605  1.00  0.00    -0.117 C  
HETATM   19  C   UNL     1      -8.798   9.652  68.184  1.00  0.00    -0.119 C  
BRANCH  17  20
HETATM   20  C   UNL     1     -10.802   9.342  69.674  1.00  0.00    -0.228 A  
HETATM   21  C   UNL     1     -11.757  10.110  70.364  1.00  0.00    -0.390 A  
HETATM   22  C   UNL     1     -12.327   9.695  71.575  1.00  0.00    -0.477 A  
HETATM   23  C   UNL     1     -11.950   8.484  72.136  1.00  0.00    -0.451 A  
HETATM   24  C   UNL     1     -10.995   7.689  71.494  1.00  0.00    -0.263 A  
HETATM   25  C   UNL     1     -10.541   6.383  72.089  1.00  0.00    -0.220 C  
HETATM   26  C   UNL     1     -10.447   8.122  70.268  1.00  0.00    -0.219 A  
HETATM   27  F   UNL     1      -9.202   6.361  72.340  1.00  0.00    -0.139 F  
HETATM   28  F   UNL     1     -10.784   5.319  71.276  1.00  0.00    -0.294 F  
HETATM   29  F   UNL     1     -11.144   6.083  73.278  1.00  0.00    -0.267 F  
ENDBRANCH  17  20
ENDBRANCH  13  14
ENDBRANCH  12  13
ENDBRANCH   9  12
TORSDOF 4
ENDMDL
MODEL      198
REMARK 921   NORMALIZED FREE ENERGY PREDICTED BY IDOCK:   -4.49 KCAL/MOL
REMARK 922        TOTAL FREE ENERGY PREDICTED BY IDOCK:   -6.13 KCAL/MOL
REMARK 923 INTER-LIGAND FREE ENERGY PREDICTED BY IDOCK:   -5.50 KCAL/MOL
REMARK 924 INTRA-LIGAND FREE ENERGY PREDICTED BY IDOCK:   -0.62 KCAL/MOL
REMARK 927      BINDING AFFINITY PREDICTED BY RF-SCORE:    0.00 PKD
ROOT
HETATM    1  C   UNL     1      -6.490   8.531  71.164  1.00  0.00    -0.049 C  
HETATM    2  C   UNL     1      -5.506   9.474  71.903  1.00  0.00    -0.066 C  
HETATM    3  C   UNL     1      -5.288   8.826  73.281  1.00  0.00    -0.083 C  
HETATM    4  C   UNL     1      -6.583   8.051  73.561  1.00  0.00    -0.115 C  
HETATM    5  C   UNL     1      -7.474   8.500  72.420  1.00  0.00    -0.085 C  
HETATM    6  C   UNL     1      -8.595   7.659  71.979  1.00  0.00    -0.110 A  
HETATM    7  N   UNL     1      -9.901   7.727  72.044  1.00  0.00    -0.167 NA 
HETATM    8  N   UNL     1     -10.388   7.075  70.911  1.00  0.00    -0.198 NA 
HETATM    9  C   UNL     1      -9.365   6.709  70.173  1.00  0.00    -0.158 A  
HETATM   10  C   UNL     1      -6.843   7.118  70.566  1.00  0.00    -0.053 C  
HETATM   11  N   UNL     1      -8.242   6.951  70.882  1.00  0.00    -0.117 NA 
ENDROOT
BRANCH   9  12
HETATM   12  C   UNL     1      -9.363   6.142  68.801  1.00  0.00    -0.123 C  
BRANCH  12  13
HETATM   13  C   UNL     1      -9.925   7.138  67.765  1.00  0.00    -0.155 C  
BRANCH  13  14
HETATM   14  N   UNL     1      -9.149   8.396  67.727  1.00  0.00    -0.135 NA 
HETATM   15  C   UNL     1      -8.831   8.841  66.346  1.00  0.00    -0.147 C  
HETATM   16  C   UNL     1     -10.039   9.374  65.547  1.00  0.00     0.099 C  
HETATM   17  N   UNL     1     -10.641  10.500  66.275  1.00  0.00    -0.178 NA 
HETATM   18  C   UNL     1      -9.858   9.505  68.417  1.00  0.00    -0.158 C  
HETATM   19  C   UNL     1     -11.041  10.165  67.653  1.00  0.00    -0.206 C  
BRANCH  17  20
HETATM   20  C   UNL     1     -10.911  11.714  65.673  1.00  0.00    -0.266 A  
HETATM   21  C   UNL     1     -11.648  11.799  64.479  1.00  0.00    -0.299 A  
HETATM   22  C   UNL     1     -11.912  13.018  63.841  1.00  0.00    -0.551 A  
HETATM   23  C   UNL     1     -11.435  14.201  64.388  1.00  0.00    -0.344 A  
HETATM   24  C   UNL     1     -10.687  14.168  65.569  1.00  0.00    -0.330 A  
HETATM   25  C   UNL     1     -10.130  15.428  66.174  1.00  0.00    -0.305 C  
HETATM   26  C   UNL     1     -10.448  12.928  66.200  1.00  0.00    -0.283 A  
HETATM   27  F   UNL     1      -8.772  15.403  66.274  1.00  0.00    -0.304 F  
HETATM   28  F   UNL     1     -10.591  15.656  67.435  1.00  0.00    -0.273 F  
HETATM   29  F   UNL     1     -10.427  16.556  65.464  1.00  0.00    -0.343 F  
ENDBRANCH  17  20
ENDBRANCH  13  14
ENDBRANCH  12  13
ENDBRANCH   9  12
TORSDOF 4
ENDMDL
MODEL      199
REMARK 921   NORMALIZED FREE ENERGY PREDICTED BY IDOCK:   -4.49 KCAL/MOL
REMARK 922        TOTAL FREE ENERGY PREDICTED BY IDOCK:   -6.12 KCAL/MOL
REMARK 923 INTER-LIGAND FREE ENERGY PREDICTED BY IDOCK:   -5.53 KCAL/MOL
REMARK 924 INTRA-LIGAND FREE ENERGY PREDICTED BY IDOCK:   -0.59 KCAL/MOL
REMARK 927      BINDING AFFINITY PREDICTED BY RF-SCORE:    0.00 PKD
ROOT
HETATM    1  C   UNL     1      -7.840   4.220  69.168  1.00  0.00    -0.057 C  
HETATM    2  C   UNL     1      -6.866   3.245  69.878  1.00  0.00    -0.034 C  
HETATM    3  C   UNL     1      -5.717   3.026  68.879  1.00  0.00    -0.022 C  
HETATM    4  C   UNL     1      -6.353   3.228  67.497  1.00  0.00    -0.036 C  
HETATM    5  C   UNL     1      -7.826   3.337  67.839  1.00  0.00    -0.071 C  
HETATM    6  C   UNL     1      -8.748   4.035  66.933  1.00  0.00    -0.116 A  
HETATM    7  N   UNL     1      -9.721   3.682  66.131  1.00  0.00    -0.131 NA 
HETATM    8  N   UNL     1     -10.622   4.747  66.108  1.00  0.00    -0.302 NA 
HETATM    9  C   UNL     1     -10.200   5.663  66.950  1.00  0.00    -0.227 A  
HETATM   10  C   UNL     1      -8.136   5.618  68.506  1.00  0.00    -0.103 C  
HETATM   11  N   UNL     1      -8.973   5.292  67.377  1.00  0.00    -0.109 NA 
ENDROOT
BRANCH   9  12
HETATM   12  C   UNL     1     -10.891   6.893  67.410  1.00  0.00    -0.396 C  
BRANCH  12  13
HETATM   13  C   UNL     1     -10.329   8.158  66.729  1.00  0.00    -0.291 C  
BRANCH  13  14
HETATM   14  N   UNL     1      -9.790   9.124  67.710  1.00  0.00    -0.165 NA 
HETATM   15  C   UNL     1      -8.570   9.821  67.230  1.00  0.00    -0.128 C  
HETATM   16  C   UNL     1      -8.816  10.853  66.110  1.00  0.00    -0.186 C  
HETATM   17  N   UNL     1      -9.776  11.861  66.583  1.00  0.00    -0.201 NA 
HETATM   18  C   UNL     1     -10.794  10.155  68.081  1.00  0.00    -0.262 C  
HETATM   19  C   UNL     1     -11.052  11.289  67.048  1.00  0.00    -0.293 C  
BRANCH  17  20
HETATM   20  C   UNL     1      -9.538  13.218  66.483  1.00  0.00    -0.264 A  
HETATM   21  C   UNL     1     -10.340  14.053  65.685  1.00  0.00    -0.342 A  
HETATM   22  C   UNL     1     -10.100  15.427  65.551  1.00  0.00    -0.405 A  
HETATM   23  C   UNL     1      -9.033  16.008  66.220  1.00  0.00    -0.380 A  
HETATM   24  C   UNL     1      -8.198  15.219  67.016  1.00  0.00    -0.267 A  
HETATM   25  C   UNL     1      -7.015  15.812  67.732  1.00  0.00    -0.152 C  
HETATM   26  C   UNL     1      -8.471  13.840  67.147  1.00  0.00    -0.189 A  
HETATM   27  F   UNL     1      -5.837  15.241  67.357  1.00  0.00    -0.140 F  
HETATM   28  F   UNL     1      -7.086  15.662  69.083  1.00  0.00    -0.124 F  
HETATM   29  F   UNL     1      -6.859  17.152  67.519  1.00  0.00    -0.135 F  
ENDBRANCH  17  20
ENDBRANCH  13  14
ENDBRANCH  12  13
ENDBRANCH   9  12
TORSDOF 4
ENDMDL
MODEL      200
REMARK 921   NORMALIZED FREE ENERGY PREDICTED BY IDOCK:   -4.48 KCAL/MOL
REMARK 922        TOTAL FREE ENERGY PREDICTED BY IDOCK:   -6.11 KCAL/MOL
REMARK 923 INTER-LIGAND FREE ENERGY PREDICTED BY IDOCK:   -5.50 KCAL/MOL
REMARK 924 INTRA-LIGAND FREE ENERGY PREDICTED BY IDOCK:   -0.61 KCAL/MOL
REMARK 927      BINDING AFFINITY PREDICTED BY RF-SCORE:    0.00 PKD
ROOT
HETATM    1  C   UNL     1      -8.834   5.248  65.526  1.00  0.00    -0.153 C  
HETATM    2  C   UNL     1      -9.018   3.757  65.912  1.00  0.00    -0.135 C  
HETATM    3  C   UNL     1      -7.598   3.238  66.197  1.00  0.00    -0.077 C  
HETATM    4  C   UNL     1      -6.680   4.105  65.325  1.00  0.00    -0.049 C  
HETATM    5  C   UNL     1      -7.677   4.883  64.489  1.00  0.00    -0.083 C  
HETATM    6  C   UNL     1      -7.303   6.174  63.898  1.00  0.00    -0.067 A  
HETATM    7  N   UNL     1      -7.066   6.619  62.690  1.00  0.00    -0.047 NA 
HETATM    8  N   UNL     1      -7.450   7.960  62.679  1.00  0.00    -0.101 NA 
HETATM    9  C   UNL     1      -7.971   8.250  63.849  1.00  0.00    -0.146 A  
HETATM   10  C   UNL     1      -8.362   6.706  65.886  1.00  0.00    -0.137 C  
HETATM   11  N   UNL     1      -7.772   7.188  64.660  1.00  0.00    -0.107 NA 
ENDROOT
BRANCH   9  12
HETATM   12  C   UNL     1      -8.677   9.485  64.273  1.00  0.00    -0.232 C  
BRANCH  12  13
HETATM   13  C   UNL     1      -7.899  10.246  65.367  1.00  0.00    -0.149 C  
BRANCH  13  14
HETATM   14  N   UNL     1      -8.618  10.248  66.659  1.00  0.00    -0.127 NA 
HETATM   15  C   UNL     1      -7.972  11.110  67.682  1.00  0.00    -0.116 C  
HETATM   16  C   UNL     1      -8.103  12.626  67.424  1.00  0.00    -0.182 C  
HETATM   17  N   UNL     1      -9.527  12.981  67.343  1.00  0.00    -0.203 NA 
HETATM   18  C   UNL     1     -10.028  10.692  66.508  1.00  0.00    -0.215 C  
HETATM   19  C   UNL     1     -10.269  12.218  66.325  1.00  0.00    -0.229 C  
BRANCH  17  20
HETATM   20  C   UNL     1     -10.076  14.018  68.073  1.00  0.00    -0.239 A  
HETATM   21  C   UNL     1     -11.166  13.818  68.937  1.00  0.00    -0.309 A  
HETATM   22  C   UNL     1     -11.752  14.861  69.667  1.00  0.00    -0.356 A  
HETATM   23  C   UNL     1     -11.256  16.150  69.546  1.00  0.00    -0.337 A  
HETATM   24  C   UNL     1     -10.180  16.403  68.691  1.00  0.00    -0.258 A  
HETATM   25  C   UNL     1      -9.635  17.795  68.514  1.00  0.00    -0.322 C  
HETATM   26  C   UNL     1      -9.597  15.333  67.978  1.00  0.00    -0.203 A  
HETATM   27  F   UNL     1      -9.708  18.224  67.223  1.00  0.00    -0.277 F  
HETATM   28  F   UNL     1      -8.324  17.897  68.865  1.00  0.00    -0.287 F  
HETATM   29  F   UNL     1     -10.289  18.739  69.254  1.00  0.00    -0.361 F  
ENDBRANCH  17  20
ENDBRANCH  13  14
ENDBRANCH  12  13
ENDBRANCH   9  12
TORSDOF 4
ENDMDL
MODEL      201
REMARK 921   NORMALIZED FREE ENERGY PREDICTED BY IDOCK:   -4.38 KCAL/MOL
REMARK 922        TOTAL FREE ENERGY PREDICTED BY IDOCK:   -5.99 KCAL/MOL
REMARK 923 INTER-LIGAND FREE ENERGY PREDICTED BY IDOCK:   -5.31 KCAL/MOL
REMARK 924 INTRA-LIGAND FREE ENERGY PREDICTED BY IDOCK:   -0.68 KCAL/MOL
REMARK 927      BINDING AFFINITY PREDICTED BY RF-SCORE:    0.00 PKD
ROOT
HETATM    1  C   UNL     1      -9.850   7.583  71.700  1.00  0.00    -0.185 C  
HETATM    2  C   UNL     1     -10.302   7.663  73.181  1.00  0.00    -0.411 C  
HETATM    3  C   UNL     1      -9.013   7.491  74.004  1.00  0.00    -0.292 C  
HETATM    4  C   UNL     1      -8.091   6.644  73.118  1.00  0.00    -0.108 C  
HETATM    5  C   UNL     1      -9.014   6.253  71.980  1.00  0.00    -0.142 C  
HETATM    6  C   UNL     1      -8.462   5.891  70.668  1.00  0.00    -0.129 A  
HETATM    7  N   UNL     1      -8.349   4.789  69.970  1.00  0.00    -0.068 NA 
HETATM    8  N   UNL     1      -8.407   5.163  68.627  1.00  0.00    -0.089 NA 
HETATM    9  C   UNL     1      -8.629   6.457  68.568  1.00  0.00    -0.122 A  
HETATM   10  C   UNL     1      -8.996   8.137  70.498  1.00  0.00    -0.145 C  
HETATM   11  N   UNL     1      -8.540   6.945  69.824  1.00  0.00    -0.140 NA 
ENDROOT
BRANCH   9  12
HETATM   12  C   UNL     1      -8.941   7.294  67.383  1.00  0.00    -0.122 C  
BRANCH  12  13
HETATM   13  C   UNL     1      -7.859   8.364  67.132  1.00  0.00    -0.100 C  
BRANCH  13  14
HETATM   14  N   UNL     1      -8.378   9.505  66.349  1.00  0.00    -0.118 NA 
HETATM   15  C   UNL     1      -9.527  10.183  67.003  1.00  0.00    -0.167 C  
HETATM   16  C   UNL     1      -9.161  11.004  68.258  1.00  0.00    -0.158 C  
HETATM   17  N   UNL     1      -8.161  12.019  67.897  1.00  0.00    -0.140 NA 
HETATM   18  C   UNL     1      -7.328  10.525  66.091  1.00  0.00    -0.136 C  
HETATM   19  C   UNL     1      -6.948  11.458  67.275  1.00  0.00    -0.115 C  
BRANCH  17  20
HETATM   20  C   UNL     1      -8.305  13.353  68.227  1.00  0.00    -0.160 A  
HETATM   21  C   UNL     1      -7.305  14.055  68.923  1.00  0.00    -0.113 A  
HETATM   22  C   UNL     1      -7.443  15.401  69.287  1.00  0.00    -0.207 A  
HETATM   23  C   UNL     1      -8.603  16.088  68.961  1.00  0.00    -0.244 A  
HETATM   24  C   UNL     1      -9.631  15.431  68.279  1.00  0.00    -0.205 A  
HETATM   25  C   UNL     1     -10.915  16.138  67.936  1.00  0.00    -0.318 C  
HETATM   26  C   UNL     1      -9.462  14.079  67.910  1.00  0.00    -0.210 A  
HETATM   27  F   UNL     1     -12.005  15.540  68.492  1.00  0.00    -0.356 F  
HETATM   28  F   UNL     1     -11.155  16.175  66.596  1.00  0.00    -0.264 F  
HETATM   29  F   UNL     1     -10.954  17.438  68.353  1.00  0.00    -0.345 F  
ENDBRANCH  17  20
ENDBRANCH  13  14
ENDBRANCH  12  13
ENDBRANCH   9  12
TORSDOF 4
ENDMDL
MODEL      202
REMARK 921   NORMALIZED FREE ENERGY PREDICTED BY IDOCK:   -4.34 KCAL/MOL
REMARK 922        TOTAL FREE ENERGY PREDICTED BY IDOCK:   -5.94 KCAL/MOL
REMARK 923 INTER-LIGAND FREE ENERGY PREDICTED BY IDOCK:   -6.05 KCAL/MOL
REMARK 924 INTRA-LIGAND FREE ENERGY PREDICTED BY IDOCK:    0.11 KCAL/MOL
REMARK 927      BINDING AFFINITY PREDICTED BY RF-SCORE:    0.00 PKD
ROOT
HETATM    1  C   UNL     1     -10.928  13.999  66.658  1.00  0.00    -0.300 C  
HETATM    2  C   UNL     1     -12.308  13.293  66.683  1.00  0.00    -0.274 C  
HETATM    3  C   UNL     1     -12.721  13.166  65.206  1.00  0.00    -0.457 C  
HETATM    4  C   UNL     1     -12.034  14.344  64.503  1.00  0.00    -0.487 C  
HETATM    5  C   UNL     1     -11.473  15.129  65.672  1.00  0.00    -0.192 C  
HETATM    6  C   UNL     1     -10.325  16.025  65.482  1.00  0.00    -0.390 A  
HETATM    7  N   UNL     1     -10.138  17.321  65.480  1.00  0.00    -0.588 NA 
HETATM    8  N   UNL     1      -8.839  17.534  65.941  1.00  0.00    -0.529 NA 
HETATM    9  C   UNL     1      -8.323  16.373  66.274  1.00  0.00    -0.327 A  
HETATM   10  C   UNL     1      -9.415  14.030  66.221  1.00  0.00    -0.227 C  
HETATM   11  N   UNL     1      -9.186  15.413  65.877  1.00  0.00    -0.305 NA 
ENDROOT
BRANCH   9  12
HETATM   12  C   UNL     1      -7.044  16.088  66.972  1.00  0.00    -0.233 C  
BRANCH  12  13
HETATM   13  C   UNL     1      -7.186  14.936  67.988  1.00  0.00    -0.134 C  
BRANCH  13  14
HETATM   14  N   UNL     1      -6.160  13.891  67.789  1.00  0.00    -0.238 NA 
HETATM   15  C   UNL     1      -5.377  13.603  69.017  1.00  0.00    -0.070 C  
HETATM   16  C   UNL     1      -6.158  12.853  70.118  1.00  0.00    -0.092 C  
HETATM   17  N   UNL     1      -6.660  11.583  69.573  1.00  0.00    -0.119 NA 
HETATM   18  C   UNL     1      -6.754  12.615  67.312  1.00  0.00    -0.100 C  
HETATM   19  C   UNL     1      -7.493  11.745  68.369  1.00  0.00    -0.105 C  
BRANCH  17  20
HETATM   20  C   UNL     1      -6.463  10.373  70.210  1.00  0.00    -0.141 A  
HETATM   21  C   UNL     1      -5.378  10.162  71.078  1.00  0.00    -0.079 A  
HETATM   22  C   UNL     1      -5.147   8.935  71.714  1.00  0.00    -0.040 A  
HETATM   23  C   UNL     1      -6.010   7.871  71.492  1.00  0.00    -0.035 A  
HETATM   24  C   UNL     1      -7.098   8.027  70.629  1.00  0.00    -0.045 A  
HETATM   25  C   UNL     1      -8.036   6.885  70.344  1.00  0.00    -0.116 C  
HETATM   26  C   UNL     1      -7.317   9.277  70.013  1.00  0.00    -0.083 A  
HETATM   27  F   UNL     1      -8.077   6.560  69.021  1.00  0.00    -0.105 F  
HETATM   28  F   UNL     1      -9.322   7.157  70.698  1.00  0.00    -0.156 F  
HETATM   29  F   UNL     1      -7.711   5.731  70.997  1.00  0.00    -0.089 F  
ENDBRANCH  17  20
ENDBRANCH  13  14
ENDBRANCH  12  13
ENDBRANCH   9  12
TORSDOF 4
ENDMDL
MODEL      203
REMARK 921   NORMALIZED FREE ENERGY PREDICTED BY IDOCK:   -4.33 KCAL/MOL
REMARK 922        TOTAL FREE ENERGY PREDICTED BY IDOCK:   -5.93 KCAL/MOL
REMARK 923 INTER-LIGAND FREE ENERGY PREDICTED BY IDOCK:   -5.74 KCAL/MOL
REMARK 924 INTRA-LIGAND FREE ENERGY PREDICTED BY IDOCK:   -0.20 KCAL/MOL
REMARK 927      BINDING AFFINITY PREDICTED BY RF-SCORE:    0.00 PKD
ROOT
HETATM    1  C   UNL     1      -9.464   8.987  67.035  1.00  0.00    -0.212 C  
HETATM    2  C   UNL     1      -9.139   8.660  65.555  1.00  0.00    -0.190 C  
HETATM    3  C   UNL     1      -8.733  10.004  64.926  1.00  0.00    -0.201 C  
HETATM    4  C   UNL     1      -9.489  11.063  65.740  1.00  0.00    -0.242 C  
HETATM    5  C   UNL     1     -10.395  10.210  66.606  1.00  0.00    -0.274 C  
HETATM    6  C   UNL     1     -10.912  10.733  67.878  1.00  0.00    -0.289 A  
HETATM    7  N   UNL     1     -12.080  11.117  68.328  1.00  0.00    -0.607 NA 
HETATM    8  N   UNL     1     -12.091  10.834  69.694  1.00  0.00    -0.308 NA 
HETATM    9  C   UNL     1     -10.968  10.223  69.998  1.00  0.00    -0.311 A  
HETATM   10  C   UNL     1      -9.021   9.526  68.447  1.00  0.00    -0.127 C  
HETATM   11  N   UNL     1     -10.172  10.265  68.908  1.00  0.00    -0.193 NA 
ENDROOT
BRANCH   9  12
HETATM   12  C   UNL     1     -10.580   9.570  71.273  1.00  0.00    -0.358 C  
BRANCH  12  13
HETATM   13  C   UNL     1     -11.794   8.950  71.996  1.00  0.00    -0.368 C  
BRANCH  13  14
HETATM   14  N   UNL     1     -11.612   7.504  72.243  1.00  0.00    -0.297 NA 
HETATM   15  C   UNL     1     -12.187   6.654  71.168  1.00  0.00    -0.301 C  
HETATM   16  C   UNL     1     -11.410   6.687  69.835  1.00  0.00    -0.364 C  
HETATM   17  N   UNL     1     -10.022   6.266  70.074  1.00  0.00    -0.168 NA 
HETATM   18  C   UNL     1     -10.179   7.143  72.397  1.00  0.00    -0.189 C  
HETATM   19  C   UNL     1      -9.329   7.069  71.096  1.00  0.00    -0.158 C  
BRANCH  17  20
HETATM   20  C   UNL     1      -9.403   5.288  69.319  1.00  0.00    -0.123 A  
HETATM   21  C   UNL     1     -10.135   4.418  68.492  1.00  0.00     0.029 A  
HETATM   22  C   UNL     1      -9.528   3.405  67.738  1.00  0.00    -0.229 A  
HETATM   23  C   UNL     1      -8.153   3.233  67.795  1.00  0.00    -0.082 A  
HETATM   24  C   UNL     1      -7.382   4.065  68.612  1.00  0.00    -0.055 A  
HETATM   25  C   UNL     1      -5.891   3.888  68.720  1.00  0.00    -0.023 C  
HETATM   26  C   UNL     1      -8.015   5.088  69.350  1.00  0.00    -0.075 A  
HETATM   27  F   UNL     1      -5.488   3.626  69.995  1.00  0.00    -0.010 F  
HETATM   28  F   UNL     1      -5.198   4.992  68.331  1.00  0.00    -0.003 F  
HETATM   29  F   UNL     1      -5.405   2.861  67.962  1.00  0.00    -0.011 F  
ENDBRANCH  17  20
ENDBRANCH  13  14
ENDBRANCH  12  13
ENDBRANCH   9  12
TORSDOF 4
ENDMDL
MODEL      204
REMARK 921   NORMALIZED FREE ENERGY PREDICTED BY IDOCK:   -4.32 KCAL/MOL
REMARK 922        TOTAL FREE ENERGY PREDICTED BY IDOCK:   -5.92 KCAL/MOL
REMARK 923 INTER-LIGAND FREE ENERGY PREDICTED BY IDOCK:   -5.74 KCAL/MOL
REMARK 924 INTRA-LIGAND FREE ENERGY PREDICTED BY IDOCK:   -0.18 KCAL/MOL
REMARK 927      BINDING AFFINITY PREDICTED BY RF-SCORE:    0.00 PKD
ROOT
HETATM    1  C   UNL     1     -11.443   8.800  71.308  1.00  0.00    -0.355 C  
HETATM    2  C   UNL     1     -11.665   7.600  72.265  1.00  0.00    -0.371 C  
HETATM    3  C   UNL     1     -13.135   7.192  72.062  1.00  0.00    -0.180 C  
HETATM    4  C   UNL     1     -13.847   8.483  71.637  1.00  0.00    -0.437 C  
HETATM    5  C   UNL     1     -12.763   9.524  71.837  1.00  0.00    -0.496 C  
HETATM    6  C   UNL     1     -12.803  10.789  71.092  1.00  0.00    -0.414 A  
HETATM    7  N   UNL     1     -13.030  12.044  71.387  1.00  0.00    -0.335 NA 
HETATM    8  N   UNL     1     -12.272  12.804  70.497  1.00  0.00    -0.358 NA 
HETATM    9  C   UNL     1     -11.562  11.984  69.754  1.00  0.00    -0.276 A  
HETATM   10  C   UNL     1     -11.422   9.405  69.854  1.00  0.00    -0.022 C  
HETATM   11  N   UNL     1     -11.975  10.727  70.025  1.00  0.00    -0.319 NA 
ENDROOT
BRANCH   9  12
HETATM   12  C   UNL     1     -10.482  12.303  68.788  1.00  0.00    -0.187 C  
BRANCH  12  13
HETATM   13  C   UNL     1      -9.297  11.321  68.904  1.00  0.00    -0.072 C  
BRANCH  13  14
HETATM   14  N   UNL     1      -8.339  11.474  67.788  1.00  0.00    -0.131 NA 
HETATM   15  C   UNL     1      -7.374  10.350  67.693  1.00  0.00    -0.088 C  
HETATM   16  C   UNL     1      -7.981   9.019  67.201  1.00  0.00    -0.102 C  
HETATM   17  N   UNL     1      -8.592   9.225  65.880  1.00  0.00    -0.141 NA 
HETATM   18  C   UNL     1      -9.030  11.600  66.478  1.00  0.00    -0.191 C  
HETATM   19  C   UNL     1      -9.605  10.295  65.859  1.00  0.00    -0.209 C  
BRANCH  17  20
HETATM   20  C   UNL     1      -8.320   8.407  64.800  1.00  0.00    -0.141 A  
HETATM   21  C   UNL     1      -8.363   8.887  63.480  1.00  0.00    -0.168 A  
HETATM   22  C   UNL     1      -8.115   8.067  62.370  1.00  0.00    -0.163 A  
HETATM   23  C   UNL     1      -7.815   6.726  62.558  1.00  0.00    -0.108 A  
HETATM   24  C   UNL     1      -7.772   6.198  63.852  1.00  0.00    -0.106 A  
HETATM   25  C   UNL     1      -7.478   4.741  64.090  1.00  0.00    -0.063 C  
HETATM   26  C   UNL     1      -8.011   7.048  64.953  1.00  0.00    -0.127 A  
HETATM   27  F   UNL     1      -8.491   4.104  64.741  1.00  0.00    -0.107 F  
HETATM   28  F   UNL     1      -6.366   4.544  64.850  1.00  0.00    -0.030 F  
HETATM   29  F   UNL     1      -7.272   4.028  62.943  1.00  0.00    -0.043 F  
ENDBRANCH  17  20
ENDBRANCH  13  14
ENDBRANCH  12  13
ENDBRANCH   9  12
TORSDOF 4
ENDMDL
MODEL      205
REMARK 921   NORMALIZED FREE ENERGY PREDICTED BY IDOCK:   -4.27 KCAL/MOL
REMARK 922        TOTAL FREE ENERGY PREDICTED BY IDOCK:   -5.86 KCAL/MOL
REMARK 923 INTER-LIGAND FREE ENERGY PREDICTED BY IDOCK:   -5.32 KCAL/MOL
REMARK 924 INTRA-LIGAND FREE ENERGY PREDICTED BY IDOCK:   -0.54 KCAL/MOL
REMARK 927      BINDING AFFINITY PREDICTED BY RF-SCORE:    0.00 PKD
ROOT
HETATM    1  C   UNL     1      -7.429  11.626  68.245  1.00  0.00    -0.097 C  
HETATM    2  C   UNL     1      -6.503  11.973  69.439  1.00  0.00    -0.115 C  
HETATM    3  C   UNL     1      -6.147  10.619  70.077  1.00  0.00    -0.099 C  
HETATM    4  C   UNL     1      -7.342   9.709  69.763  1.00  0.00    -0.104 C  
HETATM    5  C   UNL     1      -8.335  10.685  69.162  1.00  0.00    -0.140 C  
HETATM    6  C   UNL     1      -9.389  10.208  68.258  1.00  0.00    -0.133 A  
HETATM    7  N   UNL     1     -10.690  10.074  68.324  1.00  0.00    -0.227 NA 
HETATM    8  N   UNL     1     -11.173  10.255  67.028  1.00  0.00    -0.156 NA 
HETATM    9  C   UNL     1     -10.161  10.566  66.250  1.00  0.00    -0.235 A  
HETATM   10  C   UNL     1      -7.674  10.901  66.868  1.00  0.00    -0.135 C  
HETATM   11  N   UNL     1      -9.030  10.417  66.972  1.00  0.00    -0.139 NA 
ENDROOT
BRANCH   9  12
HETATM   12  C   UNL     1     -10.179  11.019  64.837  1.00  0.00    -0.373 C  
BRANCH  12  13
HETATM   13  C   UNL     1     -11.572  11.532  64.414  1.00  0.00    -0.105 C  
BRANCH  13  14
HETATM   14  N   UNL     1     -11.565  12.982  64.126  1.00  0.00    -0.382 NA 
HETATM   15  C   UNL     1     -12.366  13.770  65.096  1.00  0.00    -0.448 C  
HETATM   16  C   UNL     1     -11.743  13.884  66.504  1.00  0.00    -0.393 C  
HETATM   17  N   UNL     1     -10.409  14.491  66.394  1.00  0.00    -0.286 NA 
HETATM   18  C   UNL     1     -10.187  13.537  64.108  1.00  0.00     0.213 C  
HETATM   19  C   UNL     1      -9.503  13.767  65.485  1.00  0.00     0.181 C  
BRANCH  17  20
HETATM   20  C   UNL     1     -10.017  15.567  67.167  1.00  0.00    -0.242 A  
HETATM   21  C   UNL     1     -10.891  16.631  67.452  1.00  0.00    -0.186 A  
HETATM   22  C   UNL     1     -10.505  17.742  68.214  1.00  0.00    -0.368 A  
HETATM   23  C   UNL     1      -9.214  17.819  68.715  1.00  0.00    -0.217 A  
HETATM   24  C   UNL     1      -8.303  16.792  68.450  1.00  0.00    -0.222 A  
HETATM   25  C   UNL     1      -6.887  16.857  68.954  1.00  0.00    -0.209 C  
HETATM   26  C   UNL     1      -8.721  15.676  67.693  1.00  0.00    -0.182 A  
HETATM   27  F   UNL     1      -5.971  16.824  67.946  1.00  0.00    -0.109 F  
HETATM   28  F   UNL     1      -6.570  15.819  69.776  1.00  0.00    -0.163 F  
HETATM   29  F   UNL     1      -6.609  17.989  69.667  1.00  0.00    -0.252 F  
ENDBRANCH  17  20
ENDBRANCH  13  14
ENDBRANCH  12  13
ENDBRANCH   9  12
TORSDOF 4
ENDMDL
MODEL      206
REMARK 921   NORMALIZED FREE ENERGY PREDICTED BY IDOCK:   -4.19 KCAL/MOL
REMARK 922        TOTAL FREE ENERGY PREDICTED BY IDOCK:   -5.76 KCAL/MOL
REMARK 923 INTER-LIGAND FREE ENERGY PREDICTED BY IDOCK:   -5.13 KCAL/MOL
REMARK 924 INTRA-LIGAND FREE ENERGY PREDICTED BY IDOCK:   -0.64 KCAL/MOL
REMARK 927      BINDING AFFINITY PREDICTED BY RF-SCORE:    0.00 PKD
ROOT
HETATM    1  C   UNL     1      -7.621  15.009  68.158  1.00  0.00    -0.113 C  
HETATM    2  C   UNL     1      -6.095  15.283  68.129  1.00  0.00    -0.139 C  
HETATM    3  C   UNL     1      -5.960  16.758  67.714  1.00  0.00    -0.152 C  
HETATM    4  C   UNL     1      -7.205  17.043  66.864  1.00  0.00    -0.244 C  
HETATM    5  C   UNL     1      -7.811  15.661  66.714  1.00  0.00    -0.211 C  
HETATM    6  C   UNL     1      -9.244  15.506  66.434  1.00  0.00    -0.305 A  
HETATM    7  N   UNL     1      -9.963  15.121  65.410  1.00  0.00    -0.345 NA 
HETATM    8  N   UNL     1     -11.113  14.531  65.933  1.00  0.00    -0.321 NA 
HETATM    9  C   UNL     1     -11.009  14.513  67.242  1.00  0.00    -0.305 A  
HETATM   10  C   UNL     1      -9.055  15.313  68.733  1.00  0.00    -0.200 C  
HETATM   11  N   UNL     1      -9.914  15.228  67.576  1.00  0.00    -0.225 NA 
ENDROOT
BRANCH   9  12
HETATM   12  C   UNL     1     -11.884  13.841  68.236  1.00  0.00    -0.413 C  
BRANCH  12  13
HETATM   13  C   UNL     1     -11.230  12.568  68.812  1.00  0.00    -0.273 C  
BRANCH  13  14
HETATM   14  N   UNL     1     -10.200  12.015  67.908  1.00  0.00    -0.191 NA 
HETATM   15  C   UNL     1      -9.048  11.422  68.633  1.00  0.00    -0.135 C  
HETATM   16  C   UNL     1      -9.356  10.093  69.355  1.00  0.00    -0.219 C  
HETATM   17  N   UNL     1      -9.848   9.114  68.376  1.00  0.00    -0.159 NA 
HETATM   18  C   UNL     1     -10.758  10.977  67.002  1.00  0.00    -0.270 C  
HETATM   19  C   UNL     1     -11.025   9.575  67.620  1.00  0.00    -0.081 C  
BRANCH  17  20
HETATM   20  C   UNL     1      -9.323   7.840  68.272  1.00  0.00    -0.143 A  
HETATM   21  C   UNL     1     -10.147   6.710  68.130  1.00  0.00    -0.174 A  
HETATM   22  C   UNL     1      -9.634   5.408  68.047  1.00  0.00    -0.153 A  
HETATM   23  C   UNL     1      -8.264   5.201  68.109  1.00  0.00    -0.097 A  
HETATM   24  C   UNL     1      -7.403   6.292  68.262  1.00  0.00    -0.086 A  
HETATM   25  C   UNL     1      -5.914   6.101  68.362  1.00  0.00    -0.016 C  
HETATM   26  C   UNL     1      -7.943   7.594  68.328  1.00  0.00    -0.123 A  
HETATM   27  F   UNL     1      -5.404   6.575  69.533  1.00  0.00    -0.011 F  
HETATM   28  F   UNL     1      -5.231   6.743  67.374  1.00  0.00    -0.007 F  
HETATM   29  F   UNL     1      -5.521   4.795  68.291  1.00  0.00    -0.012 F  
ENDBRANCH  17  20
ENDBRANCH  13  14
ENDBRANCH  12  13
ENDBRANCH   9  12
TORSDOF 4
ENDMDL
MODEL      207
REMARK 921   NORMALIZED FREE ENERGY PREDICTED BY IDOCK:   -4.16 KCAL/MOL
REMARK 922        TOTAL FREE ENERGY PREDICTED BY IDOCK:   -5.72 KCAL/MOL
REMARK 923 INTER-LIGAND FREE ENERGY PREDICTED BY IDOCK:   -5.15 KCAL/MOL
REMARK 924 INTRA-LIGAND FREE ENERGY PREDICTED BY IDOCK:   -0.57 KCAL/MOL
REMARK 927      BINDING AFFINITY PREDICTED BY RF-SCORE:    0.00 PKD
ROOT
HETATM    1  C   UNL     1      -9.227   6.906  66.701  1.00  0.00    -0.185 C  
HETATM    2  C   UNL     1      -9.562   5.796  65.672  1.00  0.00     0.129 C  
HETATM    3  C   UNL     1     -10.075   4.612  66.512  1.00  0.00    -0.279 C  
HETATM    4  C   UNL     1      -9.376   4.762  67.870  1.00  0.00    -0.164 C  
HETATM    5  C   UNL     1      -8.394   5.884  67.600  1.00  0.00    -0.104 C  
HETATM    6  C   UNL     1      -7.886   6.708  68.704  1.00  0.00    -0.114 A  
HETATM    7  N   UNL     1      -6.738   6.848  69.318  1.00  0.00    -0.048 NA 
HETATM    8  N   UNL     1      -6.676   8.175  69.744  1.00  0.00    -0.040 NA 
HETATM    9  C   UNL     1      -7.747   8.799  69.307  1.00  0.00    -0.095 A  
HETATM   10  C   UNL     1      -9.675   7.896  67.841  1.00  0.00    -0.155 C  
HETATM   11  N   UNL     1      -8.568   7.873  68.768  1.00  0.00    -0.128 NA 
ENDROOT
BRANCH   9  12
HETATM   12  C   UNL     1      -8.059  10.250  69.347  1.00  0.00    -0.167 C  
BRANCH  12  13
HETATM   13  C   UNL     1      -6.862  11.110  68.892  1.00  0.00    -0.086 C  
BRANCH  13  14
HETATM   14  N   UNL     1      -7.071  11.683  67.545  1.00  0.00    -0.102 NA 
HETATM   15  C   UNL     1      -8.290  12.528  67.456  1.00  0.00    -0.175 C  
HETATM   16  C   UNL     1      -8.191  13.881  68.191  1.00  0.00    -0.158 C  
HETATM   17  N   UNL     1      -7.053  14.641  67.654  1.00  0.00    -0.172 NA 
HETATM   18  C   UNL     1      -5.911  12.500  67.104  1.00  0.00    -0.022 C  
HETATM   19  C   UNL     1      -5.772  13.917  67.729  1.00  0.00    -0.070 C  
BRANCH  17  20
HETATM   20  C   UNL     1      -7.168  15.952  67.235  1.00  0.00    -0.216 A  
HETATM   21  C   UNL     1      -6.038  16.749  66.980  1.00  0.00    -0.218 A  
HETATM   22  C   UNL     1      -6.134  18.088  66.578  1.00  0.00    -0.214 A  
HETATM   23  C   UNL     1      -7.382  18.673  66.421  1.00  0.00    -0.272 A  
HETATM   24  C   UNL     1      -8.536  17.926  66.673  1.00  0.00    -0.283 A  
HETATM   25  C   UNL     1      -9.905  18.537  66.541  1.00  0.00    -0.363 C  
HETATM   26  C   UNL     1      -8.413  16.575  67.062  1.00  0.00    -0.225 A  
HETATM   27  F   UNL     1     -10.609  18.500  67.706  1.00  0.00    -0.383 F  
HETATM   28  F   UNL     1     -10.680  17.903  65.619  1.00  0.00    -0.409 F  
HETATM   29  F   UNL     1      -9.885  19.850  66.164  1.00  0.00    -0.433 F  
ENDBRANCH  17  20
ENDBRANCH  13  14
ENDBRANCH  12  13
ENDBRANCH   9  12
TORSDOF 4
ENDMDL
MODEL      208
REMARK 921   NORMALIZED FREE ENERGY PREDICTED BY IDOCK:   -4.16 KCAL/MOL
REMARK 922        TOTAL FREE ENERGY PREDICTED BY IDOCK:   -5.71 KCAL/MOL
REMARK 923 INTER-LIGAND FREE ENERGY PREDICTED BY IDOCK:   -5.16 KCAL/MOL
REMARK 924 INTRA-LIGAND FREE ENERGY PREDICTED BY IDOCK:   -0.56 KCAL/MOL
REMARK 927      BINDING AFFINITY PREDICTED BY RF-SCORE:    0.00 PKD
ROOT
HETATM    1  C   UNL     1      -6.759   2.888  68.939  1.00  0.00    -0.037 C  
HETATM    2  C   UNL     1      -6.095   1.511  68.684  1.00  0.00    -0.024 C  
HETATM    3  C   UNL     1      -5.749   1.503  67.185  1.00  0.00    -0.018 C  
HETATM    4  C   UNL     1      -6.790   2.425  66.537  1.00  0.00    -0.044 C  
HETATM    5  C   UNL     1      -7.735   2.699  67.690  1.00  0.00    -0.060 C  
HETATM    6  C   UNL     1      -8.567   3.908  67.697  1.00  0.00    -0.101 A  
HETATM    7  N   UNL     1      -9.843   4.169  67.561  1.00  0.00    -0.135 NA 
HETATM    8  N   UNL     1     -10.099   5.307  68.326  1.00  0.00    -0.167 NA 
HETATM    9  C   UNL     1      -8.992   5.642  68.951  1.00  0.00    -0.111 A  
HETATM   10  C   UNL     1      -6.692   4.462  68.935  1.00  0.00    -0.046 C  
HETATM   11  N   UNL     1      -8.001   4.860  68.473  1.00  0.00    -0.084 NA 
ENDROOT
BRANCH   9  12
HETATM   12  C   UNL     1      -8.793   6.666  70.006  1.00  0.00    -0.141 C  
BRANCH  12  13
HETATM   13  C   UNL     1      -7.910   7.833  69.518  1.00  0.00    -0.111 C  
BRANCH  13  14
HETATM   14  N   UNL     1      -8.254   9.106  70.187  1.00  0.00    -0.136 NA 
HETATM   15  C   UNL     1      -7.742  10.298  69.464  1.00  0.00    -0.165 C  
HETATM   16  C   UNL     1      -8.472  10.612  68.140  1.00  0.00    -0.122 C  
HETATM   17  N   UNL     1      -9.903  10.806  68.412  1.00  0.00    -0.163 NA 
HETATM   18  C   UNL     1      -9.721   9.265  70.356  1.00  0.00    -0.244 C  
HETATM   19  C   UNL     1     -10.536   9.663  69.092  1.00  0.00    -0.214 C  
BRANCH  17  20
HETATM   20  C   UNL     1     -10.601  11.909  67.958  1.00  0.00    -0.207 A  
HETATM   21  C   UNL     1     -11.114  11.973  66.651  1.00  0.00    -0.358 A  
HETATM   22  C   UNL     1     -11.803  13.092  66.164  1.00  0.00    -0.466 A  
HETATM   23  C   UNL     1     -11.998  14.193  66.986  1.00  0.00    -0.471 A  
HETATM   24  C   UNL     1     -11.497  14.183  68.291  1.00  0.00    -0.335 A  
HETATM   25  C   UNL     1     -11.665  15.370  69.200  1.00  0.00    -0.345 C  
HETATM   26  C   UNL     1     -10.820  13.037  68.762  1.00  0.00    -0.277 A  
HETATM   27  F   UNL     1     -10.473  15.882  69.616  1.00  0.00    -0.217 F  
HETATM   28  F   UNL     1     -12.358  15.074  70.333  1.00  0.00    -0.303 F  
HETATM   29  F   UNL     1     -12.332  16.413  68.622  1.00  0.00    -0.053 F  
ENDBRANCH  17  20
ENDBRANCH  13  14
ENDBRANCH  12  13
ENDBRANCH   9  12
TORSDOF 4
ENDMDL
MODEL      209
REMARK 921   NORMALIZED FREE ENERGY PREDICTED BY IDOCK:   -4.15 KCAL/MOL
REMARK 922        TOTAL FREE ENERGY PREDICTED BY IDOCK:   -5.71 KCAL/MOL
REMARK 923 INTER-LIGAND FREE ENERGY PREDICTED BY IDOCK:   -5.34 KCAL/MOL
REMARK 924 INTRA-LIGAND FREE ENERGY PREDICTED BY IDOCK:   -0.37 KCAL/MOL
REMARK 927      BINDING AFFINITY PREDICTED BY RF-SCORE:    0.00 PKD
ROOT
HETATM    1  C   UNL     1      -8.537   4.360  66.434  1.00  0.00    -0.112 C  
HETATM    2  C   UNL     1      -8.053   3.413  65.306  1.00  0.00    -0.093 C  
HETATM    3  C   UNL     1      -7.395   4.333  64.263  1.00  0.00    -0.070 C  
HETATM    4  C   UNL     1      -8.116   5.679  64.417  1.00  0.00    -0.128 C  
HETATM    5  C   UNL     1      -9.235   5.333  65.378  1.00  0.00    -0.091 C  
HETATM    6  C   UNL     1      -9.853   6.377  66.205  1.00  0.00     0.009 A  
HETATM    7  N   UNL     1     -11.013   6.983  66.238  1.00  0.00     0.766 NA 
HETATM    8  N   UNL     1     -11.251   7.313  67.572  1.00  0.00    -0.010 NA 
HETATM    9  C   UNL     1     -10.269   6.828  68.298  1.00  0.00    -0.175 A  
HETATM   10  C   UNL     1      -8.230   5.425  67.552  1.00  0.00    -0.100 C  
HETATM   11  N   UNL     1      -9.329   6.355  67.452  1.00  0.00    -0.116 NA 
ENDROOT
BRANCH   9  12
HETATM   12  C   UNL     1     -10.149   6.763  69.776  1.00  0.00    -0.198 C  
BRANCH  12  13
HETATM   13  C   UNL     1     -11.222   7.620  70.480  1.00  0.00    -0.261 C  
BRANCH  13  14
HETATM   14  N   UNL     1     -10.652   8.851  71.067  1.00  0.00    -0.227 NA 
HETATM   15  C   UNL     1      -9.734   9.565  70.142  1.00  0.00    -0.246 C  
HETATM   16  C   UNL     1     -10.431  10.262  68.954  1.00  0.00    -0.211 C  
HETATM   17  N   UNL     1     -11.418  11.222  69.468  1.00  0.00    -0.279 NA 
HETATM   18  C   UNL     1     -11.710   9.804  71.491  1.00  0.00    -0.375 C  
HETATM   19  C   UNL     1     -12.415  10.618  70.369  1.00  0.00    -0.338 C  
BRANCH  17  20
HETATM   20  C   UNL     1     -11.467  12.536  69.043  1.00  0.00    -0.304 A  
HETATM   21  C   UNL     1     -12.014  13.552  69.845  1.00  0.00    -0.416 A  
HETATM   22  C   UNL     1     -12.095  14.886  69.422  1.00  0.00    -0.297 A  
HETATM   23  C   UNL     1     -11.626  15.240  68.165  1.00  0.00    -0.344 A  
HETATM   24  C   UNL     1     -11.084  14.263  67.325  1.00  0.00    -0.315 A  
HETATM   25  C   UNL     1     -10.592  14.607  65.945  1.00  0.00    -0.311 C  
HETATM   26  C   UNL     1     -10.999  12.930  67.780  1.00  0.00    -0.269 A  
HETATM   27  F   UNL     1     -11.249  13.919  64.970  1.00  0.00    -0.305 F  
HETATM   28  F   UNL     1      -9.271  14.329  65.770  1.00  0.00    -0.213 F  
HETATM   29  F   UNL     1     -10.735  15.928  65.625  1.00  0.00    -0.311 F  
ENDBRANCH  17  20
ENDBRANCH  13  14
ENDBRANCH  12  13
ENDBRANCH   9  12
TORSDOF 4
ENDMDL
MODEL      210
REMARK 921   NORMALIZED FREE ENERGY PREDICTED BY IDOCK:   -4.15 KCAL/MOL
REMARK 922        TOTAL FREE ENERGY PREDICTED BY IDOCK:   -5.71 KCAL/MOL
REMARK 923 INTER-LIGAND FREE ENERGY PREDICTED BY IDOCK:   -5.53 KCAL/MOL
REMARK 924 INTRA-LIGAND FREE ENERGY PREDICTED BY IDOCK:   -0.18 KCAL/MOL
REMARK 927      BINDING AFFINITY PREDICTED BY RF-SCORE:    0.00 PKD
ROOT
HETATM    1  C   UNL     1      -9.527   6.872  67.271  1.00  0.00    -0.161 C  
HETATM    2  C   UNL     1     -10.011   6.173  65.975  1.00  0.00     0.135 C  
HETATM    3  C   UNL     1     -10.400   4.749  66.408  1.00  0.00    -0.312 C  
HETATM    4  C   UNL     1      -9.511   4.451  67.623  1.00  0.00    -0.204 C  
HETATM    5  C   UNL     1      -8.574   5.644  67.631  1.00  0.00    -0.108 C  
HETATM    6  C   UNL     1      -7.909   6.056  68.874  1.00  0.00    -0.096 A  
HETATM    7  N   UNL     1      -6.684   6.030  69.334  1.00  0.00    -0.057 NA 
HETATM    8  N   UNL     1      -6.557   7.128  70.185  1.00  0.00    -0.046 NA 
HETATM    9  C   UNL     1      -7.678   7.812  70.146  1.00  0.00    -0.090 A  
HETATM   10  C   UNL     1      -9.801   7.382  68.736  1.00  0.00    -0.164 C  
HETATM   11  N   UNL     1      -8.572   7.092  69.435  1.00  0.00    -0.133 NA 
ENDROOT
BRANCH   9  12
HETATM   12  C   UNL     1      -7.977   9.141  70.735  1.00  0.00    -0.192 C  
BRANCH  12  13
HETATM   13  C   UNL     1      -6.895  10.184  70.383  1.00  0.00    -0.124 C  
BRANCH  13  14
HETATM   14  N   UNL     1      -6.713  10.324  68.923  1.00  0.00    -0.056 NA 
HETATM   15  C   UNL     1      -7.983  10.189  68.164  1.00  0.00    -0.104 C  
HETATM   16  C   UNL     1      -8.956  11.377  68.319  1.00  0.00    -0.175 C  
HETATM   17  N   UNL     1      -8.283  12.612  67.891  1.00  0.00    -0.157 NA 
HETATM   18  C   UNL     1      -6.099  11.629  68.564  1.00  0.00    -0.050 C  
HETATM   19  C   UNL     1      -7.025  12.878  68.609  1.00  0.00    -0.101 C  
BRANCH  17  20
HETATM   20  C   UNL     1      -8.850  13.490  66.987  1.00  0.00    -0.211 A  
HETATM   21  C   UNL     1      -8.445  14.835  66.910  1.00  0.00    -0.230 A  
HETATM   22  C   UNL     1      -9.024  15.747  66.018  1.00  0.00    -0.322 A  
HETATM   23  C   UNL     1     -10.040  15.331  65.169  1.00  0.00    -0.323 A  
HETATM   24  C   UNL     1     -10.485  14.007  65.215  1.00  0.00    -0.398 A  
HETATM   25  C   UNL     1     -11.604  13.530  64.329  1.00  0.00    -0.397 C  
HETATM   26  C   UNL     1      -9.876  13.104  66.112  1.00  0.00    -0.284 A  
HETATM   27  F   UNL     1     -12.666  13.056  65.039  1.00  0.00    -0.487 F  
HETATM   28  F   UNL     1     -11.228  12.517  63.502  1.00  0.00    -0.422 F  
HETATM   29  F   UNL     1     -12.111  14.502  63.514  1.00  0.00    -0.260 F  
ENDBRANCH  17  20
ENDBRANCH  13  14
ENDBRANCH  12  13
ENDBRANCH   9  12
TORSDOF 4
ENDMDL
MODEL      211
REMARK 921   NORMALIZED FREE ENERGY PREDICTED BY IDOCK:   -4.00 KCAL/MOL
REMARK 922        TOTAL FREE ENERGY PREDICTED BY IDOCK:   -5.52 KCAL/MOL
REMARK 923 INTER-LIGAND FREE ENERGY PREDICTED BY IDOCK:   -4.85 KCAL/MOL
REMARK 924 INTRA-LIGAND FREE ENERGY PREDICTED BY IDOCK:   -0.67 KCAL/MOL
REMARK 927      BINDING AFFINITY PREDICTED BY RF-SCORE:    0.00 PKD
ROOT
HETATM    1  C   UNL     1     -11.196  13.300  66.152  1.00  0.00    -0.317 C  
HETATM    2  C   UNL     1     -12.620  13.228  65.544  1.00  0.00    -0.505 C  
HETATM    3  C   UNL     1     -12.598  14.202  64.353  1.00  0.00    -0.198 C  
HETATM    4  C   UNL     1     -11.550  15.258  64.728  1.00  0.00    -0.322 C  
HETATM    5  C   UNL     1     -11.234  14.895  66.166  1.00  0.00    -0.325 C  
HETATM    6  C   UNL     1      -9.949  15.281  66.762  1.00  0.00    -0.242 A  
HETATM    7  N   UNL     1      -9.557  16.139  67.671  1.00  0.00    -0.222 NA 
HETATM    8  N   UNL     1      -8.433  15.582  68.282  1.00  0.00    -0.153 NA 
HETATM    9  C   UNL     1      -8.237  14.386  67.776  1.00  0.00    -0.168 A  
HETATM   10  C   UNL     1      -9.639  13.113  66.015  1.00  0.00    -0.157 C  
HETATM   11  N   UNL     1      -9.093  14.234  66.742  1.00  0.00    -0.257 NA 
ENDROOT
BRANCH   9  12
HETATM   12  C   UNL     1      -7.284  13.335  68.212  1.00  0.00    -0.108 C  
BRANCH  12  13
HETATM   13  C   UNL     1      -7.999  12.171  68.930  1.00  0.00     0.096 C  
BRANCH  13  14
HETATM   14  N   UNL     1      -7.181  10.940  68.940  1.00  0.00    -0.087 NA 
HETATM   15  C   UNL     1      -7.754   9.869  69.796  1.00  0.00    -0.155 C  
HETATM   16  C   UNL     1      -9.030   9.208  69.233  1.00  0.00    -0.145 C  
HETATM   17  N   UNL     1      -8.738   8.644  67.908  1.00  0.00    -0.137 NA 
HETATM   18  C   UNL     1      -6.995  10.387  67.574  1.00  0.00    -0.084 C  
HETATM   19  C   UNL     1      -8.202   9.628  66.952  1.00  0.00    -0.113 C  
BRANCH  17  20
HETATM   20  C   UNL     1      -9.055   7.342  67.569  1.00  0.00    -0.125 A  
HETATM   21  C   UNL     1     -10.360   6.839  67.708  1.00  0.00    -0.245 A  
HETATM   22  C   UNL     1     -10.696   5.516  67.393  1.00  0.00    -0.224 A  
HETATM   23  C   UNL     1      -9.719   4.649  66.926  1.00  0.00    -0.215 A  
HETATM   24  C   UNL     1      -8.403   5.098  66.781  1.00  0.00    -0.107 A  
HETATM   25  C   UNL     1      -7.313   4.177  66.305  1.00  0.00    -0.080 C  
HETATM   26  C   UNL     1      -8.094   6.440  67.091  1.00  0.00    -0.113 A  
HETATM   27  F   UNL     1      -6.306   4.046  67.213  1.00  0.00    -0.032 F  
HETATM   28  F   UNL     1      -6.723   4.606  65.156  1.00  0.00    -0.043 F  
HETATM   29  F   UNL     1      -7.743   2.906  66.046  1.00  0.00    -0.073 F  
ENDBRANCH  17  20
ENDBRANCH  13  14
ENDBRANCH  12  13
ENDBRANCH   9  12
TORSDOF 4
ENDMDL
MODEL      212
REMARK 921   NORMALIZED FREE ENERGY PREDICTED BY IDOCK:   -3.97 KCAL/MOL
REMARK 922        TOTAL FREE ENERGY PREDICTED BY IDOCK:   -5.48 KCAL/MOL
REMARK 923 INTER-LIGAND FREE ENERGY PREDICTED BY IDOCK:   -5.23 KCAL/MOL
REMARK 924 INTRA-LIGAND FREE ENERGY PREDICTED BY IDOCK:   -0.25 KCAL/MOL
REMARK 927      BINDING AFFINITY PREDICTED BY RF-SCORE:    0.00 PKD
ROOT
HETATM    1  C   UNL     1      -9.369  15.239  68.872  1.00  0.00    -0.213 C  
HETATM    2  C   UNL     1      -9.403  16.761  69.167  1.00  0.00    -0.155 C  
HETATM    3  C   UNL     1      -9.470  17.436  67.787  1.00  0.00    -0.261 C  
HETATM    4  C   UNL     1      -8.773  16.455  66.835  1.00  0.00    -0.233 C  
HETATM    5  C   UNL     1      -8.207  15.428  67.796  1.00  0.00    -0.159 C  
HETATM    6  C   UNL     1      -7.916  14.064  67.337  1.00  0.00    -0.175 A  
HETATM    7  N   UNL     1      -6.834  13.361  67.113  1.00  0.00    -0.071 NA 
HETATM    8  N   UNL     1      -7.164  12.032  67.381  1.00  0.00    -0.133 NA 
HETATM    9  C   UNL     1      -8.400  11.994  67.825  1.00  0.00    -0.156 A  
HETATM   10  C   UNL     1     -10.034  13.949  68.262  1.00  0.00    -0.238 C  
HETATM   11  N   UNL     1      -8.923  13.231  67.685  1.00  0.00    -0.187 NA 
ENDROOT
BRANCH   9  12
HETATM   12  C   UNL     1      -9.146  10.849  68.403  1.00  0.00    -0.164 C  
BRANCH  12  13
HETATM   13  C   UNL     1      -9.317   9.701  67.387  1.00  0.00    -0.134 C  
BRANCH  13  14
HETATM   14  N   UNL     1      -8.540   8.502  67.768  1.00  0.00    -0.133 NA 
HETATM   15  C   UNL     1      -8.152   8.493  69.201  1.00  0.00    -0.117 C  
HETATM   16  C   UNL     1      -9.317   8.245  70.183  1.00  0.00    -0.159 C  
HETATM   17  N   UNL     1      -9.955   6.961  69.861  1.00  0.00    -0.175 NA 
HETATM   18  C   UNL     1      -9.282   7.247  67.483  1.00  0.00    -0.130 C  
HETATM   19  C   UNL     1     -10.425   6.867  68.468  1.00  0.00    -0.203 C  
BRANCH  17  20
HETATM   20  C   UNL     1     -10.194   5.991  70.816  1.00  0.00    -0.204 A  
HETATM   21  C   UNL     1     -10.947   6.261  71.972  1.00  0.00    -0.299 A  
HETATM   22  C   UNL     1     -11.179   5.299  72.963  1.00  0.00    -0.387 A  
HETATM   23  C   UNL     1     -10.654   4.022  72.821  1.00  0.00    -0.218 A  
HETATM   24  C   UNL     1      -9.889   3.707  71.695  1.00  0.00    -0.230 A  
HETATM   25  C   UNL     1      -9.281   2.342  71.523  1.00  0.00    -0.104 C  
HETATM   26  C   UNL     1      -9.682   4.690  70.703  1.00  0.00    -0.277 A  
HETATM   27  F   UNL     1      -7.922   2.383  71.426  1.00  0.00    -0.042 F  
HETATM   28  F   UNL     1      -9.713   1.708  70.398  1.00  0.00    -0.183 F  
HETATM   29  F   UNL     1      -9.551   1.487  72.553  1.00  0.00    -0.097 F  
ENDBRANCH  17  20
ENDBRANCH  13  14
ENDBRANCH  12  13
ENDBRANCH   9  12
TORSDOF 4
ENDMDL
MODEL      213
REMARK 921   NORMALIZED FREE ENERGY PREDICTED BY IDOCK:   -3.97 KCAL/MOL
REMARK 922        TOTAL FREE ENERGY PREDICTED BY IDOCK:   -5.48 KCAL/MOL
REMARK 923 INTER-LIGAND FREE ENERGY PREDICTED BY IDOCK:   -5.28 KCAL/MOL
REMARK 924 INTRA-LIGAND FREE ENERGY PREDICTED BY IDOCK:   -0.20 KCAL/MOL
REMARK 927      BINDING AFFINITY PREDICTED BY RF-SCORE:    0.00 PKD
ROOT
HETATM    1  C   UNL     1      -9.146   6.847  69.864  1.00  0.00    -0.144 C  
HETATM    2  C   UNL     1      -9.972   6.122  70.958  1.00  0.00    -0.221 C  
HETATM    3  C   UNL     1      -9.450   6.682  72.292  1.00  0.00    -0.149 C  
HETATM    4  C   UNL     1      -7.994   7.077  72.010  1.00  0.00    -0.094 C  
HETATM    5  C   UNL     1      -7.778   6.520  70.617  1.00  0.00    -0.105 C  
HETATM    6  C   UNL     1      -6.742   7.087  69.744  1.00  0.00    -0.049 A  
HETATM    7  N   UNL     1      -5.585   6.686  69.280  1.00  0.00    -0.014 NA 
HETATM    8  N   UNL     1      -5.427   7.291  68.033  1.00  0.00    -0.024 NA 
HETATM    9  C   UNL     1      -6.521   7.966  67.760  1.00  0.00    -0.052 A  
HETATM   10  C   UNL     1      -8.695   8.173  69.144  1.00  0.00    -0.140 C  
HETATM   11  N   UNL     1      -7.295   7.954  68.866  1.00  0.00    -0.083 NA 
ENDROOT
BRANCH   9  12
HETATM   12  C   UNL     1      -6.911   8.633  66.493  1.00  0.00    -0.079 C  
BRANCH  12  13
HETATM   13  C   UNL     1      -8.438   8.828  66.391  1.00  0.00    -0.121 C  
BRANCH  13  14
HETATM   14  N   UNL     1      -8.792  10.146  65.822  1.00  0.00    -0.152 NA 
HETATM   15  C   UNL     1     -10.237  10.465  65.949  1.00  0.00    -0.234 C  
HETATM   16  C   UNL     1     -10.703  10.781  67.387  1.00  0.00    -0.268 C  
HETATM   17  N   UNL     1      -9.925  11.913  67.909  1.00  0.00    -0.186 NA 
HETATM   18  C   UNL     1      -8.021  11.248  66.454  1.00  0.00    -0.125 C  
HETATM   19  C   UNL     1      -8.469  11.695  67.874  1.00  0.00    -0.148 C  
BRANCH  17  20
HETATM   20  C   UNL     1     -10.520  13.019  68.485  1.00  0.00    -0.249 A  
HETATM   21  C   UNL     1     -11.683  12.909  69.268  1.00  0.00    -0.378 A  
HETATM   22  C   UNL     1     -12.315  14.021  69.841  1.00  0.00    -0.367 A  
HETATM   23  C   UNL     1     -11.792  15.291  69.639  1.00  0.00    -0.363 A  
HETATM   24  C   UNL     1     -10.644  15.454  68.859  1.00  0.00    -0.244 A  
HETATM   25  C   UNL     1     -10.068  16.819  68.595  1.00  0.00    -0.279 C  
HETATM   26  C   UNL     1     -10.018  14.316  68.305  1.00  0.00    -0.239 A  
HETATM   27  F   UNL     1     -10.025  17.121  67.268  1.00  0.00    -0.249 F  
HETATM   28  F   UNL     1      -8.790  16.948  69.046  1.00  0.00    -0.259 F  
HETATM   29  F   UNL     1     -10.770  17.833  69.182  1.00  0.00    -0.270 F  
ENDBRANCH  17  20
ENDBRANCH  13  14
ENDBRANCH  12  13
ENDBRANCH   9  12
TORSDOF 4
ENDMDL
MODEL      214
REMARK 921   NORMALIZED FREE ENERGY PREDICTED BY IDOCK:   -3.94 KCAL/MOL
REMARK 922        TOTAL FREE ENERGY PREDICTED BY IDOCK:   -5.45 KCAL/MOL
REMARK 923 INTER-LIGAND FREE ENERGY PREDICTED BY IDOCK:   -5.03 KCAL/MOL
REMARK 924 INTRA-LIGAND FREE ENERGY PREDICTED BY IDOCK:   -0.42 KCAL/MOL
REMARK 927      BINDING AFFINITY PREDICTED BY RF-SCORE:    0.00 PKD
ROOT
HETATM    1  C   UNL     1      -7.539   4.021  65.551  1.00  0.00    -0.082 C  
HETATM    2  C   UNL     1      -6.911   2.615  65.366  1.00  0.00    -0.052 C  
HETATM    3  C   UNL     1      -7.793   1.916  64.317  1.00  0.00    -0.065 C  
HETATM    4  C   UNL     1      -9.179   2.554  64.480  1.00  0.00    -0.131 C  
HETATM    5  C   UNL     1      -8.997   3.396  65.728  1.00  0.00    -0.143 C  
HETATM    6  C   UNL     1      -9.860   4.558  65.971  1.00  0.00    -0.229 A  
HETATM    7  N   UNL     1     -10.821   4.853  66.811  1.00  0.00     0.047 NA 
HETATM    8  N   UNL     1     -10.753   6.231  67.022  1.00  0.00    -0.324 NA 
HETATM    9  C   UNL     1      -9.715   6.698  66.367  1.00  0.00    -0.070 A  
HETATM   10  C   UNL     1      -7.964   5.418  64.961  1.00  0.00    -0.110 C  
HETATM   11  N   UNL     1      -9.224   5.695  65.609  1.00  0.00    -0.107 NA 
ENDROOT
BRANCH   9  12
HETATM   12  C   UNL     1      -9.122   8.058  66.413  1.00  0.00    -0.226 C  
BRANCH  12  13
HETATM   13  C   UNL     1      -8.764   8.483  67.853  1.00  0.00    -0.138 C  
BRANCH  13  14
HETATM   14  N   UNL     1      -9.550   9.653  68.297  1.00  0.00    -0.140 NA 
HETATM   15  C   UNL     1      -8.802  10.535  69.229  1.00  0.00    -0.122 C  
HETATM   16  C   UNL     1      -7.663  11.346  68.576  1.00  0.00    -0.133 C  
HETATM   17  N   UNL     1      -8.217  12.171  67.493  1.00  0.00    -0.156 NA 
HETATM   18  C   UNL     1     -10.009  10.480  67.150  1.00  0.00    -0.193 C  
HETATM   19  C   UNL     1      -8.949  11.397  66.476  1.00  0.00    -0.189 C  
BRANCH  17  20
HETATM   20  C   UNL     1      -7.964  13.526  67.388  1.00  0.00    -0.156 A  
HETATM   21  C   UNL     1      -6.695  14.064  67.662  1.00  0.00    -0.188 A  
HETATM   22  C   UNL     1      -6.424  15.437  67.585  1.00  0.00    -0.190 A  
HETATM   23  C   UNL     1      -7.434  16.319  67.229  1.00  0.00    -0.212 A  
HETATM   24  C   UNL     1      -8.717  15.835  66.958  1.00  0.00    -0.251 A  
HETATM   25  C   UNL     1      -9.842  16.766  66.597  1.00  0.00    -0.277 C  
HETATM   26  C   UNL     1      -8.959  14.446  67.028  1.00  0.00    -0.257 A  
HETATM   27  F   UNL     1     -10.883  16.691  67.473  1.00  0.00    -0.320 F  
HETATM   28  F   UNL     1     -10.370  16.507  65.370  1.00  0.00    -0.344 F  
HETATM   29  F   UNL     1      -9.478  18.082  66.570  1.00  0.00    -0.270 F  
ENDBRANCH  17  20
ENDBRANCH  13  14
ENDBRANCH  12  13
ENDBRANCH   9  12
TORSDOF 4
ENDMDL
MODEL      215
REMARK 921   NORMALIZED FREE ENERGY PREDICTED BY IDOCK:   -3.90 KCAL/MOL
REMARK 922        TOTAL FREE ENERGY PREDICTED BY IDOCK:   -5.39 KCAL/MOL
REMARK 923 INTER-LIGAND FREE ENERGY PREDICTED BY IDOCK:   -4.73 KCAL/MOL
REMARK 924 INTRA-LIGAND FREE ENERGY PREDICTED BY IDOCK:   -0.66 KCAL/MOL
REMARK 927      BINDING AFFINITY PREDICTED BY RF-SCORE:    0.00 PKD
ROOT
HETATM    1  C   UNL     1     -10.993  13.312  66.080  1.00  0.00    -0.292 C  
HETATM    2  C   UNL     1     -12.453  12.933  65.720  1.00  0.00    -0.327 C  
HETATM    3  C   UNL     1     -12.776  13.741  64.452  1.00  0.00    -0.079 C  
HETATM    4  C   UNL     1     -11.894  14.992  64.547  1.00  0.00    -0.377 C  
HETATM    5  C   UNL     1     -11.316  14.869  65.943  1.00  0.00    -0.306 C  
HETATM    6  C   UNL     1     -10.050  15.530  66.283  1.00  0.00    -0.295 A  
HETATM    7  N   UNL     1      -9.694  16.547  67.028  1.00  0.00    -0.244 NA 
HETATM    8  N   UNL     1      -8.413  16.262  67.501  1.00  0.00    -0.166 NA 
HETATM    9  C   UNL     1      -8.078  15.060  67.089  1.00  0.00    -0.214 A  
HETATM   10  C   UNL     1      -9.463  13.366  65.711  1.00  0.00     0.056 C  
HETATM   11  N   UNL     1      -9.031  14.643  66.227  1.00  0.00    -0.163 NA 
ENDROOT
BRANCH   9  12
HETATM   12  C   UNL     1      -6.899  14.241  67.466  1.00  0.00    -0.158 C  
BRANCH  12  13
HETATM   13  C   UNL     1      -7.224  13.254  68.606  1.00  0.00    -0.106 C  
BRANCH  13  14
HETATM   14  N   UNL     1      -6.811  11.873  68.278  1.00  0.00    -0.062 NA 
HETATM   15  C   UNL     1      -5.899  11.283  69.291  1.00  0.00    -0.049 C  
HETATM   16  C   UNL     1      -6.568  10.934  70.637  1.00  0.00     0.341 C  
HETATM   17  N   UNL     1      -7.673   9.994  70.398  1.00  0.00    -0.244 NA 
HETATM   18  C   UNL     1      -7.979  10.966  68.128  1.00  0.00    -0.117 C  
HETATM   19  C   UNL     1      -8.673  10.491  69.436  1.00  0.00    -0.078 C  
BRANCH  17  20
HETATM   20  C   UNL     1      -7.811   8.815  71.105  1.00  0.00    -0.134 A  
HETATM   21  C   UNL     1      -6.706   7.998  71.402  1.00  0.00    -0.048 A  
HETATM   22  C   UNL     1      -6.828   6.787  72.096  1.00  0.00    -0.063 A  
HETATM   23  C   UNL     1      -8.079   6.355  72.515  1.00  0.00    -0.102 A  
HETATM   24  C   UNL     1      -9.210   7.127  72.234  1.00  0.00    -0.149 A  
HETATM   25  C   UNL     1     -10.584   6.675  72.648  1.00  0.00    -0.222 C  
HETATM   26  C   UNL     1      -9.058   8.350  71.546  1.00  0.00    -0.254 A  
HETATM   27  F   UNL     1     -11.426   6.525  71.588  1.00  0.00    -0.281 F  
HETATM   28  F   UNL     1     -11.198   7.553  73.488  1.00  0.00    -0.395 F  
HETATM   29  F   UNL     1     -10.594   5.474  73.299  1.00  0.00    -0.203 F  
ENDBRANCH  17  20
ENDBRANCH  13  14
ENDBRANCH  12  13
ENDBRANCH   9  12
TORSDOF 4
ENDMDL
MODEL      216
REMARK 921   NORMALIZED FREE ENERGY PREDICTED BY IDOCK:   -3.77 KCAL/MOL
REMARK 922        TOTAL FREE ENERGY PREDICTED BY IDOCK:   -5.24 KCAL/MOL
REMARK 923 INTER-LIGAND FREE ENERGY PREDICTED BY IDOCK:   -5.00 KCAL/MOL
REMARK 924 INTRA-LIGAND FREE ENERGY PREDICTED BY IDOCK:   -0.24 KCAL/MOL
REMARK 927      BINDING AFFINITY PREDICTED BY RF-SCORE:    0.00 PKD
ROOT
HETATM    1  C   UNL     1      -9.913   4.193  71.922  1.00  0.00    -0.253 C  
HETATM    2  C   UNL     1      -9.207   2.864  71.549  1.00  0.00    -0.186 C  
HETATM    3  C   UNL     1      -8.903   2.180  72.893  1.00  0.00    -0.073 C  
HETATM    4  C   UNL     1      -8.750   3.333  73.895  1.00  0.00    -0.076 C  
HETATM    5  C   UNL     1      -8.780   4.548  72.989  1.00  0.00    -0.112 C  
HETATM    6  C   UNL     1      -9.180   5.858  73.517  1.00  0.00    -0.131 A  
HETATM    7  N   UNL     1      -8.574   6.989  73.778  1.00  0.00    -0.136 NA 
HETATM    8  N   UNL     1      -9.516   7.998  73.579  1.00  0.00    -0.247 NA 
HETATM    9  C   UNL     1     -10.623   7.448  73.135  1.00  0.00    -0.374 A  
HETATM   10  C   UNL     1     -11.107   4.966  72.597  1.00  0.00    -0.155 C  
HETATM   11  N   UNL     1     -10.473   6.108  73.212  1.00  0.00    -0.228 NA 
ENDROOT
BRANCH   9  12
HETATM   12  C   UNL     1     -11.847   8.108  72.616  1.00  0.00    -0.389 C  
BRANCH  12  13
HETATM   13  C   UNL     1     -11.694   8.526  71.139  1.00  0.00    -0.281 C  
BRANCH  13  14
HETATM   14  N   UNL     1     -10.278   8.558  70.716  1.00  0.00    -0.192 NA 
HETATM   15  C   UNL     1      -9.832   7.290  70.082  1.00  0.00    -0.179 C  
HETATM   16  C   UNL     1     -10.414   7.033  68.676  1.00  0.00    -0.204 C  
HETATM   17  N   UNL     1     -10.053   8.151  67.792  1.00  0.00    -0.192 NA 
HETATM   18  C   UNL     1     -10.008   9.667  69.764  1.00  0.00    -0.227 C  
HETATM   19  C   UNL     1     -10.484   9.466  68.297  1.00  0.00    -0.217 C  
BRANCH  17  20
HETATM   20  C   UNL     1      -9.473   7.959  66.553  1.00  0.00    -0.214 A  
HETATM   21  C   UNL     1      -9.139   6.677  66.082  1.00  0.00    -0.143 A  
HETATM   22  C   UNL     1      -8.529   6.465  64.839  1.00  0.00     0.003 A  
HETATM   23  C   UNL     1      -8.230   7.547  64.024  1.00  0.00     0.038 A  
HETATM   24  C   UNL     1      -8.531   8.843  64.452  1.00  0.00    -0.170 A  
HETATM   25  C   UNL     1      -8.194  10.041  63.606  1.00  0.00    -0.160 C  
HETATM   26  C   UNL     1      -9.160   9.029  65.701  1.00  0.00    -0.278 A  
HETATM   27  F   UNL     1      -7.350  10.905  64.236  1.00  0.00     0.084 F  
HETATM   28  F   UNL     1      -9.290  10.774  63.267  1.00  0.00    -0.198 F  
HETATM   29  F   UNL     1      -7.584   9.725  62.425  1.00  0.00    -0.109 F  
ENDBRANCH  17  20
ENDBRANCH  13  14
ENDBRANCH  12  13
ENDBRANCH   9  12
TORSDOF 4
ENDMDL
MODEL      217
REMARK 921   NORMALIZED FREE ENERGY PREDICTED BY IDOCK:   -3.57 KCAL/MOL
REMARK 922        TOTAL FREE ENERGY PREDICTED BY IDOCK:   -4.99 KCAL/MOL
REMARK 923 INTER-LIGAND FREE ENERGY PREDICTED BY IDOCK:   -4.76 KCAL/MOL
REMARK 924 INTRA-LIGAND FREE ENERGY PREDICTED BY IDOCK:   -0.23 KCAL/MOL
REMARK 927      BINDING AFFINITY PREDICTED BY RF-SCORE:    0.00 PKD
ROOT
HETATM    1  C   UNL     1      -9.156   3.472  69.719  1.00  0.00    -0.196 C  
HETATM    2  C   UNL     1      -8.879   3.183  68.221  1.00  0.00    -0.163 C  
HETATM    3  C   UNL     1      -8.058   1.882  68.208  1.00  0.00    -0.067 C  
HETATM    4  C   UNL     1      -7.309   1.876  69.548  1.00  0.00    -0.043 C  
HETATM    5  C   UNL     1      -7.619   3.257  70.091  1.00  0.00    -0.044 C  
HETATM    6  C   UNL     1      -7.557   3.518  71.535  1.00  0.00    -0.052 A  
HETATM    7  N   UNL     1      -6.768   4.191  72.333  1.00  0.00    -0.035 NA 
HETATM    8  N   UNL     1      -7.561   4.637  73.391  1.00  0.00    -0.082 NA 
HETATM    9  C   UNL     1      -8.804   4.283  73.152  1.00  0.00    -0.099 A  
HETATM   10  C   UNL     1      -9.782   3.051  71.101  1.00  0.00    -0.122 C  
HETATM   11  N   UNL     1      -8.799   3.479  72.068  1.00  0.00    -0.093 NA 
ENDROOT
BRANCH   9  12
HETATM   12  C   UNL     1     -10.037   4.668  73.883  1.00  0.00    -0.216 C  
BRANCH  12  13
HETATM   13  C   UNL     1     -11.058   5.369  72.963  1.00  0.00    -0.313 C  
BRANCH  13  14
HETATM   14  N   UNL     1     -10.846   6.832  72.913  1.00  0.00    -0.258 NA 
HETATM   15  C   UNL     1      -9.475   7.206  72.484  1.00  0.00    -0.142 C  
HETATM   16  C   UNL     1      -9.174   6.950  70.991  1.00  0.00    -0.156 C  
HETATM   17  N   UNL     1     -10.142   7.691  70.169  1.00  0.00    -0.197 NA 
HETATM   18  C   UNL     1     -11.812   7.500  72.003  1.00  0.00    -0.294 C  
HETATM   19  C   UNL     1     -11.546   7.369  70.476  1.00  0.00    -0.229 C  
BRANCH  17  20
HETATM   20  C   UNL     1      -9.755   8.516  69.131  1.00  0.00    -0.170 A  
HETATM   21  C   UNL     1      -8.630   8.229  68.338  1.00  0.00    -0.133 A  
HETATM   22  C   UNL     1      -8.208   9.065  67.296  1.00  0.00    -0.103 A  
HETATM   23  C   UNL     1      -8.909  10.229  67.019  1.00  0.00    -0.143 A  
HETATM   24  C   UNL     1     -10.028  10.566  67.786  1.00  0.00    -0.198 A  
HETATM   25  C   UNL     1     -10.795  11.835  67.532  1.00  0.00    -0.239 C  
HETATM   26  C   UNL     1     -10.442   9.699  68.820  1.00  0.00    -0.238 A  
HETATM   27  F   UNL     1     -10.817  12.658  68.617  1.00  0.00    -0.230 F  
HETATM   28  F   UNL     1     -12.098  11.610  67.211  1.00  0.00    -0.269 F  
HETATM   29  F   UNL     1     -10.288  12.587  66.510  1.00  0.00    -0.233 F  
ENDBRANCH  17  20
ENDBRANCH  13  14
ENDBRANCH  12  13
ENDBRANCH   9  12
TORSDOF 4
ENDMDL
MODEL      218
REMARK 921   NORMALIZED FREE ENERGY PREDICTED BY IDOCK:   -3.53 KCAL/MOL
REMARK 922        TOTAL FREE ENERGY PREDICTED BY IDOCK:   -4.94 KCAL/MOL
REMARK 923 INTER-LIGAND FREE ENERGY PREDICTED BY IDOCK:   -4.49 KCAL/MOL
REMARK 924 INTRA-LIGAND FREE ENERGY PREDICTED BY IDOCK:   -0.45 KCAL/MOL
REMARK 927      BINDING AFFINITY PREDICTED BY RF-SCORE:    0.00 PKD
ROOT
HETATM    1  C   UNL     1      -8.966   4.451  72.292  1.00  0.00    -0.139 C  
HETATM    2  C   UNL     1      -8.106   3.174  72.115  1.00  0.00    -0.062 C  
HETATM    3  C   UNL     1      -7.719   2.749  73.542  1.00  0.00    -0.052 C  
HETATM    4  C   UNL     1      -7.705   4.054  74.350  1.00  0.00    -0.079 C  
HETATM    5  C   UNL     1      -7.883   5.100  73.267  1.00  0.00    -0.104 C  
HETATM    6  C   UNL     1      -8.437   6.419  73.595  1.00  0.00    -0.122 A  
HETATM    7  N   UNL     1      -7.971   7.641  73.664  1.00  0.00    -0.131 NA 
HETATM    8  N   UNL     1      -9.029   8.488  73.331  1.00  0.00    -0.258 NA 
HETATM    9  C   UNL     1     -10.062   7.747  73.000  1.00  0.00    -0.320 A  
HETATM   10  C   UNL     1     -10.244   5.172  72.863  1.00  0.00    -0.180 C  
HETATM   11  N   UNL     1      -9.752   6.463  73.280  1.00  0.00    -0.158 NA 
ENDROOT
BRANCH   9  12
HETATM   12  C   UNL     1     -11.357   8.168  72.410  1.00  0.00    -0.456 C  
BRANCH  12  13
HETATM   13  C   UNL     1     -11.252   8.388  70.886  1.00  0.00    -0.262 C  
BRANCH  13  14
HETATM   14  N   UNL     1      -9.848   8.500  70.438  1.00  0.00    -0.176 NA 
HETATM   15  C   UNL     1      -9.326   7.245  69.840  1.00  0.00    -0.154 C  
HETATM   16  C   UNL     1      -9.910   6.900  68.453  1.00  0.00    -0.143 C  
HETATM   17  N   UNL     1      -9.639   8.009  67.526  1.00  0.00    -0.148 NA 
HETATM   18  C   UNL     1      -9.668   9.591  69.445  1.00  0.00    -0.183 C  
HETATM   19  C   UNL     1     -10.151   9.308  67.994  1.00  0.00    -0.193 C  
BRANCH  17  20
HETATM   20  C   UNL     1      -9.065   7.815  66.284  1.00  0.00    -0.178 A  
HETATM   21  C   UNL     1      -8.830   8.884  65.403  1.00  0.00    -0.234 A  
HETATM   22  C   UNL     1      -8.273   8.705  64.130  1.00  0.00    -0.156 A  
HETATM   23  C   UNL     1      -7.934   7.430  63.699  1.00  0.00    -0.074 A  
HETATM   24  C   UNL     1      -8.158   6.332  64.535  1.00  0.00    -0.102 A  
HETATM   25  C   UNL     1      -7.829   4.933  64.088  1.00  0.00    -0.092 C  
HETATM   26  C   UNL     1      -8.707   6.541  65.818  1.00  0.00    -0.129 A  
HETATM   27  F   UNL     1      -8.920   4.117  64.081  1.00  0.00    -0.121 F  
HETATM   28  F   UNL     1      -6.916   4.323  64.893  1.00  0.00    -0.049 F  
HETATM   29  F   UNL     1      -7.311   4.867  62.826  1.00  0.00    -0.040 F  
ENDBRANCH  17  20
ENDBRANCH  13  14
ENDBRANCH  12  13
ENDBRANCH   9  12
TORSDOF 4
ENDMDL
MODEL      219
REMARK 921   NORMALIZED FREE ENERGY PREDICTED BY IDOCK:   -3.49 KCAL/MOL
REMARK 922        TOTAL FREE ENERGY PREDICTED BY IDOCK:   -4.90 KCAL/MOL
REMARK 923 INTER-LIGAND FREE ENERGY PREDICTED BY IDOCK:   -5.31 KCAL/MOL
REMARK 924 INTRA-LIGAND FREE ENERGY PREDICTED BY IDOCK:    0.42 KCAL/MOL
REMARK 927      BINDING AFFINITY PREDICTED BY RF-SCORE:    0.00 PKD
ROOT
HETATM    1  C   UNL     1      -6.571   3.020  68.709  1.00  0.00    -0.036 C  
HETATM    2  C   UNL     1      -5.725   1.721  68.685  1.00  0.00    -0.022 C  
HETATM    3  C   UNL     1      -5.128   1.657  67.269  1.00  0.00    -0.005 C  
HETATM    4  C   UNL     1      -6.136   2.400  66.382  1.00  0.00    -0.024 C  
HETATM    5  C   UNL     1      -7.290   2.630  67.339  1.00  0.00    -0.057 C  
HETATM    6  C   UNL     1      -8.239   3.727  67.106  1.00  0.00    -0.095 A  
HETATM    7  N   UNL     1      -9.493   3.819  66.741  1.00  0.00    -0.195 NA 
HETATM    8  N   UNL     1     -10.000   4.965  67.355  1.00  0.00    -0.176 NA 
HETATM    9  C   UNL     1      -9.061   5.473  68.121  1.00  0.00    -0.108 A  
HETATM   10  C   UNL     1      -6.677   4.586  68.582  1.00  0.00    -0.047 C  
HETATM   11  N   UNL     1      -7.922   4.789  67.880  1.00  0.00    -0.089 NA 
ENDROOT
BRANCH   9  12
HETATM   12  C   UNL     1      -9.160   6.581  69.103  1.00  0.00    -0.136 C  
BRANCH  12  13
HETATM   13  C   UNL     1      -7.816   7.317  69.280  1.00  0.00    -0.116 C  
BRANCH  13  14
HETATM   14  N   UNL     1      -7.985   8.630  69.940  1.00  0.00    -0.101 NA 
HETATM   15  C   UNL     1      -7.492   9.762  69.114  1.00  0.00    -0.082 C  
HETATM   16  C   UNL     1      -8.364  10.089  67.883  1.00  0.00    -0.117 C  
HETATM   17  N   UNL     1      -9.732  10.392  68.326  1.00  0.00    -0.148 NA 
HETATM   18  C   UNL     1      -9.404   8.897  70.287  1.00  0.00    -0.185 C  
HETATM   19  C   UNL     1     -10.346   9.316  69.123  1.00  0.00    -0.211 C  
BRANCH  17  20
HETATM   20  C   UNL     1     -10.408  11.528  67.924  1.00  0.00    -0.183 A  
HETATM   21  C   UNL     1     -10.619  12.610  68.796  1.00  0.00    -0.214 A  
HETATM   22  C   UNL     1     -11.323  13.760  68.415  1.00  0.00    -0.326 A  
HETATM   23  C   UNL     1     -11.843  13.857  67.133  1.00  0.00    -0.445 A  
HETATM   24  C   UNL     1     -11.670  12.802  66.231  1.00  0.00    -0.460 A  
HETATM   25  C   UNL     1     -12.246  12.861  64.842  1.00  0.00    -0.453 C  
HETATM   26  C   UNL     1     -10.944  11.661  66.635  1.00  0.00    -0.349 A  
HETATM   27  F   UNL     1     -13.125  11.850  64.598  1.00  0.00    -0.292 F  
HETATM   28  F   UNL     1     -11.296  12.770  63.872  1.00  0.00    -0.370 F  
HETATM   29  F   UNL     1     -12.929  14.015  64.580  1.00  0.00    -0.271 F  
ENDBRANCH  17  20
ENDBRANCH  13  14
ENDBRANCH  12  13
ENDBRANCH   9  12
TORSDOF 4
ENDMDL
MODEL      220
REMARK 921   NORMALIZED FREE ENERGY PREDICTED BY IDOCK:   -3.46 KCAL/MOL
REMARK 922        TOTAL FREE ENERGY PREDICTED BY IDOCK:   -4.85 KCAL/MOL
REMARK 923 INTER-LIGAND FREE ENERGY PREDICTED BY IDOCK:   -4.36 KCAL/MOL
REMARK 924 INTRA-LIGAND FREE ENERGY PREDICTED BY IDOCK:   -0.50 KCAL/MOL
REMARK 927      BINDING AFFINITY PREDICTED BY RF-SCORE:    0.00 PKD
ROOT
HETATM    1  C   UNL     1      -8.766  10.125  68.037  1.00  0.00    -0.122 C  
HETATM    2  C   UNL     1      -7.849  10.151  66.787  1.00  0.00    -0.108 C  
HETATM    3  C   UNL     1      -7.813  11.625  66.347  1.00  0.00     0.035 C  
HETATM    4  C   UNL     1      -9.153  12.208  66.814  1.00  0.00    -0.205 C  
HETATM    5  C   UNL     1      -9.891  10.971  67.286  1.00  0.00    -0.204 C  
HETATM    6  C   UNL     1     -10.975  11.084  68.270  1.00  0.00    -0.235 A  
HETATM    7  N   UNL     1     -12.277  10.948  68.251  1.00  0.00    -0.374 NA 
HETATM    8  N   UNL     1     -12.646  10.491  69.516  1.00  0.00    -0.136 NA 
HETATM    9  C   UNL     1     -11.554  10.296  70.220  1.00  0.00    -0.316 A  
HETATM   10  C   UNL     1      -9.085  10.584  69.510  1.00  0.00    -0.040 C  
HETATM   11  N   UNL     1     -10.515  10.779  69.505  1.00  0.00    -0.204 NA 
ENDROOT
BRANCH   9  12
HETATM   12  C   UNL     1     -11.407   9.658  71.552  1.00  0.00    -0.420 C  
BRANCH  12  13
HETATM   13  C   UNL     1     -12.134   8.299  71.623  1.00  0.00    -0.306 C  
BRANCH  13  14
HETATM   14  N   UNL     1     -11.311   7.264  72.285  1.00  0.00    -0.261 NA 
HETATM   15  C   UNL     1     -11.286   5.978  71.542  1.00  0.00    -0.246 C  
HETATM   16  C   UNL     1     -10.477   6.008  70.228  1.00  0.00    -0.242 C  
HETATM   17  N   UNL     1      -9.093   6.407  70.522  1.00  0.00    -0.154 NA 
HETATM   18  C   UNL     1      -9.907   7.711  72.477  1.00  0.00    -0.196 C  
HETATM   19  C   UNL     1      -8.987   7.698  71.224  1.00  0.00    -0.133 C  
BRANCH  17  20
HETATM   20  C   UNL     1      -8.003   5.689  70.069  1.00  0.00    -0.091 A  
HETATM   21  C   UNL     1      -6.954   5.318  70.929  1.00  0.00    -0.056 A  
HETATM   22  C   UNL     1      -5.828   4.612  70.484  1.00  0.00    -0.017 A  
HETATM   23  C   UNL     1      -5.721   4.257  69.147  1.00  0.00    -0.017 A  
HETATM   24  C   UNL     1      -6.732   4.613  68.250  1.00  0.00    -0.050 A  
HETATM   25  C   UNL     1      -6.634   4.270  66.789  1.00  0.00    -0.046 C  
HETATM   26  C   UNL     1      -7.862   5.311  68.726  1.00  0.00    -0.083 A  
HETATM   27  F   UNL     1      -6.658   5.373  65.990  1.00  0.00    -0.042 F  
HETATM   28  F   UNL     1      -7.657   3.480  66.362  1.00  0.00    -0.073 F  
HETATM   29  F   UNL     1      -5.490   3.600  66.458  1.00  0.00    -0.014 F  
ENDBRANCH  17  20
ENDBRANCH  13  14
ENDBRANCH  12  13
ENDBRANCH   9  12
TORSDOF 4
ENDMDL
MODEL      221
REMARK 921   NORMALIZED FREE ENERGY PREDICTED BY IDOCK:   -3.44 KCAL/MOL
REMARK 922        TOTAL FREE ENERGY PREDICTED BY IDOCK:   -4.83 KCAL/MOL
REMARK 923 INTER-LIGAND FREE ENERGY PREDICTED BY IDOCK:   -4.91 KCAL/MOL
REMARK 924 INTRA-LIGAND FREE ENERGY PREDICTED BY IDOCK:    0.09 KCAL/MOL
REMARK 927      BINDING AFFINITY PREDICTED BY RF-SCORE:    0.00 PKD
ROOT
HETATM    1  C   UNL     1      -6.865  13.792  67.620  1.00  0.00    -0.187 C  
HETATM    2  C   UNL     1      -5.350  14.117  67.687  1.00  0.00     0.079 C  
HETATM    3  C   UNL     1      -5.149  14.813  69.044  1.00  0.00    -0.090 C  
HETATM    4  C   UNL     1      -6.493  15.489  69.344  1.00  0.00    -0.151 C  
HETATM    5  C   UNL     1      -7.249  15.281  68.046  1.00  0.00    -0.138 C  
HETATM    6  C   UNL     1      -8.717  15.292  68.032  1.00  0.00    -0.160 A  
HETATM    7  N   UNL     1      -9.645  16.099  67.580  1.00  0.00    -0.222 NA 
HETATM    8  N   UNL     1     -10.733  15.297  67.236  1.00  0.00    -0.305 NA 
HETATM    9  C   UNL     1     -10.396  14.041  67.420  1.00  0.00    -0.259 A  
HETATM   10  C   UNL     1      -8.134  13.059  68.197  1.00  0.00    -0.155 C  
HETATM   11  N   UNL     1      -9.192  14.026  68.033  1.00  0.00    -0.194 NA 
ENDROOT
BRANCH   9  12
HETATM   12  C   UNL     1     -11.137  12.813  67.039  1.00  0.00    -0.316 C  
BRANCH  12  13
HETATM   13  C   UNL     1     -12.093  12.346  68.157  1.00  0.00    -0.040 C  
BRANCH  13  14
HETATM   14  N   UNL     1     -11.375  12.057  69.416  1.00  0.00    -0.264 NA 
HETATM   15  C   UNL     1     -12.255  11.494  70.471  1.00  0.00    -0.377 C  
HETATM   16  C   UNL     1     -12.720  10.044  70.217  1.00  0.00     0.040 C  
HETATM   17  N   UNL     1     -11.542   9.177  70.077  1.00  0.00    -0.033 NA 
HETATM   18  C   UNL     1     -10.246  11.113  69.207  1.00  0.00    -0.083 C  
HETATM   19  C   UNL     1     -10.609   9.613  69.023  1.00  0.00    -0.218 C  
BRANCH  17  20
HETATM   20  C   UNL     1     -11.397   8.001  70.789  1.00  0.00    -0.272 A  
HETATM   21  C   UNL     1     -12.209   7.703  71.897  1.00  0.00    -0.336 A  
HETATM   22  C   UNL     1     -12.062   6.528  72.646  1.00  0.00     0.084 A  
HETATM   23  C   UNL     1     -11.082   5.609  72.302  1.00  0.00    -0.318 A  
HETATM   24  C   UNL     1     -10.241   5.865  71.214  1.00  0.00    -0.262 A  
HETATM   25  C   UNL     1      -9.149   4.904  70.830  1.00  0.00    -0.142 C  
HETATM   26  C   UNL     1     -10.420   7.049  70.466  1.00  0.00    -0.227 A  
HETATM   27  F   UNL     1      -7.912   5.473  70.877  1.00  0.00    -0.094 F  
HETATM   28  F   UNL     1      -9.289   4.423  69.565  1.00  0.00    -0.150 F  
HETATM   29  F   UNL     1      -9.078   3.803  71.636  1.00  0.00    -0.125 F  
ENDBRANCH  17  20
ENDBRANCH  13  14
ENDBRANCH  12  13
ENDBRANCH   9  12
TORSDOF 4
ENDMDL
MODEL      222
REMARK 921   NORMALIZED FREE ENERGY PREDICTED BY IDOCK:   -3.39 KCAL/MOL
REMARK 922        TOTAL FREE ENERGY PREDICTED BY IDOCK:   -4.77 KCAL/MOL
REMARK 923 INTER-LIGAND FREE ENERGY PREDICTED BY IDOCK:   -4.56 KCAL/MOL
REMARK 924 INTRA-LIGAND FREE ENERGY PREDICTED BY IDOCK:   -0.21 KCAL/MOL
REMARK 927      BINDING AFFINITY PREDICTED BY RF-SCORE:    0.00 PKD
ROOT
HETATM    1  C   UNL     1      -9.890  15.897  68.284  1.00  0.00    -0.217 C  
HETATM    2  C   UNL     1     -10.534  17.307  68.332  1.00  0.00    -0.381 C  
HETATM    3  C   UNL     1     -10.438  17.841  66.892  1.00  0.00    -0.308 C  
HETATM    4  C   UNL     1      -9.203  17.150  66.298  1.00  0.00    -0.260 C  
HETATM    5  C   UNL     1      -8.612  16.458  67.510  1.00  0.00    -0.185 C  
HETATM    6  C   UNL     1      -7.747  15.283  67.345  1.00  0.00    -0.197 A  
HETATM    7  N   UNL     1      -6.472  15.028  67.501  1.00  0.00    -0.283 NA 
HETATM    8  N   UNL     1      -6.379  13.687  67.874  1.00  0.00    -0.142 NA 
HETATM    9  C   UNL     1      -7.597  13.209  68.002  1.00  0.00    -0.144 A  
HETATM   10  C   UNL     1      -9.862  14.424  67.728  1.00  0.00    -0.221 C  
HETATM   11  N   UNL     1      -8.455  14.150  67.555  1.00  0.00    -0.175 NA 
ENDROOT
BRANCH   9  12
HETATM   12  C   UNL     1      -8.028  11.896  68.543  1.00  0.00    -0.137 C  
BRANCH  12  13
HETATM   13  C   UNL     1      -7.481  10.720  67.708  1.00  0.00    -0.094 C  
BRANCH  13  14
HETATM   14  N   UNL     1      -6.419   9.979  68.421  1.00  0.00    -0.053 NA 
HETATM   15  C   UNL     1      -6.404  10.249  69.882  1.00  0.00    -0.082 C  
HETATM   16  C   UNL     1      -7.583   9.631  70.664  1.00  0.00    -0.078 C  
HETATM   17  N   UNL     1      -7.592   8.176  70.456  1.00  0.00    -0.077 NA 
HETATM   18  C   UNL     1      -6.541   8.510  68.226  1.00  0.00    -0.061 C  
HETATM   19  C   UNL     1      -7.650   7.783  69.037  1.00  0.00    -0.100 C  
BRANCH  17  20
HETATM   20  C   UNL     1      -7.662   7.277  71.503  1.00  0.00    -0.087 A  
HETATM   21  C   UNL     1      -6.508   6.820  72.163  1.00  0.00    -0.053 A  
HETATM   22  C   UNL     1      -6.556   5.891  73.210  1.00  0.00    -0.073 A  
HETATM   23  C   UNL     1      -7.779   5.385  73.628  1.00  0.00    -0.102 A  
HETATM   24  C   UNL     1      -8.954   5.800  72.995  1.00  0.00    -0.122 A  
HETATM   25  C   UNL     1     -10.294   5.250  73.403  1.00  0.00    -0.209 C  
HETATM   26  C   UNL     1      -8.880   6.748  71.953  1.00  0.00    -0.135 A  
HETATM   27  F   UNL     1     -10.932   4.616  72.380  1.00  0.00    -0.254 F  
HETATM   28  F   UNL     1     -11.152   6.215  73.834  1.00  0.00    -0.160 F  
HETATM   29  F   UNL     1     -10.227   4.337  74.418  1.00  0.00    -0.172 F  
ENDBRANCH  17  20
ENDBRANCH  13  14
ENDBRANCH  12  13
ENDBRANCH   9  12
TORSDOF 4
ENDMDL
MODEL      223
REMARK 921   NORMALIZED FREE ENERGY PREDICTED BY IDOCK:   -3.37 KCAL/MOL
REMARK 922        TOTAL FREE ENERGY PREDICTED BY IDOCK:   -4.75 KCAL/MOL
REMARK 923 INTER-LIGAND FREE ENERGY PREDICTED BY IDOCK:   -4.79 KCAL/MOL
REMARK 924 INTRA-LIGAND FREE ENERGY PREDICTED BY IDOCK:    0.04 KCAL/MOL
REMARK 927      BINDING AFFINITY PREDICTED BY RF-SCORE:    0.00 PKD
ROOT
HETATM    1  C   UNL     1      -7.454   8.921  70.995  1.00  0.00    -0.124 C  
HETATM    2  C   UNL     1      -7.331   8.248  72.386  1.00  0.00    -0.140 C  
HETATM    3  C   UNL     1      -6.014   8.784  72.976  1.00  0.00    -0.077 C  
HETATM    4  C   UNL     1      -5.136   9.096  71.757  1.00  0.00    -0.047 C  
HETATM    5  C   UNL     1      -5.956   8.521  70.619  1.00  0.00    -0.032 C  
HETATM    6  C   UNL     1      -5.782   9.026  69.250  1.00  0.00    -0.035 A  
HETATM    7  N   UNL     1      -5.275   8.559  68.137  1.00  0.00    -0.034 NA 
HETATM    8  N   UNL     1      -5.995   9.148  67.097  1.00  0.00    -0.049 NA 
HETATM    9  C   UNL     1      -6.951   9.882  67.620  1.00  0.00    -0.086 A  
HETATM   10  C   UNL     1      -7.572  10.216  70.107  1.00  0.00    -0.104 C  
HETATM   11  N   UNL     1      -6.754   9.918  68.956  1.00  0.00    -0.052 NA 
ENDROOT
BRANCH   9  12
HETATM   12  C   UNL     1      -8.079  10.564  66.938  1.00  0.00    -0.120 C  
BRANCH  12  13
HETATM   13  C   UNL     1      -8.681   9.697  65.813  1.00  0.00    -0.147 C  
BRANCH  13  14
HETATM   14  N   UNL     1     -10.044   9.228  66.143  1.00  0.00    -0.276 NA 
HETATM   15  C   UNL     1     -10.061   7.869  66.743  1.00  0.00    -0.281 C  
HETATM   16  C   UNL     1      -9.513   7.793  68.184  1.00  0.00    -0.146 C  
HETATM   17  N   UNL     1     -10.290   8.695  69.045  1.00  0.00    -0.212 NA 
HETATM   18  C   UNL     1     -10.736  10.152  67.079  1.00  0.00    -0.196 C  
HETATM   19  C   UNL     1     -10.310  10.091  68.573  1.00  0.00    -0.193 C  
BRANCH  17  20
HETATM   20  C   UNL     1     -10.841   8.285  70.243  1.00  0.00    -0.240 A  
HETATM   21  C   UNL     1     -11.817   9.048  70.908  1.00  0.00    -0.302 A  
HETATM   22  C   UNL     1     -12.370   8.662  72.136  1.00  0.00    -0.452 A  
HETATM   23  C   UNL     1     -11.953   7.484  72.740  1.00  0.00    -0.071 A  
HETATM   24  C   UNL     1     -10.977   6.695  72.124  1.00  0.00    -0.277 A  
HETATM   25  C   UNL     1     -10.481   5.428  72.765  1.00  0.00    -0.213 C  
HETATM   26  C   UNL     1     -10.446   7.099  70.880  1.00  0.00    -0.225 A  
HETATM   27  F   UNL     1      -9.141   5.456  73.010  1.00  0.00    -0.128 F  
HETATM   28  F   UNL     1     -10.694   4.327  71.993  1.00  0.00    -0.204 F  
HETATM   29  F   UNL     1     -11.070   5.153  73.967  1.00  0.00    -0.330 F  
ENDBRANCH  17  20
ENDBRANCH  13  14
ENDBRANCH  12  13
ENDBRANCH   9  12
TORSDOF 4
ENDMDL
MODEL      224
REMARK 921   NORMALIZED FREE ENERGY PREDICTED BY IDOCK:   -3.27 KCAL/MOL
REMARK 922        TOTAL FREE ENERGY PREDICTED BY IDOCK:   -4.62 KCAL/MOL
REMARK 923 INTER-LIGAND FREE ENERGY PREDICTED BY IDOCK:   -4.25 KCAL/MOL
REMARK 924 INTRA-LIGAND FREE ENERGY PREDICTED BY IDOCK:   -0.38 KCAL/MOL
REMARK 927      BINDING AFFINITY PREDICTED BY RF-SCORE:    0.00 PKD
ROOT
HETATM    1  C   UNL     1     -11.362  11.409  64.181  1.00  0.00    -0.263 C  
HETATM    2  C   UNL     1     -12.711  11.954  63.646  1.00  0.00    -0.509 C  
HETATM    3  C   UNL     1     -12.642  13.476  63.858  1.00  0.00    -0.156 C  
HETATM    4  C   UNL     1     -11.713  13.663  65.065  1.00  0.00    -0.354 C  
HETATM    5  C   UNL     1     -11.514  12.236  65.537  1.00  0.00    -0.408 C  
HETATM    6  C   UNL     1     -10.324  11.872  66.317  1.00  0.00    -0.224 A  
HETATM    7  N   UNL     1     -10.085  11.531  67.558  1.00  0.00    -0.182 NA 
HETATM    8  N   UNL     1      -8.989  10.667  67.528  1.00  0.00    -0.135 NA 
HETATM    9  C   UNL     1      -8.661  10.462  66.272  1.00  0.00    -0.142 A  
HETATM   10  C   UNL     1      -9.789  11.355  64.125  1.00  0.00    -0.268 C  
HETATM   11  N   UNL     1      -9.398  11.300  65.514  1.00  0.00    -0.222 NA 
ENDROOT
BRANCH   9  12
HETATM   12  C   UNL     1      -7.683   9.495  65.713  1.00  0.00    -0.100 C  
BRANCH  12  13
HETATM   13  C   UNL     1      -8.304   8.097  65.513  1.00  0.00    -0.153 C  
BRANCH  13  14
HETATM   14  N   UNL     1      -7.410   7.019  65.986  1.00  0.00    -0.074 NA 
HETATM   15  C   UNL     1      -6.352   7.506  66.908  1.00  0.00    -0.049 C  
HETATM   16  C   UNL     1      -6.857   7.920  68.307  1.00  0.00    -0.071 C  
HETATM   17  N   UNL     1      -7.536   6.777  68.934  1.00  0.00    -0.102 NA 
HETATM   18  C   UNL     1      -8.161   5.939  66.677  1.00  0.00    -0.106 C  
HETATM   19  C   UNL     1      -8.641   6.232  68.126  1.00  0.00    -0.116 C  
BRANCH  17  20
HETATM   20  C   UNL     1      -7.236   6.345  70.211  1.00  0.00    -0.080 A  
HETATM   21  C   UNL     1      -6.497   7.138  71.106  1.00  0.00    -0.044 A  
HETATM   22  C   UNL     1      -6.161   6.707  72.396  1.00  0.00    -0.046 A  
HETATM   23  C   UNL     1      -6.560   5.451  72.829  1.00  0.00    -0.070 A  
HETATM   24  C   UNL     1      -7.287   4.619  71.973  1.00  0.00    -0.072 A  
HETATM   25  C   UNL     1      -7.711   3.240  72.400  1.00  0.00    -0.058 C  
HETATM   26  C   UNL     1      -7.626   5.083  70.683  1.00  0.00    -0.070 A  
HETATM   27  F   UNL     1      -7.206   2.265  71.593  1.00  0.00    -0.032 F  
HETATM   28  F   UNL     1      -9.062   3.073  72.382  1.00  0.00    -0.101 F  
HETATM   29  F   UNL     1      -7.316   2.912  73.666  1.00  0.00    -0.040 F  
ENDBRANCH  17  20
ENDBRANCH  13  14
ENDBRANCH  12  13
ENDBRANCH   9  12
TORSDOF 4
ENDMDL
MODEL      225
REMARK 921   NORMALIZED FREE ENERGY PREDICTED BY IDOCK:   -3.19 KCAL/MOL
REMARK 922        TOTAL FREE ENERGY PREDICTED BY IDOCK:   -4.53 KCAL/MOL
REMARK 923 INTER-LIGAND FREE ENERGY PREDICTED BY IDOCK:   -3.94 KCAL/MOL
REMARK 924 INTRA-LIGAND FREE ENERGY PREDICTED BY IDOCK:   -0.59 KCAL/MOL
REMARK 927      BINDING AFFINITY PREDICTED BY RF-SCORE:    0.00 PKD
ROOT
HETATM    1  C   UNL     1      -9.770   4.672  73.879  1.00  0.00    -0.154 C  
HETATM    2  C   UNL     1      -8.848   3.561  74.443  1.00  0.00    -0.092 C  
HETATM    3  C   UNL     1      -7.418   4.103  74.277  1.00  0.00    -0.075 C  
HETATM    4  C   UNL     1      -7.492   5.044  73.067  1.00  0.00    -0.092 C  
HETATM    5  C   UNL     1      -8.893   4.786  72.550  1.00  0.00    -0.125 C  
HETATM    6  C   UNL     1      -9.586   5.802  71.748  1.00  0.00    -0.155 A  
HETATM    7  N   UNL     1      -9.945   5.923  70.494  1.00  0.00    -0.182 NA 
HETATM    8  N   UNL     1     -11.108   6.694  70.487  1.00  0.00    -0.283 NA 
HETATM    9  C   UNL     1     -11.446   6.941  71.732  1.00  0.00    -0.275 A  
HETATM   10  C   UNL     1     -10.314   6.149  73.917  1.00  0.00    -0.294 C  
HETATM   11  N   UNL     1     -10.444   6.503  72.524  1.00  0.00    -0.199 NA 
ENDROOT
BRANCH   9  12
HETATM   12  C   UNL     1     -12.687   7.568  72.252  1.00  0.00    -0.070 C  
BRANCH  12  13
HETATM   13  C   UNL     1     -12.516   9.084  72.480  1.00  0.00    -0.239 C  
BRANCH  13  14
HETATM   14  N   UNL     1     -13.334   9.883  71.544  1.00  0.00    -0.385 NA 
HETATM   15  C   UNL     1     -13.340  11.332  71.867  1.00  0.00    -0.307 C  
HETATM   16  C   UNL     1     -12.010  12.062  71.579  1.00  0.00     0.993 C  
HETATM   17  N   UNL     1     -11.668  11.900  70.159  1.00  0.00    -0.295 NA 
HETATM   18  C   UNL     1     -12.878   9.727  70.138  1.00  0.00     0.417 C  
HETATM   19  C   UNL     1     -11.589  10.494  69.728  1.00  0.00    -0.294 C  
BRANCH  17  20
HETATM   20  C   UNL     1     -11.335  12.969  69.349  1.00  0.00    -0.206 A  
HETATM   21  C   UNL     1     -12.281  13.941  68.982  1.00  0.00    -0.274 A  
HETATM   22  C   UNL     1     -11.970  15.018  68.142  1.00  0.00    -0.195 A  
HETATM   23  C   UNL     1     -10.683  15.151  67.639  1.00  0.00    -0.285 A  
HETATM   24  C   UNL     1      -9.708  14.203  67.966  1.00  0.00    -0.226 A  
HETATM   25  C   UNL     1      -8.312  14.300  67.415  1.00  0.00    -0.198 C  
HETATM   26  C   UNL     1     -10.044  13.136  68.826  1.00  0.00    -0.072 A  
HETATM   27  F   UNL     1      -7.963  13.208  66.680  1.00  0.00    -0.031 F  
HETATM   28  F   UNL     1      -7.366  14.410  68.388  1.00  0.00    -0.094 F  
HETATM   29  F   UNL     1      -8.119  15.374  66.593  1.00  0.00    -0.251 F  
ENDBRANCH  17  20
ENDBRANCH  13  14
ENDBRANCH  12  13
ENDBRANCH   9  12
TORSDOF 4
ENDMDL
MODEL      226
REMARK 921   NORMALIZED FREE ENERGY PREDICTED BY IDOCK:   -3.11 KCAL/MOL
REMARK 922        TOTAL FREE ENERGY PREDICTED BY IDOCK:   -4.42 KCAL/MOL
REMARK 923 INTER-LIGAND FREE ENERGY PREDICTED BY IDOCK:   -4.22 KCAL/MOL
REMARK 924 INTRA-LIGAND FREE ENERGY PREDICTED BY IDOCK:   -0.20 KCAL/MOL
REMARK 927      BINDING AFFINITY PREDICTED BY RF-SCORE:    0.00 PKD
ROOT
HETATM    1  C   UNL     1      -6.906  11.796  67.105  1.00  0.00    -0.148 C  
HETATM    2  C   UNL     1      -5.641  12.677  67.273  1.00  0.00    -0.034 C  
HETATM    3  C   UNL     1      -5.446  12.814  68.793  1.00  0.00    -0.066 C  
HETATM    4  C   UNL     1      -6.856  12.686  69.384  1.00  0.00     0.038 C  
HETATM    5  C   UNL     1      -7.724  12.693  68.140  1.00  0.00    -0.142 C  
HETATM    6  C   UNL     1      -9.061  12.087  68.165  1.00  0.00    -0.191 A  
HETATM    7  N   UNL     1     -10.292  12.530  68.126  1.00  0.00    -0.225 NA 
HETATM    8  N   UNL     1     -11.049  11.544  67.493  1.00  0.00    -0.254 NA 
HETATM    9  C   UNL     1     -10.237  10.584  67.109  1.00  0.00    -0.223 A  
HETATM   10  C   UNL     1      -7.667  10.436  67.336  1.00  0.00    -0.095 C  
HETATM   11  N   UNL     1      -9.019  10.846  67.629  1.00  0.00    -0.140 NA 
ENDROOT
BRANCH   9  12
HETATM   12  C   UNL     1     -10.528   9.409  66.251  1.00  0.00    -0.112 C  
BRANCH  12  13
HETATM   13  C   UNL     1      -9.483   8.288  66.435  1.00  0.00    -0.221 C  
BRANCH  13  14
HETATM   14  N   UNL     1     -10.065   7.085  67.066  1.00  0.00    -0.207 NA 
HETATM   15  C   UNL     1      -9.055   6.036  67.358  1.00  0.00    -0.106 C  
HETATM   16  C   UNL     1      -8.092   6.372  68.516  1.00  0.00    -0.110 C  
HETATM   17  N   UNL     1      -8.873   6.624  69.736  1.00  0.00    -0.143 NA 
HETATM   18  C   UNL     1     -10.771   7.409  68.332  1.00  0.00    -0.096 C  
HETATM   19  C   UNL     1      -9.886   7.683  69.581  1.00  0.00    -0.181 C  
BRANCH  17  20
HETATM   20  C   UNL     1      -8.592   6.005  70.938  1.00  0.00    -0.131 A  
HETATM   21  C   UNL     1      -7.368   6.199  71.602  1.00  0.00    -0.089 A  
HETATM   22  C   UNL     1      -7.054   5.561  72.809  1.00  0.00    -0.089 A  
HETATM   23  C   UNL     1      -7.971   4.697  73.391  1.00  0.00    -0.099 A  
HETATM   24  C   UNL     1      -9.198   4.462  72.764  1.00  0.00    -0.145 A  
HETATM   25  C   UNL     1     -10.203   3.509  73.353  1.00  0.00    -0.148 C  
HETATM   26  C   UNL     1      -9.496   5.128  71.557  1.00  0.00    -0.197 A  
HETATM   27  F   UNL     1     -10.501   2.479  72.512  1.00  0.00    -0.223 F  
HETATM   28  F   UNL     1     -11.391   4.107  73.642  1.00  0.00    -0.324 F  
HETATM   29  F   UNL     1      -9.791   2.926  74.517  1.00  0.00    -0.118 F  
ENDBRANCH  17  20
ENDBRANCH  13  14
ENDBRANCH  12  13
ENDBRANCH   9  12
TORSDOF 4
ENDMDL
MODEL      227
REMARK 921   NORMALIZED FREE ENERGY PREDICTED BY IDOCK:   -3.05 KCAL/MOL
REMARK 922        TOTAL FREE ENERGY PREDICTED BY IDOCK:   -4.35 KCAL/MOL
REMARK 923 INTER-LIGAND FREE ENERGY PREDICTED BY IDOCK:   -5.03 KCAL/MOL
REMARK 924 INTRA-LIGAND FREE ENERGY PREDICTED BY IDOCK:    0.68 KCAL/MOL
REMARK 927      BINDING AFFINITY PREDICTED BY RF-SCORE:    0.00 PKD
ROOT
HETATM    1  C   UNL     1      -6.521  18.748  65.549  1.00  0.00    -0.317 C  
HETATM    2  C   UNL     1      -6.088  19.958  64.682  1.00  0.00    -0.316 C  
HETATM    3  C   UNL     1      -5.271  20.857  65.627  1.00  0.00    -0.237 C  
HETATM    4  C   UNL     1      -5.838  20.576  67.025  1.00  0.00    -0.222 C  
HETATM    5  C   UNL     1      -7.042  19.709  66.711  1.00  0.00    -0.232 C  
HETATM    6  C   UNL     1      -7.579  18.792  67.724  1.00  0.00    -0.229 A  
HETATM    7  N   UNL     1      -8.662  18.736  68.459  1.00  0.00    -0.340 NA 
HETATM    8  N   UNL     1      -8.933  17.383  68.663  1.00  0.00    -0.270 NA 
HETATM    9  C   UNL     1      -8.055  16.679  67.985  1.00  0.00    -0.180 A  
HETATM   10  C   UNL     1      -6.155  17.499  66.437  1.00  0.00    -0.224 C  
HETATM   11  N   UNL     1      -7.132  17.536  67.499  1.00  0.00    -0.166 NA 
ENDROOT
BRANCH   9  12
HETATM   12  C   UNL     1      -8.026  15.215  67.741  1.00  0.00    -0.155 C  
BRANCH  12  13
HETATM   13  C   UNL     1      -6.602  14.712  67.425  1.00  0.00     0.040 C  
BRANCH  13  14
HETATM   14  N   UNL     1      -6.257  13.501  68.199  1.00  0.00    -0.100 NA 
HETATM   15  C   UNL     1      -7.287  13.143  69.207  1.00  0.00     0.227 C  
HETATM   16  C   UNL     1      -8.601  12.587  68.616  1.00  0.00     0.045 C  
HETATM   17  N   UNL     1      -8.301  11.396  67.808  1.00  0.00    -0.123 NA 
HETATM   18  C   UNL     1      -6.045  12.323  67.318  1.00  0.00    -0.153 C  
HETATM   19  C   UNL     1      -7.317  11.640  66.739  1.00  0.00    -0.083 C  
BRANCH  17  20
HETATM   20  C   UNL     1      -8.976  10.201  67.969  1.00  0.00    -0.125 A  
HETATM   21  C   UNL     1      -9.731   9.632  66.929  1.00  0.00    -0.240 A  
HETATM   22  C   UNL     1     -10.442   8.434  67.080  1.00  0.00    -0.380 A  
HETATM   23  C   UNL     1     -10.417   7.766  68.296  1.00  0.00    -0.215 A  
HETATM   24  C   UNL     1      -9.689   8.297  69.365  1.00  0.00    -0.177 A  
HETATM   25  C   UNL     1      -9.664   7.614  70.706  1.00  0.00    -0.173 C  
HETATM   26  C   UNL     1      -8.970   9.497  69.182  1.00  0.00    -0.148 A  
HETATM   27  F   UNL     1     -10.148   8.404  71.704  1.00  0.00    -0.224 F  
HETATM   28  F   UNL     1      -8.409   7.256  71.092  1.00  0.00    -0.108 F  
HETATM   29  F   UNL     1     -10.404   6.467  70.751  1.00  0.00    -0.207 F  
ENDBRANCH  17  20
ENDBRANCH  13  14
ENDBRANCH  12  13
ENDBRANCH   9  12
TORSDOF 4
ENDMDL
MODEL      228
REMARK 921   NORMALIZED FREE ENERGY PREDICTED BY IDOCK:   -2.86 KCAL/MOL
REMARK 922        TOTAL FREE ENERGY PREDICTED BY IDOCK:   -4.12 KCAL/MOL
REMARK 923 INTER-LIGAND FREE ENERGY PREDICTED BY IDOCK:   -4.50 KCAL/MOL
REMARK 924 INTRA-LIGAND FREE ENERGY PREDICTED BY IDOCK:    0.38 KCAL/MOL
REMARK 927      BINDING AFFINITY PREDICTED BY RF-SCORE:    0.00 PKD
ROOT
HETATM    1  C   UNL     1      -9.339   3.669  67.482  1.00  0.00    -0.244 C  
HETATM    2  C   UNL     1      -9.283   3.218  66.000  1.00  0.00    -0.151 C  
HETATM    3  C   UNL     1      -8.812   4.458  65.220  1.00  0.00    -0.135 C  
HETATM    4  C   UNL     1      -9.299   5.652  66.051  1.00  0.00    -0.150 C  
HETATM    5  C   UNL     1     -10.164   4.980  67.099  1.00  0.00    -0.234 C  
HETATM    6  C   UNL     1     -10.414   5.637  68.388  1.00  0.00    -0.195 A  
HETATM    7  N   UNL     1     -11.444   6.200  68.968  1.00  0.00    -0.208 NA 
HETATM    8  N   UNL     1     -11.285   5.998  70.339  1.00  0.00    -0.337 NA 
HETATM    9  C   UNL     1     -10.214   5.260  70.526  1.00  0.00    -0.264 A  
HETATM   10  C   UNL     1      -8.624   4.221  68.772  1.00  0.00    -0.085 C  
HETATM   11  N   UNL     1      -9.591   5.134  69.335  1.00  0.00    -0.146 NA 
ENDROOT
BRANCH   9  12
HETATM   12  C   UNL     1      -9.723   4.634  71.779  1.00  0.00    -0.230 C  
BRANCH  12  13
HETATM   13  C   UNL     1     -10.013   5.512  73.015  1.00  0.00    -0.176 C  
BRANCH  13  14
HETATM   14  N   UNL     1      -8.809   6.232  73.480  1.00  0.00    -0.124 NA 
HETATM   15  C   UNL     1      -7.646   6.066  72.571  1.00  0.00    -0.099 C  
HETATM   16  C   UNL     1      -7.768   6.812  71.225  1.00  0.00    -0.093 C  
HETATM   17  N   UNL     1      -7.961   8.246  71.484  1.00  0.00    -0.112 NA 
HETATM   18  C   UNL     1      -9.061   7.687  73.643  1.00  0.00    -0.272 C  
HETATM   19  C   UNL     1      -9.119   8.541  72.345  1.00  0.00    -0.238 C  
BRANCH  17  20
HETATM   20  C   UNL     1      -7.195   9.220  70.872  1.00  0.00    -0.102 A  
HETATM   21  C   UNL     1      -5.928   9.582  71.365  1.00  0.00    -0.052 A  
HETATM   22  C   UNL     1      -5.147  10.584  70.774  1.00  0.00    -0.077 A  
HETATM   23  C   UNL     1      -5.621  11.261  69.659  1.00  0.00    -0.061 A  
HETATM   24  C   UNL     1      -6.880  10.946  69.138  1.00  0.00    -0.086 A  
HETATM   25  C   UNL     1      -7.437  11.680  67.949  1.00  0.00    -0.105 C  
HETATM   26  C   UNL     1      -7.641   9.922  69.743  1.00  0.00    -0.151 A  
HETATM   27  F   UNL     1      -8.612  12.310  68.228  1.00  0.00    -0.158 F  
HETATM   28  F   UNL     1      -7.698  10.858  66.896  1.00  0.00    -0.112 F  
HETATM   29  F   UNL     1      -6.605  12.648  67.463  1.00  0.00    -0.098 F  
ENDBRANCH  17  20
ENDBRANCH  13  14
ENDBRANCH  12  13
ENDBRANCH   9  12
TORSDOF 4
ENDMDL
MODEL      229
REMARK 921   NORMALIZED FREE ENERGY PREDICTED BY IDOCK:   -2.77 KCAL/MOL
REMARK 922        TOTAL FREE ENERGY PREDICTED BY IDOCK:   -4.00 KCAL/MOL
REMARK 923 INTER-LIGAND FREE ENERGY PREDICTED BY IDOCK:   -3.58 KCAL/MOL
REMARK 924 INTRA-LIGAND FREE ENERGY PREDICTED BY IDOCK:   -0.43 KCAL/MOL
REMARK 927      BINDING AFFINITY PREDICTED BY RF-SCORE:    0.00 PKD
ROOT
HETATM    1  C   UNL     1     -11.177  12.859  69.769  1.00  0.00    -0.001 C  
HETATM    2  C   UNL     1     -12.063  14.048  70.221  1.00  0.00    -0.425 C  
HETATM    3  C   UNL     1     -12.679  14.605  68.926  1.00  0.00     0.521 C  
HETATM    4  C   UNL     1     -11.658  14.272  67.830  1.00  0.00    -0.367 C  
HETATM    5  C   UNL     1     -10.486  13.747  68.636  1.00  0.00    -0.245 C  
HETATM    6  C   UNL     1      -9.506  12.844  68.019  1.00  0.00    -0.213 A  
HETATM    7  N   UNL     1      -8.254  12.934  67.647  1.00  0.00    -0.163 NA 
HETATM    8  N   UNL     1      -7.704  11.661  67.798  1.00  0.00    -0.119 NA 
HETATM    9  C   UNL     1      -8.617  10.876  68.325  1.00  0.00    -0.139 A  
HETATM   10  C   UNL     1     -11.022  11.453  69.078  1.00  0.00    -0.236 C  
HETATM   11  N   UNL     1      -9.780  11.562  68.351  1.00  0.00    -0.197 NA 
ENDROOT
BRANCH   9  12
HETATM   12  C   UNL     1      -8.471   9.490  68.834  1.00  0.00    -0.123 C  
BRANCH  12  13
HETATM   13  C   UNL     1      -7.140   9.289  69.587  1.00  0.00    -0.061 C  
BRANCH  13  14
HETATM   14  N   UNL     1      -6.667   7.890  69.515  1.00  0.00    -0.042 NA 
HETATM   15  C   UNL     1      -5.858   7.489  70.695  1.00  0.00    -0.030 C  
HETATM   16  C   UNL     1      -6.663   7.320  72.001  1.00  0.00    -0.055 C  
HETATM   17  N   UNL     1      -7.717   6.317  71.792  1.00  0.00    -0.099 NA 
HETATM   18  C   UNL     1      -7.795   6.931  69.383  1.00  0.00    -0.113 C  
HETATM   19  C   UNL     1      -8.617   6.630  70.668  1.00  0.00    -0.142 C  
BRANCH  17  20
HETATM   20  C   UNL     1      -7.908   5.251  72.651  1.00  0.00    -0.099 A  
HETATM   21  C   UNL     1      -6.926   4.865  73.580  1.00  0.00    -0.072 A  
HETATM   22  C   UNL     1      -7.091   3.773  74.442  1.00  0.00    -0.053 A  
HETATM   23  C   UNL     1      -8.259   3.026  74.393  1.00  0.00    -0.069 A  
HETATM   24  C   UNL     1      -9.261   3.362  73.478  1.00  0.00    -0.106 A  
HETATM   25  C   UNL     1     -10.528   2.557  73.379  1.00  0.00    -0.140 C  
HETATM   26  C   UNL     1      -9.077   4.477  72.632  1.00  0.00    -0.137 A  
HETATM   27  F   UNL     1     -10.710   2.020  72.140  1.00  0.00    -0.215 F  
HETATM   28  F   UNL     1     -11.644   3.294  73.631  1.00  0.00    -0.311 F  
HETATM   29  F   UNL     1     -10.578   1.504  74.248  1.00  0.00    -0.123 F  
ENDBRANCH  17  20
ENDBRANCH  13  14
ENDBRANCH  12  13
ENDBRANCH   9  12
TORSDOF 4
ENDMDL
MODEL      230
REMARK 921   NORMALIZED FREE ENERGY PREDICTED BY IDOCK:   -2.74 KCAL/MOL
REMARK 922        TOTAL FREE ENERGY PREDICTED BY IDOCK:   -3.97 KCAL/MOL
REMARK 923 INTER-LIGAND FREE ENERGY PREDICTED BY IDOCK:   -3.74 KCAL/MOL
REMARK 924 INTRA-LIGAND FREE ENERGY PREDICTED BY IDOCK:   -0.23 KCAL/MOL
REMARK 927      BINDING AFFINITY PREDICTED BY RF-SCORE:    0.00 PKD
ROOT
HETATM    1  C   UNL     1      -9.264   5.956  67.600  1.00  0.00    -0.104 C  
HETATM    2  C   UNL     1      -8.595   4.591  67.295  1.00  0.00    -0.104 C  
HETATM    3  C   UNL     1      -8.893   3.714  68.524  1.00  0.00    -0.156 C  
HETATM    4  C   UNL     1      -9.030   4.703  69.689  1.00  0.00    -0.140 C  
HETATM    5  C   UNL     1      -8.599   6.008  69.050  1.00  0.00    -0.120 C  
HETATM    6  C   UNL     1      -9.048   7.291  69.606  1.00  0.00    -0.140 A  
HETATM    7  N   UNL     1      -8.486   8.280  70.254  1.00  0.00    -0.123 NA 
HETATM    8  N   UNL     1      -9.183   9.435  69.896  1.00  0.00    -0.191 NA 
HETATM    9  C   UNL     1     -10.082   9.111  68.994  1.00  0.00    -0.191 A  
HETATM   10  C   UNL     1     -10.550   6.810  67.912  1.00  0.00    -0.242 C  
HETATM   11  N   UNL     1     -10.097   7.764  68.896  1.00  0.00    -0.190 NA 
ENDROOT
BRANCH   9  12
HETATM   12  C   UNL     1     -10.947  10.002  68.182  1.00  0.00    -0.289 C  
BRANCH  12  13
HETATM   13  C   UNL     1     -10.143  11.143  67.523  1.00  0.00    -0.183 C  
BRANCH  13  14
HETATM   14  N   UNL     1      -9.512  12.027  68.525  1.00  0.00    -0.173 NA 
HETATM   15  C   UNL     1      -8.102  12.361  68.200  1.00  0.00    -0.163 C  
HETATM   16  C   UNL     1      -7.926  13.322  67.005  1.00  0.00     0.029 C  
HETATM   17  N   UNL     1      -8.652  14.571  67.279  1.00  0.00    -0.203 NA 
HETATM   18  C   UNL     1     -10.260  13.301  68.690  1.00  0.00    -0.172 C  
HETATM   19  C   UNL     1     -10.081  14.370  67.575  1.00  0.00    -0.232 C  
BRANCH  17  20
HETATM   20  C   UNL     1      -8.065  15.815  67.148  1.00  0.00    -0.211 A  
HETATM   21  C   UNL     1      -7.800  16.378  65.888  1.00  0.00     0.492 A  
HETATM   22  C   UNL     1      -7.183  17.627  65.735  1.00  0.00    -0.109 A  
HETATM   23  C   UNL     1      -6.808  18.354  66.856  1.00  0.00    -0.209 A  
HETATM   24  C   UNL     1      -7.040  17.831  68.132  1.00  0.00    -0.219 A  
HETATM   25  C   UNL     1      -6.621  18.579  69.368  1.00  0.00    -0.214 C  
HETATM   26  C   UNL     1      -7.677  16.578  68.259  1.00  0.00    -0.176 A  
HETATM   27  F   UNL     1      -5.738  17.875  70.130  1.00  0.00    -0.220 F  
HETATM   28  F   UNL     1      -7.667  18.872  70.189  1.00  0.00     0.460 F  
HETATM   29  F   UNL     1      -6.012  19.773  69.107  1.00  0.00    -0.250 F  
ENDBRANCH  17  20
ENDBRANCH  13  14
ENDBRANCH  12  13
ENDBRANCH   9  12
TORSDOF 4
ENDMDL
MODEL      231
REMARK 921   NORMALIZED FREE ENERGY PREDICTED BY IDOCK:   -2.50 KCAL/MOL
REMARK 922        TOTAL FREE ENERGY PREDICTED BY IDOCK:   -3.67 KCAL/MOL
REMARK 923 INTER-LIGAND FREE ENERGY PREDICTED BY IDOCK:   -3.48 KCAL/MOL
REMARK 924 INTRA-LIGAND FREE ENERGY PREDICTED BY IDOCK:   -0.18 KCAL/MOL
REMARK 927      BINDING AFFINITY PREDICTED BY RF-SCORE:    0.00 PKD
ROOT
HETATM    1  C   UNL     1      -7.355  12.583  66.980  1.00  0.00     0.013 C  
HETATM    2  C   UNL     1      -7.562  14.108  67.173  1.00  0.00     0.024 C  
HETATM    3  C   UNL     1      -8.771  14.232  68.117  1.00  0.00    -0.174 C  
HETATM    4  C   UNL     1      -9.607  12.973  67.852  1.00  0.00    -0.215 C  
HETATM    5  C   UNL     1      -8.902  12.369  66.654  1.00  0.00    -0.156 C  
HETATM    6  C   UNL     1      -9.016  10.932  66.373  1.00  0.00    -0.175 A  
HETATM    7  N   UNL     1      -9.604  10.198  65.462  1.00  0.00    -0.229 NA 
HETATM    8  N   UNL     1      -8.817   9.058  65.302  1.00  0.00    -0.193 NA 
HETATM    9  C   UNL     1      -7.751   9.182  66.061  1.00  0.00    -0.095 A  
HETATM   10  C   UNL     1      -7.051  11.157  67.575  1.00  0.00    -0.093 C  
HETATM   11  N   UNL     1      -7.921  10.281  66.827  1.00  0.00    -0.112 NA 
ENDROOT
BRANCH   9  12
HETATM   12  C   UNL     1      -6.541   8.325  66.112  1.00  0.00    -0.050 C  
BRANCH  12  13
HETATM   13  C   UNL     1      -5.787   8.471  67.451  1.00  0.00    -0.043 C  
BRANCH  13  14
HETATM   14  N   UNL     1      -5.696   7.188  68.179  1.00  0.00    -0.021 NA 
HETATM   15  C   UNL     1      -5.188   7.342  69.566  1.00  0.00    -0.015 C  
HETATM   16  C   UNL     1      -6.178   8.010  70.544  1.00  0.00    -0.036 C  
HETATM   17  N   UNL     1      -7.421   7.227  70.584  1.00  0.00    -0.078 NA 
HETATM   18  C   UNL     1      -7.008   6.493  68.244  1.00  0.00    -0.080 C  
HETATM   19  C   UNL     1      -8.046   7.044  69.263  1.00  0.00    -0.120 C  
BRANCH  17  20
HETATM   20  C   UNL     1      -8.000   6.814  71.769  1.00  0.00    -0.101 A  
HETATM   21  C   UNL     1      -7.454   7.158  73.018  1.00  0.00    -0.078 A  
HETATM   22  C   UNL     1      -8.013   6.729  74.230  1.00  0.00    -0.128 A  
HETATM   23  C   UNL     1      -9.147   5.930  74.221  1.00  0.00    -0.126 A  
HETATM   24  C   UNL     1      -9.721   5.551  73.004  1.00  0.00    -0.164 A  
HETATM   25  C   UNL     1     -10.934   4.662  72.957  1.00  0.00    -0.251 C  
HETATM   26  C   UNL     1      -9.148   6.009  71.798  1.00  0.00    -0.148 A  
HETATM   27  F   UNL     1     -10.707   3.503  72.279  1.00  0.00    -0.173 F  
HETATM   28  F   UNL     1     -11.996   5.250  72.342  1.00  0.00    -0.228 F  
HETATM   29  F   UNL     1     -11.385   4.285  74.190  1.00  0.00    -0.236 F  
ENDBRANCH  17  20
ENDBRANCH  13  14
ENDBRANCH  12  13
ENDBRANCH   9  12
TORSDOF 4
ENDMDL
MODEL      232
REMARK 921   NORMALIZED FREE ENERGY PREDICTED BY IDOCK:   -2.44 KCAL/MOL
REMARK 922        TOTAL FREE ENERGY PREDICTED BY IDOCK:   -3.59 KCAL/MOL
REMARK 923 INTER-LIGAND FREE ENERGY PREDICTED BY IDOCK:   -3.69 KCAL/MOL
REMARK 924 INTRA-LIGAND FREE ENERGY PREDICTED BY IDOCK:    0.10 KCAL/MOL
REMARK 927      BINDING AFFINITY PREDICTED BY RF-SCORE:    0.00 PKD
ROOT
HETATM    1  C   UNL     1      -8.896   7.169  69.509  1.00  0.00    -0.137 C  
HETATM    2  C   UNL     1      -9.680   6.049  70.240  1.00  0.00    -0.201 C  
HETATM    3  C   UNL     1     -10.611   6.784  71.220  1.00  0.00    -0.246 C  
HETATM    4  C   UNL     1      -9.881   8.092  71.549  1.00  0.00    -0.233 C  
HETATM    5  C   UNL     1      -8.532   7.878  70.891  1.00  0.00    -0.126 C  
HETATM    6  C   UNL     1      -7.706   9.027  70.499  1.00  0.00    -0.119 A  
HETATM    7  N   UNL     1      -6.587   9.563  70.917  1.00  0.00    -0.143 NA 
HETATM    8  N   UNL     1      -5.979  10.132  69.797  1.00  0.00    -0.043 NA 
HETATM    9  C   UNL     1      -6.711   9.853  68.743  1.00  0.00    -0.050 A  
HETATM   10  C   UNL     1      -8.874   8.446  68.588  1.00  0.00    -0.136 C  
HETATM   11  N   UNL     1      -7.852   9.276  69.178  1.00  0.00    -0.084 NA 
ENDROOT
BRANCH   9  12
HETATM   12  C   UNL     1      -6.403  10.083  67.309  1.00  0.00    -0.067 C  
BRANCH  12  13
HETATM   13  C   UNL     1      -6.377  11.585  66.959  1.00  0.00    -0.133 C  
BRANCH  13  14
HETATM   14  N   UNL     1      -6.732  12.431  68.118  1.00  0.00    -0.068 NA 
HETATM   15  C   UNL     1      -6.187  13.809  68.021  1.00  0.00    -0.141 C  
HETATM   16  C   UNL     1      -6.869  14.699  66.960  1.00  0.00     0.638 C  
HETATM   17  N   UNL     1      -8.307  14.783  67.252  1.00  0.00    -0.199 NA 
HETATM   18  C   UNL     1      -8.203  12.530  68.303  1.00  0.00    -0.168 C  
HETATM   19  C   UNL     1      -8.972  13.471  67.331  1.00  0.00    -0.219 C  
BRANCH  17  20
HETATM   20  C   UNL     1      -8.980  15.987  67.323  1.00  0.00    -0.197 A  
HETATM   21  C   UNL     1     -10.263  16.151  66.772  1.00  0.00    -0.281 A  
HETATM   22  C   UNL     1     -10.952  17.370  66.812  1.00  0.00     0.175 A  
HETATM   23  C   UNL     1     -10.364  18.475  67.411  1.00  0.00    -0.432 A  
HETATM   24  C   UNL     1      -9.085  18.367  67.964  1.00  0.00    -0.308 A  
HETATM   25  C   UNL     1      -8.406  19.551  68.596  1.00  0.00    -0.329 C  
HETATM   26  C   UNL     1      -8.418  17.123  67.924  1.00  0.00    -0.212 A  
HETATM   27  F   UNL     1      -7.229  19.866  67.986  1.00  0.00    -0.294 F  
HETATM   28  F   UNL     1      -8.101  19.348  69.907  1.00  0.00     0.023 F  
HETATM   29  F   UNL     1      -9.154  20.694  68.565  1.00  0.00     0.038 F  
ENDBRANCH  17  20
ENDBRANCH  13  14
ENDBRANCH  12  13
ENDBRANCH   9  12
TORSDOF 4
ENDMDL
MODEL      233
REMARK 921   NORMALIZED FREE ENERGY PREDICTED BY IDOCK:   -1.30 KCAL/MOL
REMARK 922        TOTAL FREE ENERGY PREDICTED BY IDOCK:   -2.19 KCAL/MOL
REMARK 923 INTER-LIGAND FREE ENERGY PREDICTED BY IDOCK:   -2.36 KCAL/MOL
REMARK 924 INTRA-LIGAND FREE ENERGY PREDICTED BY IDOCK:    0.17 KCAL/MOL
REMARK 927      BINDING AFFINITY PREDICTED BY RF-SCORE:    0.00 PKD
ROOT
HETATM    1  C   UNL     1      -7.886   8.222  71.949  1.00  0.00    -0.158 C  
HETATM    2  C   UNL     1      -8.105   7.231  73.121  1.00  0.00    -0.123 C  
HETATM    3  C   UNL     1      -6.827   7.326  73.972  1.00  0.00    -0.085 C  
HETATM    4  C   UNL     1      -5.724   7.724  72.982  1.00  0.00    -0.045 C  
HETATM    5  C   UNL     1      -6.440   7.617  71.650  1.00  0.00    -0.039 C  
HETATM    6  C   UNL     1      -5.964   8.380  70.489  1.00  0.00    -0.031 A  
HETATM    7  N   UNL     1      -5.375   8.091  69.355  1.00  0.00    -0.026 NA 
HETATM    8  N   UNL     1      -5.805   9.045  68.432  1.00  0.00    -0.041 NA 
HETATM    9  C   UNL     1      -6.689   9.820  69.019  1.00  0.00    -0.049 A  
HETATM   10  C   UNL     1      -7.631   9.684  71.423  1.00  0.00     0.667 C  
HETATM   11  N   UNL     1      -6.705   9.499  70.331  1.00  0.00    -0.080 NA 
ENDROOT
BRANCH   9  12
HETATM   12  C   UNL     1      -7.557  10.863  68.419  1.00  0.00    -0.104 C  
BRANCH  12  13
HETATM   13  C   UNL     1      -7.801  10.614  66.916  1.00  0.00    -0.121 C  
BRANCH  13  14
HETATM   14  N   UNL     1      -9.054   9.869  66.673  1.00  0.00    -0.145 NA 
HETATM   15  C   UNL     1      -9.000   9.022  65.454  1.00  0.00    -0.200 C  
HETATM   16  C   UNL     1      -8.095   7.778  65.573  1.00  0.00    -0.128 C  
HETATM   17  N   UNL     1      -8.556   6.951  66.698  1.00  0.00    -0.120 NA 
HETATM   18  C   UNL     1      -9.412   8.998  67.823  1.00  0.00    -0.141 C  
HETATM   19  C   UNL     1      -8.609   7.676  67.980  1.00  0.00    -0.123 C  
BRANCH  17  20
HETATM   20  C   UNL     1      -8.795   5.596  66.574  1.00  0.00    -0.123 A  
HETATM   21  C   UNL     1      -8.822   4.745  67.693  1.00  0.00    -0.110 A  
HETATM   22  C   UNL     1      -9.039   3.365  67.586  1.00  0.00    -0.204 A  
HETATM   23  C   UNL     1      -9.234   2.792  66.337  1.00  0.00    -0.093 A  
HETATM   24  C   UNL     1      -9.204   3.595  65.192  1.00  0.00    -0.150 A  
HETATM   25  C   UNL     1      -9.382   3.003  63.821  1.00  0.00    -0.105 C  
HETATM   26  C   UNL     1      -8.999   4.984  65.329  1.00  0.00    -0.151 A  
HETATM   27  F   UNL     1      -8.309   3.224  63.012  1.00  0.00    -0.075 F  
HETATM   28  F   UNL     1     -10.456   3.516  63.160  1.00  0.00    -0.153 F  
HETATM   29  F   UNL     1      -9.566   1.649  63.827  1.00  0.00    -0.104 F  
ENDBRANCH  17  20
ENDBRANCH  13  14
ENDBRANCH  12  13
ENDBRANCH   9  12
TORSDOF 4
ENDMDL
MODEL      234
REMARK 921   NORMALIZED FREE ENERGY PREDICTED BY IDOCK:   -0.98 KCAL/MOL
REMARK 922        TOTAL FREE ENERGY PREDICTED BY IDOCK:   -1.79 KCAL/MOL
REMARK 923 INTER-LIGAND FREE ENERGY PREDICTED BY IDOCK:   -3.85 KCAL/MOL
REMARK 924 INTRA-LIGAND FREE ENERGY PREDICTED BY IDOCK:    2.06 KCAL/MOL
REMARK 927      BINDING AFFINITY PREDICTED BY RF-SCORE:    0.00 PKD
ROOT
HETATM    1  C   UNL     1      -7.004  13.836  68.036  1.00  0.00    -0.137 C  
HETATM    2  C   UNL     1      -5.579  13.238  67.915  1.00  0.00    -0.125 C  
HETATM    3  C   UNL     1      -5.141  12.950  69.362  1.00  0.00    -0.074 C  
HETATM    4  C   UNL     1      -5.899  13.976  70.214  1.00  0.00    -0.148 C  
HETATM    5  C   UNL     1      -6.526  14.865  69.158  1.00  0.00    -0.112 C  
HETATM    6  C   UNL     1      -7.731  15.647  69.467  1.00  0.00    -0.185 A  
HETATM    7  N   UNL     1      -8.007  16.915  69.638  1.00  0.00     0.411 NA 
HETATM    8  N   UNL     1      -9.323  17.095  69.211  1.00  0.00    -0.037 NA 
HETATM    9  C   UNL     1      -9.761  15.953  68.731  1.00  0.00    -0.216 A  
HETATM   10  C   UNL     1      -8.510  13.706  68.476  1.00  0.00    -0.106 C  
HETATM   11  N   UNL     1      -8.830  15.013  68.998  1.00  0.00    -0.206 NA 
ENDROOT
BRANCH   9  12
HETATM   12  C   UNL     1     -11.025  15.673  68.006  1.00  0.00    -0.318 C  
BRANCH  12  13
HETATM   13  C   UNL     1     -12.158  15.249  68.964  1.00  0.00    -0.213 C  
BRANCH  13  14
HETATM   14  N   UNL     1     -11.634  14.678  70.223  1.00  0.00    -0.278 NA 
HETATM   15  C   UNL     1     -12.706  14.240  71.152  1.00  0.00    -0.360 C  
HETATM   16  C   UNL     1     -13.467  12.972  70.707  1.00  0.00     0.664 C  
HETATM   17  N   UNL     1     -12.510  11.869  70.540  1.00  0.00    -0.258 NA 
HETATM   18  C   UNL     1     -10.737  13.520  69.976  1.00  0.00     0.799 C  
HETATM   19  C   UNL     1     -11.417  12.172  69.601  1.00  0.00    -0.238 C  
BRANCH  17  20
HETATM   20  C   UNL     1     -12.699  10.629  71.121  1.00  0.00    -0.422 A  
HETATM   21  C   UNL     1     -13.976  10.171  71.487  1.00  0.00     0.190 A  
HETATM   22  C   UNL     1     -14.185   8.928  72.099  1.00  0.00    -0.463 A  
HETATM   23  C   UNL     1     -13.104   8.100  72.366  1.00  0.00    -0.134 A  
HETATM   24  C   UNL     1     -11.812   8.515  72.031  1.00  0.00    -0.429 A  
HETATM   25  C   UNL     1     -10.614   7.656  72.332  1.00  0.00    -0.260 C  
HETATM   26  C   UNL     1     -11.630   9.766  71.402  1.00  0.00    -0.452 A  
HETATM   27  F   UNL     1      -9.721   8.274  73.155  1.00  0.00    -0.326 F  
HETATM   28  F   UNL     1      -9.914   7.314  71.216  1.00  0.00    -0.186 F  
HETATM   29  F   UNL     1     -10.926   6.476  72.947  1.00  0.00    -0.234 F  
ENDBRANCH  17  20
ENDBRANCH  13  14
ENDBRANCH  12  13
ENDBRANCH   9  12
TORSDOF 4
ENDMDL
MODEL      235
REMARK 921   NORMALIZED FREE ENERGY PREDICTED BY IDOCK:   -0.88 KCAL/MOL
REMARK 922        TOTAL FREE ENERGY PREDICTED BY IDOCK:   -1.67 KCAL/MOL
REMARK 923 INTER-LIGAND FREE ENERGY PREDICTED BY IDOCK:   -1.90 KCAL/MOL
REMARK 924 INTRA-LIGAND FREE ENERGY PREDICTED BY IDOCK:    0.23 KCAL/MOL
REMARK 927      BINDING AFFINITY PREDICTED BY RF-SCORE:    0.00 PKD
ROOT
HETATM    1  C   UNL     1      -7.313   7.916  72.820  1.00  0.00    -0.121 C  
HETATM    2  C   UNL     1      -7.546   6.709  73.765  1.00  0.00    -0.082 C  
HETATM    3  C   UNL     1      -6.186   6.455  74.436  1.00  0.00    -0.066 C  
HETATM    4  C   UNL     1      -5.147   6.947  73.418  1.00  0.00    -0.037 C  
HETATM    5  C   UNL     1      -6.006   7.238  72.203  1.00  0.00    -0.037 C  
HETATM    6  C   UNL     1      -5.551   8.193  71.185  1.00  0.00    -0.033 A  
HETATM    7  N   UNL     1      -5.132   8.114  69.947  1.00  0.00    -0.023 NA 
HETATM    8  N   UNL     1      -5.516   9.300  69.322  1.00  0.00    -0.036 NA 
HETATM    9  C   UNL     1      -6.215  10.010  70.179  1.00  0.00    -0.077 A  
HETATM   10  C   UNL     1      -6.911   9.422  72.598  1.00  0.00     0.807 C  
HETATM   11  N   UNL     1      -6.139   9.395  71.378  1.00  0.00    -0.130 NA 
ENDROOT
BRANCH   9  12
HETATM   12  C   UNL     1      -6.985  11.257  69.944  1.00  0.00     0.056 C  
BRANCH  12  13
HETATM   13  C   UNL     1      -7.429  11.392  68.472  1.00  0.00    -0.113 C  
BRANCH  13  14
HETATM   14  N   UNL     1      -8.781  10.837  68.248  1.00  0.00    -0.130 NA 
HETATM   15  C   UNL     1      -8.977  10.324  66.868  1.00  0.00    -0.136 C  
HETATM   16  C   UNL     1      -8.215   9.020  66.551  1.00  0.00    -0.114 C  
HETATM   17  N   UNL     1      -8.626   7.977  67.502  1.00  0.00    -0.126 NA 
HETATM   18  C   UNL     1      -9.093   9.737  69.197  1.00  0.00    -0.165 C  
HETATM   19  C   UNL     1      -8.436   8.356  68.913  1.00  0.00    -0.124 C  
BRANCH  17  20
HETATM   20  C   UNL     1      -9.034   6.721  67.096  1.00  0.00    -0.115 A  
HETATM   21  C   UNL     1     -10.367   6.457  66.737  1.00  0.00    -0.279 A  
HETATM   22  C   UNL     1     -10.806   5.185  66.346  1.00  0.00    -0.174 A  
HETATM   23  C   UNL     1      -9.908   4.128  66.306  1.00  0.00    -0.208 A  
HETATM   24  C   UNL     1      -8.573   4.337  66.665  1.00  0.00    -0.112 A  
HETATM   25  C   UNL     1      -7.580   3.207  66.661  1.00  0.00    -0.076 C  
HETATM   26  C   UNL     1      -8.153   5.631  67.040  1.00  0.00    -0.102 A  
HETATM   27  F   UNL     1      -7.026   2.994  67.887  1.00  0.00    -0.046 F  
HETATM   28  F   UNL     1      -6.535   3.425  65.815  1.00  0.00    -0.030 F  
HETATM   29  F   UNL     1      -8.114   2.007  66.284  1.00  0.00    -0.073 F  
ENDBRANCH  17  20
ENDBRANCH  13  14
ENDBRANCH  12  13
ENDBRANCH   9  12
TORSDOF 4
ENDMDL
MODEL      236
REMARK 921   NORMALIZED FREE ENERGY PREDICTED BY IDOCK:   -0.82 KCAL/MOL
REMARK 922        TOTAL FREE ENERGY PREDICTED BY IDOCK:   -1.60 KCAL/MOL
REMARK 923 INTER-LIGAND FREE ENERGY PREDICTED BY IDOCK:   -2.26 KCAL/MOL
REMARK 924 INTRA-LIGAND FREE ENERGY PREDICTED BY IDOCK:    0.67 KCAL/MOL
REMARK 927      BINDING AFFINITY PREDICTED BY RF-SCORE:    0.00 PKD
ROOT
HETATM    1  C   UNL     1     -11.138  12.870  69.760  1.00  0.00     0.124 C  
HETATM    2  C   UNL     1     -12.241  13.850  70.236  1.00  0.00    -0.428 C  
HETATM    3  C   UNL     1     -12.888  14.384  68.946  1.00  0.00     0.933 C  
HETATM    4  C   UNL     1     -11.776  14.314  67.891  1.00  0.00    -0.394 C  
HETATM    5  C   UNL     1     -10.567  13.944  68.727  1.00  0.00    -0.258 C  
HETATM    6  C   UNL     1      -9.416  13.273  68.110  1.00  0.00    -0.222 A  
HETATM    7  N   UNL     1      -8.184  13.606  67.815  1.00  0.00    -0.163 NA 
HETATM    8  N   UNL     1      -7.424  12.441  67.917  1.00  0.00    -0.108 NA 
HETATM    9  C   UNL     1      -8.206  11.473  68.340  1.00  0.00    -0.152 A  
HETATM   10  C   UNL     1     -10.706  11.566  68.991  1.00  0.00    -0.193 C  
HETATM   11  N   UNL     1      -9.472  11.943  68.343  1.00  0.00    -0.202 NA 
ENDROOT
BRANCH   9  12
HETATM   12  C   UNL     1      -7.839  10.100  68.767  1.00  0.00    -0.098 C  
BRANCH  12  13
HETATM   13  C   UNL     1      -6.598  10.094  69.684  1.00  0.00    -0.069 C  
BRANCH  13  14
HETATM   14  N   UNL     1      -5.760   8.894  69.476  1.00  0.00    -0.034 NA 
HETATM   15  C   UNL     1      -6.379   7.654  70.009  1.00  0.00    -0.034 C  
HETATM   16  C   UNL     1      -7.594   7.142  69.205  1.00  0.00    -0.099 C  
HETATM   17  N   UNL     1      -7.185   6.902  67.813  1.00  0.00    -0.088 NA 
HETATM   18  C   UNL     1      -5.454   8.674  68.038  1.00  0.00    -0.035 C  
HETATM   19  C   UNL     1      -6.592   8.081  67.160  1.00  0.00    -0.057 C  
BRANCH  17  20
HETATM   20  C   UNL     1      -7.449   5.715  67.157  1.00  0.00    -0.084 A  
HETATM   21  C   UNL     1      -7.820   4.552  67.853  1.00  0.00    -0.081 A  
HETATM   22  C   UNL     1      -8.068   3.333  67.208  1.00  0.00    -0.082 A  
HETATM   23  C   UNL     1      -7.947   3.246  65.829  1.00  0.00    -0.086 A  
HETATM   24  C   UNL     1      -7.569   4.372  65.092  1.00  0.00    -0.077 A  
HETATM   25  C   UNL     1      -7.400   4.305  63.598  1.00  0.00    -0.054 C  
HETATM   26  C   UNL     1      -7.340   5.592  65.764  1.00  0.00    -0.073 A  
HETATM   27  F   UNL     1      -6.139   4.630  63.200  1.00  0.00    -0.016 F  
HETATM   28  F   UNL     1      -8.229   5.157  62.935  1.00  0.00    -0.079 F  
HETATM   29  F   UNL     1      -7.646   3.069  63.073  1.00  0.00    -0.055 F  
ENDBRANCH  17  20
ENDBRANCH  13  14
ENDBRANCH  12  13
ENDBRANCH   9  12
TORSDOF 4
ENDMDL
MODEL      237
REMARK 921   NORMALIZED FREE ENERGY PREDICTED BY IDOCK:   -0.51 KCAL/MOL
REMARK 922        TOTAL FREE ENERGY PREDICTED BY IDOCK:   -1.22 KCAL/MOL
REMARK 923 INTER-LIGAND FREE ENERGY PREDICTED BY IDOCK:   -3.01 KCAL/MOL
REMARK 924 INTRA-LIGAND FREE ENERGY PREDICTED BY IDOCK:    1.79 KCAL/MOL
REMARK 927      BINDING AFFINITY PREDICTED BY RF-SCORE:    0.00 PKD
ROOT
HETATM    1  C   UNL     1     -12.939   9.154  70.408  1.00  0.00     0.649 C  
HETATM    2  C   UNL     1     -14.219   8.487  70.973  1.00  0.00    -0.040 C  
HETATM    3  C   UNL     1     -14.378   9.060  72.392  1.00  0.00    -0.325 C  
HETATM    4  C   UNL     1     -12.950   9.395  72.843  1.00  0.00     0.250 C  
HETATM    5  C   UNL     1     -12.116   8.796  71.728  1.00  0.00    -0.418 C  
HETATM    6  C   UNL     1     -10.764   9.302  71.458  1.00  0.00    -0.355 A  
HETATM    7  N   UNL     1      -9.546   8.849  71.609  1.00  0.00    -0.295 NA 
HETATM    8  N   UNL     1      -8.782   9.416  70.589  1.00  0.00    -0.229 NA 
HETATM    9  C   UNL     1      -9.580  10.124  69.821  1.00  0.00    -0.177 A  
HETATM   10  C   UNL     1     -12.140  10.444  69.988  1.00  0.00    -0.222 C  
HETATM   11  N   UNL     1     -10.790  10.167  70.419  1.00  0.00    -0.307 NA 
ENDROOT
BRANCH   9  12
HETATM   12  C   UNL     1      -9.284  10.773  68.520  1.00  0.00    -0.174 C  
BRANCH  12  13
HETATM   13  C   UNL     1      -9.718   9.896  67.326  1.00  0.00    -0.171 C  
BRANCH  13  14
HETATM   14  N   UNL     1     -10.027   8.511  67.739  1.00  0.00    -0.179 NA 
HETATM   15  C   UNL     1     -10.291   7.607  66.591  1.00  0.00    -0.187 C  
HETATM   16  C   UNL     1      -9.045   7.250  65.752  1.00  0.00     0.050 C  
HETATM   17  N   UNL     1      -8.041   6.621  66.623  1.00  0.00    -0.108 NA 
HETATM   18  C   UNL     1      -8.933   7.917  68.550  1.00  0.00    -0.133 C  
HETATM   19  C   UNL     1      -7.664   7.448  67.783  1.00  0.00    -0.112 C  
BRANCH  17  20
HETATM   20  C   UNL     1      -7.430   5.423  66.306  1.00  0.00    -0.087 A  
HETATM   21  C   UNL     1      -6.450   4.851  67.136  1.00  0.00    -0.049 A  
HETATM   22  C   UNL     1      -5.801   3.650  66.820  1.00  0.00    -0.023 A  
HETATM   23  C   UNL     1      -6.120   2.983  65.646  1.00  0.00    -0.023 A  
HETATM   24  C   UNL     1      -7.079   3.517  64.781  1.00  0.00    -0.061 A  
HETATM   25  C   UNL     1      -7.428   2.835  63.486  1.00  0.00    -0.062 C  
HETATM   26  C   UNL     1      -7.729   4.720  65.130  1.00  0.00    -0.086 A  
HETATM   27  F   UNL     1      -7.193   3.623  62.400  1.00  0.00    -0.036 F  
HETATM   28  F   UNL     1      -8.741   2.482  63.411  1.00  0.00    -0.084 F  
HETATM   29  F   UNL     1      -6.725   1.684  63.265  1.00  0.00    -0.018 F  
ENDBRANCH  17  20
ENDBRANCH  13  14
ENDBRANCH  12  13
ENDBRANCH   9  12
TORSDOF 4
ENDMDL
MODEL      238
REMARK 921   NORMALIZED FREE ENERGY PREDICTED BY IDOCK:    0.18 KCAL/MOL
REMARK 922        TOTAL FREE ENERGY PREDICTED BY IDOCK:   -0.36 KCAL/MOL
REMARK 923 INTER-LIGAND FREE ENERGY PREDICTED BY IDOCK:   -1.75 KCAL/MOL
REMARK 924 INTRA-LIGAND FREE ENERGY PREDICTED BY IDOCK:    1.39 KCAL/MOL
REMARK 927      BINDING AFFINITY PREDICTED BY RF-SCORE:    0.00 PKD
ROOT
HETATM    1  C   UNL     1      -7.843   8.218  71.947  1.00  0.00    -0.158 C  
HETATM    2  C   UNL     1      -7.951   7.264  73.164  1.00  0.00    -0.120 C  
HETATM    3  C   UNL     1      -6.743   7.608  74.052  1.00  0.00    -0.100 C  
HETATM    4  C   UNL     1      -5.677   8.131  73.081  1.00  0.00    -0.057 C  
HETATM    5  C   UNL     1      -6.307   7.843  71.732  1.00  0.00    -0.040 C  
HETATM    6  C   UNL     1      -5.909   8.615  70.548  1.00  0.00    -0.027 A  
HETATM    7  N   UNL     1      -5.233   8.372  69.454  1.00  0.00    -0.030 NA 
HETATM    8  N   UNL     1      -5.770   9.196  68.464  1.00  0.00    -0.041 NA 
HETATM    9  C   UNL     1      -6.792   9.843  68.977  1.00  0.00    -0.054 A  
HETATM   10  C   UNL     1      -7.805   9.674  71.349  1.00  0.00     0.798 C  
HETATM   11  N   UNL     1      -6.814   9.590  70.303  1.00  0.00    -0.077 NA 
ENDROOT
BRANCH   9  12
HETATM   12  C   UNL     1      -7.790  10.700  68.288  1.00  0.00    -0.113 C  
BRANCH  12  13
HETATM   13  C   UNL     1      -7.848  10.414  66.773  1.00  0.00    -0.117 C  
BRANCH  13  14
HETATM   14  N   UNL     1      -8.865   9.395  66.440  1.00  0.00    -0.141 NA 
HETATM   15  C   UNL     1      -8.347   8.006  66.530  1.00  0.00    -0.121 C  
HETATM   16  C   UNL     1      -8.087   7.507  67.968  1.00  0.00    -0.124 C  
HETATM   17  N   UNL     1      -9.333   7.594  68.743  1.00  0.00    -0.149 NA 
HETATM   18  C   UNL     1     -10.061   9.498  67.316  1.00  0.00    -0.215 C  
HETATM   19  C   UNL     1      -9.922   8.944  68.763  1.00  0.00    -0.184 C  
BRANCH  17  20
HETATM   20  C   UNL     1      -9.826   6.532  69.476  1.00  0.00    -0.151 A  
HETATM   21  C   UNL     1     -10.848   6.702  70.427  1.00  0.00    -0.316 A  
HETATM   22  C   UNL     1     -11.345   5.643  71.198  1.00  0.00    -0.032 A  
HETATM   23  C   UNL     1     -10.822   4.368  71.036  1.00  0.00     0.769 A  
HETATM   24  C   UNL     1      -9.796   4.150  70.112  1.00  0.00    -0.242 A  
HETATM   25  C   UNL     1      -9.186   2.786  69.932  1.00  0.00    -0.139 C  
HETATM   26  C   UNL     1      -9.324   5.230  69.337  1.00  0.00    -0.172 A  
HETATM   27  F   UNL     1      -7.848   2.774  70.191  1.00  0.00    -0.043 F  
HETATM   28  F   UNL     1      -9.322   2.309  68.664  1.00  0.00    -0.174 F  
HETATM   29  F   UNL     1      -9.727   1.831  70.745  1.00  0.00    -0.185 F  
ENDBRANCH  17  20
ENDBRANCH  13  14
ENDBRANCH  12  13
ENDBRANCH   9  12
TORSDOF 4
ENDMDL
MODEL      239
REMARK 921   NORMALIZED FREE ENERGY PREDICTED BY IDOCK:    4.78 KCAL/MOL
REMARK 922        TOTAL FREE ENERGY PREDICTED BY IDOCK:    5.31 KCAL/MOL
REMARK 923 INTER-LIGAND FREE ENERGY PREDICTED BY IDOCK:    5.85 KCAL/MOL
REMARK 924 INTRA-LIGAND FREE ENERGY PREDICTED BY IDOCK:   -0.54 KCAL/MOL
REMARK 927      BINDING AFFINITY PREDICTED BY RF-SCORE:    0.00 PKD
ROOT
HETATM    1  C   UNL     1      -7.428  14.665  67.785  1.00  0.00    -0.180 C  
HETATM    2  C   UNL     1      -7.502  16.076  67.147  1.00  0.00    -0.253 C  
HETATM    3  C   UNL     1      -6.147  16.731  67.462  1.00  0.00    -0.179 C  
HETATM    4  C   UNL     1      -5.687  16.074  68.771  1.00  0.00    -0.108 C  
HETATM    5  C   UNL     1      -6.909  15.269  69.168  1.00  0.00    -0.138 C  
HETATM    6  C   UNL     1      -6.774  14.099  70.045  1.00  0.00     0.002 A  
HETATM    7  N   UNL     1      -7.099  13.810  71.280  1.00  0.00     1.751 NA 
HETATM    8  N   UNL     1      -7.362  12.440  71.310  1.00  0.00     5.064 NA 
HETATM    9  C   UNL     1      -7.261  11.973  70.086  1.00  0.00     1.342 A  
HETATM   10  C   UNL     1      -6.755  13.245  67.893  1.00  0.00    -0.143 C  
HETATM   11  N   UNL     1      -6.774  12.964  69.309  1.00  0.00    -0.093 NA 
ENDROOT
BRANCH   9  12
HETATM   12  C   UNL     1      -7.613  10.626  69.573  1.00  0.00    -0.128 C  
BRANCH  12  13
HETATM   13  C   UNL     1      -6.359   9.786  69.253  1.00  0.00    -0.047 C  
BRANCH  13  14
HETATM   14  N   UNL     1      -6.680   8.353  69.080  1.00  0.00    -0.051 NA 
HETATM   15  C   UNL     1      -7.869   8.124  68.220  1.00  0.00    -0.122 C  
HETATM   16  C   UNL     1      -7.648   8.420  66.722  1.00  0.00    -0.090 C  
HETATM   17  N   UNL     1      -6.543   7.590  66.223  1.00  0.00    -0.048 NA 
HETATM   18  C   UNL     1      -5.540   7.596  68.500  1.00  0.00    -0.027 C  
HETATM   19  C   UNL     1      -5.288   7.765  66.975  1.00  0.00    -0.031 C  
BRANCH  17  20
HETATM   20  C   UNL     1      -6.651   6.817  65.083  1.00  0.00    -0.050 A  
HETATM   21  C   UNL     1      -6.012   7.175  63.883  1.00  0.00    -0.040 A  
HETATM   22  C   UNL     1      -6.130   6.417  62.710  1.00  0.00    -0.030 A  
HETATM   23  C   UNL     1      -6.903   5.265  62.708  1.00  0.00    -0.029 A  
HETATM   24  C   UNL     1      -7.568   4.873  63.874  1.00  0.00    -0.066 A  
HETATM   25  C   UNL     1      -8.438   3.646  63.899  1.00  0.00    -0.091 C  
HETATM   26  C   UNL     1      -7.421   5.645  65.046  1.00  0.00    -0.078 A  
HETATM   27  F   UNL     1      -9.729   3.927  64.231  1.00  0.00    -0.138 F  
HETATM   28  F   UNL     1      -8.017   2.718  64.801  1.00  0.00    -0.078 F  
HETATM   29  F   UNL     1      -8.500   2.992  62.701  1.00  0.00    -0.072 F  
ENDBRANCH  17  20
ENDBRANCH  13  14
ENDBRANCH  12  13
ENDBRANCH   9  12
TORSDOF 4
ENDMDL
MODEL      240
REMARK 921   NORMALIZED FREE ENERGY PREDICTED BY IDOCK:    4.94 KCAL/MOL
REMARK 922        TOTAL FREE ENERGY PREDICTED BY IDOCK:    5.50 KCAL/MOL
REMARK 923 INTER-LIGAND FREE ENERGY PREDICTED BY IDOCK:   -3.76 KCAL/MOL
REMARK 924 INTRA-LIGAND FREE ENERGY PREDICTED BY IDOCK:    9.27 KCAL/MOL
REMARK 927      BINDING AFFINITY PREDICTED BY RF-SCORE:    0.00 PKD
ROOT
HETATM    1  C   UNL     1      -6.318  12.862  67.230  1.00  0.00    -0.018 C  
HETATM    2  C   UNL     1      -5.126  11.879  67.105  1.00  0.00    -0.106 C  
HETATM    3  C   UNL     1      -5.233  10.959  68.333  1.00  0.00    -0.040 C  
HETATM    4  C   UNL     1      -5.924  11.813  69.405  1.00  0.00    -0.082 C  
HETATM    5  C   UNL     1      -5.955  13.180  68.751  1.00  0.00    -0.076 C  
HETATM    6  C   UNL     1      -6.954  14.176  69.159  1.00  0.00    -0.111 A  
HETATM    7  N   UNL     1      -6.934  15.309  69.815  1.00  0.00    -0.186 NA 
HETATM    8  N   UNL     1      -7.969  16.086  69.294  1.00  0.00    -0.236 NA 
HETATM    9  C   UNL     1      -8.519  15.427  68.299  1.00  0.00    -0.159 A  
HETATM   10  C   UNL     1      -7.868  13.130  67.308  1.00  0.00    -0.117 C  
HETATM   11  N   UNL     1      -7.984  14.187  68.284  1.00  0.00    -0.131 NA 
ENDROOT
BRANCH   9  12
HETATM   12  C   UNL     1      -9.534  15.895  67.322  1.00  0.00    -0.217 C  
BRANCH  12  13
HETATM   13  C   UNL     1     -10.965  15.503  67.745  1.00  0.00    -0.317 C  
BRANCH  13  14
HETATM   14  N   UNL     1     -10.995  14.875  69.083  1.00  0.00    -0.249 NA 
HETATM   15  C   UNL     1     -12.216  14.061  69.315  1.00  0.00    -0.278 C  
HETATM   16  C   UNL     1     -12.273  12.741  68.517  1.00  0.00     0.069 C  
HETATM   17  N   UNL     1     -11.096  11.925  68.848  1.00  0.00    -0.233 NA 
HETATM   18  C   UNL     1      -9.812  14.005  69.314  1.00  0.00     0.246 C  
HETATM   19  C   UNL     1      -9.815  12.615  68.616  1.00  0.00    -0.069 C  
BRANCH  17  20
HETATM   20  C   UNL     1     -11.194  10.600  69.225  1.00  0.00    -0.273 A  
HETATM   21  C   UNL     1     -11.452  10.226  70.555  1.00  0.00    -0.427 A  
HETATM   22  C   UNL     1     -11.530   8.887  70.961  1.00  0.00    -0.351 A  
HETATM   23  C   UNL     1     -11.348   7.873  70.032  1.00  0.00    -0.034 A  
HETATM   24  C   UNL     1     -11.077   8.193  68.698  1.00  0.00     0.311 A  
HETATM   25  C   UNL     1     -10.845   7.119  67.670  1.00  0.00    -0.209 C  
HETATM   26  C   UNL     1     -11.018   9.549  68.312  1.00  0.00    -0.131 A  
HETATM   27  F   UNL     1      -9.616   7.208  67.090  1.00  0.00    -0.142 F  
HETATM   28  F   UNL     1     -11.742   7.164  66.647  1.00  0.00     0.105 F  
HETATM   29  F   UNL     1     -10.924   5.851  68.174  1.00  0.00    -0.301 F  
ENDBRANCH  17  20
ENDBRANCH  13  14
ENDBRANCH  12  13
ENDBRANCH   9  12
TORSDOF 4
ENDMDL
MODEL      241
REMARK 921   NORMALIZED FREE ENERGY PREDICTED BY IDOCK:    5.25 KCAL/MOL
REMARK 922        TOTAL FREE ENERGY PREDICTED BY IDOCK:    5.89 KCAL/MOL
REMARK 923 INTER-LIGAND FREE ENERGY PREDICTED BY IDOCK:   -0.24 KCAL/MOL
REMARK 924 INTRA-LIGAND FREE ENERGY PREDICTED BY IDOCK:    6.13 KCAL/MOL
REMARK 927      BINDING AFFINITY PREDICTED BY RF-SCORE:    0.00 PKD
ROOT
HETATM    1  C   UNL     1      -6.526   8.696  72.570  1.00  0.00    -0.065 C  
HETATM    2  C   UNL     1      -5.653   9.940  72.876  1.00  0.00     0.317 C  
HETATM    3  C   UNL     1      -5.972  10.305  74.336  1.00  0.00     0.731 C  
HETATM    4  C   UNL     1      -7.408   9.814  74.559  1.00  0.00     1.665 C  
HETATM    5  C   UNL     1      -7.827   9.407  73.160  1.00  0.00     1.853 C  
HETATM    6  C   UNL     1      -8.897   8.422  72.962  1.00  0.00    -0.163 A  
HETATM    7  N   UNL     1     -10.130   8.453  72.521  1.00  0.00    -0.303 NA 
HETATM    8  N   UNL     1     -10.369   7.214  71.926  1.00  0.00    -0.192 NA 
HETATM    9  C   UNL     1      -9.255   6.517  71.963  1.00  0.00    -0.147 A  
HETATM   10  C   UNL     1      -6.932   7.203  72.866  1.00  0.00    -0.069 C  
HETATM   11  N   UNL     1      -8.368   7.203  72.715  1.00  0.00    -0.106 NA 
ENDROOT
BRANCH   9  12
HETATM   12  C   UNL     1      -8.949   5.218  71.312  1.00  0.00    -0.158 C  
BRANCH  12  13
HETATM   13  C   UNL     1      -8.688   5.379  69.800  1.00  0.00    -0.106 C  
BRANCH  13  14
HETATM   14  N   UNL     1      -8.002   6.650  69.487  1.00  0.00    -0.115 NA 
HETATM   15  C   UNL     1      -7.919   6.922  68.030  1.00  0.00    -0.115 C  
HETATM   16  C   UNL     1      -9.261   7.297  67.365  1.00  0.00    -0.128 C  
HETATM   17  N   UNL     1      -9.815   8.484  68.033  1.00  0.00    -0.163 NA 
HETATM   18  C   UNL     1      -8.666   7.812  70.134  1.00  0.00    -0.140 C  
HETATM   19  C   UNL     1      -9.986   8.318  69.486  1.00  0.00    -0.187 C  
BRANCH  17  20
HETATM   20  C   UNL     1     -10.242   9.596  67.333  1.00  0.00    -0.227 A  
HETATM   21  C   UNL     1     -10.269   9.621  65.928  1.00  0.00    -0.219 A  
HETATM   22  C   UNL     1     -10.676  10.747  65.201  1.00  0.00    -0.159 A  
HETATM   23  C   UNL     1     -11.070  11.896  65.872  1.00  0.00    -0.365 A  
HETATM   24  C   UNL     1     -11.050  11.925  67.269  1.00  0.00    -0.344 A  
HETATM   25  C   UNL     1     -11.443  13.164  68.029  1.00  0.00    -0.311 C  
HETATM   26  C   UNL     1     -10.650  10.772  67.979  1.00  0.00    -0.245 A  
HETATM   27  F   UNL     1     -10.436  13.635  68.816  1.00  0.00    -0.230 F  
HETATM   28  F   UNL     1     -12.500  12.960  68.861  1.00  0.00    -0.201 F  
HETATM   29  F   UNL     1     -11.803  14.209  67.226  1.00  0.00    -0.353 F  
ENDBRANCH  17  20
ENDBRANCH  13  14
ENDBRANCH  12  13
ENDBRANCH   9  12
TORSDOF 4
ENDMDL
MODEL      242
REMARK 921   NORMALIZED FREE ENERGY PREDICTED BY IDOCK:    5.33 KCAL/MOL
REMARK 922        TOTAL FREE ENERGY PREDICTED BY IDOCK:    5.99 KCAL/MOL
REMARK 923 INTER-LIGAND FREE ENERGY PREDICTED BY IDOCK:   -3.31 KCAL/MOL
REMARK 924 INTRA-LIGAND FREE ENERGY PREDICTED BY IDOCK:    9.30 KCAL/MOL
REMARK 927      BINDING AFFINITY PREDICTED BY RF-SCORE:    0.00 PKD
ROOT
HETATM    1  C   UNL     1      -6.318  12.862  67.230  1.00  0.00    -0.018 C  
HETATM    2  C   UNL     1      -5.126  11.879  67.105  1.00  0.00    -0.106 C  
HETATM    3  C   UNL     1      -5.233  10.959  68.333  1.00  0.00    -0.040 C  
HETATM    4  C   UNL     1      -5.924  11.813  69.405  1.00  0.00    -0.082 C  
HETATM    5  C   UNL     1      -5.955  13.180  68.751  1.00  0.00    -0.076 C  
HETATM    6  C   UNL     1      -6.954  14.176  69.159  1.00  0.00    -0.111 A  
HETATM    7  N   UNL     1      -6.934  15.309  69.815  1.00  0.00    -0.186 NA 
HETATM    8  N   UNL     1      -7.969  16.086  69.294  1.00  0.00    -0.236 NA 
HETATM    9  C   UNL     1      -8.519  15.427  68.299  1.00  0.00    -0.159 A  
HETATM   10  C   UNL     1      -7.868  13.130  67.308  1.00  0.00    -0.117 C  
HETATM   11  N   UNL     1      -7.984  14.187  68.284  1.00  0.00    -0.131 NA 
ENDROOT
BRANCH   9  12
HETATM   12  C   UNL     1      -9.534  15.895  67.322  1.00  0.00    -0.217 C  
BRANCH  12  13
HETATM   13  C   UNL     1     -10.965  15.503  67.745  1.00  0.00    -0.317 C  
BRANCH  13  14
HETATM   14  N   UNL     1     -10.995  14.875  69.083  1.00  0.00    -0.249 NA 
HETATM   15  C   UNL     1     -12.216  14.061  69.315  1.00  0.00    -0.278 C  
HETATM   16  C   UNL     1     -12.273  12.741  68.517  1.00  0.00     0.069 C  
HETATM   17  N   UNL     1     -11.096  11.925  68.848  1.00  0.00    -0.233 NA 
HETATM   18  C   UNL     1      -9.812  14.005  69.314  1.00  0.00     0.246 C  
HETATM   19  C   UNL     1      -9.815  12.615  68.616  1.00  0.00    -0.069 C  
BRANCH  17  20
HETATM   20  C   UNL     1     -11.194  10.600  69.225  1.00  0.00    -0.273 A  
HETATM   21  C   UNL     1     -11.207   9.561  68.277  1.00  0.00     0.058 A  
HETATM   22  C   UNL     1     -11.330   8.213  68.637  1.00  0.00     0.731 A  
HETATM   23  C   UNL     1     -11.448   7.864  69.975  1.00  0.00     0.046 A  
HETATM   24  C   UNL     1     -11.451   8.861  70.955  1.00  0.00    -0.339 A  
HETATM   25  C   UNL     1     -11.606   8.521  72.412  1.00  0.00    -0.354 C  
HETATM   26  C   UNL     1     -11.311  10.211  70.567  1.00  0.00    -0.416 A  
HETATM   27  F   UNL     1     -12.702   9.105  72.972  1.00  0.00    -0.331 F  
HETATM   28  F   UNL     1     -10.546   8.925  73.165  1.00  0.00     0.173 F  
HETATM   29  F   UNL     1     -11.739   7.183  72.653  1.00  0.00    -0.291 F  
ENDBRANCH  17  20
ENDBRANCH  13  14
ENDBRANCH  12  13
ENDBRANCH   9  12
TORSDOF 4
ENDMDL
MODEL      243
REMARK 921   NORMALIZED FREE ENERGY PREDICTED BY IDOCK:    5.47 KCAL/MOL
REMARK 922        TOTAL FREE ENERGY PREDICTED BY IDOCK:    6.17 KCAL/MOL
REMARK 923 INTER-LIGAND FREE ENERGY PREDICTED BY IDOCK:   -3.17 KCAL/MOL
REMARK 924 INTRA-LIGAND FREE ENERGY PREDICTED BY IDOCK:    9.34 KCAL/MOL
REMARK 927      BINDING AFFINITY PREDICTED BY RF-SCORE:    0.00 PKD
ROOT
HETATM    1  C   UNL     1     -12.939   9.192  70.384  1.00  0.00     0.649 C  
HETATM    2  C   UNL     1     -14.057   8.436  71.147  1.00  0.00    -0.162 C  
HETATM    3  C   UNL     1     -14.031   9.013  72.573  1.00  0.00    -0.472 C  
HETATM    4  C   UNL     1     -12.580   9.464  72.789  1.00  0.00     0.190 C  
HETATM    5  C   UNL     1     -11.891   8.916  71.555  1.00  0.00    -0.402 C  
HETATM    6  C   UNL     1     -10.643   9.523  71.072  1.00  0.00    -0.322 A  
HETATM    7  N   UNL     1      -9.384   9.166  71.026  1.00  0.00    -0.266 NA 
HETATM    8  N   UNL     1      -8.841   9.777  69.895  1.00  0.00    -0.217 NA 
HETATM    9  C   UNL     1      -9.804  10.411  69.265  1.00  0.00    -0.225 A  
HETATM   10  C   UNL     1     -12.321  10.535  69.840  1.00  0.00    -0.178 C  
HETATM   11  N   UNL     1     -10.903  10.369  70.049  1.00  0.00    -0.290 NA 
ENDROOT
BRANCH   9  12
HETATM   12  C   UNL     1      -9.771  11.064  67.933  1.00  0.00    -0.183 C  
BRANCH  12  13
HETATM   13  C   UNL     1     -10.233  10.109  66.812  1.00  0.00    -0.228 C  
BRANCH  13  14
HETATM   14  N   UNL     1     -10.583   8.771  67.333  1.00  0.00    -0.273 NA 
HETATM   15  C   UNL     1     -10.335   7.683  66.352  1.00  0.00     0.144 C  
HETATM   16  C   UNL     1      -8.845   7.371  66.099  1.00  0.00    -0.160 C  
HETATM   17  N   UNL     1      -8.203   7.010  67.371  1.00  0.00    -0.118 NA 
HETATM   18  C   UNL     1      -9.837   8.448  68.577  1.00  0.00    -0.173 C  
HETATM   19  C   UNL     1      -8.345   8.039  68.416  1.00  0.00    -0.127 C  
BRANCH  17  20
HETATM   20  C   UNL     1      -7.441   5.868  67.520  1.00  0.00    -0.078 A  
HETATM   21  C   UNL     1      -6.957   5.152  66.412  1.00  0.00    -0.067 A  
HETATM   22  C   UNL     1      -6.203   3.978  66.542  1.00  0.00    -0.032 A  
HETATM   23  C   UNL     1      -5.911   3.482  67.804  1.00  0.00    -0.027 A  
HETATM   24  C   UNL     1      -6.379   4.152  68.939  1.00  0.00    -0.032 A  
HETATM   25  C   UNL     1      -6.106   3.627  70.322  1.00  0.00    -0.019 C  
HETATM   26  C   UNL     1      -7.124   5.341  68.781  1.00  0.00    -0.061 A  
HETATM   27  F   UNL     1      -7.248   3.355  71.013  1.00  0.00    -0.032 F  
HETATM   28  F   UNL     1      -5.408   4.506  71.093  1.00  0.00    -0.003 F  
HETATM   29  F   UNL     1      -5.381   2.469  70.337  1.00  0.00    -0.006 F  
ENDBRANCH  17  20
ENDBRANCH  13  14
ENDBRANCH  12  13
ENDBRANCH   9  12
TORSDOF 4
ENDMDL
MODEL      244
REMARK 921   NORMALIZED FREE ENERGY PREDICTED BY IDOCK:    5.61 KCAL/MOL
REMARK 922        TOTAL FREE ENERGY PREDICTED BY IDOCK:    6.33 KCAL/MOL
REMARK 923 INTER-LIGAND FREE ENERGY PREDICTED BY IDOCK:    2.47 KCAL/MOL
REMARK 924 INTRA-LIGAND FREE ENERGY PREDICTED BY IDOCK:    3.86 KCAL/MOL
REMARK 927      BINDING AFFINITY PREDICTED BY RF-SCORE:    0.00 PKD
ROOT
HETATM    1  C   UNL     1     -11.189  11.035  64.494  1.00  0.00     0.098 C  
HETATM    2  C   UNL     1     -12.322  11.364  63.490  1.00  0.00     0.115 C  
HETATM    3  C   UNL     1     -12.844  12.748  63.913  1.00  0.00    -0.164 C  
HETATM    4  C   UNL     1     -12.573  12.826  65.421  1.00  0.00    -0.387 C  
HETATM    5  C   UNL     1     -12.117  11.415  65.735  1.00  0.00     1.160 C  
HETATM    6  C   UNL     1     -11.275  11.152  66.909  1.00  0.00    -0.186 A  
HETATM    7  N   UNL     1     -11.438  10.563  68.067  1.00  0.00    -0.417 NA 
HETATM    8  N   UNL     1     -10.199  10.025  68.416  1.00  0.00    -0.165 NA 
HETATM    9  C   UNL     1      -9.362  10.241  67.427  1.00  0.00    -0.145 A  
HETATM   10  C   UNL     1      -9.794  11.373  65.144  1.00  0.00    -0.260 C  
HETATM   11  N   UNL     1      -9.978  11.049  66.538  1.00  0.00    -0.206 NA 
ENDROOT
BRANCH   9  12
HETATM   12  C   UNL     1      -7.986   9.717  67.242  1.00  0.00    -0.106 C  
BRANCH  12  13
HETATM   13  C   UNL     1      -7.180   9.736  68.558  1.00  0.00    -0.070 C  
BRANCH  13  14
HETATM   14  N   UNL     1      -6.585  11.063  68.824  1.00  0.00    -0.057 NA 
HETATM   15  C   UNL     1      -6.244  11.806  67.584  1.00  0.00    -0.078 C  
HETATM   16  C   UNL     1      -7.462  12.333  66.793  1.00  0.00     0.121 C  
HETATM   17  N   UNL     1      -8.259  13.210  67.662  1.00  0.00    -0.161 NA 
HETATM   18  C   UNL     1      -7.482  11.919  69.642  1.00  0.00     0.565 C  
HETATM   19  C   UNL     1      -8.695  12.565  68.913  1.00  0.00     0.320 C  
BRANCH  17  20
HETATM   20  C   UNL     1      -8.656  14.476  67.275  1.00  0.00    -0.215 A  
HETATM   21  C   UNL     1      -7.812  15.591  67.415  1.00  0.00    -0.213 A  
HETATM   22  C   UNL     1      -8.205  16.886  67.051  1.00  0.00    -0.228 A  
HETATM   23  C   UNL     1      -9.474  17.101  66.533  1.00  0.00    -0.290 A  
HETATM   24  C   UNL     1     -10.356  16.026  66.386  1.00  0.00    -0.312 A  
HETATM   25  C   UNL     1     -11.749  16.228  65.855  1.00  0.00     1.026 C  
HETATM   26  C   UNL     1      -9.930  14.729  66.745  1.00  0.00    -0.256 A  
HETATM   27  F   UNL     1     -12.708  15.837  66.740  1.00  0.00     1.212 F  
HETATM   28  F   UNL     1     -11.987  15.523  64.715  1.00  0.00    -0.276 F  
HETATM   29  F   UNL     1     -12.037  17.528  65.550  1.00  0.00     2.042 F  
ENDBRANCH  17  20
ENDBRANCH  13  14
ENDBRANCH  12  13
ENDBRANCH   9  12
TORSDOF 4
ENDMDL
MODEL      245
REMARK 921   NORMALIZED FREE ENERGY PREDICTED BY IDOCK:    8.54 KCAL/MOL
REMARK 922        TOTAL FREE ENERGY PREDICTED BY IDOCK:    9.95 KCAL/MOL
REMARK 923 INTER-LIGAND FREE ENERGY PREDICTED BY IDOCK:   -1.14 KCAL/MOL
REMARK 924 INTRA-LIGAND FREE ENERGY PREDICTED BY IDOCK:   11.09 KCAL/MOL
REMARK 927      BINDING AFFINITY PREDICTED BY RF-SCORE:    0.00 PKD
ROOT
HETATM    1  C   UNL     1     -10.698  12.341  69.981  1.00  0.00     1.000 C  
HETATM    2  C   UNL     1     -11.636  13.552  70.216  1.00  0.00    -0.138 C  
HETATM    3  C   UNL     1     -11.503  14.415  68.950  1.00  0.00    -0.319 C  
HETATM    4  C   UNL     1     -10.090  14.129  68.425  1.00  0.00    -0.238 C  
HETATM    5  C   UNL     1      -9.497  13.298  69.547  1.00  0.00     1.298 C  
HETATM    6  C   UNL     1      -8.383  12.380  69.280  1.00  0.00     0.792 A  
HETATM    7  N   UNL     1      -7.108  12.342  69.578  1.00  0.00     0.125 NA 
HETATM    8  N   UNL     1      -6.765  10.993  69.677  1.00  0.00    -0.126 NA 
HETATM    9  C   UNL     1      -7.854  10.277  69.514  1.00  0.00    -0.168 A  
HETATM   10  C   UNL     1     -10.286  11.071  69.146  1.00  0.00    -0.188 C  
HETATM   11  N   UNL     1      -8.844  11.116  69.141  1.00  0.00    -0.009 NA 
ENDROOT
BRANCH   9  12
HETATM   12  C   UNL     1      -8.043   8.816  69.701  1.00  0.00    -0.101 C  
BRANCH  12  13
HETATM   13  C   UNL     1      -6.936   7.998  69.004  1.00  0.00    -0.058 C  
BRANCH  13  14
HETATM   14  N   UNL     1      -6.398   8.692  67.815  1.00  0.00    -0.056 NA 
HETATM   15  C   UNL     1      -6.687   7.979  66.545  1.00  0.00    -0.062 C  
HETATM   16  C   UNL     1      -8.165   8.026  66.101  1.00  0.00    -0.116 C  
HETATM   17  N   UNL     1      -8.582   9.428  65.958  1.00  0.00    -0.137 NA 
HETATM   18  C   UNL     1      -6.925  10.077  67.696  1.00  0.00    -0.085 C  
HETATM   19  C   UNL     1      -8.382  10.232  67.176  1.00  0.00    -0.122 C  
BRANCH  17  20
HETATM   20  C   UNL     1      -9.211   9.903  64.822  1.00  0.00    -0.254 A  
HETATM   21  C   UNL     1      -8.879   9.430  63.541  1.00  0.00    -0.198 A  
HETATM   22  C   UNL     1      -9.488   9.916  62.376  1.00  0.00    -0.174 A  
HETATM   23  C   UNL     1     -10.458  10.904  62.466  1.00  0.00     0.597 A  
HETATM   24  C   UNL     1     -10.815  11.416  63.717  1.00  0.00    -0.468 A  
HETATM   25  C   UNL     1     -11.841  12.508  63.849  1.00  0.00    -0.463 C  
HETATM   26  C   UNL     1     -10.197  10.898  64.876  1.00  0.00    -0.381 A  
HETATM   27  F   UNL     1     -11.340  13.627  64.441  1.00  0.00    -0.346 F  
HETATM   28  F   UNL     1     -12.913  12.138  64.602  1.00  0.00    -0.515 F  
HETATM   29  F   UNL     1     -12.357  12.923  62.654  1.00  0.00    -0.235 F  
ENDBRANCH  17  20
ENDBRANCH  13  14
ENDBRANCH  12  13
ENDBRANCH   9  12
TORSDOF 4
ENDMDL
MODEL      246
REMARK 921   NORMALIZED FREE ENERGY PREDICTED BY IDOCK:   15.68 KCAL/MOL
REMARK 922        TOTAL FREE ENERGY PREDICTED BY IDOCK:   18.76 KCAL/MOL
REMARK 923 INTER-LIGAND FREE ENERGY PREDICTED BY IDOCK:   16.17 KCAL/MOL
REMARK 924 INTRA-LIGAND FREE ENERGY PREDICTED BY IDOCK:    2.58 KCAL/MOL
REMARK 927      BINDING AFFINITY PREDICTED BY RF-SCORE:    0.00 PKD
ROOT
HETATM    1  C   UNL     1     -10.985   9.882  64.485  1.00  0.00     2.853 C  
HETATM    2  C   UNL     1     -12.143   9.700  63.471  1.00  0.00    10.770 C  
HETATM    3  C   UNL     1     -12.013  10.883  62.497  1.00  0.00     2.326 C  
HETATM    4  C   UNL     1     -11.357  12.000  63.320  1.00  0.00    -0.396 C  
HETATM    5  C   UNL     1     -11.368  11.413  64.717  1.00  0.00    -0.131 C  
HETATM    6  C   UNL     1     -10.405  11.877  65.724  1.00  0.00    -0.248 A  
HETATM    7  N   UNL     1     -10.466  12.586  66.823  1.00  0.00    -0.225 NA 
HETATM    8  N   UNL     1      -9.454  12.111  67.658  1.00  0.00    -0.182 NA 
HETATM    9  C   UNL     1      -8.877  11.090  67.067  1.00  0.00    -0.143 A  
HETATM   10  C   UNL     1      -9.445   9.984  64.800  1.00  0.00    -0.304 C  
HETATM   11  N   UNL     1      -9.370  11.011  65.812  1.00  0.00    -0.204 NA 
ENDROOT
BRANCH   9  12
HETATM   12  C   UNL     1      -7.873  10.144  67.615  1.00  0.00    -0.098 C  
BRANCH  12  13
HETATM   13  C   UNL     1      -7.861  10.145  69.158  1.00  0.00    -0.120 C  
BRANCH  13  14
HETATM   14  N   UNL     1      -6.841  11.066  69.704  1.00  0.00    -0.132 NA 
HETATM   15  C   UNL     1      -5.892  11.558  68.674  1.00  0.00    -0.042 C  
HETATM   16  C   UNL     1      -6.494  12.564  67.670  1.00  0.00    -0.138 C  
HETATM   17  N   UNL     1      -7.028  13.719  68.405  1.00  0.00    -0.092 NA 
HETATM   18  C   UNL     1      -7.457  12.246  70.364  1.00  0.00     2.924 C  
HETATM   19  C   UNL     1      -8.020  13.358  69.433  1.00  0.00     0.689 C  
BRANCH  17  20
HETATM   20  C   UNL     1      -6.712  15.022  68.072  1.00  0.00    -0.145 A  
HETATM   21  C   UNL     1      -5.475  15.595  68.417  1.00  0.00    -0.103 A  
HETATM   22  C   UNL     1      -5.145  16.921  68.110  1.00  0.00    -0.116 A  
HETATM   23  C   UNL     1      -6.060  17.722  67.440  1.00  0.00    -0.164 A  
HETATM   24  C   UNL     1      -7.308  17.202  67.085  1.00  0.00    -0.198 A  
HETATM   25  C   UNL     1      -8.334  18.051  66.385  1.00  0.00    -0.246 C  
HETATM   26  C   UNL     1      -7.610  15.859  67.393  1.00  0.00    -0.208 A  
HETATM   27  F   UNL     1      -9.492  18.163  67.094  1.00  0.00    -0.251 F  
HETATM   28  F   UNL     1      -8.691  17.553  65.169  1.00  0.00     0.771 F  
HETATM   29  F   UNL     1      -7.920  19.332  66.150  1.00  0.00    -0.274 F  
ENDBRANCH  17  20
ENDBRANCH  13  14
ENDBRANCH  12  13
ENDBRANCH   9  12
TORSDOF 4
ENDMDL
MODEL      247
REMARK 921   NORMALIZED FREE ENERGY PREDICTED BY IDOCK:   17.70 KCAL/MOL
REMARK 922        TOTAL FREE ENERGY PREDICTED BY IDOCK:   21.25 KCAL/MOL
REMARK 923 INTER-LIGAND FREE ENERGY PREDICTED BY IDOCK:    8.00 KCAL/MOL
REMARK 924 INTRA-LIGAND FREE ENERGY PREDICTED BY IDOCK:   13.24 KCAL/MOL
REMARK 927      BINDING AFFINITY PREDICTED BY RF-SCORE:    0.00 PKD
ROOT
HETATM    1  C   UNL     1      -6.249  12.186  66.817  1.00  0.00     0.125 C  
HETATM    2  C   UNL     1      -5.502  10.828  66.799  1.00  0.00    -0.062 C  
HETATM    3  C   UNL     1      -6.403   9.863  67.589  1.00  0.00    -0.059 C  
HETATM    4  C   UNL     1      -7.160  10.756  68.581  1.00  0.00    -0.078 C  
HETATM    5  C   UNL     1      -6.471  12.094  68.395  1.00  0.00    -0.056 C  
HETATM    6  C   UNL     1      -7.167  13.341  68.734  1.00  0.00    -0.088 A  
HETATM    7  N   UNL     1      -7.057  14.252  69.668  1.00  0.00    -0.063 NA 
HETATM    8  N   UNL     1      -7.467  15.457  69.096  1.00  0.00    -0.171 NA 
HETATM    9  C   UNL     1      -7.733  15.243  67.828  1.00  0.00    -0.149 A  
HETATM   10  C   UNL     1      -7.511  13.058  66.463  1.00  0.00     1.148 C  
HETATM   11  N   UNL     1      -7.674  13.910  67.617  1.00  0.00    -0.169 NA 
ENDROOT
BRANCH   9  12
HETATM   12  C   UNL     1      -8.036  16.229  66.761  1.00  0.00    -0.299 C  
BRANCH  12  13
HETATM   13  C   UNL     1      -9.445  16.839  66.923  1.00  0.00    -0.241 C  
BRANCH  13  14
HETATM   14  N   UNL     1     -10.025  16.549  68.252  1.00  0.00    -0.242 NA 
HETATM   15  C   UNL     1     -11.485  16.284  68.202  1.00  0.00    -0.173 C  
HETATM   16  C   UNL     1     -11.873  14.934  67.561  1.00  0.00    -0.232 C  
HETATM   17  N   UNL     1     -11.223  13.843  68.300  1.00  0.00    -0.259 NA 
HETATM   18  C   UNL     1      -9.367  15.386  68.902  1.00  0.00    -0.218 C  
HETATM   19  C   UNL     1      -9.758  13.975  68.380  1.00  0.00    -0.223 C  
BRANCH  17  20
HETATM   20  C   UNL     1     -11.919  12.744  68.766  1.00  0.00    -0.240 A  
HETATM   21  C   UNL     1     -12.639  11.903  67.899  1.00  0.00     1.651 A  
HETATM   22  C   UNL     1     -13.371  10.798  68.354  1.00  0.00     6.048 A  
HETATM   23  C   UNL     1     -13.402  10.503  69.709  1.00  0.00     0.970 A  
HETATM   24  C   UNL     1     -12.711  11.315  70.613  1.00  0.00    -0.314 A  
HETATM   25  C   UNL     1     -12.748  11.041  72.092  1.00  0.00     0.132 C  
HETATM   26  C   UNL     1     -11.969  12.413  70.128  1.00  0.00    -0.376 A  
HETATM   27  F   UNL     1     -13.261  12.083  72.804  1.00  0.00    -0.248 F  
HETATM   28  F   UNL     1     -11.513  10.806  72.617  1.00  0.00     2.371 F  
HETATM   29  F   UNL     1     -13.504   9.955  72.431  1.00  0.00    -0.479 F  
ENDBRANCH  17  20
ENDBRANCH  13  14
ENDBRANCH  12  13
ENDBRANCH   9  12
TORSDOF 4
ENDMDL
MODEL      248
REMARK 921   NORMALIZED FREE ENERGY PREDICTED BY IDOCK:   20.24 KCAL/MOL
REMARK 922        TOTAL FREE ENERGY PREDICTED BY IDOCK:   24.39 KCAL/MOL
REMARK 923 INTER-LIGAND FREE ENERGY PREDICTED BY IDOCK:    7.03 KCAL/MOL
REMARK 924 INTRA-LIGAND FREE ENERGY PREDICTED BY IDOCK:   17.36 KCAL/MOL
REMARK 927      BINDING AFFINITY PREDICTED BY RF-SCORE:    0.00 PKD
ROOT
HETATM    1  C   UNL     1      -8.642   8.871  68.831  1.00  0.00    -0.135 C  
HETATM    2  C   UNL     1      -9.470   8.656  67.538  1.00  0.00    -0.181 C  
HETATM    3  C   UNL     1     -10.564   7.646  67.925  1.00  0.00    -0.233 C  
HETATM    4  C   UNL     1      -9.949   6.815  69.058  1.00  0.00    -0.161 C  
HETATM    5  C   UNL     1      -8.511   7.297  69.062  1.00  0.00    -0.129 C  
HETATM    6  C   UNL     1      -7.692   7.178  70.275  1.00  0.00    -0.095 A  
HETATM    7  N   UNL     1      -6.669   6.450  70.647  1.00  0.00    -0.056 NA 
HETATM    8  N   UNL     1      -5.934   7.228  71.542  1.00  0.00    -0.036 NA 
HETATM    9  C   UNL     1      -6.495   8.414  71.615  1.00  0.00    -0.061 A  
HETATM   10  C   UNL     1      -8.547   9.328  70.335  1.00  0.00    -0.219 C  
HETATM   11  N   UNL     1      -7.658   8.359  70.932  1.00  0.00    -0.072 NA 
ENDROOT
BRANCH   9  12
HETATM   12  C   UNL     1      -5.996   9.639  72.289  1.00  0.00     0.271 C  
BRANCH  12  13
HETATM   13  C   UNL     1      -5.408  10.651  71.284  1.00  0.00    -0.062 C  
BRANCH  13  14
HETATM   14  N   UNL     1      -5.826  10.361  69.895  1.00  0.00    -0.048 NA 
HETATM   15  C   UNL     1      -7.247   9.942  69.792  1.00  0.00    -0.118 C  
HETATM   16  C   UNL     1      -8.271  11.071  70.034  1.00  0.00     1.146 C  
HETATM   17  N   UNL     1      -8.031  12.156  69.072  1.00  0.00     0.116 NA 
HETATM   18  C   UNL     1      -5.624  11.530  69.000  1.00  0.00    -0.050 C  
HETATM   19  C   UNL     1      -6.657  12.687  69.111  1.00  0.00    -0.099 C  
BRANCH  17  20
HETATM   20  C   UNL     1      -9.038  12.697  68.296  1.00  0.00    -0.181 A  
HETATM   21  C   UNL     1      -8.895  13.944  67.662  1.00  0.00    -0.191 A  
HETATM   22  C   UNL     1      -9.914  14.521  66.892  1.00  0.00    -0.259 A  
HETATM   23  C   UNL     1     -11.121  13.855  66.737  1.00  0.00    -0.310 A  
HETATM   24  C   UNL     1     -11.317  12.618  67.357  1.00  0.00    -0.367 A  
HETATM   25  C   UNL     1     -12.624  11.883  67.234  1.00  0.00     2.091 C  
HETATM   26  C   UNL     1     -10.270  12.051  68.115  1.00  0.00    -0.203 A  
HETATM   27  F   UNL     1     -13.217  11.665  68.441  1.00  0.00     1.816 F  
HETATM   28  F   UNL     1     -12.488  10.656  66.661  1.00  0.00     2.011 F  
HETATM   29  F   UNL     1     -13.555  12.540  66.480  1.00  0.00     2.846 F  
ENDBRANCH  17  20
ENDBRANCH  13  14
ENDBRANCH  12  13
ENDBRANCH   9  12
TORSDOF 4
ENDMDL
MODEL      249
REMARK 921   NORMALIZED FREE ENERGY PREDICTED BY IDOCK:   20.25 KCAL/MOL
REMARK 922        TOTAL FREE ENERGY PREDICTED BY IDOCK:   24.40 KCAL/MOL
REMARK 923 INTER-LIGAND FREE ENERGY PREDICTED BY IDOCK:   11.24 KCAL/MOL
REMARK 924 INTRA-LIGAND FREE ENERGY PREDICTED BY IDOCK:   13.16 KCAL/MOL
REMARK 927      BINDING AFFINITY PREDICTED BY RF-SCORE:    0.00 PKD
ROOT
HETATM    1  C   UNL     1     -11.286   8.675  71.447  1.00  0.00    -0.350 C  
HETATM    2  C   UNL     1     -11.690   7.892  72.723  1.00  0.00    -0.338 C  
HETATM    3  C   UNL     1     -12.269   6.561  72.211  1.00  0.00    -0.201 C  
HETATM    4  C   UNL     1     -12.836   6.887  70.823  1.00  0.00    -0.033 C  
HETATM    5  C   UNL     1     -12.706   8.397  70.773  1.00  0.00     0.246 C  
HETATM    6  C   UNL     1     -12.634   9.093  69.482  1.00  0.00     2.152 A  
HETATM    7  N   UNL     1     -13.424   9.880  68.796  1.00  0.00     4.801 NA 
HETATM    8  N   UNL     1     -12.597  10.735  68.068  1.00  0.00     1.374 NA 
HETATM    9  C   UNL     1     -11.350  10.484  68.399  1.00  0.00    -0.262 A  
HETATM   10  C   UNL     1     -10.432   8.798  70.130  1.00  0.00    -0.213 C  
HETATM   11  N   UNL     1     -11.348   9.383  69.180  1.00  0.00     0.090 NA 
ENDROOT
BRANCH   9  12
HETATM   12  C   UNL     1     -10.122  11.234  68.035  1.00  0.00    -0.192 C  
BRANCH  12  13
HETATM   13  C   UNL     1      -9.057  11.171  69.150  1.00  0.00     0.066 C  
BRANCH  13  14
HETATM   14  N   UNL     1      -8.275   9.917  69.100  1.00  0.00    -0.118 NA 
HETATM   15  C   UNL     1      -9.128   8.702  69.080  1.00  0.00    -0.142 C  
HETATM   16  C   UNL     1      -9.888   8.468  67.757  1.00  0.00    -0.175 C  
HETATM   17  N   UNL     1      -8.921   8.381  66.653  1.00  0.00    -0.143 NA 
HETATM   18  C   UNL     1      -7.378   9.870  67.916  1.00  0.00    -0.088 C  
HETATM   19  C   UNL     1      -8.041   9.558  66.544  1.00  0.00    -0.112 C  
BRANCH  17  20
HETATM   20  C   UNL     1      -8.928   7.344  65.741  1.00  0.00    -0.022 A  
HETATM   21  C   UNL     1     -10.124   6.852  65.190  1.00  0.00     2.653 A  
HETATM   22  C   UNL     1     -10.155   5.786  64.281  1.00  0.00     2.448 A  
HETATM   23  C   UNL     1      -8.971   5.173  63.898  1.00  0.00     0.093 A  
HETATM   24  C   UNL     1      -7.755   5.618  64.426  1.00  0.00    -0.097 A  
HETATM   25  C   UNL     1      -6.455   4.957  64.054  1.00  0.00    -0.037 C  
HETATM   26  C   UNL     1      -7.750   6.704  65.328  1.00  0.00    -0.099 A  
HETATM   27  F   UNL     1      -5.803   4.443  65.134  1.00  0.00    -0.019 F  
HETATM   28  F   UNL     1      -5.577   5.814  63.464  1.00  0.00    -0.016 F  
HETATM   29  F   UNL     1      -6.598   3.917  63.180  1.00  0.00    -0.029 F  
ENDBRANCH  17  20
ENDBRANCH  13  14
ENDBRANCH  12  13
ENDBRANCH   9  12
TORSDOF 4
ENDMDL
MODEL      250
REMARK 921   NORMALIZED FREE ENERGY PREDICTED BY IDOCK:   21.67 KCAL/MOL
REMARK 922        TOTAL FREE ENERGY PREDICTED BY IDOCK:   26.15 KCAL/MOL
REMARK 923 INTER-LIGAND FREE ENERGY PREDICTED BY IDOCK:   20.35 KCAL/MOL
REMARK 924 INTRA-LIGAND FREE ENERGY PREDICTED BY IDOCK:    5.80 KCAL/MOL
REMARK 927      BINDING AFFINITY PREDICTED BY RF-SCORE:    0.00 PKD
ROOT
HETATM    1  C   UNL     1     -10.387   8.828  67.107  1.00  0.00    -0.364 C  
HETATM    2  C   UNL     1     -10.709   9.909  66.043  1.00  0.00     0.138 C  
HETATM    3  C   UNL     1     -11.818   9.296  65.171  1.00  0.00     9.256 C  
HETATM    4  C   UNL     1     -11.590   7.781  65.251  1.00  0.00    10.117 C  
HETATM    5  C   UNL     1     -10.267   7.698  65.986  1.00  0.00     0.658 C  
HETATM    6  C   UNL     1      -9.909   6.486  66.734  1.00  0.00    -0.162 A  
HETATM    7  N   UNL     1      -9.042   5.516  66.588  1.00  0.00    -0.123 NA 
HETATM    8  N   UNL     1      -8.698   5.095  67.872  1.00  0.00    -0.103 NA 
HETATM    9  C   UNL     1      -9.307   5.872  68.739  1.00  0.00    -0.122 A  
HETATM   10  C   UNL     1     -10.837   7.910  68.305  1.00  0.00     0.079 C  
HETATM   11  N   UNL     1     -10.161   6.660  68.051  1.00  0.00    -0.154 NA 
ENDROOT
BRANCH   9  12
HETATM   12  C   UNL     1      -9.131   5.941  70.211  1.00  0.00    -0.156 C  
BRANCH  12  13
HETATM   13  C   UNL     1      -8.843   7.379  70.690  1.00  0.00    -0.150 C  
BRANCH  13  14
HETATM   14  N   UNL     1      -9.170   8.384  69.656  1.00  0.00    -0.159 NA 
HETATM   15  C   UNL     1      -9.607   9.684  70.228  1.00  0.00    -0.254 C  
HETATM   16  C   UNL     1      -8.485  10.504  70.898  1.00  0.00     2.701 C  
HETATM   17  N   UNL     1      -7.420  10.757  69.917  1.00  0.00    -0.035 NA 
HETATM   18  C   UNL     1      -8.020   8.643  68.751  1.00  0.00    -0.114 C  
HETATM   19  C   UNL     1      -6.872   9.532  69.309  1.00  0.00    -0.049 C  
BRANCH  17  20
HETATM   20  C   UNL     1      -6.908  12.020  69.686  1.00  0.00     0.085 A  
HETATM   21  C   UNL     1      -5.767  12.490  70.359  1.00  0.00    -0.170 A  
HETATM   22  C   UNL     1      -5.247  13.775  70.158  1.00  0.00    -0.096 A  
HETATM   23  C   UNL     1      -5.868  14.638  69.266  1.00  0.00    -0.101 A  
HETATM   24  C   UNL     1      -7.013  14.222  68.580  1.00  0.00    -0.105 A  
HETATM   25  C   UNL     1      -7.729  15.141  67.628  1.00  0.00    -0.167 C  
HETATM   26  C   UNL     1      -7.508  12.917  68.790  1.00  0.00    -0.047 A  
HETATM   27  F   UNL     1      -9.021  15.370  67.993  1.00  0.00    -0.166 F  
HETATM   28  F   UNL     1      -7.783  14.650  66.359  1.00  0.00     0.239 F  
HETATM   29  F   UNL     1      -7.153  16.375  67.520  1.00  0.00    -0.122 F  
ENDBRANCH  17  20
ENDBRANCH  13  14
ENDBRANCH  12  13
ENDBRANCH   9  12
TORSDOF 4
ENDMDL
MODEL      251
REMARK 921   NORMALIZED FREE ENERGY PREDICTED BY IDOCK:   22.93 KCAL/MOL
REMARK 922        TOTAL FREE ENERGY PREDICTED BY IDOCK:   27.70 KCAL/MOL
REMARK 923 INTER-LIGAND FREE ENERGY PREDICTED BY IDOCK:   17.36 KCAL/MOL
REMARK 924 INTRA-LIGAND FREE ENERGY PREDICTED BY IDOCK:   10.33 KCAL/MOL
REMARK 927      BINDING AFFINITY PREDICTED BY RF-SCORE:    0.00 PKD
ROOT
HETATM    1  C   UNL     1      -6.588   9.567  72.741  1.00  0.00     0.791 C  
HETATM    2  C   UNL     1      -5.715  10.833  72.940  1.00  0.00     1.219 C  
HETATM    3  C   UNL     1      -6.085  11.360  74.337  1.00  0.00     1.958 C  
HETATM    4  C   UNL     1      -7.533  10.904  74.559  1.00  0.00     6.102 C  
HETATM    5  C   UNL     1      -7.903  10.348  73.198  1.00  0.00     7.866 C  
HETATM    6  C   UNL     1      -8.975   9.353  73.070  1.00  0.00     2.783 A  
HETATM    7  N   UNL     1     -10.190   9.341  72.582  1.00  0.00     0.878 NA 
HETATM    8  N   UNL     1     -10.419   8.045  72.119  1.00  0.00    -0.244 NA 
HETATM    9  C   UNL     1      -9.315   7.350  72.275  1.00  0.00    -0.142 A  
HETATM   10  C   UNL     1      -7.020   8.119  73.184  1.00  0.00    -0.109 C  
HETATM   11  N   UNL     1      -8.449   8.110  72.979  1.00  0.00    -0.194 NA 
ENDROOT
BRANCH   9  12
HETATM   12  C   UNL     1      -8.997   5.986  71.784  1.00  0.00    -0.138 C  
BRANCH  12  13
HETATM   13  C   UNL     1      -8.664   5.978  70.278  1.00  0.00    -0.143 C  
BRANCH  13  14
HETATM   14  N   UNL     1      -7.837   7.140  69.887  1.00  0.00    -0.111 NA 
HETATM   15  C   UNL     1      -7.878   7.418  68.428  1.00  0.00    -0.122 C  
HETATM   16  C   UNL     1      -9.217   7.995  67.919  1.00  0.00    -0.131 C  
HETATM   17  N   UNL     1      -9.512   9.240  68.642  1.00  0.00    -0.145 NA 
HETATM   18  C   UNL     1      -8.247   8.377  70.602  1.00  0.00    -0.116 C  
HETATM   19  C   UNL     1      -9.542   9.080  70.106  1.00  0.00    -0.193 C  
BRANCH  17  20
HETATM   20  C   UNL     1      -9.847  10.413  67.993  1.00  0.00    -0.150 A  
HETATM   21  C   UNL     1     -10.278  11.551  68.698  1.00  0.00    -0.217 A  
HETATM   22  C   UNL     1     -10.645  12.741  68.057  1.00  0.00    -0.238 A  
HETATM   23  C   UNL     1     -10.593  12.824  66.673  1.00  0.00    -0.272 A  
HETATM   24  C   UNL     1     -10.182  11.716  65.926  1.00  0.00    -0.277 A  
HETATM   25  C   UNL     1     -10.142  11.761  64.422  1.00  0.00    -0.282 C  
HETATM   26  C   UNL     1      -9.803  10.533  66.596  1.00  0.00    -0.246 A  
HETATM   27  F   UNL     1     -10.948  10.824  63.850  1.00  0.00    -0.382 F  
HETATM   28  F   UNL     1      -8.897  11.535  63.921  1.00  0.00    -0.006 F  
HETATM   29  F   UNL     1     -10.538  12.958  63.898  1.00  0.00    -0.375 F  
ENDBRANCH  17  20
ENDBRANCH  13  14
ENDBRANCH  12  13
ENDBRANCH   9  12
TORSDOF 4
ENDMDL
MODEL      252
REMARK 921   NORMALIZED FREE ENERGY PREDICTED BY IDOCK:   28.12 KCAL/MOL
REMARK 922        TOTAL FREE ENERGY PREDICTED BY IDOCK:   34.11 KCAL/MOL
REMARK 923 INTER-LIGAND FREE ENERGY PREDICTED BY IDOCK:   19.09 KCAL/MOL
REMARK 924 INTRA-LIGAND FREE ENERGY PREDICTED BY IDOCK:   15.02 KCAL/MOL
REMARK 927      BINDING AFFINITY PREDICTED BY RF-SCORE:    0.00 PKD
ROOT
HETATM    1  C   UNL     1      -6.588   9.567  72.741  1.00  0.00     0.791 C  
HETATM    2  C   UNL     1      -5.727  10.841  72.941  1.00  0.00     1.219 C  
HETATM    3  C   UNL     1      -6.102  11.363  74.339  1.00  0.00     1.958 C  
HETATM    4  C   UNL     1      -7.546  10.894  74.559  1.00  0.00     6.690 C  
HETATM    5  C   UNL     1      -7.910  10.335  73.198  1.00  0.00     6.881 C  
HETATM    6  C   UNL     1      -8.973   9.331  73.068  1.00  0.00     2.139 A  
HETATM    7  N   UNL     1     -10.188   9.308  72.579  1.00  0.00     0.629 NA 
HETATM    8  N   UNL     1     -10.404   8.011  72.115  1.00  0.00    -0.233 NA 
HETATM    9  C   UNL     1      -9.294   7.326  72.271  1.00  0.00    -0.138 A  
HETATM   10  C   UNL     1      -7.007   8.115  73.182  1.00  0.00    -0.109 C  
HETATM   11  N   UNL     1      -8.436   8.093  72.977  1.00  0.00    -0.194 NA 
ENDROOT
BRANCH   9  12
HETATM   12  C   UNL     1      -8.964   5.965  71.780  1.00  0.00    -0.141 C  
BRANCH  12  13
HETATM   13  C   UNL     1      -8.183   6.006  70.449  1.00  0.00    -0.116 C  
BRANCH  13  14
HETATM   14  N   UNL     1      -7.176   7.088  70.430  1.00  0.00    -0.073 NA 
HETATM   15  C   UNL     1      -6.739   7.452  69.058  1.00  0.00    -0.052 C  
HETATM   16  C   UNL     1      -7.798   8.204  68.223  1.00  0.00    -0.122 C  
HETATM   17  N   UNL     1      -8.189   9.431  68.931  1.00  0.00    -0.109 NA 
HETATM   18  C   UNL     1      -7.674   8.320  71.096  1.00  0.00    -0.094 C  
HETATM   19  C   UNL     1      -8.684   9.192  70.298  1.00  0.00    -0.200 C  
BRANCH  17  20
HETATM   20  C   UNL     1      -8.201  10.669  68.319  1.00  0.00    -0.120 A  
HETATM   21  C   UNL     1      -7.767  10.843  66.993  1.00  0.00    -0.129 A  
HETATM   22  C   UNL     1      -7.748  12.094  66.362  1.00  0.00     0.367 A  
HETATM   23  C   UNL     1      -8.168  13.221  67.054  1.00  0.00    -0.058 A  
HETATM   24  C   UNL     1      -8.599  13.103  68.379  1.00  0.00    -0.124 A  
HETATM   25  C   UNL     1      -9.033  14.308  69.168  1.00  0.00     0.166 C  
HETATM   26  C   UNL     1      -8.622  11.829  68.986  1.00  0.00     0.228 A  
HETATM   27  F   UNL     1      -8.280  14.500  70.287  1.00  0.00     0.349 F  
HETATM   28  F   UNL     1     -10.322  14.221  69.599  1.00  0.00    -0.142 F  
HETATM   29  F   UNL     1      -8.958  15.479  68.468  1.00  0.00    -0.170 F  
ENDBRANCH  17  20
ENDBRANCH  13  14
ENDBRANCH  12  13
ENDBRANCH   9  12
TORSDOF 4
ENDMDL
MODEL      253
REMARK 921   NORMALIZED FREE ENERGY PREDICTED BY IDOCK:   30.74 KCAL/MOL
REMARK 922        TOTAL FREE ENERGY PREDICTED BY IDOCK:   37.34 KCAL/MOL
REMARK 923 INTER-LIGAND FREE ENERGY PREDICTED BY IDOCK:   -2.51 KCAL/MOL
REMARK 924 INTRA-LIGAND FREE ENERGY PREDICTED BY IDOCK:   39.85 KCAL/MOL
REMARK 927      BINDING AFFINITY PREDICTED BY RF-SCORE:    0.00 PKD
ROOT
HETATM    1  C   UNL     1     -11.382  11.547  69.822  1.00  0.00    -0.303 C  
HETATM    2  C   UNL     1     -12.614  12.383  70.252  1.00  0.00    -0.021 C  
HETATM    3  C   UNL     1     -13.133  13.030  68.957  1.00  0.00     2.160 C  
HETATM    4  C   UNL     1     -11.894  13.168  68.063  1.00  0.00    -0.398 C  
HETATM    5  C   UNL     1     -10.775  12.778  69.008  1.00  0.00    -0.136 C  
HETATM    6  C   UNL     1      -9.502  12.269  68.481  1.00  0.00    -0.112 A  
HETATM    7  N   UNL     1      -8.275  12.719  68.399  1.00  0.00    -0.152 NA 
HETATM    8  N   UNL     1      -7.439  11.604  68.468  1.00  0.00    -0.106 NA 
HETATM    9  C   UNL     1      -8.185  10.540  68.665  1.00  0.00    -0.130 A  
HETATM   10  C   UNL     1     -10.747  10.382  68.973  1.00  0.00    -0.228 C  
HETATM   11  N   UNL     1      -9.476  10.919  68.550  1.00  0.00    -0.178 NA 
ENDROOT
BRANCH   9  12
HETATM   12  C   UNL     1      -7.762   9.152  68.977  1.00  0.00    -0.078 C  
BRANCH  12  13
HETATM   13  C   UNL     1      -6.685   8.644  67.997  1.00  0.00    -0.069 C  
BRANCH  13  14
HETATM   14  N   UNL     1      -6.414   9.617  66.917  1.00  0.00    -0.066 NA 
HETATM   15  C   UNL     1      -7.231   9.377  65.700  1.00  0.00    -0.091 C  
HETATM   16  C   UNL     1      -8.728   9.719  65.852  1.00  0.00    -0.139 C  
HETATM   17  N   UNL     1      -8.865  11.131  66.237  1.00  0.00    -0.181 NA 
HETATM   18  C   UNL     1      -6.648  11.016  67.360  1.00  0.00    -0.069 C  
HETATM   19  C   UNL     1      -8.128  11.482  67.464  1.00  0.00    -0.137 C  
BRANCH  17  20
HETATM   20  C   UNL     1      -9.705  12.004  65.572  1.00  0.00    -0.202 A  
HETATM   21  C   UNL     1     -10.194  11.723  64.285  1.00  0.00    -0.344 A  
HETATM   22  C   UNL     1     -11.026  12.606  63.584  1.00  0.00    -0.464 A  
HETATM   23  C   UNL     1     -11.393  13.812  64.163  1.00  0.00    -0.277 A  
HETATM   24  C   UNL     1     -10.924  14.143  65.437  1.00  0.00    -0.328 A  
HETATM   25  C   UNL     1     -11.279  15.456  66.082  1.00  0.00    -0.161 C  
HETATM   26  C   UNL     1     -10.099  13.230  66.128  1.00  0.00    -0.293 A  
HETATM   27  F   UNL     1     -10.181  16.209  66.373  1.00  0.00    -0.260 F  
HETATM   28  F   UNL     1     -11.945  15.302  67.259  1.00  0.00    -0.268 F  
HETATM   29  F   UNL     1     -12.076  16.250  65.308  1.00  0.00     0.517 F  
ENDBRANCH  17  20
ENDBRANCH  13  14
ENDBRANCH  12  13
ENDBRANCH   9  12
TORSDOF 4
ENDMDL
MODEL      254
REMARK 921   NORMALIZED FREE ENERGY PREDICTED BY IDOCK:   40.40 KCAL/MOL
REMARK 922        TOTAL FREE ENERGY PREDICTED BY IDOCK:   49.27 KCAL/MOL
REMARK 923 INTER-LIGAND FREE ENERGY PREDICTED BY IDOCK:   49.96 KCAL/MOL
REMARK 924 INTRA-LIGAND FREE ENERGY PREDICTED BY IDOCK:   -0.70 KCAL/MOL
REMARK 927      BINDING AFFINITY PREDICTED BY RF-SCORE:    0.00 PKD
ROOT
HETATM    1  C   UNL     1     -10.458  19.332  69.573  1.00  0.00     0.544 C  
HETATM    2  C   UNL     1      -9.472  20.518  69.732  1.00  0.00     1.049 C  
HETATM    3  C   UNL     1      -9.670  21.376  68.470  1.00  0.00     1.224 C  
HETATM    4  C   UNL     1     -10.130  20.388  67.391  1.00  0.00    -0.500 C  
HETATM    5  C   UNL     1      -9.953  19.053  68.086  1.00  0.00    -0.449 C  
HETATM    6  C   UNL     1     -10.730  17.883  67.655  1.00  0.00    -0.331 A  
HETATM    7  N   UNL     1     -10.467  16.758  67.039  1.00  0.00    -0.308 NA 
HETATM    8  N   UNL     1     -11.373  15.817  67.527  1.00  0.00    -0.218 NA 
HETATM    9  C   UNL     1     -12.092  16.387  68.469  1.00  0.00     0.598 A  
HETATM   10  C   UNL     1     -11.927  18.785  69.419  1.00  0.00     7.393 C  
HETATM   11  N   UNL     1     -11.791  17.703  68.473  1.00  0.00     1.553 NA 
ENDROOT
BRANCH   9  12
HETATM   12  C   UNL     1     -13.062  15.763  69.403  1.00  0.00     1.218 C  
BRANCH  12  13
HETATM   13  C   UNL     1     -12.356  15.062  70.583  1.00  0.00    -0.348 C  
BRANCH  13  14
HETATM   14  N   UNL     1     -12.652  13.614  70.624  1.00  0.00    -0.319 NA 
HETATM   15  C   UNL     1     -11.863  12.832  69.639  1.00  0.00    -0.317 C  
HETATM   16  C   UNL     1     -10.363  12.698  69.975  1.00  0.00     1.887 C  
HETATM   17  N   UNL     1     -10.217  12.070  71.296  1.00  0.00     6.733 NA 
HETATM   18  C   UNL     1     -12.408  13.037  71.972  1.00  0.00     0.525 C  
HETATM   19  C   UNL     1     -10.926  12.787  72.371  1.00  0.00     9.018 C  
BRANCH  17  20
HETATM   20  C   UNL     1      -9.393  10.983  71.515  1.00  0.00     8.390 A  
HETATM   21  C   UNL     1      -9.269  10.393  72.785  1.00  0.00    10.018 A  
HETATM   22  C   UNL     1      -8.420   9.306  73.032  1.00  0.00     1.798 A  
HETATM   23  C   UNL     1      -7.662   8.775  71.999  1.00  0.00    -0.025 A  
HETATM   24  C   UNL     1      -7.741   9.334  70.720  1.00  0.00    -0.164 A  
HETATM   25  C   UNL     1      -6.911   8.801  69.584  1.00  0.00    -0.046 C  
HETATM   26  C   UNL     1      -8.615  10.419  70.494  1.00  0.00     1.201 A  
HETATM   27  F   UNL     1      -6.081   9.744  69.057  1.00  0.00    -0.041 F  
HETATM   28  F   UNL     1      -7.665   8.349  68.545  1.00  0.00    -0.095 F  
HETATM   29  F   UNL     1      -6.104   7.756  69.936  1.00  0.00    -0.026 F  
ENDBRANCH  17  20
ENDBRANCH  13  14
ENDBRANCH  12  13
ENDBRANCH   9  12
TORSDOF 4
ENDMDL
MODEL      255
REMARK 921   NORMALIZED FREE ENERGY PREDICTED BY IDOCK:   67.42 KCAL/MOL
REMARK 922        TOTAL FREE ENERGY PREDICTED BY IDOCK:   82.60 KCAL/MOL
REMARK 923 INTER-LIGAND FREE ENERGY PREDICTED BY IDOCK:   61.22 KCAL/MOL
REMARK 924 INTRA-LIGAND FREE ENERGY PREDICTED BY IDOCK:   21.38 KCAL/MOL
REMARK 927      BINDING AFFINITY PREDICTED BY RF-SCORE:    0.00 PKD
ROOT
HETATM    1  C   UNL     1      -9.484  16.681  67.351  1.00  0.00    -0.232 C  
HETATM    2  C   UNL     1     -10.807  16.374  68.097  1.00  0.00    -0.346 C  
HETATM    3  C   UNL     1     -10.383  15.980  69.522  1.00  0.00    -0.278 C  
HETATM    4  C   UNL     1      -8.977  15.386  69.364  1.00  0.00    -0.258 C  
HETATM    5  C   UNL     1      -8.829  15.316  67.857  1.00  0.00    -0.165 C  
HETATM    6  C   UNL     1      -7.496  15.306  67.241  1.00  0.00    -0.202 A  
HETATM    7  N   UNL     1      -6.761  14.425  66.611  1.00  0.00     1.140 NA 
HETATM    8  N   UNL     1      -5.979  15.139  65.702  1.00  0.00     6.969 NA 
HETATM    9  C   UNL     1      -6.326  16.405  65.764  1.00  0.00     2.564 A  
HETATM   10  C   UNL     1      -8.161  17.523  67.201  1.00  0.00    -0.212 C  
HETATM   11  N   UNL     1      -7.176  16.545  66.804  1.00  0.00    -0.220 NA 
ENDROOT
BRANCH   9  12
HETATM   12  C   UNL     1      -5.914  17.526  64.884  1.00  0.00     1.395 C  
BRANCH  12  13
HETATM   13  C   UNL     1      -6.251  18.899  65.503  1.00  0.00    -0.257 C  
BRANCH  13  14
HETATM   14  N   UNL     1      -5.524  19.130  66.769  1.00  0.00    -0.159 NA 
HETATM   15  C   UNL     1      -6.213  20.092  67.667  1.00  0.00    -0.217 C  
HETATM   16  C   UNL     1      -7.504  19.554  68.319  1.00  0.00    -0.315 C  
HETATM   17  N   UNL     1      -7.189  18.341  69.086  1.00  0.00    -0.213 NA 
HETATM   18  C   UNL     1      -5.312  17.868  67.524  1.00  0.00    -0.135 C  
HETATM   19  C   UNL     1      -6.538  17.289  68.286  1.00  0.00    -0.171 C  
BRANCH  17  20
HETATM   20  C   UNL     1      -7.581  18.170  70.400  1.00  0.00     2.646 A  
HETATM   21  C   UNL     1      -6.707  18.423  71.472  1.00  0.00     3.275 A  
HETATM   22  C   UNL     1      -7.078  18.233  72.810  1.00  0.00     7.156 A  
HETATM   23  C   UNL     1      -8.352  17.776  73.113  1.00  0.00    15.389 A  
HETATM   24  C   UNL     1      -9.255  17.499  72.083  1.00  0.00    12.540 A  
HETATM   25  C   UNL     1     -10.635  16.975  72.375  1.00  0.00     3.945 C  
HETATM   26  C   UNL     1      -8.862  17.713  70.744  1.00  0.00     5.523 A  
HETATM   27  F   UNL     1     -10.865  15.761  71.801  1.00  0.00    -0.255 F  
HETATM   28  F   UNL     1     -11.620  17.794  71.916  1.00  0.00     0.755 F  
HETATM   29  F   UNL     1     -10.887  16.806  73.707  1.00  0.00     1.558 F  
ENDBRANCH  17  20
ENDBRANCH  13  14
ENDBRANCH  12  13
ENDBRANCH   9  12
TORSDOF 4
ENDMDL
