MODEL        1
REMARK 921   NORMALIZED FREE ENERGY PREDICTED BY IDOCK:   -7.17 KCAL/MOL
REMARK 922        TOTAL FREE ENERGY PREDICTED BY IDOCK:  -11.56 KCAL/MOL
REMARK 923 INTER-LIGAND FREE ENERGY PREDICTED BY IDOCK:  -10.53 KCAL/MOL
REMARK 924 INTRA-LIGAND FREE ENERGY PREDICTED BY IDOCK:   -1.03 KCAL/MOL
REMARK 927      BINDING AFFINITY PREDICTED BY RF-SCORE:    0.00 PKD
ROOT
HETATM    1  C   UNL     1     -11.961  12.459  63.547  1.00  0.00    -0.627 C  
HETATM    2  C   UNL     1     -12.497  12.713  64.946  1.00  0.00    -0.564 C  
ENDROOT
BRANCH   2   3
HETATM    3  C   UNL     1     -12.303  14.172  65.371  1.00  0.00    -0.475 C  
BRANCH   3   4
HETATM    4  C   UNL     1     -11.109  14.861  64.701  1.00  0.00    -0.335 C  
BRANCH   4   5
HETATM    5  C   UNL     1     -10.749  16.171  65.330  1.00  0.00    -0.358 A  
HETATM    6  N   UNL     1     -11.110  17.331  64.815  1.00  0.00    -0.920 NA 
HETATM    7  C   UNL     1     -10.627  18.294  65.647  1.00  0.00    -0.090 A  
HETATM    8 CL   UNL     1     -10.869  19.951  65.345  1.00  0.00    -0.348 Cl 
HETATM    9  C   UNL     1      -9.920  17.733  66.692  1.00  0.00    -0.338 A  
HETATM   10  N   UNL     1      -9.982  16.363  66.471  1.00  0.00    -0.267 NA 
BRANCH   9  11
HETATM   11  C   UNL     1      -9.206  18.406  67.797  1.00  0.00    -0.277 C  
HETATM   12  H   UNL     1      -9.688  19.076  69.539  1.00  0.00     0.000 HD 
HETATM   13  O   UNL     1     -10.148  18.643  68.828  1.00  0.00    -0.382 OA 
ENDBRANCH   9  11
BRANCH  10  14
HETATM   14  C   UNL     1      -9.184  15.345  67.151  1.00  0.00    -0.213 C  
BRANCH  14  15
HETATM   15  C   UNL     1      -9.972  14.403  68.023  1.00  0.00    -0.225 A  
HETATM   16  C   UNL     1     -10.804  14.891  69.035  1.00  0.00    -0.248 A  
HETATM   17  C   UNL     1     -11.572  14.020  69.820  1.00  0.00    -0.344 A  
HETATM   18  C   UNL     1     -11.491  12.626  69.678  1.00  0.00    -0.252 A  
HETATM   19  C   UNL     1     -10.681  12.152  68.631  1.00  0.00    -0.261 A  
HETATM   20  C   UNL     1      -9.946  13.021  67.812  1.00  0.00    -0.227 A  
BRANCH  18  21
HETATM   21  C   UNL     1     -12.217  11.682  70.579  1.00  0.00    -0.451 A  
HETATM   22  C   UNL     1     -12.035  10.290  70.386  1.00  0.00    -0.391 A  
HETATM   23  C   UNL     1     -12.661   9.332  71.191  1.00  0.00    -0.324 A  
HETATM   24  C   UNL     1     -13.514   9.733  72.204  1.00  0.00    -0.491 A  
HETATM   25  C   UNL     1     -13.734  11.094  72.409  1.00  0.00     0.391 A  
HETATM   26  C   UNL     1     -13.085  12.079  71.629  1.00  0.00    -0.422 A  
BRANCH  26  27
HETATM   27  C   UNL     1     -13.350  13.465  71.995  1.00  0.00    -0.479 A  
HETATM   28  N   UNL     1     -14.268  14.240  71.384  1.00  0.00    -0.286 NA 
HETATM   29  N   UNL     1     -14.119  15.377  72.074  1.00  0.00    -0.530 NA 
HETATM   30  N   UNL     1     -13.197  15.362  73.039  1.00  0.00    -0.491 NA 
HETATM   31  H   UNL     1     -14.678  16.207  71.875  1.00  0.00     0.000 HD 
HETATM   32  N   UNL     1     -12.712  14.128  73.017  1.00  0.00    -0.302 NA 
ENDBRANCH  26  27
ENDBRANCH  18  21
ENDBRANCH  14  15
ENDBRANCH  10  14
ENDBRANCH   4   5
ENDBRANCH   3   4
ENDBRANCH   2   3
TORSDOF 8
ENDMDL
MODEL        2
REMARK 921   NORMALIZED FREE ENERGY PREDICTED BY IDOCK:   -7.10 KCAL/MOL
REMARK 922        TOTAL FREE ENERGY PREDICTED BY IDOCK:  -11.45 KCAL/MOL
REMARK 923 INTER-LIGAND FREE ENERGY PREDICTED BY IDOCK:   -9.80 KCAL/MOL
REMARK 924 INTRA-LIGAND FREE ENERGY PREDICTED BY IDOCK:   -1.66 KCAL/MOL
REMARK 927      BINDING AFFINITY PREDICTED BY RF-SCORE:    0.00 PKD
ROOT
HETATM    1  C   UNL     1     -12.741  11.152  71.219  1.00  0.00    -0.531 C  
HETATM    2  C   UNL     1     -11.652  10.167  70.828  1.00  0.00    -0.445 C  
ENDROOT
BRANCH   2   3
HETATM    3  C   UNL     1     -10.774  10.712  69.696  1.00  0.00    -0.290 C  
BRANCH   3   4
HETATM    4  C   UNL     1     -11.546  11.515  68.643  1.00  0.00    -0.375 C  
BRANCH   4   5
HETATM    5  C   UNL     1     -11.080  11.260  67.242  1.00  0.00    -0.305 A  
HETATM    6  N   UNL     1     -10.116  10.407  66.958  1.00  0.00    -0.206 NA 
HETATM    7  C   UNL     1      -9.969  10.423  65.604  1.00  0.00    -0.272 A  
HETATM    8 CL   UNL     1      -8.814   9.457  64.811  1.00  0.00    -0.232 Cl 
HETATM    9  C   UNL     1     -10.837  11.327  65.025  1.00  0.00    -0.216 A  
HETATM   10  N   UNL     1     -11.537  11.882  66.089  1.00  0.00    -0.458 NA 
BRANCH   9  11
HETATM   11  C   UNL     1     -10.989  11.685  63.600  1.00  0.00    -0.431 C  
HETATM   12  H   UNL     1      -9.848  12.440  62.242  1.00  0.00     0.000 HD 
HETATM   13  O   UNL     1      -9.750  12.210  63.159  1.00  0.00    -0.379 OA 
ENDBRANCH   9  11
BRANCH  10  14
HETATM   14  C   UNL     1     -12.392  13.066  66.031  1.00  0.00    -0.319 C  
BRANCH  14  15
HETATM   15  C   UNL     1     -11.680  14.371  66.275  1.00  0.00    -0.394 A  
HETATM   16  C   UNL     1     -11.108  15.082  65.217  1.00  0.00    -0.391 A  
HETATM   17  C   UNL     1     -10.482  16.319  65.433  1.00  0.00    -0.365 A  
HETATM   18  C   UNL     1     -10.338  16.863  66.719  1.00  0.00    -0.298 A  
HETATM   19  C   UNL     1     -10.953  16.155  67.768  1.00  0.00    -0.293 A  
HETATM   20  C   UNL     1     -11.621  14.941  67.551  1.00  0.00    -0.355 A  
BRANCH  18  21
HETATM   21  C   UNL     1      -9.578  18.121  66.980  1.00  0.00    -0.287 A  
HETATM   22  C   UNL     1     -10.243  19.360  66.808  1.00  0.00    -0.521 A  
HETATM   23  C   UNL     1      -9.617  20.589  67.044  1.00  0.00    -0.540 A  
HETATM   24  C   UNL     1      -8.291  20.622  67.437  1.00  0.00    -0.297 A  
HETATM   25  C   UNL     1      -7.598  19.423  67.595  1.00  0.00    -0.292 A  
HETATM   26  C   UNL     1      -8.222  18.170  67.394  1.00  0.00    -0.236 A  
BRANCH  26  27
HETATM   27  C   UNL     1      -7.402  16.995  67.663  1.00  0.00    -0.160 A  
HETATM   28  N   UNL     1      -7.461  16.284  68.807  1.00  0.00    -0.182 NA 
HETATM   29  N   UNL     1      -6.543  15.345  68.552  1.00  0.00    -0.106 NA 
HETATM   30  N   UNL     1      -5.933  15.424  67.368  1.00  0.00    -0.335 NA 
HETATM   31  H   UNL     1      -6.321  14.611  69.225  1.00  0.00     0.000 HD 
HETATM   32  N   UNL     1      -6.496  16.467  66.773  1.00  0.00    -0.284 NA 
ENDBRANCH  26  27
ENDBRANCH  18  21
ENDBRANCH  14  15
ENDBRANCH  10  14
ENDBRANCH   4   5
ENDBRANCH   3   4
ENDBRANCH   2   3
TORSDOF 8
ENDMDL
MODEL        3
REMARK 921   NORMALIZED FREE ENERGY PREDICTED BY IDOCK:   -7.04 KCAL/MOL
REMARK 922        TOTAL FREE ENERGY PREDICTED BY IDOCK:  -11.36 KCAL/MOL
REMARK 923 INTER-LIGAND FREE ENERGY PREDICTED BY IDOCK:   -9.81 KCAL/MOL
REMARK 924 INTRA-LIGAND FREE ENERGY PREDICTED BY IDOCK:   -1.55 KCAL/MOL
REMARK 927      BINDING AFFINITY PREDICTED BY RF-SCORE:    0.00 PKD
ROOT
HETATM    1  C   UNL     1     -12.375  15.722  74.173  1.00  0.00    -0.771 C  
HETATM    2  C   UNL     1     -12.981  15.594  72.785  1.00  0.00    -0.579 C  
ENDROOT
BRANCH   2   3
HETATM    3  C   UNL     1     -11.973  15.960  71.691  1.00  0.00    -0.553 C  
BRANCH   3   4
HETATM    4  C   UNL     1     -12.232  15.265  70.349  1.00  0.00    -0.404 C  
BRANCH   4   5
HETATM    5  C   UNL     1     -11.396  15.803  69.230  1.00  0.00    -0.350 A  
HETATM    6  N   UNL     1     -10.666  16.895  69.348  1.00  0.00    -0.319 NA 
HETATM    7  C   UNL     1     -10.038  17.075  68.154  1.00  0.00    -0.308 A  
HETATM    8 CL   UNL     1      -8.990  18.387  67.876  1.00  0.00    -0.287 Cl 
HETATM    9  C   UNL     1     -10.402  16.095  67.253  1.00  0.00    -0.287 A  
HETATM   10  N   UNL     1     -11.297  15.289  67.945  1.00  0.00    -0.331 NA 
BRANCH   9  11
HETATM   11  C   UNL     1      -9.988  15.929  65.844  1.00  0.00    -0.349 C  
HETATM   12  H   UNL     1     -10.443  16.767  64.170  1.00  0.00     0.000 HD 
HETATM   13  O   UNL     1     -10.710  16.874  65.076  1.00  0.00    -0.700 OA 
ENDBRANCH   9  11
BRANCH  10  14
HETATM   14  C   UNL     1     -12.159  14.263  67.360  1.00  0.00    -0.336 C  
BRANCH  14  15
HETATM   15  C   UNL     1     -11.628  12.857  67.466  1.00  0.00    -0.409 A  
HETATM   16  C   UNL     1     -11.867  12.086  68.606  1.00  0.00    -0.366 A  
HETATM   17  C   UNL     1     -11.411  10.762  68.690  1.00  0.00    -0.365 A  
HETATM   18  C   UNL     1     -10.639  10.177  67.674  1.00  0.00    -0.316 A  
HETATM   19  C   UNL     1     -10.440  10.952  66.518  1.00  0.00    -0.308 A  
HETATM   20  C   UNL     1     -10.934  12.260  66.409  1.00  0.00    -0.326 A  
BRANCH  18  21
HETATM   21  C   UNL     1     -10.053   8.810  67.796  1.00  0.00    -0.261 A  
HETATM   22  C   UNL     1     -10.754   7.720  67.223  1.00  0.00    -0.326 A  
HETATM   23  C   UNL     1     -10.274   6.406  67.273  1.00  0.00    -0.237 A  
HETATM   24  C   UNL     1      -9.085   6.132  67.925  1.00  0.00    -0.117 A  
HETATM   25  C   UNL     1      -8.379   7.176  68.520  1.00  0.00    -0.125 A  
HETATM   26  C   UNL     1      -8.829   8.515  68.451  1.00  0.00    -0.139 A  
BRANCH  26  27
HETATM   27  C   UNL     1      -7.958   9.517  69.055  1.00  0.00    -0.092 A  
HETATM   28  N   UNL     1      -7.895   9.755  70.380  1.00  0.00    -0.210 NA 
HETATM   29  N   UNL     1      -6.978  10.730  70.403  1.00  0.00    -0.483 NA 
HETATM   30  N   UNL     1      -6.488  11.105  69.220  1.00  0.00    -0.077 NA 
HETATM   31  H   UNL     1      -6.672  11.161  71.275  1.00  0.00     0.000 HD 
HETATM   32  N   UNL     1      -7.090  10.312  68.344  1.00  0.00    -0.077 NA 
ENDBRANCH  26  27
ENDBRANCH  18  21
ENDBRANCH  14  15
ENDBRANCH  10  14
ENDBRANCH   4   5
ENDBRANCH   3   4
ENDBRANCH   2   3
TORSDOF 8
ENDMDL
MODEL        4
REMARK 921   NORMALIZED FREE ENERGY PREDICTED BY IDOCK:   -7.03 KCAL/MOL
REMARK 922        TOTAL FREE ENERGY PREDICTED BY IDOCK:  -11.34 KCAL/MOL
REMARK 923 INTER-LIGAND FREE ENERGY PREDICTED BY IDOCK:   -9.64 KCAL/MOL
REMARK 924 INTRA-LIGAND FREE ENERGY PREDICTED BY IDOCK:   -1.70 KCAL/MOL
REMARK 927      BINDING AFFINITY PREDICTED BY RF-SCORE:    0.00 PKD
ROOT
HETATM    1  C   UNL     1     -12.272  14.139  64.374  1.00  0.00    -0.466 C  
HETATM    2  C   UNL     1     -12.058  12.881  63.548  1.00  0.00    -0.633 C  
ENDROOT
BRANCH   2   3
HETATM    3  C   UNL     1     -10.613  12.382  63.639  1.00  0.00    -0.481 C  
BRANCH   3   4
HETATM    4  C   UNL     1     -10.490  10.864  63.819  1.00  0.00    -0.329 C  
BRANCH   4   5
HETATM    5  C   UNL     1      -9.349  10.461  64.702  1.00  0.00    -0.254 A  
HETATM    6  N   UNL     1      -8.101  10.416  64.276  1.00  0.00    -0.140 NA 
HETATM    7  C   UNL     1      -7.342  10.027  65.336  1.00  0.00    -0.139 A  
HETATM    8 CL   UNL     1      -5.655   9.837  65.215  1.00  0.00    -0.055 Cl 
HETATM    9  C   UNL     1      -8.128   9.792  66.446  1.00  0.00    -0.116 A  
HETATM   10  N   UNL     1      -9.426  10.052  66.025  1.00  0.00    -0.183 NA 
BRANCH   9  11
HETATM   11  C   UNL     1      -7.724   9.326  67.789  1.00  0.00    -0.088 C  
HETATM   12  H   UNL     1      -7.354  10.169  69.482  1.00  0.00     0.000 HD 
HETATM   13  O   UNL     1      -7.614  10.469  68.619  1.00  0.00    -0.087 OA 
ENDBRANCH   9  11
BRANCH  10  14
HETATM   14  C   UNL     1     -10.649   9.711  66.750  1.00  0.00    -0.139 C  
BRANCH  14  15
HETATM   15  C   UNL     1     -11.087  10.734  67.765  1.00  0.00    -0.381 A  
HETATM   16  C   UNL     1     -11.446  12.026  67.370  1.00  0.00    -0.406 A  
HETATM   17  C   UNL     1     -11.896  12.968  68.306  1.00  0.00    -0.381 A  
HETATM   18  C   UNL     1     -11.938  12.686  69.681  1.00  0.00    -0.352 A  
HETATM   19  C   UNL     1     -11.611  11.372  70.058  1.00  0.00    -0.382 A  
HETATM   20  C   UNL     1     -11.206  10.411  69.120  1.00  0.00    -0.301 A  
BRANCH  18  21
HETATM   21  C   UNL     1     -12.307  13.712  70.701  1.00  0.00    -0.440 A  
HETATM   22  C   UNL     1     -13.176  13.335  71.754  1.00  0.00    -0.495 A  
HETATM   23  C   UNL     1     -13.564  14.223  72.764  1.00  0.00    -0.538 A  
HETATM   24  C   UNL     1     -13.115  15.531  72.741  1.00  0.00    -0.579 A  
HETATM   25  C   UNL     1     -12.276  15.944  71.707  1.00  0.00    -0.551 A  
HETATM   26  C   UNL     1     -11.845  15.053  70.696  1.00  0.00    -0.364 A  
BRANCH  26  27
HETATM   27  C   UNL     1     -10.912  15.597  69.716  1.00  0.00    -0.304 A  
HETATM   28  N   UNL     1     -11.280  16.388  68.688  1.00  0.00    -0.353 NA 
HETATM   29  N   UNL     1     -10.091  16.602  68.114  1.00  0.00    -0.256 NA 
HETATM   30  N   UNL     1      -9.043  16.014  68.695  1.00  0.00    -0.203 NA 
HETATM   31  H   UNL     1      -9.990  17.183  67.282  1.00  0.00     0.000 HD 
HETATM   32  N   UNL     1      -9.554  15.385  69.744  1.00  0.00    -0.243 NA 
ENDBRANCH  26  27
ENDBRANCH  18  21
ENDBRANCH  14  15
ENDBRANCH  10  14
ENDBRANCH   4   5
ENDBRANCH   3   4
ENDBRANCH   2   3
TORSDOF 8
ENDMDL
MODEL        5
REMARK 921   NORMALIZED FREE ENERGY PREDICTED BY IDOCK:   -7.02 KCAL/MOL
REMARK 922        TOTAL FREE ENERGY PREDICTED BY IDOCK:  -11.34 KCAL/MOL
REMARK 923 INTER-LIGAND FREE ENERGY PREDICTED BY IDOCK:   -9.56 KCAL/MOL
REMARK 924 INTRA-LIGAND FREE ENERGY PREDICTED BY IDOCK:   -1.78 KCAL/MOL
REMARK 927      BINDING AFFINITY PREDICTED BY RF-SCORE:    0.00 PKD
ROOT
HETATM    1  C   UNL     1     -13.356  12.764  71.999  1.00  0.00    -0.565 C  
HETATM    2  C   UNL     1     -12.646  11.576  71.370  1.00  0.00    -0.419 C  
ENDROOT
BRANCH   2   3
HETATM    3  C   UNL     1     -13.221  10.245  71.866  1.00  0.00    -0.550 C  
BRANCH   3   4
HETATM    4  C   UNL     1     -12.724   9.024  71.084  1.00  0.00    -0.242 C  
BRANCH   4   5
HETATM    5  C   UNL     1     -11.260   8.760  71.259  1.00  0.00    -0.284 A  
HETATM    6  N   UNL     1     -10.674   8.763  72.441  1.00  0.00    -0.253 NA 
HETATM    7  C   UNL     1      -9.361   8.478  72.224  1.00  0.00    -0.293 A  
HETATM    8 CL   UNL     1      -8.236   8.385  73.498  1.00  0.00    -0.233 Cl 
HETATM    9  C   UNL     1      -9.106   8.322  70.876  1.00  0.00    -0.152 A  
HETATM   10  N   UNL     1     -10.332   8.528  70.255  1.00  0.00    -0.200 NA 
BRANCH   9  11
HETATM   11  C   UNL     1      -7.823   8.040  70.200  1.00  0.00    -0.099 C  
HETATM   12  H   UNL     1      -6.240   9.056  69.777  1.00  0.00     0.000 HD 
HETATM   13  O   UNL     1      -7.066   9.237  70.211  1.00  0.00    -0.061 OA 
ENDBRANCH   9  11
BRANCH  10  14
HETATM   14  C   UNL     1     -10.547   8.721  68.822  1.00  0.00    -0.145 C  
BRANCH  14  15
HETATM   15  C   UNL     1     -10.485  10.155  68.363  1.00  0.00    -0.237 A  
HETATM   16  C   UNL     1      -9.261  10.756  68.057  1.00  0.00    -0.150 A  
HETATM   17  C   UNL     1      -9.203  12.076  67.588  1.00  0.00    -0.182 A  
HETATM   18  C   UNL     1     -10.352  12.873  67.471  1.00  0.00    -0.223 A  
HETATM   19  C   UNL     1     -11.579  12.243  67.744  1.00  0.00    -0.416 A  
HETATM   20  C   UNL     1     -11.647  10.909  68.169  1.00  0.00    -0.317 A  
BRANCH  18  21
HETATM   21  C   UNL     1     -10.295  14.313  67.080  1.00  0.00    -0.262 A  
HETATM   22  C   UNL     1      -9.781  15.247  68.013  1.00  0.00    -0.211 A  
HETATM   23  C   UNL     1      -9.674  16.613  67.730  1.00  0.00    -0.240 A  
HETATM   24  C   UNL     1     -10.106  17.099  66.509  1.00  0.00    -0.313 A  
HETATM   25  C   UNL     1     -10.639  16.213  65.574  1.00  0.00    -0.394 A  
HETATM   26  C   UNL     1     -10.723  14.824  65.827  1.00  0.00    -0.333 A  
BRANCH  26  27
HETATM   27  C   UNL     1     -11.235  14.003  64.737  1.00  0.00    -0.375 A  
HETATM   28  N   UNL     1     -10.456  13.246  63.938  1.00  0.00    -0.246 NA 
HETATM   29  N   UNL     1     -11.385  12.714  63.135  1.00  0.00    -0.769 NA 
HETATM   30  N   UNL     1     -12.647  13.080  63.370  1.00  0.00    -0.716 NA 
HETATM   31  H   UNL     1     -11.142  12.065  62.386  1.00  0.00     0.000 HD 
HETATM   32  N   UNL     1     -12.568  13.889  64.417  1.00  0.00    -0.675 NA 
ENDBRANCH  26  27
ENDBRANCH  18  21
ENDBRANCH  14  15
ENDBRANCH  10  14
ENDBRANCH   4   5
ENDBRANCH   3   4
ENDBRANCH   2   3
TORSDOF 8
ENDMDL
MODEL        6
REMARK 921   NORMALIZED FREE ENERGY PREDICTED BY IDOCK:   -7.02 KCAL/MOL
REMARK 922        TOTAL FREE ENERGY PREDICTED BY IDOCK:  -11.34 KCAL/MOL
REMARK 923 INTER-LIGAND FREE ENERGY PREDICTED BY IDOCK:   -9.05 KCAL/MOL
REMARK 924 INTRA-LIGAND FREE ENERGY PREDICTED BY IDOCK:   -2.29 KCAL/MOL
REMARK 927      BINDING AFFINITY PREDICTED BY RF-SCORE:    0.00 PKD
ROOT
HETATM    1  C   UNL     1      -6.990  12.094  68.677  1.00  0.00    -0.097 C  
HETATM    2  C   UNL     1      -6.799  10.595  68.839  1.00  0.00    -0.066 C  
ENDROOT
BRANCH   2   3
HETATM    3  C   UNL     1      -7.523  10.062  70.080  1.00  0.00    -0.181 C  
BRANCH   3   4
HETATM    4  C   UNL     1      -7.792   8.553  70.042  1.00  0.00    -0.102 C  
BRANCH   4   5
HETATM    5  C   UNL     1      -8.952   8.135  70.893  1.00  0.00    -0.146 A  
HETATM    6  N   UNL     1      -8.811   7.739  72.143  1.00  0.00    -0.125 NA 
HETATM    7  C   UNL     1     -10.059   7.452  72.603  1.00  0.00    -0.208 A  
HETATM    8 CL   UNL     1     -10.329   6.898  74.190  1.00  0.00    -0.376 Cl 
HETATM    9  C   UNL     1     -11.005   7.641  71.616  1.00  0.00    -0.233 A  
HETATM   10  N   UNL     1     -10.282   8.060  70.505  1.00  0.00    -0.197 NA 
BRANCH   9  11
HETATM   11  C   UNL     1     -12.464   7.419  71.673  1.00  0.00    -0.349 C  
HETATM   12  H   UNL     1     -14.022   8.544  71.822  1.00  0.00     0.000 HD 
HETATM   13  O   UNL     1     -13.083   8.688  71.786  1.00  0.00    -0.330 OA 
ENDBRANCH   9  11
BRANCH  10  14
HETATM   14  C   UNL     1     -10.786   8.150  69.136  1.00  0.00    -0.102 C  
BRANCH  14  15
HETATM   15  C   UNL     1     -10.715   9.527  68.527  1.00  0.00    -0.222 A  
HETATM   16  C   UNL     1     -10.134   9.724  67.272  1.00  0.00    -0.261 A  
HETATM   17  C   UNL     1     -10.105  10.996  66.683  1.00  0.00    -0.262 A  
HETATM   18  C   UNL     1     -10.589  12.134  67.348  1.00  0.00    -0.253 A  
HETATM   19  C   UNL     1     -11.205  11.913  68.592  1.00  0.00    -0.311 A  
HETATM   20  C   UNL     1     -11.279  10.635  69.166  1.00  0.00    -0.324 A  
BRANCH  18  21
HETATM   21  C   UNL     1     -10.464  13.510  66.783  1.00  0.00    -0.273 A  
HETATM   22  C   UNL     1      -9.741  14.480  67.520  1.00  0.00    -0.211 A  
HETATM   23  C   UNL     1      -9.558  15.790  67.063  1.00  0.00    -0.236 A  
HETATM   24  C   UNL     1     -10.118  16.184  65.860  1.00  0.00    -0.379 A  
HETATM   25  C   UNL     1     -10.855  15.263  65.119  1.00  0.00    -0.441 A  
HETATM   26  C   UNL     1     -11.023  13.925  65.547  1.00  0.00    -0.302 A  
BRANCH  26  27
HETATM   27  C   UNL     1     -11.757  13.049  64.641  1.00  0.00    -0.361 A  
HETATM   28  N   UNL     1     -11.201  12.431  63.580  1.00  0.00    -0.442 NA 
HETATM   29  N   UNL     1     -12.264  11.773  63.103  1.00  0.00    -0.956 NA 
HETATM   30  N   UNL     1     -13.407  11.939  63.772  1.00  0.00    -0.469 NA 
HETATM   31  H   UNL     1     -12.204  11.179  62.276  1.00  0.00     0.000 HD 
HETATM   32  N   UNL     1     -13.089  12.737  64.782  1.00  0.00    -0.836 NA 
ENDBRANCH  26  27
ENDBRANCH  18  21
ENDBRANCH  14  15
ENDBRANCH  10  14
ENDBRANCH   4   5
ENDBRANCH   3   4
ENDBRANCH   2   3
TORSDOF 8
ENDMDL
MODEL        7
REMARK 921   NORMALIZED FREE ENERGY PREDICTED BY IDOCK:   -6.99 KCAL/MOL
REMARK 922        TOTAL FREE ENERGY PREDICTED BY IDOCK:  -11.29 KCAL/MOL
REMARK 923 INTER-LIGAND FREE ENERGY PREDICTED BY IDOCK:   -9.89 KCAL/MOL
REMARK 924 INTRA-LIGAND FREE ENERGY PREDICTED BY IDOCK:   -1.40 KCAL/MOL
REMARK 927      BINDING AFFINITY PREDICTED BY RF-SCORE:    0.00 PKD
ROOT
HETATM    1  C   UNL     1     -10.606   9.345  70.795  1.00  0.00    -0.371 C  
HETATM    2  C   UNL     1     -11.212  10.573  70.137  1.00  0.00    -0.389 C  
ENDROOT
BRANCH   2   3
HETATM    3  C   UNL     1     -11.297  10.417  68.615  1.00  0.00    -0.277 C  
BRANCH   3   4
HETATM    4  C   UNL     1     -10.105  11.018  67.861  1.00  0.00    -0.199 C  
BRANCH   4   5
HETATM    5  C   UNL     1     -10.367  11.220  66.400  1.00  0.00    -0.245 A  
HETATM    6  N   UNL     1      -9.798  10.482  65.466  1.00  0.00    -0.246 NA 
HETATM    7  C   UNL     1     -10.271  10.933  64.272  1.00  0.00    -0.364 A  
HETATM    8 CL   UNL     1      -9.783  10.249  62.792  1.00  0.00    -0.274 Cl 
HETATM    9  C   UNL     1     -11.133  11.996  64.453  1.00  0.00    -0.342 A  
HETATM   10  N   UNL     1     -11.174  12.193  65.828  1.00  0.00    -0.327 NA 
BRANCH   9  11
HETATM   11  C   UNL     1     -11.842  12.801  63.436  1.00  0.00    -0.518 C  
HETATM   12  H   UNL     1     -13.603  12.786  62.654  1.00  0.00     0.000 HD 
HETATM   13  O   UNL     1     -13.148  12.268  63.308  1.00  0.00    -0.668 OA 
ENDBRANCH   9  11
BRANCH  10  14
HETATM   14  C   UNL     1     -11.742  13.352  66.514  1.00  0.00    -0.373 C  
BRANCH  14  15
HETATM   15  C   UNL     1     -10.727  14.324  67.057  1.00  0.00    -0.290 A  
HETATM   16  C   UNL     1     -10.840  14.823  68.357  1.00  0.00    -0.248 A  
HETATM   17  C   UNL     1      -9.875  15.694  68.882  1.00  0.00    -0.219 A  
HETATM   18  C   UNL     1      -8.798  16.159  68.111  1.00  0.00    -0.184 A  
HETATM   19  C   UNL     1      -8.677  15.618  66.819  1.00  0.00    -0.306 A  
HETATM   20  C   UNL     1      -9.613  14.710  66.305  1.00  0.00    -0.333 A  
BRANCH  18  21
HETATM   21  C   UNL     1      -7.825  17.172  68.616  1.00  0.00    -0.265 A  
HETATM   22  C   UNL     1      -6.745  16.730  69.421  1.00  0.00    -0.226 A  
HETATM   23  C   UNL     1      -5.776  17.604  69.926  1.00  0.00    -0.247 A  
HETATM   24  C   UNL     1      -5.868  18.960  69.665  1.00  0.00    -0.264 A  
HETATM   25  C   UNL     1      -6.929  19.434  68.896  1.00  0.00    -0.384 A  
HETATM   26  C   UNL     1      -7.900  18.564  68.348  1.00  0.00    -0.332 A  
BRANCH  26  27
HETATM   27  C   UNL     1      -8.915  19.184  67.504  1.00  0.00    -0.295 A  
HETATM   28  N   UNL     1      -8.665  19.691  66.281  1.00  0.00    -0.366 NA 
HETATM   29  N   UNL     1      -9.888  20.122  65.948  1.00  0.00    -0.591 NA 
HETATM   30  N   UNL     1     -10.847  19.928  66.854  1.00  0.00    -0.361 NA 
HETATM   31  H   UNL     1     -10.075  20.573  65.052  1.00  0.00     0.000 HD 
HETATM   32  N   UNL     1     -10.240  19.299  67.852  1.00  0.00    -0.388 NA 
ENDBRANCH  26  27
ENDBRANCH  18  21
ENDBRANCH  14  15
ENDBRANCH  10  14
ENDBRANCH   4   5
ENDBRANCH   3   4
ENDBRANCH   2   3
TORSDOF 8
ENDMDL
MODEL        8
REMARK 921   NORMALIZED FREE ENERGY PREDICTED BY IDOCK:   -6.93 KCAL/MOL
REMARK 922        TOTAL FREE ENERGY PREDICTED BY IDOCK:  -11.20 KCAL/MOL
REMARK 923 INTER-LIGAND FREE ENERGY PREDICTED BY IDOCK:   -9.63 KCAL/MOL
REMARK 924 INTRA-LIGAND FREE ENERGY PREDICTED BY IDOCK:   -1.58 KCAL/MOL
REMARK 927      BINDING AFFINITY PREDICTED BY RF-SCORE:    0.00 PKD
ROOT
HETATM    1  C   UNL     1     -13.041  10.116  71.510  1.00  0.00    -0.529 C  
HETATM    2  C   UNL     1     -13.782   8.825  71.813  1.00  0.00    -0.461 C  
ENDROOT
BRANCH   2   3
HETATM    3  C   UNL     1     -13.030   7.601  71.281  1.00  0.00    -0.287 C  
BRANCH   3   4
HETATM    4  C   UNL     1     -11.518   7.814  71.140  1.00  0.00    -0.295 C  
BRANCH   4   5
HETATM    5  C   UNL     1     -11.010   7.565  69.753  1.00  0.00    -0.184 A  
HETATM    6  N   UNL     1     -11.273   6.457  69.087  1.00  0.00    -0.366 NA 
HETATM    7  C   UNL     1     -10.669   6.580  67.874  1.00  0.00    -0.287 A  
HETATM    8 CL   UNL     1     -10.758   5.356  66.695  1.00  0.00    -0.348 Cl 
HETATM    9  C   UNL     1      -9.985   7.775  67.782  1.00  0.00    -0.174 A  
HETATM   10  N   UNL     1     -10.189   8.398  69.007  1.00  0.00    -0.204 NA 
BRANCH   9  11
HETATM   11  C   UNL     1      -9.170   8.295  66.664  1.00  0.00    -0.179 C  
HETATM   12  H   UNL     1      -9.472   9.491  65.183  1.00  0.00     0.000 HD 
HETATM   13  O   UNL     1      -9.997   9.156  65.901  1.00  0.00    -0.295 OA 
ENDBRANCH   9  11
BRANCH  10  14
HETATM   14  C   UNL     1      -9.470   9.569  69.506  1.00  0.00    -0.185 C  
BRANCH  14  15
HETATM   15  C   UNL     1      -9.727  10.841  68.739  1.00  0.00    -0.197 A  
HETATM   16  C   UNL     1     -11.026  11.329  68.577  1.00  0.00    -0.266 A  
HETATM   17  C   UNL     1     -11.265  12.534  67.901  1.00  0.00    -0.312 A  
HETATM   18  C   UNL     1     -10.229  13.265  67.298  1.00  0.00    -0.240 A  
HETATM   19  C   UNL     1      -8.924  12.782  67.503  1.00  0.00    -0.192 A  
HETATM   20  C   UNL     1      -8.675  11.602  68.218  1.00  0.00    -0.163 A  
BRANCH  18  21
HETATM   21  C   UNL     1     -10.478  14.489  66.480  1.00  0.00    -0.285 A  
HETATM   22  C   UNL     1     -10.135  15.749  67.029  1.00  0.00    -0.261 A  
HETATM   23  C   UNL     1     -10.317  16.948  66.331  1.00  0.00    -0.302 A  
HETATM   24  C   UNL     1     -10.875  16.931  65.065  1.00  0.00    -0.077 A  
HETATM   25  C   UNL     1     -11.246  15.711  64.502  1.00  0.00    -0.337 A  
HETATM   26  C   UNL     1     -11.039  14.485  65.177  1.00  0.00    -0.374 A  
BRANCH  26  27
HETATM   27  C   UNL     1     -11.407  13.279  64.445  1.00  0.00    -0.383 A  
HETATM   28  N   UNL     1     -10.518  12.473  63.832  1.00  0.00    -0.425 NA 
HETATM   29  N   UNL     1     -11.342  11.546  63.329  1.00  0.00    -0.831 NA 
HETATM   30  N   UNL     1     -12.642  11.719  63.577  1.00  0.00    -0.485 NA 
HETATM   31  H   UNL     1     -10.997  10.753  62.788  1.00  0.00     0.000 HD 
HETATM   32  N   UNL     1     -12.696  12.817  64.318  1.00  0.00    -0.702 NA 
ENDBRANCH  26  27
ENDBRANCH  18  21
ENDBRANCH  14  15
ENDBRANCH  10  14
ENDBRANCH   4   5
ENDBRANCH   3   4
ENDBRANCH   2   3
TORSDOF 8
ENDMDL
MODEL        9
REMARK 921   NORMALIZED FREE ENERGY PREDICTED BY IDOCK:   -6.87 KCAL/MOL
REMARK 922        TOTAL FREE ENERGY PREDICTED BY IDOCK:  -11.12 KCAL/MOL
REMARK 923 INTER-LIGAND FREE ENERGY PREDICTED BY IDOCK:   -9.64 KCAL/MOL
REMARK 924 INTRA-LIGAND FREE ENERGY PREDICTED BY IDOCK:   -1.48 KCAL/MOL
REMARK 927      BINDING AFFINITY PREDICTED BY RF-SCORE:    0.00 PKD
ROOT
HETATM    1  C   UNL     1     -11.893  12.216  63.665  1.00  0.00    -0.608 C  
HETATM    2  C   UNL     1     -12.655  12.598  64.923  1.00  0.00    -0.525 C  
ENDROOT
BRANCH   2   3
HETATM    3  C   UNL     1     -12.552  14.098  65.216  1.00  0.00    -0.460 C  
BRANCH   3   4
HETATM    4  C   UNL     1     -11.507  14.827  64.363  1.00  0.00    -0.261 C  
BRANCH   4   5
HETATM    5  C   UNL     1     -10.905  16.015  65.047  1.00  0.00    -0.404 A  
HETATM    6  N   UNL     1     -11.268  17.253  64.772  1.00  0.00    -0.832 NA 
HETATM    7  C   UNL     1     -10.531  18.063  65.582  1.00  0.00    -0.097 A  
HETATM    8 CL   UNL     1     -10.688  19.757  65.546  1.00  0.00    -0.486 Cl 
HETATM    9  C   UNL     1      -9.665  17.324  66.362  1.00  0.00    -0.290 A  
HETATM   10  N   UNL     1      -9.894  16.003  65.996  1.00  0.00    -0.313 NA 
BRANCH   9  11
HETATM   11  C   UNL     1      -8.670  17.795  67.347  1.00  0.00    -0.235 C  
HETATM   12  H   UNL     1      -8.624  18.003  69.263  1.00  0.00     0.000 HD 
HETATM   13  O   UNL     1      -9.264  17.699  68.629  1.00  0.00    -0.282 OA 
ENDBRANCH   9  11
BRANCH  10  14
HETATM   14  C   UNL     1      -9.058  14.857  66.348  1.00  0.00    -0.258 C  
BRANCH  14  15
HETATM   15  C   UNL     1      -9.699  13.874  67.293  1.00  0.00    -0.245 A  
HETATM   16  C   UNL     1     -10.331  14.313  68.459  1.00  0.00    -0.244 A  
HETATM   17  C   UNL     1     -10.967  13.406  69.320  1.00  0.00    -0.159 A  
HETATM   18  C   UNL     1     -10.937  12.021  69.092  1.00  0.00    -0.231 A  
HETATM   19  C   UNL     1     -10.331  11.599  67.895  1.00  0.00    -0.206 A  
HETATM   20  C   UNL     1      -9.735  12.506  67.007  1.00  0.00    -0.213 A  
BRANCH  18  21
HETATM   21  C   UNL     1     -11.511  11.035  70.055  1.00  0.00    -0.398 A  
HETATM   22  C   UNL     1     -12.654  11.409  70.804  1.00  0.00    -0.409 A  
HETATM   23  C   UNL     1     -13.270  10.546  71.718  1.00  0.00    -0.522 A  
HETATM   24  C   UNL     1     -12.746   9.284  71.934  1.00  0.00    -0.474 A  
HETATM   25  C   UNL     1     -11.610   8.889  71.231  1.00  0.00    -0.371 A  
HETATM   26  C   UNL     1     -10.992   9.733  70.278  1.00  0.00    -0.352 A  
BRANCH  26  27
HETATM   27  C   UNL     1      -9.853   9.170  69.564  1.00  0.00    -0.178 A  
HETATM   28  N   UNL     1      -9.966   8.347  68.501  1.00  0.00    -0.182 NA 
HETATM   29  N   UNL     1      -8.674   8.128  68.231  1.00  0.00    -0.133 NA 
HETATM   30  N   UNL     1      -7.794   8.734  69.030  1.00  0.00    -0.094 NA 
HETATM   31  H   UNL     1      -8.379   7.531  67.458  1.00  0.00     0.000 HD 
HETATM   32  N   UNL     1      -8.540   9.431  69.877  1.00  0.00    -0.171 NA 
ENDBRANCH  26  27
ENDBRANCH  18  21
ENDBRANCH  14  15
ENDBRANCH  10  14
ENDBRANCH   4   5
ENDBRANCH   3   4
ENDBRANCH   2   3
TORSDOF 8
ENDMDL
MODEL       10
REMARK 921   NORMALIZED FREE ENERGY PREDICTED BY IDOCK:   -6.85 KCAL/MOL
REMARK 922        TOTAL FREE ENERGY PREDICTED BY IDOCK:  -11.08 KCAL/MOL
REMARK 923 INTER-LIGAND FREE ENERGY PREDICTED BY IDOCK:   -9.28 KCAL/MOL
REMARK 924 INTRA-LIGAND FREE ENERGY PREDICTED BY IDOCK:   -1.80 KCAL/MOL
REMARK 927      BINDING AFFINITY PREDICTED BY RF-SCORE:    0.00 PKD
ROOT
HETATM    1  C   UNL     1     -10.040   7.988  67.051  1.00  0.00    -0.350 C  
HETATM    2  C   UNL     1     -11.118   7.037  67.543  1.00  0.00    -0.231 C  
ENDROOT
BRANCH   2   3
HETATM    3  C   UNL     1     -10.580   6.070  68.603  1.00  0.00    -0.327 C  
BRANCH   3   4
HETATM    4  C   UNL     1     -11.260   6.204  69.970  1.00  0.00    -0.471 C  
BRANCH   4   5
HETATM    5  C   UNL     1     -10.295   6.211  71.115  1.00  0.00    -0.208 A  
HETATM    6  N   UNL     1      -9.403   5.257  71.299  1.00  0.00    -0.145 NA 
HETATM    7  C   UNL     1      -8.699   5.593  72.415  1.00  0.00    -0.128 A  
HETATM    8 CL   UNL     1      -7.439   4.619  73.013  1.00  0.00    -0.084 Cl 
HETATM    9  C   UNL     1      -9.175   6.767  72.964  1.00  0.00    -0.127 A  
HETATM   10  N   UNL     1     -10.222   7.150  72.134  1.00  0.00    -0.185 NA 
BRANCH   9  11
HETATM   11  C   UNL     1      -8.728   7.470  74.185  1.00  0.00    -0.235 C  
HETATM   12  H   UNL     1      -7.662   9.031  74.559  1.00  0.00     0.000 HD 
HETATM   13  O   UNL     1      -7.949   8.579  73.774  1.00  0.00    -0.374 OA 
ENDBRANCH   9  11
BRANCH  10  14
HETATM   14  C   UNL     1     -11.211   8.187  72.422  1.00  0.00    -0.386 C  
BRANCH  14  15
HETATM   15  C   UNL     1     -11.330   9.256  71.367  1.00  0.00    -0.434 A  
HETATM   16  C   UNL     1     -12.558   9.868  71.105  1.00  0.00    -0.464 A  
HETATM   17  C   UNL     1     -12.665  10.894  70.154  1.00  0.00    -0.227 A  
HETATM   18  C   UNL     1     -11.570  11.302  69.377  1.00  0.00    -0.390 A  
HETATM   19  C   UNL     1     -10.334  10.703  69.678  1.00  0.00    -0.185 A  
HETATM   20  C   UNL     1     -10.212   9.710  70.661  1.00  0.00    -0.346 A  
BRANCH  18  21
HETATM   21  C   UNL     1     -11.691  12.312  68.284  1.00  0.00    -0.392 A  
HETATM   22  C   UNL     1     -11.684  11.859  66.941  1.00  0.00    -0.291 A  
HETATM   23  C   UNL     1     -11.808  12.730  65.854  1.00  0.00    -0.490 A  
HETATM   24  C   UNL     1     -11.917  14.093  66.070  1.00  0.00    -0.427 A  
HETATM   25  C   UNL     1     -11.904  14.576  67.377  1.00  0.00    -0.416 A  
HETATM   26  C   UNL     1     -11.814  13.710  68.492  1.00  0.00    -0.406 A  
BRANCH  26  27
HETATM   27  C   UNL     1     -11.883  14.343  69.804  1.00  0.00    -0.320 A  
HETATM   28  N   UNL     1     -10.855  15.004  70.373  1.00  0.00    -0.197 NA 
HETATM   29  N   UNL     1     -11.421  15.376  71.527  1.00  0.00    -0.387 NA 
HETATM   30  N   UNL     1     -12.688  14.999  71.709  1.00  0.00    -0.318 NA 
HETATM   31  H   UNL     1     -10.914  15.918  72.227  1.00  0.00     0.000 HD 
HETATM   32  N   UNL     1     -13.008  14.355  70.595  1.00  0.00    -0.339 NA 
ENDBRANCH  26  27
ENDBRANCH  18  21
ENDBRANCH  14  15
ENDBRANCH  10  14
ENDBRANCH   4   5
ENDBRANCH   3   4
ENDBRANCH   2   3
TORSDOF 8
ENDMDL
MODEL       11
REMARK 921   NORMALIZED FREE ENERGY PREDICTED BY IDOCK:   -6.77 KCAL/MOL
REMARK 922        TOTAL FREE ENERGY PREDICTED BY IDOCK:  -10.96 KCAL/MOL
REMARK 923 INTER-LIGAND FREE ENERGY PREDICTED BY IDOCK:   -9.64 KCAL/MOL
REMARK 924 INTRA-LIGAND FREE ENERGY PREDICTED BY IDOCK:   -1.32 KCAL/MOL
REMARK 927      BINDING AFFINITY PREDICTED BY RF-SCORE:    0.00 PKD
ROOT
HETATM    1  C   UNL     1     -13.720  13.226  72.196  1.00  0.00    -0.619 C  
HETATM    2  C   UNL     1     -13.759  14.727  72.433  1.00  0.00    -0.576 C  
ENDROOT
BRANCH   2   3
HETATM    3  C   UNL     1     -13.105  15.500  71.282  1.00  0.00    -0.581 C  
BRANCH   3   4
HETATM    4  C   UNL     1     -12.511  14.603  70.190  1.00  0.00    -0.369 C  
BRANCH   4   5
HETATM    5  C   UNL     1     -11.600  15.333  69.252  1.00  0.00    -0.332 A  
HETATM    6  N   UNL     1     -10.925  16.408  69.608  1.00  0.00    -0.336 NA 
HETATM    7  C   UNL     1     -10.202  16.792  68.520  1.00  0.00    -0.298 A  
HETATM    8 CL   UNL     1      -9.184  18.155  68.551  1.00  0.00    -0.321 Cl 
HETATM    9  C   UNL     1     -10.450  15.962  67.446  1.00  0.00    -0.306 A  
HETATM   10  N   UNL     1     -11.371  15.034  67.916  1.00  0.00    -0.323 NA 
BRANCH   9  11
HETATM   11  C   UNL     1      -9.909  16.034  66.073  1.00  0.00    -0.337 C  
HETATM   12  H   UNL     1     -10.141  17.211  64.564  1.00  0.00     0.000 HD 
HETATM   13  O   UNL     1     -10.489  17.165  65.447  1.00  0.00    -0.633 OA 
ENDBRANCH   9  11
BRANCH  10  14
HETATM   14  C   UNL     1     -12.140  14.097  67.100  1.00  0.00    -0.397 C  
BRANCH  14  15
HETATM   15  C   UNL     1     -11.558  12.710  67.014  1.00  0.00    -0.431 A  
HETATM   16  C   UNL     1     -11.561  11.863  68.126  1.00  0.00    -0.400 A  
HETATM   17  C   UNL     1     -11.059  10.556  68.039  1.00  0.00    -0.361 A  
HETATM   18  C   UNL     1     -10.470  10.065  66.863  1.00  0.00    -0.284 A  
HETATM   19  C   UNL     1     -10.510  10.914  65.744  1.00  0.00    -0.275 A  
HETATM   20  C   UNL     1     -11.053  12.205  65.812  1.00  0.00    -0.362 A  
BRANCH  18  21
HETATM   21  C   UNL     1      -9.832   8.717  66.787  1.00  0.00    -0.316 A  
HETATM   22  C   UNL     1     -10.647   7.572  66.965  1.00  0.00    -0.409 A  
HETATM   23  C   UNL     1     -10.140   6.270  66.894  1.00  0.00    -0.236 A  
HETATM   24  C   UNL     1      -8.790   6.067  66.668  1.00  0.00    -0.125 A  
HETATM   25  C   UNL     1      -7.954   7.171  66.511  1.00  0.00    -0.112 A  
HETATM   26  C   UNL     1      -8.452   8.494  66.545  1.00  0.00    -0.119 A  
BRANCH  26  27
HETATM   27  C   UNL     1      -7.480   9.552  66.295  1.00  0.00    -0.097 A  
HETATM   28  N   UNL     1      -7.016   9.871  65.070  1.00  0.00    -0.123 NA 
HETATM   29  N   UNL     1      -6.182  10.869  65.383  1.00  0.00    -0.361 NA 
HETATM   30  N   UNL     1      -6.095  11.179  66.678  1.00  0.00    -0.119 NA 
HETATM   31  H   UNL     1      -5.644  11.365  64.673  1.00  0.00     0.000 HD 
HETATM   32  N   UNL     1      -6.947  10.356  67.275  1.00  0.00    -0.085 NA 
ENDBRANCH  26  27
ENDBRANCH  18  21
ENDBRANCH  14  15
ENDBRANCH  10  14
ENDBRANCH   4   5
ENDBRANCH   3   4
ENDBRANCH   2   3
TORSDOF 8
ENDMDL
MODEL       12
REMARK 921   NORMALIZED FREE ENERGY PREDICTED BY IDOCK:   -6.76 KCAL/MOL
REMARK 922        TOTAL FREE ENERGY PREDICTED BY IDOCK:  -10.94 KCAL/MOL
REMARK 923 INTER-LIGAND FREE ENERGY PREDICTED BY IDOCK:   -9.14 KCAL/MOL
REMARK 924 INTRA-LIGAND FREE ENERGY PREDICTED BY IDOCK:   -1.80 KCAL/MOL
REMARK 927      BINDING AFFINITY PREDICTED BY RF-SCORE:    0.00 PKD
ROOT
HETATM    1  C   UNL     1     -12.453  11.340  71.080  1.00  0.00    -0.479 C  
HETATM    2  C   UNL     1     -13.281  10.342  71.872  1.00  0.00    -0.550 C  
ENDROOT
BRANCH   2   3
HETATM    3  C   UNL     1     -12.778   8.907  71.678  1.00  0.00    -0.403 C  
BRANCH   3   4
HETATM    4  C   UNL     1     -11.418   8.632  72.329  1.00  0.00    -0.423 C  
BRANCH   4   5
HETATM    5  C   UNL     1     -10.590   7.635  71.578  1.00  0.00    -0.212 A  
HETATM    6  N   UNL     1     -10.725   6.333  71.737  1.00  0.00    -0.228 NA 
HETATM    7  C   UNL     1      -9.832   5.743  70.897  1.00  0.00    -0.179 A  
HETATM    8 CL   UNL     1      -9.675   4.052  70.791  1.00  0.00    -0.263 Cl 
HETATM    9  C   UNL     1      -9.096   6.691  70.214  1.00  0.00    -0.156 A  
HETATM   10  N   UNL     1      -9.574   7.912  70.675  1.00  0.00    -0.166 NA 
BRANCH   9  11
HETATM   11  C   UNL     1      -8.006   6.494  69.236  1.00  0.00    -0.111 C  
HETATM   12  H   UNL     1      -7.905   6.151  67.343  1.00  0.00     0.000 HD 
HETATM   13  O   UNL     1      -8.606   6.277  67.971  1.00  0.00    -0.117 OA 
ENDBRANCH   9  11
BRANCH  10  14
HETATM   14  C   UNL     1      -8.954   9.217  70.451  1.00  0.00    -0.229 C  
BRANCH  14  15
HETATM   15  C   UNL     1      -9.490   9.975  69.264  1.00  0.00    -0.227 A  
HETATM   16  C   UNL     1      -8.803  11.078  68.750  1.00  0.00    -0.149 A  
HETATM   17  C   UNL     1      -9.275  11.759  67.619  1.00  0.00    -0.180 A  
HETATM   18  C   UNL     1     -10.486  11.416  66.998  1.00  0.00    -0.271 A  
HETATM   19  C   UNL     1     -11.145  10.280  67.502  1.00  0.00    -0.302 A  
HETATM   20  C   UNL     1     -10.653   9.566  68.603  1.00  0.00    -0.239 A  
BRANCH  18  21
HETATM   21  C   UNL     1     -11.059  12.199  65.864  1.00  0.00    -0.360 A  
HETATM   22  C   UNL     1     -11.078  11.609  64.576  1.00  0.00    -0.365 A  
HETATM   23  C   UNL     1     -11.609  12.261  63.457  1.00  0.00    -0.570 A  
HETATM   24  C   UNL     1     -12.118  13.541  63.583  1.00  0.00    -0.459 A  
HETATM   25  C   UNL     1     -12.095  14.163  64.830  1.00  0.00    -0.438 A  
HETATM   26  C   UNL     1     -11.594  13.508  65.980  1.00  0.00    -0.363 A  
BRANCH  26  27
HETATM   27  C   UNL     1     -11.695  14.246  67.234  1.00  0.00    -0.395 A  
HETATM   28  N   UNL     1     -12.300  13.767  68.339  1.00  0.00    -0.125 NA 
HETATM   29  N   UNL     1     -12.121  14.797  69.174  1.00  0.00    -0.510 NA 
HETATM   30  N   UNL     1     -11.470  15.851  68.677  1.00  0.00    -0.382 NA 
HETATM   31  H   UNL     1     -12.461  14.777  70.136  1.00  0.00     0.000 HD 
HETATM   32  N   UNL     1     -11.166  15.499  67.436  1.00  0.00    -0.291 NA 
ENDBRANCH  26  27
ENDBRANCH  18  21
ENDBRANCH  14  15
ENDBRANCH  10  14
ENDBRANCH   4   5
ENDBRANCH   3   4
ENDBRANCH   2   3
TORSDOF 8
ENDMDL
MODEL       13
REMARK 921   NORMALIZED FREE ENERGY PREDICTED BY IDOCK:   -6.75 KCAL/MOL
REMARK 922        TOTAL FREE ENERGY PREDICTED BY IDOCK:  -10.94 KCAL/MOL
REMARK 923 INTER-LIGAND FREE ENERGY PREDICTED BY IDOCK:   -9.15 KCAL/MOL
REMARK 924 INTRA-LIGAND FREE ENERGY PREDICTED BY IDOCK:   -1.78 KCAL/MOL
REMARK 927      BINDING AFFINITY PREDICTED BY RF-SCORE:    0.00 PKD
ROOT
HETATM    1  C   UNL     1     -12.427  14.538  70.448  1.00  0.00    -0.407 C  
HETATM    2  C   UNL     1     -11.799  15.536  69.489  1.00  0.00    -0.390 C  
ENDROOT
BRANCH   2   3
HETATM    3  C   UNL     1     -11.844  15.037  68.041  1.00  0.00    -0.266 C  
BRANCH   3   4
HETATM    4  C   UNL     1     -12.012  13.519  67.913  1.00  0.00    -0.372 C  
BRANCH   4   5
HETATM    5  C   UNL     1     -11.700  13.001  66.543  1.00  0.00    -0.382 A  
HETATM    6  N   UNL     1     -12.636  12.716  65.659  1.00  0.00    -0.557 NA 
HETATM    7  C   UNL     1     -11.996  12.288  64.537  1.00  0.00    -0.383 A  
HETATM    8 CL   UNL     1     -12.844  11.811  63.141  1.00  0.00    -0.414 Cl 
HETATM    9  C   UNL     1     -10.628  12.274  64.725  1.00  0.00    -0.297 A  
HETATM   10  N   UNL     1     -10.443  12.713  66.030  1.00  0.00    -0.263 NA 
BRANCH   9  11
HETATM   11  C   UNL     1      -9.566  11.852  63.788  1.00  0.00    -0.117 C  
HETATM   12  H   UNL     1      -8.828  10.166  63.217  1.00  0.00     0.000 HD 
HETATM   13  O   UNL     1      -9.511  10.437  63.820  1.00  0.00    -0.262 OA 
ENDBRANCH   9  11
BRANCH  10  14
HETATM   14  C   UNL     1      -9.199  12.637  66.794  1.00  0.00    -0.225 C  
BRANCH  14  15
HETATM   15  C   UNL     1      -8.688  13.961  67.301  1.00  0.00    -0.225 A  
HETATM   16  C   UNL     1      -8.622  15.072  66.457  1.00  0.00    -0.179 A  
HETATM   17  C   UNL     1      -8.188  16.317  66.935  1.00  0.00    -0.261 A  
HETATM   18  C   UNL     1      -7.735  16.488  68.253  1.00  0.00    -0.176 A  
HETATM   19  C   UNL     1      -7.845  15.371  69.100  1.00  0.00    -0.212 A  
HETATM   20  C   UNL     1      -8.323  14.136  68.639  1.00  0.00    -0.123 A  
BRANCH  18  21
HETATM   21  C   UNL     1      -7.166  17.777  68.747  1.00  0.00    -0.271 A  
HETATM   22  C   UNL     1      -5.934  17.747  69.446  1.00  0.00    -0.238 A  
HETATM   23  C   UNL     1      -5.316  18.905  69.931  1.00  0.00    -0.219 A  
HETATM   24  C   UNL     1      -5.925  20.135  69.757  1.00  0.00    -0.387 A  
HETATM   25  C   UNL     1      -7.149  20.201  69.094  1.00  0.00    -0.142 A  
HETATM   26  C   UNL     1      -7.773  19.046  68.566  1.00  0.00    -0.368 A  
BRANCH  26  27
HETATM   27  C   UNL     1      -9.015  19.266  67.834  1.00  0.00    -0.311 A  
HETATM   28  N   UNL     1     -10.240  19.154  68.385  1.00  0.00    -0.399 NA 
HETATM   29  N   UNL     1     -11.005  19.447  67.326  1.00  0.00    -0.451 NA 
HETATM   30  N   UNL     1     -10.358  19.720  66.191  1.00  0.00    -0.500 NA 
HETATM   31  H   UNL     1     -12.023  19.461  67.384  1.00  0.00     0.000 HD 
HETATM   32  N   UNL     1      -9.074  19.634  66.510  1.00  0.00    -0.356 NA 
ENDBRANCH  26  27
ENDBRANCH  18  21
ENDBRANCH  14  15
ENDBRANCH  10  14
ENDBRANCH   4   5
ENDBRANCH   3   4
ENDBRANCH   2   3
TORSDOF 8
ENDMDL
MODEL       14
REMARK 921   NORMALIZED FREE ENERGY PREDICTED BY IDOCK:   -6.74 KCAL/MOL
REMARK 922        TOTAL FREE ENERGY PREDICTED BY IDOCK:  -10.92 KCAL/MOL
REMARK 923 INTER-LIGAND FREE ENERGY PREDICTED BY IDOCK:   -9.37 KCAL/MOL
REMARK 924 INTRA-LIGAND FREE ENERGY PREDICTED BY IDOCK:   -1.54 KCAL/MOL
REMARK 927      BINDING AFFINITY PREDICTED BY RF-SCORE:    0.00 PKD
ROOT
HETATM    1  C   UNL     1     -12.393  12.183  63.476  1.00  0.00    -0.682 C  
HETATM    2  C   UNL     1     -10.875  12.240  63.509  1.00  0.00    -0.508 C  
ENDROOT
BRANCH   2   3
HETATM    3  C   UNL     1     -10.268  10.918  63.991  1.00  0.00    -0.422 C  
BRANCH   3   4
HETATM    4  C   UNL     1      -9.319  11.069  65.185  1.00  0.00    -0.249 C  
BRANCH   4   5
HETATM    5  C   UNL     1      -9.920  10.623  66.482  1.00  0.00    -0.215 A  
HETATM    6  N   UNL     1      -9.840   9.379  66.913  1.00  0.00    -0.186 NA 
HETATM    7  C   UNL     1     -10.479   9.341  68.114  1.00  0.00    -0.215 A  
HETATM    8 CL   UNL     1     -10.611   7.907  69.020  1.00  0.00    -0.210 Cl 
HETATM    9  C   UNL     1     -10.999  10.579  68.435  1.00  0.00    -0.261 A  
HETATM   10  N   UNL     1     -10.656  11.398  67.367  1.00  0.00    -0.208 NA 
BRANCH   9  11
HETATM   11  C   UNL     1     -11.788  10.976  69.620  1.00  0.00    -0.342 C  
HETATM   12  H   UNL     1     -11.580  10.809  71.529  1.00  0.00     0.000 HD 
HETATM   13  O   UNL     1     -11.072  10.553  70.767  1.00  0.00    -0.250 OA 
ENDBRANCH   9  11
BRANCH  10  14
HETATM   14  C   UNL     1     -11.185  12.735  67.104  1.00  0.00    -0.292 C  
BRANCH  14  15
HETATM   15  C   UNL     1     -10.285  13.866  67.531  1.00  0.00    -0.245 A  
HETATM   16  C   UNL     1     -10.377  14.406  68.816  1.00  0.00    -0.241 A  
HETATM   17  C   UNL     1      -9.512  15.429  69.231  1.00  0.00    -0.261 A  
HETATM   18  C   UNL     1      -8.570  16.003  68.363  1.00  0.00    -0.185 A  
HETATM   19  C   UNL     1      -8.464  15.423  67.087  1.00  0.00    -0.241 A  
HETATM   20  C   UNL     1      -9.295  14.368  66.681  1.00  0.00    -0.297 A  
BRANCH  18  21
HETATM   21  C   UNL     1      -7.720  17.167  68.753  1.00  0.00    -0.259 A  
HETATM   22  C   UNL     1      -6.566  16.926  69.540  1.00  0.00    -0.203 A  
HETATM   23  C   UNL     1      -5.702  17.951  69.940  1.00  0.00    -0.247 A  
HETATM   24  C   UNL     1      -5.977  19.261  69.589  1.00  0.00    -0.288 A  
HETATM   25  C   UNL     1      -7.116  19.538  68.834  1.00  0.00    -0.394 A  
HETATM   26  C   UNL     1      -7.983  18.513  68.391  1.00  0.00    -0.337 A  
BRANCH  26  27
HETATM   27  C   UNL     1      -9.098  18.934  67.550  1.00  0.00    -0.280 A  
HETATM   28  N   UNL     1     -10.232  19.484  68.028  1.00  0.00    -0.415 NA 
HETATM   29  N   UNL     1     -10.901  19.680  66.886  1.00  0.00    -0.457 NA 
HETATM   30  N   UNL     1     -10.282  19.297  65.768  1.00  0.00    -0.503 NA 
HETATM   31  H   UNL     1     -11.831  20.099  66.871  1.00  0.00     0.000 HD 
HETATM   32  N   UNL     1      -9.107  18.840  66.178  1.00  0.00    -0.478 NA 
ENDBRANCH  26  27
ENDBRANCH  18  21
ENDBRANCH  14  15
ENDBRANCH  10  14
ENDBRANCH   4   5
ENDBRANCH   3   4
ENDBRANCH   2   3
TORSDOF 8
ENDMDL
MODEL       15
REMARK 921   NORMALIZED FREE ENERGY PREDICTED BY IDOCK:   -6.72 KCAL/MOL
REMARK 922        TOTAL FREE ENERGY PREDICTED BY IDOCK:  -10.89 KCAL/MOL
REMARK 923 INTER-LIGAND FREE ENERGY PREDICTED BY IDOCK:   -9.41 KCAL/MOL
REMARK 924 INTRA-LIGAND FREE ENERGY PREDICTED BY IDOCK:   -1.48 KCAL/MOL
REMARK 927      BINDING AFFINITY PREDICTED BY RF-SCORE:    0.00 PKD
ROOT
HETATM    1  C   UNL     1     -11.530   5.462  72.855  1.00  0.00    -0.340 C  
HETATM    2  C   UNL     1     -11.615   6.522  71.769  1.00  0.00    -0.359 C  
ENDROOT
BRANCH   2   3
HETATM    3  C   UNL     1     -12.112   7.861  72.322  1.00  0.00    -0.363 C  
BRANCH   3   4
HETATM    4  C   UNL     1     -11.314   9.073  71.827  1.00  0.00    -0.447 C  
BRANCH   4   5
HETATM    5  C   UNL     1      -9.892   8.748  71.487  1.00  0.00    -0.301 A  
HETATM    6  N   UNL     1      -8.911   8.842  72.363  1.00  0.00    -0.387 NA 
HETATM    7  C   UNL     1      -7.775   8.463  71.718  1.00  0.00    -0.116 A  
HETATM    8 CL   UNL     1      -6.261   8.442  72.495  1.00  0.00    -0.070 Cl 
HETATM    9  C   UNL     1      -8.037   8.152  70.399  1.00  0.00    -0.108 A  
HETATM   10  N   UNL     1      -9.402   8.360  70.248  1.00  0.00    -0.162 NA 
BRANCH   9  11
HETATM   11  C   UNL     1      -7.097   7.730  69.339  1.00  0.00    -0.071 C  
HETATM   12  H   UNL     1      -5.652   8.561  68.373  1.00  0.00     0.000 HD 
HETATM   13  O   UNL     1      -6.257   8.833  69.054  1.00  0.00    -0.043 OA 
ENDBRANCH   9  11
BRANCH  10  14
HETATM   14  C   UNL     1     -10.129   8.414  68.980  1.00  0.00    -0.203 C  
BRANCH  14  15
HETATM   15  C   UNL     1     -10.191   9.779  68.346  1.00  0.00    -0.210 A  
HETATM   16  C   UNL     1      -9.127  10.260  67.579  1.00  0.00    -0.146 A  
HETATM   17  C   UNL     1      -9.198  11.512  66.951  1.00  0.00    -0.181 A  
HETATM   18  C   UNL     1     -10.301  12.364  67.119  1.00  0.00    -0.232 A  
HETATM   19  C   UNL     1     -11.379  11.851  67.861  1.00  0.00    -0.358 A  
HETATM   20  C   UNL     1     -11.332  10.580  68.452  1.00  0.00    -0.328 A  
BRANCH  18  21
HETATM   21  C   UNL     1     -10.345  13.744  66.550  1.00  0.00    -0.286 A  
HETATM   22  C   UNL     1      -9.701  14.788  67.258  1.00  0.00    -0.230 A  
HETATM   23  C   UNL     1      -9.675  16.108  66.795  1.00  0.00    -0.255 A  
HETATM   24  C   UNL     1     -10.319  16.437  65.615  1.00  0.00    -0.371 A  
HETATM   25  C   UNL     1     -10.983  15.440  64.902  1.00  0.00    -0.453 A  
HETATM   26  C   UNL     1     -10.991  14.093  65.336  1.00  0.00    -0.328 A  
BRANCH  26  27
HETATM   27  C   UNL     1     -11.662  13.141  64.459  1.00  0.00    -0.371 A  
HETATM   28  N   UNL     1     -11.029  12.415  63.516  1.00  0.00    -0.460 NA 
HETATM   29  N   UNL     1     -12.061  11.725  63.014  1.00  0.00    -0.888 NA 
HETATM   30  N   UNL     1     -13.254  11.970  63.560  1.00  0.00    -0.613 NA 
HETATM   31  H   UNL     1     -11.942  11.051  62.257  1.00  0.00     0.000 HD 
HETATM   32  N   UNL     1     -13.008  12.860  64.512  1.00  0.00    -0.737 NA 
ENDBRANCH  26  27
ENDBRANCH  18  21
ENDBRANCH  14  15
ENDBRANCH  10  14
ENDBRANCH   4   5
ENDBRANCH   3   4
ENDBRANCH   2   3
TORSDOF 8
ENDMDL
MODEL       16
REMARK 921   NORMALIZED FREE ENERGY PREDICTED BY IDOCK:   -6.70 KCAL/MOL
REMARK 922        TOTAL FREE ENERGY PREDICTED BY IDOCK:  -10.87 KCAL/MOL
REMARK 923 INTER-LIGAND FREE ENERGY PREDICTED BY IDOCK:   -9.64 KCAL/MOL
REMARK 924 INTRA-LIGAND FREE ENERGY PREDICTED BY IDOCK:   -1.23 KCAL/MOL
REMARK 927      BINDING AFFINITY PREDICTED BY RF-SCORE:    0.00 PKD
ROOT
HETATM    1  C   UNL     1      -9.831   8.724  66.408  1.00  0.00    -0.352 C  
HETATM    2  C   UNL     1     -10.677   7.821  67.291  1.00  0.00    -0.326 C  
ENDROOT
BRANCH   2   3
HETATM    3  C   UNL     1      -9.816   6.818  68.065  1.00  0.00    -0.148 C  
BRANCH   3   4
HETATM    4  C   UNL     1     -10.623   5.858  68.947  1.00  0.00    -0.357 C  
BRANCH   4   5
HETATM    5  C   UNL     1     -10.131   5.795  70.361  1.00  0.00    -0.210 A  
HETATM    6  N   UNL     1      -9.013   5.182  70.698  1.00  0.00    -0.130 NA 
HETATM    7  C   UNL     1      -8.876   5.335  72.044  1.00  0.00    -0.130 A  
HETATM    8 CL   UNL     1      -7.554   4.684  72.895  1.00  0.00    -0.085 Cl 
HETATM    9  C   UNL     1      -9.944   6.032  72.572  1.00  0.00    -0.176 A  
HETATM   10  N   UNL     1     -10.763   6.307  71.484  1.00  0.00    -0.237 NA 
BRANCH   9  11
HETATM   11  C   UNL     1     -10.214   6.389  73.980  1.00  0.00    -0.332 C  
HETATM   12  H   UNL     1      -9.449   7.610  75.260  1.00  0.00     0.000 HD 
HETATM   13  O   UNL     1      -9.274   7.380  74.354  1.00  0.00    -0.204 OA 
ENDBRANCH   9  11
BRANCH  10  14
HETATM   14  C   UNL     1     -12.137   6.803  71.547  1.00  0.00    -0.363 C  
BRANCH  14  15
HETATM   15  C   UNL     1     -12.275   8.297  71.412  1.00  0.00    -0.328 A  
HETATM   16  C   UNL     1     -11.298   9.049  70.755  1.00  0.00    -0.329 A  
HETATM   17  C   UNL     1     -11.443  10.434  70.589  1.00  0.00    -0.438 A  
HETATM   18  C   UNL     1     -12.531  11.136  71.133  1.00  0.00    -0.498 A  
HETATM   19  C   UNL     1     -13.524  10.361  71.757  1.00  0.00    -0.366 A  
HETATM   20  C   UNL     1     -13.407   8.969  71.884  1.00  0.00    -0.474 A  
BRANCH  18  21
HETATM   21  C   UNL     1     -12.644  12.623  71.063  1.00  0.00    -0.354 A  
HETATM   22  C   UNL     1     -13.242  13.307  72.150  1.00  0.00    -0.562 A  
HETATM   23  C   UNL     1     -13.376  14.700  72.181  1.00  0.00    -0.469 A  
HETATM   24  C   UNL     1     -12.941  15.458  71.108  1.00  0.00    -0.545 A  
HETATM   25  C   UNL     1     -12.369  14.817  70.010  1.00  0.00    -0.365 A  
HETATM   26  C   UNL     1     -12.192  13.414  69.975  1.00  0.00    -0.367 A  
BRANCH  26  27
HETATM   27  C   UNL     1     -11.516  12.882  68.798  1.00  0.00    -0.303 A  
HETATM   28  N   UNL     1     -12.144  12.216  67.808  1.00  0.00    -0.471 NA 
HETATM   29  N   UNL     1     -11.109  11.956  67.001  1.00  0.00    -0.284 NA 
HETATM   30  N   UNL     1      -9.918  12.397  67.411  1.00  0.00    -0.201 NA 
HETATM   31  H   UNL     1     -11.224  11.450  66.123  1.00  0.00     0.000 HD 
HETATM   32  N   UNL     1     -10.169  13.019  68.555  1.00  0.00    -0.237 NA 
ENDBRANCH  26  27
ENDBRANCH  18  21
ENDBRANCH  14  15
ENDBRANCH  10  14
ENDBRANCH   4   5
ENDBRANCH   3   4
ENDBRANCH   2   3
TORSDOF 8
ENDMDL
MODEL       17
REMARK 921   NORMALIZED FREE ENERGY PREDICTED BY IDOCK:   -6.69 KCAL/MOL
REMARK 922        TOTAL FREE ENERGY PREDICTED BY IDOCK:  -10.84 KCAL/MOL
REMARK 923 INTER-LIGAND FREE ENERGY PREDICTED BY IDOCK:   -8.51 KCAL/MOL
REMARK 924 INTRA-LIGAND FREE ENERGY PREDICTED BY IDOCK:   -2.33 KCAL/MOL
REMARK 927      BINDING AFFINITY PREDICTED BY RF-SCORE:    0.00 PKD
ROOT
HETATM    1  C   UNL     1      -9.725   7.172  66.678  1.00  0.00    -0.233 C  
HETATM    2  C   UNL     1     -11.000   7.147  67.505  1.00  0.00    -0.261 C  
ENDROOT
BRANCH   2   3
HETATM    3  C   UNL     1     -10.929   6.107  68.627  1.00  0.00    -0.415 C  
BRANCH   3   4
HETATM    4  C   UNL     1     -11.531   6.582  69.954  1.00  0.00    -0.467 C  
BRANCH   4   5
HETATM    5  C   UNL     1     -10.543   6.603  71.080  1.00  0.00    -0.228 A  
HETATM    6  N   UNL     1     -10.001   5.506  71.572  1.00  0.00    -0.171 NA 
HETATM    7  C   UNL     1      -9.154   5.901  72.562  1.00  0.00    -0.135 A  
HETATM    8 CL   UNL     1      -8.245   4.784  73.468  1.00  0.00    -0.106 Cl 
HETATM    9  C   UNL     1      -9.184   7.272  72.719  1.00  0.00    -0.143 A  
HETATM   10  N   UNL     1     -10.100   7.719  71.775  1.00  0.00    -0.176 NA 
BRANCH   9  11
HETATM   11  C   UNL     1      -8.453   8.111  73.691  1.00  0.00    -0.243 C  
HETATM   12  H   UNL     1      -6.900   9.251  73.627  1.00  0.00     0.000 HD 
HETATM   13  O   UNL     1      -7.370   8.711  73.002  1.00  0.00    -0.327 OA 
ENDBRANCH   9  11
BRANCH  10  14
HETATM   14  C   UNL     1     -10.676   9.061  71.705  1.00  0.00    -0.367 C  
BRANCH  14  15
HETATM   15  C   UNL     1     -10.627   9.698  70.341  1.00  0.00    -0.354 A  
HETATM   16  C   UNL     1     -11.782  10.226  69.757  1.00  0.00    -0.261 A  
HETATM   17  C   UNL     1     -11.733  10.859  68.506  1.00  0.00    -0.307 A  
HETATM   18  C   UNL     1     -10.549  10.928  67.755  1.00  0.00    -0.255 A  
HETATM   19  C   UNL     1      -9.390  10.427  68.372  1.00  0.00    -0.150 A  
HETATM   20  C   UNL     1      -9.423   9.836  69.643  1.00  0.00    -0.237 A  
BRANCH  18  21
HETATM   21  C   UNL     1     -10.504  11.497  66.376  1.00  0.00    -0.292 A  
HETATM   22  C   UNL     1     -10.409  10.604  65.279  1.00  0.00    -0.321 A  
HETATM   23  C   UNL     1     -10.377  11.045  63.952  1.00  0.00    -0.436 A  
HETATM   24  C   UNL     1     -10.411  12.400  63.674  1.00  0.00    -0.460 A  
HETATM   25  C   UNL     1     -10.482  13.308  64.728  1.00  0.00    -0.402 A  
HETATM   26  C   UNL     1     -10.550  12.883  66.076  1.00  0.00    -0.287 A  
BRANCH  26  27
HETATM   27  C   UNL     1     -10.692  13.935  67.075  1.00  0.00    -0.283 A  
HETATM   28  N   UNL     1      -9.659  14.462  67.762  1.00  0.00    -0.212 NA 
HETATM   29  N   UNL     1     -10.307  15.355  68.519  1.00  0.00    -0.222 NA 
HETATM   30  N   UNL     1     -11.630  15.414  68.358  1.00  0.00    -0.354 NA 
HETATM   31  H   UNL     1      -9.817  15.957  69.182  1.00  0.00     0.000 HD 
HETATM   32  N   UNL     1     -11.889  14.523  67.410  1.00  0.00    -0.401 NA 
ENDBRANCH  26  27
ENDBRANCH  18  21
ENDBRANCH  14  15
ENDBRANCH  10  14
ENDBRANCH   4   5
ENDBRANCH   3   4
ENDBRANCH   2   3
TORSDOF 8
ENDMDL
MODEL       18
REMARK 921   NORMALIZED FREE ENERGY PREDICTED BY IDOCK:   -6.68 KCAL/MOL
REMARK 922        TOTAL FREE ENERGY PREDICTED BY IDOCK:  -10.83 KCAL/MOL
REMARK 923 INTER-LIGAND FREE ENERGY PREDICTED BY IDOCK:   -8.97 KCAL/MOL
REMARK 924 INTRA-LIGAND FREE ENERGY PREDICTED BY IDOCK:   -1.86 KCAL/MOL
REMARK 927      BINDING AFFINITY PREDICTED BY RF-SCORE:    0.00 PKD
ROOT
HETATM    1  C   UNL     1     -11.158  11.592  64.080  1.00  0.00    -0.458 C  
HETATM    2  C   UNL     1      -9.932  10.739  64.360  1.00  0.00    -0.400 C  
ENDROOT
BRANCH   2   3
HETATM    3  C   UNL     1     -10.023  10.046  65.724  1.00  0.00    -0.346 C  
BRANCH   3   4
HETATM    4  C   UNL     1      -9.301  10.794  66.850  1.00  0.00    -0.179 C  
BRANCH   4   5
HETATM    5  C   UNL     1      -9.931  10.594  68.195  1.00  0.00    -0.158 A  
HETATM    6  N   UNL     1      -9.544   9.648  69.028  1.00  0.00    -0.162 NA 
HETATM    7  C   UNL     1     -10.318   9.770  70.141  1.00  0.00    -0.282 A  
HETATM    8 CL   UNL     1     -10.146   8.729  71.476  1.00  0.00    -0.342 Cl 
HETATM    9  C   UNL     1     -11.232  10.794  69.997  1.00  0.00    -0.291 A  
HETATM   10  N   UNL     1     -10.993  11.309  68.729  1.00  0.00    -0.203 NA 
BRANCH   9  11
HETATM   11  C   UNL     1     -12.276  11.246  70.939  1.00  0.00    -0.356 C  
HETATM   12  H   UNL     1     -13.867  10.471  71.704  1.00  0.00     0.000 HD 
HETATM   13  O   UNL     1     -13.195  10.180  71.097  1.00  0.00    -0.380 OA 
ENDBRANCH   9  11
BRANCH  10  14
HETATM   14  C   UNL     1     -11.857  12.238  68.002  1.00  0.00    -0.305 C  
BRANCH  14  15
HETATM   15  C   UNL     1     -11.317  13.640  67.884  1.00  0.00    -0.325 A  
HETATM   16  C   UNL     1     -11.006  14.385  69.024  1.00  0.00    -0.274 A  
HETATM   17  C   UNL     1     -10.463  15.673  68.918  1.00  0.00    -0.220 A  
HETATM   18  C   UNL     1     -10.275  16.299  67.676  1.00  0.00    -0.272 A  
HETATM   19  C   UNL     1     -10.556  15.523  66.538  1.00  0.00    -0.307 A  
HETATM   20  C   UNL     1     -11.055  14.216  66.637  1.00  0.00    -0.314 A  
BRANCH  18  21
HETATM   21  C   UNL     1      -9.804  17.710  67.549  1.00  0.00    -0.299 A  
HETATM   22  C   UNL     1     -10.769  18.731  67.364  1.00  0.00    -0.487 A  
HETATM   23  C   UNL     1     -10.423  20.082  67.252  1.00  0.00    -0.505 A  
HETATM   24  C   UNL     1      -9.092  20.458  67.294  1.00  0.00    -0.500 A  
HETATM   25  C   UNL     1      -8.113  19.479  67.452  1.00  0.00    -0.315 A  
HETATM   26  C   UNL     1      -8.444  18.112  67.602  1.00  0.00    -0.245 A  
BRANCH  26  27
HETATM   27  C   UNL     1      -7.327  17.203  67.831  1.00  0.00    -0.178 A  
HETATM   28  N   UNL     1      -6.880  16.857  69.055  1.00  0.00    -0.213 NA 
HETATM   29  N   UNL     1      -5.880  16.033  68.720  1.00  0.00    -0.104 NA 
HETATM   30  N   UNL     1      -5.679  15.853  67.413  1.00  0.00    -0.301 NA 
HETATM   31  H   UNL     1      -5.305  15.569  69.423  1.00  0.00     0.000 HD 
HETATM   32  N   UNL     1      -6.622  16.580  66.828  1.00  0.00    -0.249 NA 
ENDBRANCH  26  27
ENDBRANCH  18  21
ENDBRANCH  14  15
ENDBRANCH  10  14
ENDBRANCH   4   5
ENDBRANCH   3   4
ENDBRANCH   2   3
TORSDOF 8
ENDMDL
MODEL       19
REMARK 921   NORMALIZED FREE ENERGY PREDICTED BY IDOCK:   -6.67 KCAL/MOL
REMARK 922        TOTAL FREE ENERGY PREDICTED BY IDOCK:  -10.82 KCAL/MOL
REMARK 923 INTER-LIGAND FREE ENERGY PREDICTED BY IDOCK:   -8.94 KCAL/MOL
REMARK 924 INTRA-LIGAND FREE ENERGY PREDICTED BY IDOCK:   -1.89 KCAL/MOL
REMARK 927      BINDING AFFINITY PREDICTED BY RF-SCORE:    0.00 PKD
ROOT
HETATM    1  C   UNL     1     -12.712  14.193  70.574  1.00  0.00    -0.374 C  
HETATM    2  C   UNL     1     -12.064  12.821  70.491  1.00  0.00    -0.369 C  
ENDROOT
BRANCH   2   3
HETATM    3  C   UNL     1     -12.089  12.268  69.062  1.00  0.00    -0.197 C  
BRANCH   3   4
HETATM    4  C   UNL     1     -11.474  13.210  68.020  1.00  0.00    -0.346 C  
BRANCH   4   5
HETATM    5  C   UNL     1     -11.365  12.599  66.657  1.00  0.00    -0.326 A  
HETATM    6  N   UNL     1     -12.366  12.594  65.798  1.00  0.00    -0.619 NA 
HETATM    7  C   UNL     1     -11.910  11.974  64.675  1.00  0.00    -0.268 A  
HETATM    8 CL   UNL     1     -12.896  11.750  63.306  1.00  0.00    -0.499 Cl 
HETATM    9  C   UNL     1     -10.606  11.553  64.838  1.00  0.00    -0.303 A  
HETATM   10  N   UNL     1     -10.266  11.938  66.129  1.00  0.00    -0.220 NA 
BRANCH   9  11
HETATM   11  C   UNL     1      -9.743  10.815  63.892  1.00  0.00    -0.313 C  
HETATM   12  H   UNL     1      -8.962  11.185  62.170  1.00  0.00     0.000 HD 
HETATM   13  O   UNL     1      -9.517  11.660  62.778  1.00  0.00    -0.348 OA 
ENDBRANCH   9  11
BRANCH  10  14
HETATM   14  C   UNL     1      -9.084  11.505  66.872  1.00  0.00    -0.179 C  
BRANCH  14  15
HETATM   15  C   UNL     1      -9.322  10.368  67.831  1.00  0.00    -0.147 A  
HETATM   16  C   UNL     1      -8.879  10.443  69.154  1.00  0.00    -0.180 A  
HETATM   17  C   UNL     1      -9.137   9.405  70.061  1.00  0.00    -0.244 A  
HETATM   18  C   UNL     1      -9.783   8.222  69.671  1.00  0.00    -0.173 A  
HETATM   19  C   UNL     1     -10.258   8.178  68.348  1.00  0.00    -0.240 A  
HETATM   20  C   UNL     1     -10.044   9.232  67.449  1.00  0.00    -0.280 A  
BRANCH  18  21
HETATM   21  C   UNL     1      -9.966   7.063  70.594  1.00  0.00    -0.194 A  
HETATM   22  C   UNL     1      -8.920   6.114  70.703  1.00  0.00    -0.148 A  
HETATM   23  C   UNL     1      -8.995   5.006  71.554  1.00  0.00    -0.157 A  
HETATM   24  C   UNL     1     -10.135   4.792  72.309  1.00  0.00    -0.245 A  
HETATM   25  C   UNL     1     -11.194   5.693  72.210  1.00  0.00    -0.317 A  
HETATM   26  C   UNL     1     -11.124   6.837  71.382  1.00  0.00    -0.293 A  
BRANCH  26  27
HETATM   27  C   UNL     1     -12.274   7.733  71.428  1.00  0.00    -0.319 A  
HETATM   28  N   UNL     1     -13.525   7.366  71.086  1.00  0.00    -0.251 NA 
HETATM   29  N   UNL     1     -14.178   8.515  71.299  1.00  0.00    -0.626 NA 
HETATM   30  N   UNL     1     -13.440   9.539  71.732  1.00  0.00    -0.399 NA 
HETATM   31  H   UNL     1     -15.182   8.602  71.141  1.00  0.00     0.000 HD 
HETATM   32  N   UNL     1     -12.215   9.042  71.845  1.00  0.00    -0.358 NA 
ENDBRANCH  26  27
ENDBRANCH  18  21
ENDBRANCH  14  15
ENDBRANCH  10  14
ENDBRANCH   4   5
ENDBRANCH   3   4
ENDBRANCH   2   3
TORSDOF 8
ENDMDL
MODEL       20
REMARK 921   NORMALIZED FREE ENERGY PREDICTED BY IDOCK:   -6.64 KCAL/MOL
REMARK 922        TOTAL FREE ENERGY PREDICTED BY IDOCK:  -10.77 KCAL/MOL
REMARK 923 INTER-LIGAND FREE ENERGY PREDICTED BY IDOCK:   -9.19 KCAL/MOL
REMARK 924 INTRA-LIGAND FREE ENERGY PREDICTED BY IDOCK:   -1.59 KCAL/MOL
REMARK 927      BINDING AFFINITY PREDICTED BY RF-SCORE:    0.00 PKD
ROOT
HETATM    1  C   UNL     1     -12.506  12.208  63.825  1.00  0.00    -0.620 C  
HETATM    2  C   UNL     1     -11.083  11.694  63.959  1.00  0.00    -0.458 C  
ENDROOT
BRANCH   2   3
HETATM    3  C   UNL     1     -10.181  12.702  64.679  1.00  0.00    -0.319 C  
BRANCH   3   4
HETATM    4  C   UNL     1     -10.722  14.136  64.670  1.00  0.00    -0.408 C  
BRANCH   4   5
HETATM    5  C   UNL     1     -10.227  14.965  65.815  1.00  0.00    -0.336 A  
HETATM    6  N   UNL     1      -9.004  15.456  65.862  1.00  0.00    -0.186 NA 
HETATM    7  C   UNL     1      -8.911  16.157  67.025  1.00  0.00    -0.211 A  
HETATM    8 CL   UNL     1      -7.481  16.958  67.483  1.00  0.00    -0.171 Cl 
HETATM    9  C   UNL     1     -10.089  16.083  67.742  1.00  0.00    -0.243 A  
HETATM   10  N   UNL     1     -10.928  15.293  66.967  1.00  0.00    -0.326 NA 
BRANCH   9  11
HETATM   11  C   UNL     1     -10.411  16.664  69.061  1.00  0.00    -0.317 C  
HETATM   12  H   UNL     1     -10.478  18.443  69.801  1.00  0.00     0.000 HD 
HETATM   13  O   UNL     1     -10.270  18.070  68.952  1.00  0.00    -0.379 OA 
ENDBRANCH   9  11
BRANCH  10  14
HETATM   14  C   UNL     1     -12.197  14.708  67.397  1.00  0.00    -0.051 C  
BRANCH  14  15
HETATM   15  C   UNL     1     -12.065  13.503  68.291  1.00  0.00    -0.295 A  
HETATM   16  C   UNL     1     -11.845  12.233  67.752  1.00  0.00    -0.341 A  
HETATM   17  C   UNL     1     -11.679  11.115  68.582  1.00  0.00    -0.389 A  
HETATM   18  C   UNL     1     -11.796  11.204  69.978  1.00  0.00    -0.441 A  
HETATM   19  C   UNL     1     -11.979  12.493  70.508  1.00  0.00    -0.277 A  
HETATM   20  C   UNL     1     -12.099  13.622  69.684  1.00  0.00    -0.378 A  
BRANCH  18  21
HETATM   21  C   UNL     1     -11.733  10.007  70.868  1.00  0.00    -0.462 A  
HETATM   22  C   UNL     1     -12.842   9.728  71.705  1.00  0.00    -0.519 A  
HETATM   23  C   UNL     1     -12.880   8.621  72.560  1.00  0.00    -0.352 A  
HETATM   24  C   UNL     1     -11.795   7.765  72.628  1.00  0.00    -0.317 A  
HETATM   25  C   UNL     1     -10.677   8.021  71.835  1.00  0.00    -0.311 A  
HETATM   26  C   UNL     1     -10.632   9.114  70.940  1.00  0.00    -0.341 A  
BRANCH  26  27
HETATM   27  C   UNL     1      -9.432   9.224  70.120  1.00  0.00    -0.226 A  
HETATM   28  N   UNL     1      -9.324   8.718  68.875  1.00  0.00    -0.144 NA 
HETATM   29  N   UNL     1      -8.071   9.079  68.578  1.00  0.00    -0.107 NA 
HETATM   30  N   UNL     1      -7.411   9.750  69.525  1.00  0.00    -0.088 NA 
HETATM   31  H   UNL     1      -7.644   8.855  67.679  1.00  0.00     0.000 HD 
HETATM   32  N   UNL     1      -8.286   9.874  70.514  1.00  0.00    -0.173 NA 
ENDBRANCH  26  27
ENDBRANCH  18  21
ENDBRANCH  14  15
ENDBRANCH  10  14
ENDBRANCH   4   5
ENDBRANCH   3   4
ENDBRANCH   2   3
TORSDOF 8
ENDMDL
MODEL       21
REMARK 921   NORMALIZED FREE ENERGY PREDICTED BY IDOCK:   -6.61 KCAL/MOL
REMARK 922        TOTAL FREE ENERGY PREDICTED BY IDOCK:  -10.73 KCAL/MOL
REMARK 923 INTER-LIGAND FREE ENERGY PREDICTED BY IDOCK:   -9.46 KCAL/MOL
REMARK 924 INTRA-LIGAND FREE ENERGY PREDICTED BY IDOCK:   -1.27 KCAL/MOL
REMARK 927      BINDING AFFINITY PREDICTED BY RF-SCORE:    0.00 PKD
ROOT
HETATM    1  C   UNL     1     -13.642  14.709  71.740  1.00  0.00    -0.481 C  
HETATM    2  C   UNL     1     -13.911  13.352  72.369  1.00  0.00    -0.665 C  
ENDROOT
BRANCH   2   3
HETATM    3  C   UNL     1     -12.753  12.378  72.130  1.00  0.00    -0.002 C  
BRANCH   3   4
HETATM    4  C   UNL     1     -13.127  11.166  71.269  1.00  0.00    -0.353 C  
BRANCH   4   5
HETATM    5  C   UNL     1     -11.981  10.233  71.026  1.00  0.00    -0.385 A  
HETATM    6  N   UNL     1     -11.307   9.663  72.005  1.00  0.00     0.038 NA 
HETATM    7  C   UNL     1     -10.358   8.881  71.421  1.00  0.00    -0.307 A  
HETATM    8 CL   UNL     1      -9.258   7.963  72.338  1.00  0.00    -0.217 Cl 
HETATM    9  C   UNL     1     -10.413   8.983  70.046  1.00  0.00    -0.214 A  
HETATM   10  N   UNL     1     -11.448   9.875  69.795  1.00  0.00    -0.189 NA 
BRANCH   9  11
HETATM   11  C   UNL     1      -9.554   8.338  69.031  1.00  0.00    -0.156 C  
HETATM   12  H   UNL     1      -7.820   8.696  68.270  1.00  0.00     0.000 HD 
HETATM   13  O   UNL     1      -8.373   9.112  68.922  1.00  0.00    -0.120 OA 
ENDBRANCH   9  11
BRANCH  10  14
HETATM   14  C   UNL     1     -11.745  10.510  68.512  1.00  0.00    -0.049 C  
BRANCH  14  15
HETATM   15  C   UNL     1     -11.133  11.875  68.328  1.00  0.00    -0.289 A  
HETATM   16  C   UNL     1     -11.892  13.031  68.530  1.00  0.00    -0.360 A  
HETATM   17  C   UNL     1     -11.316  14.303  68.401  1.00  0.00    -0.309 A  
HETATM   18  C   UNL     1      -9.982  14.477  67.997  1.00  0.00    -0.222 A  
HETATM   19  C   UNL     1      -9.223  13.305  67.835  1.00  0.00    -0.213 A  
HETATM   20  C   UNL     1      -9.781  12.030  68.009  1.00  0.00    -0.198 A  
BRANCH  18  21
HETATM   21  C   UNL     1      -9.386  15.822  67.747  1.00  0.00    -0.206 A  
HETATM   22  C   UNL     1      -8.523  16.371  68.727  1.00  0.00    -0.249 A  
HETATM   23  C   UNL     1      -7.906  17.618  68.572  1.00  0.00    -0.282 A  
HETATM   24  C   UNL     1      -8.153  18.374  67.440  1.00  0.00    -0.243 A  
HETATM   25  C   UNL     1      -9.015  17.875  66.465  1.00  0.00    -0.278 A  
HETATM   26  C   UNL     1      -9.622  16.603  66.586  1.00  0.00    -0.280 A  
BRANCH  26  27
HETATM   27  C   UNL     1     -10.444  16.175  65.461  1.00  0.00    -0.386 A  
HETATM   28  N   UNL     1     -10.603  14.887  65.095  1.00  0.00    -0.399 NA 
HETATM   29  N   UNL     1     -11.422  15.036  64.047  1.00  0.00    -0.571 NA 
HETATM   30  N   UNL     1     -11.768  16.289  63.744  1.00  0.00    -0.900 NA 
HETATM   31  H   UNL     1     -11.763  14.237  63.512  1.00  0.00     0.000 HD 
HETATM   32  N   UNL     1     -11.166  17.031  64.663  1.00  0.00    -0.972 NA 
ENDBRANCH  26  27
ENDBRANCH  18  21
ENDBRANCH  14  15
ENDBRANCH  10  14
ENDBRANCH   4   5
ENDBRANCH   3   4
ENDBRANCH   2   3
TORSDOF 8
ENDMDL
MODEL       22
REMARK 921   NORMALIZED FREE ENERGY PREDICTED BY IDOCK:   -6.53 KCAL/MOL
REMARK 922        TOTAL FREE ENERGY PREDICTED BY IDOCK:  -10.61 KCAL/MOL
REMARK 923 INTER-LIGAND FREE ENERGY PREDICTED BY IDOCK:   -9.11 KCAL/MOL
REMARK 924 INTRA-LIGAND FREE ENERGY PREDICTED BY IDOCK:   -1.49 KCAL/MOL
REMARK 927      BINDING AFFINITY PREDICTED BY RF-SCORE:    0.00 PKD
ROOT
HETATM    1  C   UNL     1     -13.478  10.017  71.996  1.00  0.00    -0.448 C  
HETATM    2  C   UNL     1     -12.122   9.844  71.330  1.00  0.00    -0.501 C  
ENDROOT
BRANCH   2   3
HETATM    3  C   UNL     1     -11.405   8.583  71.824  1.00  0.00    -0.377 C  
BRANCH   3   4
HETATM    4  C   UNL     1     -11.475   7.405  70.845  1.00  0.00    -0.311 C  
BRANCH   4   5
HETATM    5  C   UNL     1     -10.134   6.972  70.340  1.00  0.00    -0.187 A  
HETATM    6  N   UNL     1      -9.111   6.745  71.140  1.00  0.00    -0.151 NA 
HETATM    7  C   UNL     1      -8.073   6.363  70.347  1.00  0.00    -0.117 A  
HETATM    8 CL   UNL     1      -6.544   5.975  70.987  1.00  0.00    -0.048 Cl 
HETATM    9  C   UNL     1      -8.439   6.377  69.016  1.00  0.00    -0.124 A  
HETATM   10  N   UNL     1      -9.764   6.793  69.014  1.00  0.00    -0.145 NA 
BRANCH   9  11
HETATM   11  C   UNL     1      -7.621   6.066  67.825  1.00  0.00    -0.096 C  
HETATM   12  H   UNL     1      -6.342   7.025  66.748  1.00  0.00     0.000 HD 
HETATM   13  O   UNL     1      -6.868   7.225  67.514  1.00  0.00    -0.068 OA 
ENDBRANCH   9  11
BRANCH  10  14
HETATM   14  C   UNL     1     -10.532   7.211  67.843  1.00  0.00    -0.212 C  
BRANCH  14  15
HETATM   15  C   UNL     1     -10.367   8.660  67.464  1.00  0.00    -0.336 A  
HETATM   16  C   UNL     1     -10.976   9.669  68.214  1.00  0.00    -0.172 A  
HETATM   17  C   UNL     1     -10.790  11.021  67.891  1.00  0.00    -0.285 A  
HETATM   18  C   UNL     1     -10.049  11.419  66.767  1.00  0.00    -0.250 A  
HETATM   19  C   UNL     1      -9.412  10.395  66.045  1.00  0.00    -0.232 A  
HETATM   20  C   UNL     1      -9.556   9.044  66.392  1.00  0.00    -0.309 A  
BRANCH  18  21
HETATM   21  C   UNL     1      -9.935  12.847  66.344  1.00  0.00    -0.267 A  
HETATM   22  C   UNL     1      -9.018  13.682  67.029  1.00  0.00    -0.244 A  
HETATM   23  C   UNL     1      -8.831  15.028  66.693  1.00  0.00    -0.307 A  
HETATM   24  C   UNL     1      -9.575  15.594  65.674  1.00  0.00    -0.319 A  
HETATM   25  C   UNL     1     -10.503  14.807  64.992  1.00  0.00    -0.443 A  
HETATM   26  C   UNL     1     -10.683  13.437  65.294  1.00  0.00    -0.321 A  
BRANCH  26  27
HETATM   27  C   UNL     1     -11.634  12.716  64.457  1.00  0.00    -0.345 A  
HETATM   28  N   UNL     1     -11.283  11.987  63.379  1.00  0.00    -0.414 NA 
HETATM   29  N   UNL     1     -12.485  11.550  62.984  1.00  0.00    -0.914 NA 
HETATM   30  N   UNL     1     -13.526  11.949  63.717  1.00  0.00    -0.326 NA 
HETATM   31  H   UNL     1     -12.598  10.946  62.170  1.00  0.00     0.000 HD 
HETATM   32  N   UNL     1     -12.990  12.679  64.686  1.00  0.00    -0.844 NA 
ENDBRANCH  26  27
ENDBRANCH  18  21
ENDBRANCH  14  15
ENDBRANCH  10  14
ENDBRANCH   4   5
ENDBRANCH   3   4
ENDBRANCH   2   3
TORSDOF 8
ENDMDL
MODEL       23
REMARK 921   NORMALIZED FREE ENERGY PREDICTED BY IDOCK:   -6.52 KCAL/MOL
REMARK 922        TOTAL FREE ENERGY PREDICTED BY IDOCK:  -10.60 KCAL/MOL
REMARK 923 INTER-LIGAND FREE ENERGY PREDICTED BY IDOCK:   -8.93 KCAL/MOL
REMARK 924 INTRA-LIGAND FREE ENERGY PREDICTED BY IDOCK:   -1.67 KCAL/MOL
REMARK 927      BINDING AFFINITY PREDICTED BY RF-SCORE:    0.00 PKD
ROOT
HETATM    1  C   UNL     1      -7.763  10.426  69.340  1.00  0.00    -0.158 C  
HETATM    2  C   UNL     1      -7.369  11.703  68.616  1.00  0.00    -0.111 C  
ENDROOT
BRANCH   2   3
HETATM    3  C   UNL     1      -8.530  12.268  67.790  1.00  0.00    -0.163 C  
BRANCH   3   4
HETATM    4  C   UNL     1      -9.659  11.262  67.536  1.00  0.00    -0.181 C  
BRANCH   4   5
HETATM    5  C   UNL     1     -10.163  11.279  66.126  1.00  0.00    -0.245 A  
HETATM    6  N   UNL     1      -9.515  10.704  65.132  1.00  0.00    -0.208 NA 
HETATM    7  C   UNL     1     -10.262  10.906  64.012  1.00  0.00    -0.357 A  
HETATM    8 CL   UNL     1      -9.779  10.322  62.488  1.00  0.00    -0.217 Cl 
HETATM    9  C   UNL     1     -11.390  11.649  64.299  1.00  0.00    -0.284 A  
HETATM   10  N   UNL     1     -11.310  11.907  65.661  1.00  0.00    -0.313 NA 
BRANCH   9  11
HETATM   11  C   UNL     1     -12.448  12.122  63.383  1.00  0.00    -0.512 C  
HETATM   12  H   UNL     1     -12.876  13.792  62.522  1.00  0.00     0.000 HD 
HETATM   13  O   UNL     1     -12.196  13.489  63.111  1.00  0.00    -0.608 OA 
ENDBRANCH   9  11
BRANCH  10  14
HETATM   14  C   UNL     1     -12.126  12.866  66.404  1.00  0.00    -0.329 C  
BRANCH  14  15
HETATM   15  C   UNL     1     -11.487  14.214  66.610  1.00  0.00    -0.378 A  
HETATM   16  C   UNL     1     -11.519  14.838  67.860  1.00  0.00    -0.361 A  
HETATM   17  C   UNL     1     -10.888  16.073  68.066  1.00  0.00    -0.335 A  
HETATM   18  C   UNL     1     -10.261  16.770  67.021  1.00  0.00    -0.292 A  
HETATM   19  C   UNL     1     -10.204  16.113  65.780  1.00  0.00    -0.397 A  
HETATM   20  C   UNL     1     -10.793  14.856  65.579  1.00  0.00    -0.365 A  
BRANCH  18  21
HETATM   21  C   UNL     1      -9.683  18.135  67.198  1.00  0.00    -0.301 A  
HETATM   22  C   UNL     1     -10.550  19.252  67.112  1.00  0.00    -0.575 A  
HETATM   23  C   UNL     1     -10.101  20.567  67.280  1.00  0.00    -0.439 A  
HETATM   24  C   UNL     1      -8.760  20.813  67.514  1.00  0.00    -0.195 A  
HETATM   25  C   UNL     1      -7.874  19.740  67.583  1.00  0.00    -0.326 A  
HETATM   26  C   UNL     1      -8.312  18.401  67.450  1.00  0.00    -0.256 A  
BRANCH  26  27
HETATM   27  C   UNL     1      -7.292  17.373  67.614  1.00  0.00    -0.175 A  
HETATM   28  N   UNL     1      -6.662  16.771  66.585  1.00  0.00    -0.224 NA 
HETATM   29  N   UNL     1      -5.853  15.940  67.254  1.00  0.00    -0.327 NA 
HETATM   30  N   UNL     1      -5.940  15.980  68.585  1.00  0.00    -0.103 NA 
HETATM   31  H   UNL     1      -5.208  15.313  66.774  1.00  0.00     0.000 HD 
HETATM   32  N   UNL     1      -6.844  16.918  68.832  1.00  0.00    -0.196 NA 
ENDBRANCH  26  27
ENDBRANCH  18  21
ENDBRANCH  14  15
ENDBRANCH  10  14
ENDBRANCH   4   5
ENDBRANCH   3   4
ENDBRANCH   2   3
TORSDOF 8
ENDMDL
MODEL       24
REMARK 921   NORMALIZED FREE ENERGY PREDICTED BY IDOCK:   -6.52 KCAL/MOL
REMARK 922        TOTAL FREE ENERGY PREDICTED BY IDOCK:  -10.59 KCAL/MOL
REMARK 923 INTER-LIGAND FREE ENERGY PREDICTED BY IDOCK:   -8.53 KCAL/MOL
REMARK 924 INTRA-LIGAND FREE ENERGY PREDICTED BY IDOCK:   -2.06 KCAL/MOL
REMARK 927      BINDING AFFINITY PREDICTED BY RF-SCORE:    0.00 PKD
ROOT
HETATM    1  C   UNL     1     -12.351  11.969  63.439  1.00  0.00    -0.635 C  
HETATM    2  C   UNL     1     -11.190  12.054  64.416  1.00  0.00    -0.406 C  
ENDROOT
BRANCH   2   3
HETATM    3  C   UNL     1     -10.583  13.461  64.453  1.00  0.00    -0.423 C  
BRANCH   3   4
HETATM    4  C   UNL     1     -11.508  14.520  65.065  1.00  0.00    -0.382 C  
BRANCH   4   5
HETATM    5  C   UNL     1     -10.785  15.525  65.907  1.00  0.00    -0.339 A  
HETATM    6  N   UNL     1      -9.933  16.396  65.402  1.00  0.00    -0.533 NA 
HETATM    7  C   UNL     1      -9.483  17.149  66.443  1.00  0.00    -0.269 A  
HETATM    8 CL   UNL     1      -8.351  18.401  66.226  1.00  0.00    -0.267 Cl 
HETATM    9  C   UNL     1     -10.038  16.726  67.633  1.00  0.00    -0.275 A  
HETATM   10  N   UNL     1     -10.861  15.662  67.286  1.00  0.00    -0.307 NA 
BRANCH   9  11
HETATM   11  C   UNL     1      -9.804  17.237  69.000  1.00  0.00    -0.237 C  
HETATM   12  H   UNL     1     -10.149  18.890  69.928  1.00  0.00     0.000 HD 
HETATM   13  O   UNL     1     -10.300  18.562  69.049  1.00  0.00    -0.283 OA 
ENDBRANCH   9  11
BRANCH  10  14
HETATM   14  C   UNL     1     -11.476  14.713  68.212  1.00  0.00    -0.314 C  
BRANCH  14  15
HETATM   15  C   UNL     1     -10.983  13.295  68.083  1.00  0.00    -0.278 A  
HETATM   16  C   UNL     1      -9.615  13.011  68.083  1.00  0.00    -0.227 A  
HETATM   17  C   UNL     1      -9.153  11.690  68.007  1.00  0.00    -0.177 A  
HETATM   18  C   UNL     1     -10.030  10.604  67.857  1.00  0.00    -0.189 A  
HETATM   19  C   UNL     1     -11.403  10.902  67.898  1.00  0.00    -0.380 A  
HETATM   20  C   UNL     1     -11.872  12.218  68.021  1.00  0.00    -0.368 A  
BRANCH  18  21
HETATM   21  C   UNL     1      -9.551   9.204  67.663  1.00  0.00    -0.181 A  
HETATM   22  C   UNL     1      -9.188   8.789  66.357  1.00  0.00    -0.241 A  
HETATM   23  C   UNL     1      -8.713   7.502  66.082  1.00  0.00    -0.174 A  
HETATM   24  C   UNL     1      -8.609   6.572  67.102  1.00  0.00    -0.111 A  
HETATM   25  C   UNL     1      -8.979   6.938  68.395  1.00  0.00    -0.121 A  
HETATM   26  C   UNL     1      -9.429   8.244  68.701  1.00  0.00    -0.147 A  
BRANCH  26  27
HETATM   27  C   UNL     1      -9.714   8.512  70.105  1.00  0.00    -0.170 A  
HETATM   28  N   UNL     1     -10.944   8.423  70.651  1.00  0.00    -0.240 NA 
HETATM   29  N   UNL     1     -10.667   8.756  71.917  1.00  0.00    -0.339 NA 
HETATM   30  N   UNL     1      -9.391   9.042  72.185  1.00  0.00    -0.313 NA 
HETATM   31  H   UNL     1     -11.390   8.790  72.636  1.00  0.00     0.000 HD 
HETATM   32  N   UNL     1      -8.761   8.863  71.032  1.00  0.00    -0.206 NA 
ENDBRANCH  26  27
ENDBRANCH  18  21
ENDBRANCH  14  15
ENDBRANCH  10  14
ENDBRANCH   4   5
ENDBRANCH   3   4
ENDBRANCH   2   3
TORSDOF 8
ENDMDL
MODEL       25
REMARK 921   NORMALIZED FREE ENERGY PREDICTED BY IDOCK:   -6.51 KCAL/MOL
REMARK 922        TOTAL FREE ENERGY PREDICTED BY IDOCK:  -10.59 KCAL/MOL
REMARK 923 INTER-LIGAND FREE ENERGY PREDICTED BY IDOCK:   -9.97 KCAL/MOL
REMARK 924 INTRA-LIGAND FREE ENERGY PREDICTED BY IDOCK:   -0.62 KCAL/MOL
REMARK 927      BINDING AFFINITY PREDICTED BY RF-SCORE:    0.00 PKD
ROOT
HETATM    1  C   UNL     1     -12.169  12.064  63.610  1.00  0.00    -0.642 C  
HETATM    2  C   UNL     1     -10.653  12.175  63.621  1.00  0.00    -0.504 C  
ENDROOT
BRANCH   2   3
HETATM    3  C   UNL     1     -10.072  11.860  65.003  1.00  0.00    -0.297 C  
BRANCH   3   4
HETATM    4  C   UNL     1     -11.100  11.310  65.999  1.00  0.00    -0.181 C  
BRANCH   4   5
HETATM    5  C   UNL     1     -10.510  10.366  67.001  1.00  0.00    -0.251 A  
HETATM    6  N   UNL     1      -9.878   9.262  66.653  1.00  0.00    -0.224 NA 
HETATM    7  C   UNL     1      -9.471   8.666  67.807  1.00  0.00    -0.142 A  
HETATM    8 CL   UNL     1      -8.612   7.197  67.808  1.00  0.00    -0.126 Cl 
HETATM    9  C   UNL     1      -9.880   9.392  68.907  1.00  0.00    -0.171 A  
HETATM   10  N   UNL     1     -10.570  10.478  68.383  1.00  0.00    -0.186 NA 
BRANCH   9  11
HETATM   11  C   UNL     1      -9.684   9.094  70.341  1.00  0.00    -0.221 C  
HETATM   12  H   UNL     1     -10.420   7.829  71.595  1.00  0.00     0.000 HD 
HETATM   13  O   UNL     1     -10.546   8.020  70.673  1.00  0.00    -0.212 OA 
ENDBRANCH   9  11
BRANCH  10  14
HETATM   14  C   UNL     1     -11.413  11.405  69.135  1.00  0.00    -0.299 C  
BRANCH  14  15
HETATM   15  C   UNL     1     -11.129  12.863  68.881  1.00  0.00    -0.301 A  
HETATM   16  C   UNL     1     -12.151  13.814  68.956  1.00  0.00    -0.359 A  
HETATM   17  C   UNL     1     -11.883  15.177  68.764  1.00  0.00    -0.329 A  
HETATM   18  C   UNL     1     -10.603  15.640  68.419  1.00  0.00    -0.252 A  
HETATM   19  C   UNL     1      -9.580  14.677  68.386  1.00  0.00    -0.217 A  
HETATM   20  C   UNL     1      -9.833  13.319  68.624  1.00  0.00    -0.096 A  
BRANCH  18  21
HETATM   21  C   UNL     1     -10.325  17.072  68.102  1.00  0.00    -0.347 A  
HETATM   22  C   UNL     1      -9.939  17.936  69.157  1.00  0.00    -0.199 A  
HETATM   23  C   UNL     1      -9.643  19.288  68.952  1.00  0.00    -0.466 A  
HETATM   24  C   UNL     1      -9.749  19.832  67.684  1.00  0.00    -0.490 A  
HETATM   25  C   UNL     1     -10.148  19.018  66.626  1.00  0.00    -0.453 A  
HETATM   26  C   UNL     1     -10.419  17.641  66.805  1.00  0.00    -0.289 A  
BRANCH  26  27
HETATM   27  C   UNL     1     -10.757  16.891  65.602  1.00  0.00    -0.167 A  
HETATM   28  N   UNL     1     -11.360  17.433  64.524  1.00  0.00    -0.696 NA 
HETATM   29  N   UNL     1     -11.439  16.359  63.730  1.00  0.00    -1.470 NA 
HETATM   30  N   UNL     1     -10.947  15.222  64.227  1.00  0.00     0.001 NA 
HETATM   31  H   UNL     1     -11.852  16.407  62.798  1.00  0.00     0.000 HD 
HETATM   32  N   UNL     1     -10.480  15.556  65.422  1.00  0.00    -0.379 NA 
ENDBRANCH  26  27
ENDBRANCH  18  21
ENDBRANCH  14  15
ENDBRANCH  10  14
ENDBRANCH   4   5
ENDBRANCH   3   4
ENDBRANCH   2   3
TORSDOF 8
ENDMDL
MODEL       26
REMARK 921   NORMALIZED FREE ENERGY PREDICTED BY IDOCK:   -6.51 KCAL/MOL
REMARK 922        TOTAL FREE ENERGY PREDICTED BY IDOCK:  -10.58 KCAL/MOL
REMARK 923 INTER-LIGAND FREE ENERGY PREDICTED BY IDOCK:   -8.84 KCAL/MOL
REMARK 924 INTRA-LIGAND FREE ENERGY PREDICTED BY IDOCK:   -1.74 KCAL/MOL
REMARK 927      BINDING AFFINITY PREDICTED BY RF-SCORE:    0.00 PKD
ROOT
HETATM    1  C   UNL     1     -14.267  15.227  71.749  1.00  0.00    -0.669 C  
HETATM    2  C   UNL     1     -13.029  15.251  70.868  1.00  0.00    -0.522 C  
ENDROOT
BRANCH   2   3
HETATM    3  C   UNL     1     -12.699  13.860  70.317  1.00  0.00    -0.244 C  
BRANCH   3   4
HETATM    4  C   UNL     1     -11.287  13.743  69.731  1.00  0.00    -0.200 C  
BRANCH   4   5
HETATM    5  C   UNL     1     -11.249  13.046  68.406  1.00  0.00    -0.269 A  
HETATM    6  N   UNL     1     -10.749  11.835  68.254  1.00  0.00    -0.204 NA 
HETATM    7  C   UNL     1     -10.890  11.519  66.937  1.00  0.00    -0.284 A  
HETATM    8 CL   UNL     1     -10.365  10.028  66.307  1.00  0.00    -0.270 Cl 
HETATM    9  C   UNL     1     -11.463  12.562  66.238  1.00  0.00    -0.370 A  
HETATM   10  N   UNL     1     -11.672  13.555  67.187  1.00  0.00    -0.356 NA 
BRANCH   9  11
HETATM   11  C   UNL     1     -11.765  12.658  64.795  1.00  0.00    -0.352 C  
HETATM   12  H   UNL     1     -13.345  12.478  63.706  1.00  0.00     0.000 HD 
HETATM   13  O   UNL     1     -13.151  12.416  64.634  1.00  0.00    -0.825 OA 
ENDBRANCH   9  11
BRANCH  10  14
HETATM   14  C   UNL     1     -12.022  14.947  66.911  1.00  0.00    -0.100 C  
BRANCH  14  15
HETATM   15  C   UNL     1     -10.874  15.918  67.012  1.00  0.00    -0.252 A  
HETATM   16  C   UNL     1      -9.871  15.943  66.040  1.00  0.00    -0.366 A  
HETATM   17  C   UNL     1      -8.825  16.874  66.106  1.00  0.00    -0.279 A  
HETATM   18  C   UNL     1      -8.695  17.770  67.180  1.00  0.00    -0.252 A  
HETATM   19  C   UNL     1      -9.732  17.759  68.129  1.00  0.00    -0.313 A  
HETATM   20  C   UNL     1     -10.807  16.861  68.042  1.00  0.00    -0.338 A  
BRANCH  18  21
HETATM   21  C   UNL     1      -7.529  18.690  67.324  1.00  0.00    -0.225 A  
HETATM   22  C   UNL     1      -7.699  20.055  66.984  1.00  0.00    -0.329 A  
HETATM   23  C   UNL     1      -6.667  20.993  67.102  1.00  0.00    -0.424 A  
HETATM   24  C   UNL     1      -5.417  20.593  67.539  1.00  0.00    -0.237 A  
HETATM   25  C   UNL     1      -5.207  19.253  67.861  1.00  0.00    -0.171 A  
HETATM   26  C   UNL     1      -6.245  18.295  67.781  1.00  0.00    -0.180 A  
BRANCH  26  27
HETATM   27  C   UNL     1      -5.907  16.945  68.215  1.00  0.00    -0.129 A  
HETATM   28  N   UNL     1      -5.380  16.006  67.404  1.00  0.00    -0.287 NA 
HETATM   29  N   UNL     1      -5.263  14.987  68.262  1.00  0.00    -0.107 NA 
HETATM   30  N   UNL     1      -5.673  15.219  69.511  1.00  0.00    -0.097 NA 
HETATM   31  H   UNL     1      -4.882  14.084  67.979  1.00  0.00     0.000 HD 
HETATM   32  N   UNL     1      -6.066  16.486  69.502  1.00  0.00    -0.187 NA 
ENDBRANCH  26  27
ENDBRANCH  18  21
ENDBRANCH  14  15
ENDBRANCH  10  14
ENDBRANCH   4   5
ENDBRANCH   3   4
ENDBRANCH   2   3
TORSDOF 8
ENDMDL
MODEL       27
REMARK 921   NORMALIZED FREE ENERGY PREDICTED BY IDOCK:   -6.50 KCAL/MOL
REMARK 922        TOTAL FREE ENERGY PREDICTED BY IDOCK:  -10.56 KCAL/MOL
REMARK 923 INTER-LIGAND FREE ENERGY PREDICTED BY IDOCK:   -8.81 KCAL/MOL
REMARK 924 INTRA-LIGAND FREE ENERGY PREDICTED BY IDOCK:   -1.76 KCAL/MOL
REMARK 927      BINDING AFFINITY PREDICTED BY RF-SCORE:    0.00 PKD
ROOT
HETATM    1  C   UNL     1      -8.777   5.937  66.484  1.00  0.00    -0.126 C  
HETATM    2  C   UNL     1      -7.499   6.268  67.236  1.00  0.00    -0.084 C  
ENDROOT
BRANCH   2   3
HETATM    3  C   UNL     1      -7.653   6.046  68.744  1.00  0.00    -0.091 C  
BRANCH   3   4
HETATM    4  C   UNL     1      -7.658   7.340  69.565  1.00  0.00    -0.100 C  
BRANCH   4   5
HETATM    5  C   UNL     1      -8.784   7.415  70.550  1.00  0.00    -0.147 A  
HETATM    6  N   UNL     1      -8.637   7.107  71.824  1.00  0.00    -0.117 NA 
HETATM    7  C   UNL     1      -9.849   7.300  72.413  1.00  0.00    -0.155 A  
HETATM    8 CL   UNL     1     -10.101   7.012  74.071  1.00  0.00    -0.376 Cl 
HETATM    9  C   UNL     1     -10.788   7.710  71.488  1.00  0.00    -0.227 A  
HETATM   10  N   UNL     1     -10.101   7.760  70.281  1.00  0.00    -0.194 NA 
BRANCH   9  11
HETATM   11  C   UNL     1     -12.223   7.999  71.687  1.00  0.00    -0.307 C  
HETATM   12  H   UNL     1     -13.827   6.944  71.856  1.00  0.00     0.000 HD 
HETATM   13  O   UNL     1     -12.904   6.758  71.728  1.00  0.00    -0.358 OA 
ENDBRANCH   9  11
BRANCH  10  14
HETATM   14  C   UNL     1     -10.702   7.894  68.955  1.00  0.00    -0.096 C  
BRANCH  14  15
HETATM   15  C   UNL     1     -10.572   9.263  68.339  1.00  0.00    -0.234 A  
HETATM   16  C   UNL     1      -9.802   9.460  67.190  1.00  0.00    -0.242 A  
HETATM   17  C   UNL     1      -9.713  10.724  66.589  1.00  0.00    -0.227 A  
HETATM   18  C   UNL     1     -10.329  11.855  67.146  1.00  0.00    -0.235 A  
HETATM   19  C   UNL     1     -11.132  11.634  68.279  1.00  0.00    -0.287 A  
HETATM   20  C   UNL     1     -11.262  10.363  68.857  1.00  0.00    -0.290 A  
BRANCH  18  21
HETATM   21  C   UNL     1     -10.154  13.226  66.582  1.00  0.00    -0.266 A  
HETATM   22  C   UNL     1      -9.321  14.140  67.274  1.00  0.00    -0.225 A  
HETATM   23  C   UNL     1      -9.085  15.440  66.813  1.00  0.00    -0.286 A  
HETATM   24  C   UNL     1      -9.696  15.882  65.653  1.00  0.00    -0.306 A  
HETATM   25  C   UNL     1     -10.540  15.018  64.958  1.00  0.00    -0.437 A  
HETATM   26  C   UNL     1     -10.765  13.689  65.388  1.00  0.00    -0.311 A  
BRANCH  26  27
HETATM   27  C   UNL     1     -11.613  12.872  64.529  1.00  0.00    -0.350 A  
HETATM   28  N   UNL     1     -11.173  12.241  63.421  1.00  0.00    -0.440 NA 
HETATM   29  N   UNL     1     -12.305  11.653  63.017  1.00  0.00    -0.956 NA 
HETATM   30  N   UNL     1     -13.384  11.871  63.771  1.00  0.00    -0.469 NA 
HETATM   31  H   UNL     1     -12.341  11.070  62.180  1.00  0.00     0.000 HD 
HETATM   32  N   UNL     1     -12.947  12.633  64.764  1.00  0.00    -0.867 NA 
ENDBRANCH  26  27
ENDBRANCH  18  21
ENDBRANCH  14  15
ENDBRANCH  10  14
ENDBRANCH   4   5
ENDBRANCH   3   4
ENDBRANCH   2   3
TORSDOF 8
ENDMDL
MODEL       28
REMARK 921   NORMALIZED FREE ENERGY PREDICTED BY IDOCK:   -6.48 KCAL/MOL
REMARK 922        TOTAL FREE ENERGY PREDICTED BY IDOCK:  -10.54 KCAL/MOL
REMARK 923 INTER-LIGAND FREE ENERGY PREDICTED BY IDOCK:   -8.53 KCAL/MOL
REMARK 924 INTRA-LIGAND FREE ENERGY PREDICTED BY IDOCK:   -2.01 KCAL/MOL
REMARK 927      BINDING AFFINITY PREDICTED BY RF-SCORE:    0.00 PKD
ROOT
HETATM    1  C   UNL     1     -12.747  14.166  65.615  1.00  0.00    -0.469 C  
HETATM    2  C   UNL     1     -11.608  14.615  64.713  1.00  0.00    -0.418 C  
ENDROOT
BRANCH   2   3
HETATM    3  C   UNL     1     -10.935  13.428  64.017  1.00  0.00    -0.245 C  
BRANCH   3   4
HETATM    4  C   UNL     1     -11.538  12.067  64.385  1.00  0.00    -0.411 C  
BRANCH   4   5
HETATM    5  C   UNL     1     -10.561  11.144  65.045  1.00  0.00    -0.273 A  
HETATM    6  N   UNL     1     -10.012  10.122  64.417  1.00  0.00    -0.263 NA 
HETATM    7  C   UNL     1      -9.178   9.520  65.309  1.00  0.00    -0.247 A  
HETATM    8 CL   UNL     1      -8.265   8.143  64.901  1.00  0.00    -0.155 Cl 
HETATM    9  C   UNL     1      -9.224  10.155  66.533  1.00  0.00    -0.153 A  
HETATM   10  N   UNL     1     -10.136  11.190  66.365  1.00  0.00    -0.219 NA 
BRANCH   9  11
HETATM   11  C   UNL     1      -8.510   9.817  67.782  1.00  0.00    -0.121 C  
HETATM   12  H   UNL     1      -8.670   8.447  69.128  1.00  0.00     0.000 HD 
HETATM   13  O   UNL     1      -9.129   8.664  68.325  1.00  0.00    -0.141 OA 
ENDBRANCH   9  11
BRANCH  10  14
HETATM   14  C   UNL     1     -10.725  11.998  67.431  1.00  0.00    -0.229 C  
BRANCH  14  15
HETATM   15  C   UNL     1      -9.965  13.256  67.763  1.00  0.00    -0.223 A  
HETATM   16  C   UNL     1      -8.817  13.607  67.047  1.00  0.00    -0.233 A  
HETATM   17  C   UNL     1      -8.131  14.798  67.324  1.00  0.00    -0.232 A  
HETATM   18  C   UNL     1      -8.517  15.651  68.370  1.00  0.00    -0.164 A  
HETATM   19  C   UNL     1      -9.695  15.304  69.055  1.00  0.00    -0.234 A  
HETATM   20  C   UNL     1     -10.412  14.138  68.751  1.00  0.00    -0.249 A  
BRANCH  18  21
HETATM   21  C   UNL     1      -7.734  16.864  68.751  1.00  0.00    -0.247 A  
HETATM   22  C   UNL     1      -6.566  16.695  69.534  1.00  0.00    -0.212 A  
HETATM   23  C   UNL     1      -5.760  17.771  69.925  1.00  0.00    -0.249 A  
HETATM   24  C   UNL     1      -6.111  19.060  69.566  1.00  0.00    -0.287 A  
HETATM   25  C   UNL     1      -7.266  19.266  68.814  1.00  0.00    -0.380 A  
HETATM   26  C   UNL     1      -8.075  18.190  68.381  1.00  0.00    -0.313 A  
BRANCH  26  27
HETATM   27  C   UNL     1      -9.215  18.542  67.542  1.00  0.00    -0.279 A  
HETATM   28  N   UNL     1     -10.302  19.201  67.990  1.00  0.00    -0.393 NA 
HETATM   29  N   UNL     1     -11.021  19.269  66.864  1.00  0.00    -0.370 NA 
HETATM   30  N   UNL     1     -10.474  18.710  65.782  1.00  0.00    -0.615 NA 
HETATM   31  H   UNL     1     -11.934  19.721  66.833  1.00  0.00     0.000 HD 
HETATM   32  N   UNL     1      -9.298  18.262  66.198  1.00  0.00    -0.503 NA 
ENDBRANCH  26  27
ENDBRANCH  18  21
ENDBRANCH  14  15
ENDBRANCH  10  14
ENDBRANCH   4   5
ENDBRANCH   3   4
ENDBRANCH   2   3
TORSDOF 8
ENDMDL
MODEL       29
REMARK 921   NORMALIZED FREE ENERGY PREDICTED BY IDOCK:   -6.48 KCAL/MOL
REMARK 922        TOTAL FREE ENERGY PREDICTED BY IDOCK:  -10.54 KCAL/MOL
REMARK 923 INTER-LIGAND FREE ENERGY PREDICTED BY IDOCK:  -10.16 KCAL/MOL
REMARK 924 INTRA-LIGAND FREE ENERGY PREDICTED BY IDOCK:   -0.37 KCAL/MOL
REMARK 927      BINDING AFFINITY PREDICTED BY RF-SCORE:    0.00 PKD
ROOT
HETATM    1  C   UNL     1     -12.303  16.045  73.122  1.00  0.00    -0.637 C  
HETATM    2  C   UNL     1     -13.640  15.656  72.514  1.00  0.00    -0.642 C  
ENDROOT
BRANCH   2   3
HETATM    3  C   UNL     1     -13.492  15.215  71.054  1.00  0.00    -0.493 C  
BRANCH   3   4
HETATM    4  C   UNL     1     -12.110  14.646  70.713  1.00  0.00    -0.387 C  
BRANCH   4   5
HETATM    5  C   UNL     1     -11.514  15.237  69.473  1.00  0.00    -0.305 A  
HETATM    6  N   UNL     1     -11.163  16.505  69.386  1.00  0.00    -0.251 NA 
HETATM    7  C   UNL     1     -10.653  16.684  68.137  1.00  0.00    -0.336 A  
HETATM    8 CL   UNL     1     -10.080  18.195  67.605  1.00  0.00    -0.346 Cl 
HETATM    9  C   UNL     1     -10.710  15.512  67.409  1.00  0.00    -0.301 A  
HETATM   10  N   UNL     1     -11.288  14.586  68.268  1.00  0.00    -0.282 NA 
BRANCH   9  11
HETATM   11  C   UNL     1     -10.299  15.267  66.011  1.00  0.00    -0.312 C  
HETATM   12  H   UNL     1     -10.978  15.751  64.274  1.00  0.00     0.000 HD 
HETATM   13  O   UNL     1     -11.243  15.909  65.173  1.00  0.00    -0.308 OA 
ENDBRANCH   9  11
BRANCH  10  14
HETATM   14  C   UNL     1     -11.796  13.267  67.895  1.00  0.00    -0.349 C  
BRANCH  14  15
HETATM   15  C   UNL     1     -11.322  12.137  68.771  1.00  0.00    -0.339 A  
HETATM   16  C   UNL     1     -12.161  11.583  69.741  1.00  0.00    -0.374 A  
HETATM   17  C   UNL     1     -11.738  10.503  70.529  1.00  0.00    -0.443 A  
HETATM   18  C   UNL     1     -10.441   9.976  70.432  1.00  0.00    -0.304 A  
HETATM   19  C   UNL     1      -9.622  10.518  69.425  1.00  0.00    -0.170 A  
HETATM   20  C   UNL     1     -10.056  11.568  68.602  1.00  0.00    -0.214 A  
BRANCH  18  21
HETATM   21  C   UNL     1      -9.939   8.902  71.339  1.00  0.00    -0.378 A  
HETATM   22  C   UNL     1      -8.539   8.768  71.517  1.00  0.00    -0.253 A  
HETATM   23  C   UNL     1      -7.978   7.801  72.359  1.00  0.00    -0.141 A  
HETATM   24  C   UNL     1      -8.798   6.914  73.033  1.00  0.00    -0.144 A  
HETATM   25  C   UNL     1     -10.179   7.002  72.865  1.00  0.00    -0.243 A  
HETATM   26  C   UNL     1     -10.768   7.993  72.045  1.00  0.00    -0.319 A  
BRANCH  26  27
HETATM   27  C   UNL     1     -12.225   8.017  72.014  1.00  0.00    -0.331 A  
HETATM   28  N   UNL     1     -12.985   8.655  72.927  1.00  0.00    -0.221 NA 
HETATM   29  N   UNL     1     -14.207   8.377  72.457  1.00  0.00    -0.707 NA 
HETATM   30  N   UNL     1     -14.256   7.629  71.352  1.00  0.00    -0.414 NA 
HETATM   31  H   UNL     1     -15.052   8.717  72.916  1.00  0.00     0.000 HD 
HETATM   32  N   UNL     1     -12.985   7.413  71.040  1.00  0.00    -0.220 NA 
ENDBRANCH  26  27
ENDBRANCH  18  21
ENDBRANCH  14  15
ENDBRANCH  10  14
ENDBRANCH   4   5
ENDBRANCH   3   4
ENDBRANCH   2   3
TORSDOF 8
ENDMDL
MODEL       30
REMARK 921   NORMALIZED FREE ENERGY PREDICTED BY IDOCK:   -6.48 KCAL/MOL
REMARK 922        TOTAL FREE ENERGY PREDICTED BY IDOCK:  -10.53 KCAL/MOL
REMARK 923 INTER-LIGAND FREE ENERGY PREDICTED BY IDOCK:   -9.29 KCAL/MOL
REMARK 924 INTRA-LIGAND FREE ENERGY PREDICTED BY IDOCK:   -1.24 KCAL/MOL
REMARK 927      BINDING AFFINITY PREDICTED BY RF-SCORE:    0.00 PKD
ROOT
HETATM    1  C   UNL     1     -12.569  15.165  73.636  1.00  0.00    -0.702 C  
HETATM    2  C   UNL     1     -13.462  14.650  72.519  1.00  0.00    -0.565 C  
ENDROOT
BRANCH   2   3
HETATM    3  C   UNL     1     -13.180  15.364  71.193  1.00  0.00    -0.583 C  
BRANCH   3   4
HETATM    4  C   UNL     1     -12.248  14.587  70.256  1.00  0.00    -0.391 C  
BRANCH   4   5
HETATM    5  C   UNL     1     -11.542  15.460  69.264  1.00  0.00    -0.339 A  
HETATM    6  N   UNL     1     -10.926  16.574  69.608  1.00  0.00    -0.320 NA 
HETATM    7  C   UNL     1     -10.394  17.092  68.467  1.00  0.00    -0.364 A  
HETATM    8 CL   UNL     1      -9.509  18.546  68.465  1.00  0.00    -0.355 Cl 
HETATM    9  C   UNL     1     -10.706  16.307  67.376  1.00  0.00    -0.287 A  
HETATM   10  N   UNL     1     -11.468  15.265  67.892  1.00  0.00    -0.332 NA 
BRANCH   9  11
HETATM   11  C   UNL     1     -10.363  16.514  65.954  1.00  0.00    -0.350 C  
HETATM   12  H   UNL     1      -8.864  16.076  64.824  1.00  0.00     0.000 HD 
HETATM   13  O   UNL     1      -9.084  15.943  65.739  1.00  0.00    -0.305 OA 
ENDBRANCH   9  11
BRANCH  10  14
HETATM   14  C   UNL     1     -12.250  14.306  67.115  1.00  0.00    -0.277 C  
BRANCH  14  15
HETATM   15  C   UNL     1     -11.454  13.167  66.532  1.00  0.00    -0.378 A  
HETATM   16  C   UNL     1     -11.890  12.505  65.381  1.00  0.00    -0.479 A  
HETATM   17  C   UNL     1     -11.131  11.474  64.811  1.00  0.00    -0.300 A  
HETATM   18  C   UNL     1      -9.944  11.012  65.402  1.00  0.00    -0.313 A  
HETATM   19  C   UNL     1      -9.499  11.713  66.536  1.00  0.00    -0.219 A  
HETATM   20  C   UNL     1     -10.230  12.776  67.084  1.00  0.00    -0.235 A  
BRANCH  18  21
HETATM   21  C   UNL     1      -9.184   9.842  64.871  1.00  0.00    -0.301 A  
HETATM   22  C   UNL     1      -8.559   9.961  63.605  1.00  0.00    -0.203 A  
HETATM   23  C   UNL     1      -7.812   8.924  63.034  1.00  0.00    -0.133 A  
HETATM   24  C   UNL     1      -7.686   7.718  63.700  1.00  0.00    -0.131 A  
HETATM   25  C   UNL     1      -8.306   7.557  64.938  1.00  0.00    -0.045 A  
HETATM   26  C   UNL     1      -9.036   8.604  65.548  1.00  0.00    -0.190 A  
BRANCH  26  27
HETATM   27  C   UNL     1      -9.572   8.324  66.874  1.00  0.00    -0.207 A  
HETATM   28  N   UNL     1     -10.796   7.802  67.095  1.00  0.00    -0.259 NA 
HETATM   29  N   UNL     1     -10.794   7.747  68.432  1.00  0.00    -0.422 NA 
HETATM   30  N   UNL     1      -9.691   8.190  69.038  1.00  0.00    -0.161 NA 
HETATM   31  H   UNL     1     -11.591   7.387  68.957  1.00  0.00     0.000 HD 
HETATM   32  N   UNL     1      -8.884   8.540  68.045  1.00  0.00    -0.141 NA 
ENDBRANCH  26  27
ENDBRANCH  18  21
ENDBRANCH  14  15
ENDBRANCH  10  14
ENDBRANCH   4   5
ENDBRANCH   3   4
ENDBRANCH   2   3
TORSDOF 8
ENDMDL
MODEL       31
REMARK 921   NORMALIZED FREE ENERGY PREDICTED BY IDOCK:   -6.47 KCAL/MOL
REMARK 922        TOTAL FREE ENERGY PREDICTED BY IDOCK:  -10.52 KCAL/MOL
REMARK 923 INTER-LIGAND FREE ENERGY PREDICTED BY IDOCK:   -8.89 KCAL/MOL
REMARK 924 INTRA-LIGAND FREE ENERGY PREDICTED BY IDOCK:   -1.63 KCAL/MOL
REMARK 927      BINDING AFFINITY PREDICTED BY RF-SCORE:    0.00 PKD
ROOT
HETATM    1  C   UNL     1     -13.792   8.975  72.141  1.00  0.00    -0.526 C  
HETATM    2  C   UNL     1     -14.112   7.637  71.495  1.00  0.00    -0.535 C  
ENDROOT
BRANCH   2   3
HETATM    3  C   UNL     1     -13.022   6.597  71.775  1.00  0.00    -0.191 C  
BRANCH   3   4
HETATM    4  C   UNL     1     -11.848   6.647  70.790  1.00  0.00    -0.441 C  
BRANCH   4   5
HETATM    5  C   UNL     1     -10.510   6.698  71.461  1.00  0.00    -0.215 A  
HETATM    6  N   UNL     1      -9.909   5.622  71.931  1.00  0.00    -0.164 NA 
HETATM    7  C   UNL     1      -8.724   6.036  72.456  1.00  0.00    -0.122 A  
HETATM    8 CL   UNL     1      -7.629   4.951  73.177  1.00  0.00    -0.091 Cl 
HETATM    9  C   UNL     1      -8.586   7.405  72.343  1.00  0.00    -0.116 A  
HETATM   10  N   UNL     1      -9.753   7.831  71.721  1.00  0.00    -0.160 NA 
BRANCH   9  11
HETATM   11  C   UNL     1      -7.480   8.269  72.806  1.00  0.00    -0.108 C  
HETATM   12  H   UNL     1      -7.058   9.207  74.436  1.00  0.00     0.000 HD 
HETATM   13  O   UNL     1      -7.770   8.652  74.138  1.00  0.00    -0.396 OA 
ENDBRANCH   9  11
BRANCH  10  14
HETATM   14  C   UNL     1     -10.207   9.215  71.600  1.00  0.00    -0.301 C  
BRANCH  14  15
HETATM   15  C   UNL     1     -10.212   9.758  70.195  1.00  0.00    -0.328 A  
HETATM   16  C   UNL     1     -11.406  10.155  69.586  1.00  0.00    -0.289 A  
HETATM   17  C   UNL     1     -11.410  10.700  68.294  1.00  0.00    -0.357 A  
HETATM   18  C   UNL     1     -10.238  10.807  67.530  1.00  0.00    -0.231 A  
HETATM   19  C   UNL     1      -9.041  10.440  68.170  1.00  0.00    -0.142 A  
HETATM   20  C   UNL     1      -9.025   9.938  69.479  1.00  0.00    -0.224 A  
BRANCH  18  21
HETATM   21  C   UNL     1     -10.241  11.281  66.114  1.00  0.00    -0.291 A  
HETATM   22  C   UNL     1      -9.889  10.363  65.094  1.00  0.00    -0.378 A  
HETATM   23  C   UNL     1      -9.879  10.712  63.739  1.00  0.00    -0.394 A  
HETATM   24  C   UNL     1     -10.196  12.004  63.358  1.00  0.00    -0.457 A  
HETATM   25  C   UNL     1     -10.526  12.940  64.336  1.00  0.00    -0.419 A  
HETATM   26  C   UNL     1     -10.575  12.599  65.708  1.00  0.00    -0.296 A  
BRANCH  26  27
HETATM   27  C   UNL     1     -11.003  13.655  66.617  1.00  0.00    -0.292 A  
HETATM   28  N   UNL     1     -12.292  13.903  66.925  1.00  0.00    -0.369 NA 
HETATM   29  N   UNL     1     -12.142  14.932  67.767  1.00  0.00    -0.528 NA 
HETATM   30  N   UNL     1     -10.888  15.331  67.992  1.00  0.00    -0.278 NA 
HETATM   31  H   UNL     1     -12.940  15.386  68.212  1.00  0.00     0.000 HD 
HETATM   32  N   UNL     1     -10.142  14.499  67.279  1.00  0.00    -0.246 NA 
ENDBRANCH  26  27
ENDBRANCH  18  21
ENDBRANCH  14  15
ENDBRANCH  10  14
ENDBRANCH   4   5
ENDBRANCH   3   4
ENDBRANCH   2   3
TORSDOF 8
ENDMDL
MODEL       32
REMARK 921   NORMALIZED FREE ENERGY PREDICTED BY IDOCK:   -6.44 KCAL/MOL
REMARK 922        TOTAL FREE ENERGY PREDICTED BY IDOCK:  -10.49 KCAL/MOL
REMARK 923 INTER-LIGAND FREE ENERGY PREDICTED BY IDOCK:   -9.18 KCAL/MOL
REMARK 924 INTRA-LIGAND FREE ENERGY PREDICTED BY IDOCK:   -1.31 KCAL/MOL
REMARK 927      BINDING AFFINITY PREDICTED BY RF-SCORE:    0.00 PKD
ROOT
HETATM    1  C   UNL     1      -9.283   3.006  66.931  1.00  0.00    -0.177 C  
HETATM    2  C   UNL     1      -9.745   4.346  67.478  1.00  0.00    -0.211 C  
ENDROOT
BRANCH   2   3
HETATM    3  C   UNL     1     -10.391   5.211  66.390  1.00  0.00    -0.332 C  
BRANCH   3   4
HETATM    4  C   UNL     1     -11.143   6.432  66.932  1.00  0.00    -0.346 C  
BRANCH   4   5
HETATM    5  C   UNL     1     -10.777   6.778  68.342  1.00  0.00    -0.232 A  
HETATM    6  N   UNL     1     -11.585   6.560  69.361  1.00  0.00    -0.289 NA 
HETATM    7  C   UNL     1     -10.927   6.980  70.477  1.00  0.00    -0.265 A  
HETATM    8 CL   UNL     1     -11.625   6.879  72.026  1.00  0.00    -0.306 Cl 
HETATM    9  C   UNL     1      -9.691   7.501  70.153  1.00  0.00    -0.172 A  
HETATM   10  N   UNL     1      -9.608   7.390  68.771  1.00  0.00    -0.147 NA 
BRANCH   9  11
HETATM   11  C   UNL     1      -8.672   8.095  71.043  1.00  0.00    -0.139 C  
HETATM   12  H   UNL     1      -8.518   9.723  72.063  1.00  0.00     0.000 HD 
HETATM   13  O   UNL     1      -9.174   9.342  71.490  1.00  0.00    -0.305 OA 
ENDBRANCH   9  11
BRANCH  10  14
HETATM   14  C   UNL     1      -8.607   8.026  67.916  1.00  0.00    -0.129 C  
BRANCH  14  15
HETATM   15  C   UNL     1      -8.930   9.441  67.512  1.00  0.00    -0.130 A  
HETATM   16  C   UNL     1      -8.193  10.086  66.515  1.00  0.00    -0.119 A  
HETATM   17  C   UNL     1      -8.518  11.387  66.105  1.00  0.00    -0.105 A  
HETATM   18  C   UNL     1      -9.542  12.125  66.719  1.00  0.00    -0.216 A  
HETATM   19  C   UNL     1     -10.299  11.449  67.693  1.00  0.00    -0.209 A  
HETATM   20  C   UNL     1     -10.009  10.131  68.074  1.00  0.00    -0.173 A  
BRANCH  18  21
HETATM   21  C   UNL     1      -9.827  13.549  66.373  1.00  0.00    -0.299 A  
HETATM   22  C   UNL     1      -9.098  14.565  67.038  1.00  0.00    -0.254 A  
HETATM   23  C   UNL     1      -9.286  15.925  66.768  1.00  0.00    -0.264 A  
HETATM   24  C   UNL     1     -10.231  16.319  65.838  1.00  0.00    -0.384 A  
HETATM   25  C   UNL     1     -10.983  15.347  65.180  1.00  0.00    -0.430 A  
HETATM   26  C   UNL     1     -10.786  13.967  65.414  1.00  0.00    -0.330 A  
BRANCH  26  27
HETATM   27  C   UNL     1     -11.590  13.057  64.606  1.00  0.00    -0.346 A  
HETATM   28  N   UNL     1     -11.163  12.498  63.456  1.00  0.00    -0.471 NA 
HETATM   29  N   UNL     1     -12.241  11.776  63.128  1.00  0.00    -0.956 NA 
HETATM   30  N   UNL     1     -13.276  11.849  63.967  1.00  0.00    -0.603 NA 
HETATM   31  H   UNL     1     -12.269  11.202  62.285  1.00  0.00     0.000 HD 
HETATM   32  N   UNL     1     -12.861  12.650  64.938  1.00  0.00    -0.842 NA 
ENDBRANCH  26  27
ENDBRANCH  18  21
ENDBRANCH  14  15
ENDBRANCH  10  14
ENDBRANCH   4   5
ENDBRANCH   3   4
ENDBRANCH   2   3
TORSDOF 8
ENDMDL
MODEL       33
REMARK 921   NORMALIZED FREE ENERGY PREDICTED BY IDOCK:   -6.44 KCAL/MOL
REMARK 922        TOTAL FREE ENERGY PREDICTED BY IDOCK:  -10.48 KCAL/MOL
REMARK 923 INTER-LIGAND FREE ENERGY PREDICTED BY IDOCK:   -8.80 KCAL/MOL
REMARK 924 INTRA-LIGAND FREE ENERGY PREDICTED BY IDOCK:   -1.69 KCAL/MOL
REMARK 927      BINDING AFFINITY PREDICTED BY RF-SCORE:    0.00 PKD
ROOT
HETATM    1  C   UNL     1     -13.833   9.047  72.405  1.00  0.00    -0.540 C  
HETATM    2  C   UNL     1     -13.972   7.771  71.591  1.00  0.00    -0.495 C  
ENDROOT
BRANCH   2   3
HETATM    3  C   UNL     1     -12.716   6.899  71.685  1.00  0.00    -0.396 C  
BRANCH   3   4
HETATM    4  C   UNL     1     -11.911   6.826  70.382  1.00  0.00    -0.395 C  
BRANCH   4   5
HETATM    5  C   UNL     1     -10.433   6.951  70.590  1.00  0.00    -0.210 A  
HETATM    6  N   UNL     1      -9.623   5.910  70.589  1.00  0.00    -0.170 NA 
HETATM    7  C   UNL     1      -8.367   6.393  70.791  1.00  0.00    -0.126 A  
HETATM    8 CL   UNL     1      -7.009   5.370  70.864  1.00  0.00    -0.051 Cl 
HETATM    9  C   UNL     1      -8.386   7.764  70.954  1.00  0.00    -0.111 A  
HETATM   10  N   UNL     1      -9.725   8.117  70.846  1.00  0.00    -0.164 NA 
BRANCH   9  11
HETATM   11  C   UNL     1      -7.261   8.682  71.226  1.00  0.00    -0.089 C  
HETATM   12  H   UNL     1      -6.358   9.319  72.805  1.00  0.00     0.000 HD 
HETATM   13  O   UNL     1      -7.082   8.728  72.630  1.00  0.00    -0.310 OA 
ENDBRANCH   9  11
BRANCH  10  14
HETATM   14  C   UNL     1     -10.302   9.415  71.192  1.00  0.00    -0.307 C  
BRANCH  14  15
HETATM   15  C   UNL     1     -10.584  10.314  70.017  1.00  0.00    -0.321 A  
HETATM   16  C   UNL     1     -11.833  10.921  69.864  1.00  0.00    -0.427 A  
HETATM   17  C   UNL     1     -12.086  11.793  68.795  1.00  0.00    -0.204 A  
HETATM   18  C   UNL     1     -11.130  12.041  67.797  1.00  0.00    -0.303 A  
HETATM   19  C   UNL     1      -9.866  11.454  67.986  1.00  0.00    -0.191 A  
HETATM   20  C   UNL     1      -9.593  10.618  69.078  1.00  0.00    -0.207 A  
BRANCH  18  21
HETATM   21  C   UNL     1     -11.420  12.877  66.595  1.00  0.00    -0.393 A  
HETATM   22  C   UNL     1     -11.950  12.243  65.444  1.00  0.00    -0.395 A  
HETATM   23  C   UNL     1     -12.268  12.948  64.277  1.00  0.00    -0.481 A  
HETATM   24  C   UNL     1     -12.040  14.311  64.211  1.00  0.00    -0.467 A  
HETATM   25  C   UNL     1     -11.498  14.964  65.317  1.00  0.00    -0.336 A  
HETATM   26  C   UNL     1     -11.202  14.276  66.517  1.00  0.00    -0.333 A  
BRANCH  26  27
HETATM   27  C   UNL     1     -10.706  15.093  67.618  1.00  0.00    -0.285 A  
HETATM   28  N   UNL     1      -9.404  15.184  67.958  1.00  0.00    -0.185 NA 
HETATM   29  N   UNL     1      -9.486  16.029  68.993  1.00  0.00    -0.230 NA 
HETATM   30  N   UNL     1     -10.711  16.451  69.312  1.00  0.00    -0.304 NA 
HETATM   31  H   UNL     1      -8.660  16.332  69.508  1.00  0.00     0.000 HD 
HETATM   32  N   UNL     1     -11.504  15.878  68.417  1.00  0.00    -0.367 NA 
ENDBRANCH  26  27
ENDBRANCH  18  21
ENDBRANCH  14  15
ENDBRANCH  10  14
ENDBRANCH   4   5
ENDBRANCH   3   4
ENDBRANCH   2   3
TORSDOF 8
ENDMDL
MODEL       34
REMARK 921   NORMALIZED FREE ENERGY PREDICTED BY IDOCK:   -6.40 KCAL/MOL
REMARK 922        TOTAL FREE ENERGY PREDICTED BY IDOCK:  -10.42 KCAL/MOL
REMARK 923 INTER-LIGAND FREE ENERGY PREDICTED BY IDOCK:   -7.97 KCAL/MOL
REMARK 924 INTRA-LIGAND FREE ENERGY PREDICTED BY IDOCK:   -2.45 KCAL/MOL
REMARK 927      BINDING AFFINITY PREDICTED BY RF-SCORE:    0.00 PKD
ROOT
HETATM    1  C   UNL     1      -8.702   8.732  65.305  1.00  0.00    -0.216 C  
HETATM    2  C   UNL     1      -9.305   7.822  66.362  1.00  0.00    -0.237 C  
ENDROOT
BRANCH   2   3
HETATM    3  C   UNL     1      -8.262   6.861  66.944  1.00  0.00    -0.113 C  
BRANCH   3   4
HETATM    4  C   UNL     1      -7.622   7.355  68.247  1.00  0.00    -0.114 C  
BRANCH   4   5
HETATM    5  C   UNL     1      -8.496   7.165  69.448  1.00  0.00    -0.134 A  
HETATM    6  N   UNL     1      -9.126   6.034  69.698  1.00  0.00    -0.134 NA 
HETATM    7  C   UNL     1      -9.808   6.217  70.862  1.00  0.00    -0.182 A  
HETATM    8 CL   UNL     1     -10.766   4.989  71.548  1.00  0.00    -0.179 Cl 
HETATM    9  C   UNL     1      -9.629   7.499  71.342  1.00  0.00    -0.155 A  
HETATM   10  N   UNL     1      -8.799   8.115  70.413  1.00  0.00    -0.139 NA 
BRANCH   9  11
HETATM   11  C   UNL     1     -10.206   8.128  72.547  1.00  0.00    -0.313 C  
HETATM   12  H   UNL     1     -11.830   9.084  72.955  1.00  0.00     0.000 HD 
HETATM   13  O   UNL     1     -11.458   8.680  72.179  1.00  0.00    -0.346 OA 
ENDBRANCH   9  11
BRANCH  10  14
HETATM   14  C   UNL     1      -8.517   9.546  70.329  1.00  0.00    -0.207 C  
BRANCH  14  15
HETATM   15  C   UNL     1      -9.175  10.254  69.173  1.00  0.00    -0.203 A  
HETATM   16  C   UNL     1     -10.545  10.113  68.936  1.00  0.00    -0.237 A  
HETATM   17  C   UNL     1     -11.170  10.803  67.887  1.00  0.00    -0.386 A  
HETATM   18  C   UNL     1     -10.446  11.604  66.991  1.00  0.00    -0.258 A  
HETATM   19  C   UNL     1      -9.077  11.767  67.266  1.00  0.00    -0.171 A  
HETATM   20  C   UNL     1      -8.455  11.116  68.341  1.00  0.00    -0.151 A  
BRANCH  18  21
HETATM   21  C   UNL     1     -11.076  12.255  65.804  1.00  0.00    -0.362 A  
HETATM   22  C   UNL     1     -11.231  11.495  64.619  1.00  0.00    -0.276 A  
HETATM   23  C   UNL     1     -11.824  12.015  63.463  1.00  0.00    -0.587 A  
HETATM   24  C   UNL     1     -12.261  13.328  63.444  1.00  0.00    -0.476 A  
HETATM   25  C   UNL     1     -12.105  14.113  64.585  1.00  0.00    -0.469 A  
HETATM   26  C   UNL     1     -11.539  13.596  65.774  1.00  0.00    -0.349 A  
BRANCH  26  27
HETATM   27  C   UNL     1     -11.500  14.504  66.914  1.00  0.00    -0.364 A  
HETATM   28  N   UNL     1     -10.808  15.661  66.928  1.00  0.00    -0.308 NA 
HETATM   29  N   UNL     1     -11.097  16.097  68.160  1.00  0.00    -0.342 NA 
HETATM   30  N   UNL     1     -11.892  15.311  68.891  1.00  0.00    -0.338 NA 
HETATM   31  H   UNL     1     -10.731  16.978  68.521  1.00  0.00     0.000 HD 
HETATM   32  N   UNL     1     -12.181  14.295  68.090  1.00  0.00    -0.225 NA 
ENDBRANCH  26  27
ENDBRANCH  18  21
ENDBRANCH  14  15
ENDBRANCH  10  14
ENDBRANCH   4   5
ENDBRANCH   3   4
ENDBRANCH   2   3
TORSDOF 8
ENDMDL
MODEL       35
REMARK 921   NORMALIZED FREE ENERGY PREDICTED BY IDOCK:   -6.40 KCAL/MOL
REMARK 922        TOTAL FREE ENERGY PREDICTED BY IDOCK:  -10.42 KCAL/MOL
REMARK 923 INTER-LIGAND FREE ENERGY PREDICTED BY IDOCK:   -8.97 KCAL/MOL
REMARK 924 INTRA-LIGAND FREE ENERGY PREDICTED BY IDOCK:   -1.45 KCAL/MOL
REMARK 927      BINDING AFFINITY PREDICTED BY RF-SCORE:    0.00 PKD
ROOT
HETATM    1  C   UNL     1      -9.120   6.086  66.072  1.00  0.00    -0.143 C  
HETATM    2  C   UNL     1      -8.382   7.214  66.773  1.00  0.00    -0.116 C  
ENDROOT
BRANCH   2   3
HETATM    3  C   UNL     1      -8.083   6.873  68.237  1.00  0.00    -0.119 C  
BRANCH   3   4
HETATM    4  C   UNL     1      -7.985   8.098  69.153  1.00  0.00    -0.113 C  
BRANCH   4   5
HETATM    5  C   UNL     1      -9.115   8.202  70.130  1.00  0.00    -0.147 A  
HETATM    6  N   UNL     1      -9.043   7.720  71.355  1.00  0.00    -0.132 NA 
HETATM    7  C   UNL     1     -10.232   8.002  71.955  1.00  0.00    -0.226 A  
HETATM    8 CL   UNL     1     -10.562   7.545  73.561  1.00  0.00    -0.406 Cl 
HETATM    9  C   UNL     1     -11.084   8.648  71.082  1.00  0.00    -0.266 A  
HETATM   10  N   UNL     1     -10.366   8.754  69.897  1.00  0.00    -0.200 NA 
BRANCH   9  11
HETATM   11  C   UNL     1     -12.472   9.103  71.305  1.00  0.00    -0.300 C  
HETATM   12  H   UNL     1     -13.308  10.756  71.835  1.00  0.00     0.000 HD 
HETATM   13  O   UNL     1     -12.415  10.464  71.692  1.00  0.00    -0.391 OA 
ENDBRANCH   9  11
BRANCH  10  14
HETATM   14  C   UNL     1     -10.910   9.134  68.594  1.00  0.00    -0.049 C  
BRANCH  14  15
HETATM   15  C   UNL     1     -10.768  10.594  68.252  1.00  0.00    -0.260 A  
HETATM   16  C   UNL     1     -11.819  11.487  68.474  1.00  0.00    -0.365 A  
HETATM   17  C   UNL     1     -11.676  12.854  68.197  1.00  0.00    -0.395 A  
HETATM   18  C   UNL     1     -10.506  13.376  67.622  1.00  0.00    -0.242 A  
HETATM   19  C   UNL     1      -9.444  12.472  67.440  1.00  0.00    -0.184 A  
HETATM   20  C   UNL     1      -9.566  11.112  67.759  1.00  0.00    -0.180 A  
BRANCH  18  21
HETATM   21  C   UNL     1     -10.378  14.807  67.218  1.00  0.00    -0.247 A  
HETATM   22  C   UNL     1      -9.838  15.727  68.150  1.00  0.00    -0.209 A  
HETATM   23  C   UNL     1      -9.666  17.084  67.855  1.00  0.00    -0.263 A  
HETATM   24  C   UNL     1     -10.054  17.576  66.622  1.00  0.00    -0.328 A  
HETATM   25  C   UNL     1     -10.610  16.704  65.687  1.00  0.00    -0.282 A  
HETATM   26  C   UNL     1     -10.762  15.323  65.953  1.00  0.00    -0.340 A  
BRANCH  26  27
HETATM   27  C   UNL     1     -11.291  14.514  64.862  1.00  0.00    -0.394 A  
HETATM   28  N   UNL     1     -12.459  14.767  64.238  1.00  0.00    -0.738 NA 
HETATM   29  N   UNL     1     -12.477  13.767  63.349  1.00  0.00    -1.072 NA 
HETATM   30  N   UNL     1     -11.435  12.933  63.381  1.00  0.00    -0.434 NA 
HETATM   31  H   UNL     1     -13.242  13.648  62.686  1.00  0.00     0.000 HD 
HETATM   32  N   UNL     1     -10.650  13.418  64.333  1.00  0.00    -0.426 NA 
ENDBRANCH  26  27
ENDBRANCH  18  21
ENDBRANCH  14  15
ENDBRANCH  10  14
ENDBRANCH   4   5
ENDBRANCH   3   4
ENDBRANCH   2   3
TORSDOF 8
ENDMDL
MODEL       36
REMARK 921   NORMALIZED FREE ENERGY PREDICTED BY IDOCK:   -6.39 KCAL/MOL
REMARK 922        TOTAL FREE ENERGY PREDICTED BY IDOCK:  -10.41 KCAL/MOL
REMARK 923 INTER-LIGAND FREE ENERGY PREDICTED BY IDOCK:   -9.07 KCAL/MOL
REMARK 924 INTRA-LIGAND FREE ENERGY PREDICTED BY IDOCK:   -1.34 KCAL/MOL
REMARK 927      BINDING AFFINITY PREDICTED BY RF-SCORE:    0.00 PKD
ROOT
HETATM    1  C   UNL     1     -13.260  12.766  71.980  1.00  0.00    -0.538 C  
HETATM    2  C   UNL     1     -13.704  14.205  72.186  1.00  0.00    -0.587 C  
ENDROOT
BRANCH   2   3
HETATM    3  C   UNL     1     -13.142  15.133  71.104  1.00  0.00    -0.515 C  
BRANCH   3   4
HETATM    4  C   UNL     1     -12.427  14.396  69.965  1.00  0.00    -0.353 C  
BRANCH   4   5
HETATM    5  C   UNL     1     -11.619  15.302  69.087  1.00  0.00    -0.332 A  
HETATM    6  N   UNL     1     -11.143  16.459  69.505  1.00  0.00    -0.314 NA 
HETATM    7  C   UNL     1     -10.458  16.998  68.459  1.00  0.00    -0.373 A  
HETATM    8 CL   UNL     1      -9.681  18.508  68.574  1.00  0.00    -0.374 Cl 
HETATM    9  C   UNL     1     -10.528  16.180  67.350  1.00  0.00    -0.310 A  
HETATM   10  N   UNL     1     -11.299  15.097  67.753  1.00  0.00    -0.324 NA 
BRANCH   9  11
HETATM   11  C   UNL     1      -9.960  16.393  66.002  1.00  0.00    -0.345 C  
HETATM   12  H   UNL     1     -10.225  17.673  64.585  1.00  0.00     0.000 HD 
HETATM   13  O   UNL     1     -10.590  17.536  65.452  1.00  0.00    -0.648 OA 
ENDBRANCH   9  11
BRANCH  10  14
HETATM   14  C   UNL     1     -11.874  14.078  66.877  1.00  0.00    -0.430 C  
BRANCH  14  15
HETATM   15  C   UNL     1     -11.182  12.740  66.925  1.00  0.00    -0.339 A  
HETATM   16  C   UNL     1      -9.891  12.584  66.414  1.00  0.00    -0.260 A  
HETATM   17  C   UNL     1      -9.226  11.352  66.496  1.00  0.00    -0.200 A  
HETATM   18  C   UNL     1      -9.846  10.209  67.025  1.00  0.00    -0.238 A  
HETATM   19  C   UNL     1     -11.129  10.391  67.570  1.00  0.00    -0.336 A  
HETATM   20  C   UNL     1     -11.780  11.632  67.533  1.00  0.00    -0.288 A  
BRANCH  18  21
HETATM   21  C   UNL     1      -9.195   8.865  67.018  1.00  0.00    -0.171 A  
HETATM   22  C   UNL     1      -8.739   8.342  65.783  1.00  0.00    -0.196 A  
HETATM   23  C   UNL     1      -8.103   7.099  65.681  1.00  0.00    -0.133 A  
HETATM   24  C   UNL     1      -7.925   6.322  66.811  1.00  0.00    -0.108 A  
HETATM   25  C   UNL     1      -8.381   6.794  68.040  1.00  0.00    -0.120 A  
HETATM   26  C   UNL     1      -8.995   8.062  68.170  1.00  0.00    -0.135 A  
BRANCH  26  27
HETATM   27  C   UNL     1      -9.360   8.462  69.524  1.00  0.00    -0.158 A  
HETATM   28  N   UNL     1      -8.661   9.351  70.258  1.00  0.00    -0.204 NA 
HETATM   29  N   UNL     1      -9.392   9.363  71.378  1.00  0.00    -0.303 NA 
HETATM   30  N   UNL     1     -10.461   8.564  71.392  1.00  0.00    -0.219 NA 
HETATM   31  H   UNL     1      -9.146   9.949  72.176  1.00  0.00     0.000 HD 
HETATM   32  N   UNL     1     -10.468   7.998  70.193  1.00  0.00    -0.220 NA 
ENDBRANCH  26  27
ENDBRANCH  18  21
ENDBRANCH  14  15
ENDBRANCH  10  14
ENDBRANCH   4   5
ENDBRANCH   3   4
ENDBRANCH   2   3
TORSDOF 8
ENDMDL
MODEL       37
REMARK 921   NORMALIZED FREE ENERGY PREDICTED BY IDOCK:   -6.38 KCAL/MOL
REMARK 922        TOTAL FREE ENERGY PREDICTED BY IDOCK:  -10.39 KCAL/MOL
REMARK 923 INTER-LIGAND FREE ENERGY PREDICTED BY IDOCK:   -8.67 KCAL/MOL
REMARK 924 INTRA-LIGAND FREE ENERGY PREDICTED BY IDOCK:   -1.72 KCAL/MOL
REMARK 927      BINDING AFFINITY PREDICTED BY RF-SCORE:    0.00 PKD
ROOT
HETATM    1  C   UNL     1     -10.670  11.239  63.643  1.00  0.00    -0.438 C  
HETATM    2  C   UNL     1     -12.048  11.877  63.577  1.00  0.00    -0.575 C  
ENDROOT
BRANCH   2   3
HETATM    3  C   UNL     1     -11.972  13.403  63.688  1.00  0.00    -0.504 C  
BRANCH   3   4
HETATM    4  C   UNL     1     -12.505  13.957  65.014  1.00  0.00    -0.447 C  
BRANCH   4   5
HETATM    5  C   UNL     1     -11.449  14.610  65.852  1.00  0.00    -0.338 A  
HETATM    6  N   UNL     1     -10.393  15.204  65.331  1.00  0.00    -0.363 NA 
HETATM    7  C   UNL     1      -9.665  15.690  66.373  1.00  0.00    -0.279 A  
HETATM    8 CL   UNL     1      -8.206  16.532  66.139  1.00  0.00    -0.353 Cl 
HETATM    9  C   UNL     1     -10.257  15.370  67.579  1.00  0.00    -0.244 A  
HETATM   10  N   UNL     1     -11.397  14.653  67.238  1.00  0.00    -0.341 NA 
BRANCH   9  11
HETATM   11  C   UNL     1      -9.792  15.669  68.950  1.00  0.00    -0.219 C  
HETATM   12  H   UNL     1     -10.244  16.965  70.302  1.00  0.00     0.000 HD 
HETATM   13  O   UNL     1     -10.543  16.774  69.421  1.00  0.00    -0.324 OA 
ENDBRANCH   9  11
BRANCH  10  14
HETATM   14  C   UNL     1     -12.231  13.877  68.154  1.00  0.00    -0.150 C  
BRANCH  14  15
HETATM   15  C   UNL     1     -11.716  12.494  68.459  1.00  0.00    -0.369 A  
HETATM   16  C   UNL     1     -11.732  11.996  69.764  1.00  0.00    -0.390 A  
HETATM   17  C   UNL     1     -11.294  10.694  70.045  1.00  0.00    -0.400 A  
HETATM   18  C   UNL     1     -10.756   9.862  69.051  1.00  0.00    -0.244 A  
HETATM   19  C   UNL     1     -10.782  10.362  67.737  1.00  0.00    -0.327 A  
HETATM   20  C   UNL     1     -11.263  11.646  67.443  1.00  0.00    -0.358 A  
BRANCH  18  21
HETATM   21  C   UNL     1     -10.183   8.516  69.352  1.00  0.00    -0.211 A  
HETATM   22  C   UNL     1     -11.030   7.384  69.256  1.00  0.00    -0.091 A  
HETATM   23  C   UNL     1     -10.577   6.084  69.504  1.00  0.00    -0.363 A  
HETATM   24  C   UNL     1      -9.263   5.871  69.883  1.00  0.00    -0.163 A  
HETATM   25  C   UNL     1      -8.407   6.964  70.009  1.00  0.00    -0.139 A  
HETATM   26  C   UNL     1      -8.836   8.283  69.730  1.00  0.00    -0.142 A  
BRANCH  26  27
HETATM   27  C   UNL     1      -7.819   9.323  69.833  1.00  0.00    -0.109 A  
HETATM   28  N   UNL     1      -7.290   9.963  68.771  1.00  0.00    -0.076 NA 
HETATM   29  N   UNL     1      -6.439  10.789  69.390  1.00  0.00    -0.065 NA 
HETATM   30  N   UNL     1      -6.400  10.705  70.721  1.00  0.00    -0.349 NA 
HETATM   31  H   UNL     1      -5.853  11.445  68.874  1.00  0.00     0.000 HD 
HETATM   32  N   UNL     1      -7.304   9.783  71.023  1.00  0.00    -0.304 NA 
ENDBRANCH  26  27
ENDBRANCH  18  21
ENDBRANCH  14  15
ENDBRANCH  10  14
ENDBRANCH   4   5
ENDBRANCH   3   4
ENDBRANCH   2   3
TORSDOF 8
ENDMDL
MODEL       38
REMARK 921   NORMALIZED FREE ENERGY PREDICTED BY IDOCK:   -6.37 KCAL/MOL
REMARK 922        TOTAL FREE ENERGY PREDICTED BY IDOCK:  -10.38 KCAL/MOL
REMARK 923 INTER-LIGAND FREE ENERGY PREDICTED BY IDOCK:   -8.61 KCAL/MOL
REMARK 924 INTRA-LIGAND FREE ENERGY PREDICTED BY IDOCK:   -1.77 KCAL/MOL
REMARK 927      BINDING AFFINITY PREDICTED BY RF-SCORE:    0.00 PKD
ROOT
HETATM    1  C   UNL     1     -13.758   9.196  72.434  1.00  0.00    -0.543 C  
HETATM    2  C   UNL     1     -14.408   8.039  71.693  1.00  0.00    -0.581 C  
ENDROOT
BRANCH   2   3
HETATM    3  C   UNL     1     -13.382   6.974  71.293  1.00  0.00    -0.282 C  
BRANCH   3   4
HETATM    4  C   UNL     1     -12.104   6.994  72.139  1.00  0.00    -0.281 C  
BRANCH   4   5
HETATM    5  C   UNL     1     -10.897   6.497  71.404  1.00  0.00    -0.245 A  
HETATM    6  N   UNL     1     -10.692   5.217  71.157  1.00  0.00    -0.171 NA 
HETATM    7  C   UNL     1      -9.519   5.137  70.470  1.00  0.00    -0.169 A  
HETATM    8 CL   UNL     1      -8.878   3.648  69.953  1.00  0.00    -0.135 Cl 
HETATM    9  C   UNL     1      -8.958   6.387  70.305  1.00  0.00    -0.154 A  
HETATM   10  N   UNL     1      -9.840   7.260  70.930  1.00  0.00    -0.184 NA 
BRANCH   9  11
HETATM   11  C   UNL     1      -7.684   6.754  69.653  1.00  0.00    -0.110 C  
HETATM   12  H   UNL     1      -7.054   6.875  67.835  1.00  0.00     0.000 HD 
HETATM   13  O   UNL     1      -7.874   6.639  68.254  1.00  0.00    -0.106 OA 
ENDBRANCH   9  11
BRANCH  10  14
HETATM   14  C   UNL     1      -9.578   8.661  71.253  1.00  0.00    -0.225 C  
BRANCH  14  15
HETATM   15  C   UNL     1     -10.004   9.643  70.192  1.00  0.00    -0.309 A  
HETATM   16  C   UNL     1      -9.091  10.115  69.246  1.00  0.00    -0.208 A  
HETATM   17  C   UNL     1      -9.493  10.995  68.231  1.00  0.00    -0.172 A  
HETATM   18  C   UNL     1     -10.802  11.497  68.160  1.00  0.00    -0.259 A  
HETATM   19  C   UNL     1     -11.718  10.984  69.095  1.00  0.00    -0.403 A  
HETATM   20  C   UNL     1     -11.333  10.067  70.084  1.00  0.00    -0.357 A  
BRANCH  18  21
HETATM   21  C   UNL     1     -11.218  12.520  67.155  1.00  0.00    -0.352 A  
HETATM   22  C   UNL     1     -11.527  12.089  65.841  1.00  0.00    -0.392 A  
HETATM   23  C   UNL     1     -11.941  12.972  64.838  1.00  0.00    -0.441 A  
HETATM   24  C   UNL     1     -12.034  14.326  65.107  1.00  0.00    -0.395 A  
HETATM   25  C   UNL     1     -11.716  14.789  66.383  1.00  0.00    -0.268 A  
HETATM   26  C   UNL     1     -11.329  13.909  67.420  1.00  0.00    -0.349 A  
BRANCH  26  27
HETATM   27  C   UNL     1     -11.093  14.518  68.724  1.00  0.00    -0.251 A  
HETATM   28  N   UNL     1      -9.876  14.886  69.171  1.00  0.00    -0.218 NA 
HETATM   29  N   UNL     1     -10.202  15.373  70.375  1.00  0.00    -0.442 NA 
HETATM   30  N   UNL     1     -11.496  15.328  70.697  1.00  0.00    -0.292 NA 
HETATM   31  H   UNL     1      -9.501  15.756  71.009  1.00  0.00     0.000 HD 
HETATM   32  N   UNL     1     -12.086  14.804  69.631  1.00  0.00    -0.311 NA 
ENDBRANCH  26  27
ENDBRANCH  18  21
ENDBRANCH  14  15
ENDBRANCH  10  14
ENDBRANCH   4   5
ENDBRANCH   3   4
ENDBRANCH   2   3
TORSDOF 8
ENDMDL
MODEL       39
REMARK 921   NORMALIZED FREE ENERGY PREDICTED BY IDOCK:   -6.36 KCAL/MOL
REMARK 922        TOTAL FREE ENERGY PREDICTED BY IDOCK:  -10.36 KCAL/MOL
REMARK 923 INTER-LIGAND FREE ENERGY PREDICTED BY IDOCK:   -7.88 KCAL/MOL
REMARK 924 INTRA-LIGAND FREE ENERGY PREDICTED BY IDOCK:   -2.48 KCAL/MOL
REMARK 927      BINDING AFFINITY PREDICTED BY RF-SCORE:    0.00 PKD
ROOT
HETATM    1  C   UNL     1      -7.462   8.899  65.826  1.00  0.00    -0.089 C  
HETATM    2  C   UNL     1      -8.926   8.656  66.154  1.00  0.00    -0.221 C  
ENDROOT
BRANCH   2   3
HETATM    3  C   UNL     1      -9.845   9.618  65.393  1.00  0.00    -0.322 C  
BRANCH   3   4
HETATM    4  C   UNL     1      -9.163  10.924  64.970  1.00  0.00    -0.233 C  
BRANCH   4   5
HETATM    5  C   UNL     1      -9.964  12.146  65.302  1.00  0.00    -0.237 A  
HETATM    6  N   UNL     1     -10.734  12.753  64.419  1.00  0.00    -0.351 NA 
HETATM    7  C   UNL     1     -11.311  13.804  65.064  1.00  0.00    -0.328 A  
HETATM    8 CL   UNL     1     -12.387  14.862  64.278  1.00  0.00    -0.448 Cl 
HETATM    9  C   UNL     1     -10.874  13.880  66.371  1.00  0.00    -0.291 A  
HETATM   10  N   UNL     1      -9.986  12.821  66.513  1.00  0.00    -0.247 NA 
BRANCH   9  11
HETATM   11  C   UNL     1     -11.217  14.876  67.407  1.00  0.00    -0.338 C  
HETATM   12  H   UNL     1     -12.298  14.883  69.003  1.00  0.00     0.000 HD 
HETATM   13  O   UNL     1     -12.079  14.242  68.336  1.00  0.00    -0.335 OA 
ENDBRANCH   9  11
BRANCH  10  14
HETATM   14  C   UNL     1      -9.065  12.616  67.630  1.00  0.00    -0.192 C  
BRANCH  14  15
HETATM   15  C   UNL     1      -9.378  11.423  68.495  1.00  0.00    -0.180 A  
HETATM   16  C   UNL     1     -10.701  11.042  68.737  1.00  0.00    -0.240 A  
HETATM   17  C   UNL     1     -10.996   9.907  69.506  1.00  0.00    -0.274 A  
HETATM   18  C   UNL     1      -9.990   9.147  70.123  1.00  0.00    -0.231 A  
HETATM   19  C   UNL     1      -8.664   9.520  69.839  1.00  0.00    -0.224 A  
HETATM   20  C   UNL     1      -8.362  10.626  69.032  1.00  0.00    -0.153 A  
BRANCH  18  21
HETATM   21  C   UNL     1     -10.290   8.004  71.035  1.00  0.00    -0.228 A  
HETATM   22  C   UNL     1     -10.366   8.253  72.428  1.00  0.00    -0.402 A  
HETATM   23  C   UNL     1     -10.659   7.248  73.357  1.00  0.00    -0.435 A  
HETATM   24  C   UNL     1     -10.859   5.949  72.926  1.00  0.00    -0.293 A  
HETATM   25  C   UNL     1     -10.770   5.662  71.565  1.00  0.00    -0.306 A  
HETATM   26  C   UNL     1     -10.509   6.669  70.607  1.00  0.00    -0.253 A  
BRANCH  26  27
HETATM   27  C   UNL     1     -10.513   6.245  69.212  1.00  0.00    -0.244 A  
HETATM   28  N   UNL     1     -11.531   6.479  68.359  1.00  0.00    -0.051 NA 
HETATM   29  N   UNL     1     -11.049   5.906  67.250  1.00  0.00    -0.463 NA 
HETATM   30  N   UNL     1      -9.842   5.346  67.353  1.00  0.00    -0.143 NA 
HETATM   31  H   UNL     1     -11.574   5.898  66.375  1.00  0.00     0.000 HD 
HETATM   32  N   UNL     1      -9.473   5.581  68.605  1.00  0.00    -0.124 NA 
ENDBRANCH  26  27
ENDBRANCH  18  21
ENDBRANCH  14  15
ENDBRANCH  10  14
ENDBRANCH   4   5
ENDBRANCH   3   4
ENDBRANCH   2   3
TORSDOF 8
ENDMDL
MODEL       40
REMARK 921   NORMALIZED FREE ENERGY PREDICTED BY IDOCK:   -6.34 KCAL/MOL
REMARK 922        TOTAL FREE ENERGY PREDICTED BY IDOCK:  -10.34 KCAL/MOL
REMARK 923 INTER-LIGAND FREE ENERGY PREDICTED BY IDOCK:   -8.47 KCAL/MOL
REMARK 924 INTRA-LIGAND FREE ENERGY PREDICTED BY IDOCK:   -1.87 KCAL/MOL
REMARK 927      BINDING AFFINITY PREDICTED BY RF-SCORE:    0.00 PKD
ROOT
HETATM    1  C   UNL     1      -9.174   9.756  64.625  1.00  0.00    -0.312 C  
HETATM    2  C   UNL     1     -10.051  10.011  65.840  1.00  0.00    -0.319 C  
ENDROOT
BRANCH   2   3
HETATM    3  C   UNL     1      -9.578   9.211  67.058  1.00  0.00    -0.223 C  
BRANCH   3   4
HETATM    4  C   UNL     1      -9.248  10.077  68.279  1.00  0.00    -0.129 C  
BRANCH   4   5
HETATM    5  C   UNL     1     -10.205   9.890  69.416  1.00  0.00    -0.216 A  
HETATM    6  N   UNL     1      -9.993   9.026  70.389  1.00  0.00    -0.190 NA 
HETATM    7  C   UNL     1     -11.049   9.133  71.242  1.00  0.00    -0.335 A  
HETATM    8 CL   UNL     1     -11.174   8.181  72.647  1.00  0.00    -0.451 Cl 
HETATM    9  C   UNL     1     -11.960  10.063  70.783  1.00  0.00    -0.335 A  
HETATM   10  N   UNL     1     -11.422  10.532  69.592  1.00  0.00    -0.264 NA 
BRANCH   9  11
HETATM   11  C   UNL     1     -13.253  10.467  71.375  1.00  0.00    -0.364 C  
HETATM   12  H   UNL     1     -13.891  11.984  72.377  1.00  0.00     0.000 HD 
HETATM   13  O   UNL     1     -13.060  11.725  71.997  1.00  0.00    -0.467 OA 
ENDBRANCH   9  11
BRANCH  10  14
HETATM   14  C   UNL     1     -12.119  11.342  68.594  1.00  0.00    -0.145 C  
BRANCH  14  15
HETATM   15  C   UNL     1     -11.588  12.744  68.436  1.00  0.00    -0.365 A  
HETATM   16  C   UNL     1     -11.150  13.206  67.192  1.00  0.00    -0.305 A  
HETATM   17  C   UNL     1     -10.696  14.523  67.031  1.00  0.00    -0.291 A  
HETATM   18  C   UNL     1     -10.591  15.409  68.115  1.00  0.00    -0.263 A  
HETATM   19  C   UNL     1     -11.071  14.942  69.351  1.00  0.00    -0.296 A  
HETATM   20  C   UNL     1     -11.571  13.641  69.508  1.00  0.00    -0.361 A  
BRANCH  18  21
HETATM   21  C   UNL     1     -10.005  16.776  67.982  1.00  0.00    -0.272 A  
HETATM   22  C   UNL     1     -10.885  17.879  67.857  1.00  0.00    -0.225 A  
HETATM   23  C   UNL     1     -10.428  19.197  67.744  1.00  0.00    -0.512 A  
HETATM   24  C   UNL     1      -9.069  19.456  67.725  1.00  0.00    -0.373 A  
HETATM   25  C   UNL     1      -8.173  18.393  67.823  1.00  0.00    -0.265 A  
HETATM   26  C   UNL     1      -8.614  17.057  67.973  1.00  0.00    -0.217 A  
BRANCH  26  27
HETATM   27  C   UNL     1      -7.572  16.051  68.136  1.00  0.00    -0.136 A  
HETATM   28  N   UNL     1      -7.093  15.653  69.332  1.00  0.00    -0.187 NA 
HETATM   29  N   UNL     1      -6.189  14.749  68.938  1.00  0.00    -0.084 NA 
HETATM   30  N   UNL     1      -6.073  14.567  67.621  1.00  0.00    -0.321 NA 
HETATM   31  H   UNL     1      -5.621  14.228  69.607  1.00  0.00     0.000 HD 
HETATM   32  N   UNL     1      -6.978  15.380  67.093  1.00  0.00    -0.244 NA 
ENDBRANCH  26  27
ENDBRANCH  18  21
ENDBRANCH  14  15
ENDBRANCH  10  14
ENDBRANCH   4   5
ENDBRANCH   3   4
ENDBRANCH   2   3
TORSDOF 8
ENDMDL
MODEL       41
REMARK 921   NORMALIZED FREE ENERGY PREDICTED BY IDOCK:   -6.34 KCAL/MOL
REMARK 922        TOTAL FREE ENERGY PREDICTED BY IDOCK:  -10.33 KCAL/MOL
REMARK 923 INTER-LIGAND FREE ENERGY PREDICTED BY IDOCK:   -8.63 KCAL/MOL
REMARK 924 INTRA-LIGAND FREE ENERGY PREDICTED BY IDOCK:   -1.70 KCAL/MOL
REMARK 927      BINDING AFFINITY PREDICTED BY RF-SCORE:    0.00 PKD
ROOT
HETATM    1  C   UNL     1     -11.397  14.987  70.307  1.00  0.00    -0.300 C  
HETATM    2  C   UNL     1     -11.024  16.145  69.397  1.00  0.00    -0.333 C  
ENDROOT
BRANCH   2   3
HETATM    3  C   UNL     1     -11.273  15.810  67.922  1.00  0.00    -0.313 C  
BRANCH   3   4
HETATM    4  C   UNL     1     -12.277  14.671  67.705  1.00  0.00    -0.082 C  
BRANCH   4   5
HETATM    5  C   UNL     1     -11.864  13.713  66.631  1.00  0.00    -0.409 A  
HETATM    6  N   UNL     1     -12.639  13.419  65.604  1.00  0.00    -0.461 NA 
HETATM    7  C   UNL     1     -11.945  12.536  64.834  1.00  0.00    -0.412 A  
HETATM    8 CL   UNL     1     -12.591  11.893  63.397  1.00  0.00    -0.674 Cl 
HETATM    9  C   UNL     1     -10.721  12.244  65.400  1.00  0.00    -0.284 A  
HETATM   10  N   UNL     1     -10.683  12.988  66.572  1.00  0.00    -0.276 NA 
BRANCH   9  11
HETATM   11  C   UNL     1      -9.674  11.318  64.921  1.00  0.00    -0.256 C  
HETATM   12  H   UNL     1      -9.295   9.441  65.136  1.00  0.00     0.000 HD 
HETATM   13  O   UNL     1      -9.969  10.036  65.445  1.00  0.00    -0.297 OA 
ENDBRANCH   9  11
BRANCH  10  14
HETATM   14  C   UNL     1      -9.711  12.839  67.654  1.00  0.00    -0.205 C  
BRANCH  14  15
HETATM   15  C   UNL     1      -9.900  11.610  68.506  1.00  0.00    -0.196 A  
HETATM   16  C   UNL     1      -8.828  10.756  68.777  1.00  0.00    -0.163 A  
HETATM   17  C   UNL     1      -8.989   9.636  69.605  1.00  0.00    -0.215 A  
HETATM   18  C   UNL     1     -10.238   9.281  70.138  1.00  0.00    -0.251 A  
HETATM   19  C   UNL     1     -11.298  10.171  69.889  1.00  0.00    -0.335 A  
HETATM   20  C   UNL     1     -11.132  11.319  69.101  1.00  0.00    -0.312 A  
BRANCH  18  21
HETATM   21  C   UNL     1     -10.450   8.032  70.928  1.00  0.00    -0.223 A  
HETATM   22  C   UNL     1     -10.584   8.137  72.335  1.00  0.00    -0.393 A  
HETATM   23  C   UNL     1     -10.801   7.024  73.155  1.00  0.00    -0.350 A  
HETATM   24  C   UNL     1     -10.865   5.759  72.598  1.00  0.00    -0.296 A  
HETATM   25  C   UNL     1     -10.715   5.615  71.219  1.00  0.00    -0.312 A  
HETATM   26  C   UNL     1     -10.529   6.731  70.369  1.00  0.00    -0.236 A  
BRANCH  26  27
HETATM   27  C   UNL     1     -10.457   6.444  68.941  1.00  0.00    -0.223 A  
HETATM   28  N   UNL     1     -11.509   6.542  68.103  1.00  0.00    -0.004 NA 
HETATM   29  N   UNL     1     -10.929   6.185  66.951  1.00  0.00    -0.582 NA 
HETATM   30  N   UNL     1      -9.632   5.877  67.016  1.00  0.00    -0.126 NA 
HETATM   31  H   UNL     1     -11.448   6.151  66.074  1.00  0.00     0.000 HD 
HETATM   32  N   UNL     1      -9.308   6.066  68.287  1.00  0.00    -0.116 NA 
ENDBRANCH  26  27
ENDBRANCH  18  21
ENDBRANCH  14  15
ENDBRANCH  10  14
ENDBRANCH   4   5
ENDBRANCH   3   4
ENDBRANCH   2   3
TORSDOF 8
ENDMDL
MODEL       42
REMARK 921   NORMALIZED FREE ENERGY PREDICTED BY IDOCK:   -6.33 KCAL/MOL
REMARK 922        TOTAL FREE ENERGY PREDICTED BY IDOCK:  -10.32 KCAL/MOL
REMARK 923 INTER-LIGAND FREE ENERGY PREDICTED BY IDOCK:   -8.34 KCAL/MOL
REMARK 924 INTRA-LIGAND FREE ENERGY PREDICTED BY IDOCK:   -1.98 KCAL/MOL
REMARK 927      BINDING AFFINITY PREDICTED BY RF-SCORE:    0.00 PKD
ROOT
HETATM    1  C   UNL     1     -10.003   8.288  70.759  1.00  0.00    -0.217 C  
HETATM    2  C   UNL     1      -8.578   8.658  70.382  1.00  0.00    -0.160 C  
ENDROOT
BRANCH   2   3
HETATM    3  C   UNL     1      -7.664   7.429  70.342  1.00  0.00    -0.093 C  
BRANCH   3   4
HETATM    4  C   UNL     1      -7.195   7.050  68.932  1.00  0.00    -0.091 C  
BRANCH   4   5
HETATM    5  C   UNL     1      -8.017   5.967  68.304  1.00  0.00    -0.106 A  
HETATM    6  N   UNL     1      -8.173   4.780  68.857  1.00  0.00    -0.082 NA 
HETATM    7  C   UNL     1      -8.981   4.066  68.026  1.00  0.00    -0.121 A  
HETATM    8 CL   UNL     1      -9.436   2.463  68.369  1.00  0.00    -0.257 Cl 
HETATM    9  C   UNL     1      -9.316   4.806  66.909  1.00  0.00    -0.134 A  
HETATM   10  N   UNL     1      -8.672   6.025  67.082  1.00  0.00    -0.110 NA 
BRANCH   9  11
HETATM   11  C   UNL     1     -10.139   4.411  65.747  1.00  0.00    -0.245 C  
HETATM   12  H   UNL     1      -9.939   3.182  64.276  1.00  0.00     0.000 HD 
HETATM   13  O   UNL     1      -9.410   3.436  65.023  1.00  0.00    -0.145 OA 
ENDBRANCH   9  11
BRANCH  10  14
HETATM   14  C   UNL     1      -8.505   7.060  66.064  1.00  0.00    -0.139 C  
BRANCH  14  15
HETATM   15  C   UNL     1      -9.102   8.397  66.419  1.00  0.00    -0.231 A  
HETATM   16  C   UNL     1      -8.458   9.585  66.063  1.00  0.00    -0.132 A  
HETATM   17  C   UNL     1      -9.031  10.831  66.353  1.00  0.00    -0.179 A  
HETATM   18  C   UNL     1     -10.232  10.947  67.071  1.00  0.00    -0.256 A  
HETATM   19  C   UNL     1     -10.887   9.744  67.387  1.00  0.00    -0.265 A  
HETATM   20  C   UNL     1     -10.341   8.494  67.058  1.00  0.00    -0.379 A  
BRANCH  18  21
HETATM   21  C   UNL     1     -10.798  12.265  67.485  1.00  0.00    -0.271 A  
HETATM   22  C   UNL     1     -10.625  12.682  68.828  1.00  0.00    -0.214 A  
HETATM   23  C   UNL     1     -11.106  13.907  69.302  1.00  0.00    -0.261 A  
HETATM   24  C   UNL     1     -11.804  14.749  68.454  1.00  0.00    -0.319 A  
HETATM   25  C   UNL     1     -12.013  14.361  67.132  1.00  0.00    -0.419 A  
HETATM   26  C   UNL     1     -11.505  13.143  66.623  1.00  0.00    -0.389 A  
BRANCH  26  27
HETATM   27  C   UNL     1     -11.735  12.894  65.205  1.00  0.00    -0.364 A  
HETATM   28  N   UNL     1     -10.785  13.025  64.257  1.00  0.00    -0.389 NA 
HETATM   29  N   UNL     1     -11.488  12.690  63.168  1.00  0.00    -0.788 NA 
HETATM   30  N   UNL     1     -12.770  12.376  63.369  1.00  0.00    -0.741 NA 
HETATM   31  H   UNL     1     -11.068  12.677  62.239  1.00  0.00     0.000 HD 
HETATM   32  N   UNL     1     -12.935  12.476  64.680  1.00  0.00    -0.844 NA 
ENDBRANCH  26  27
ENDBRANCH  18  21
ENDBRANCH  14  15
ENDBRANCH  10  14
ENDBRANCH   4   5
ENDBRANCH   3   4
ENDBRANCH   2   3
TORSDOF 8
ENDMDL
MODEL       43
REMARK 921   NORMALIZED FREE ENERGY PREDICTED BY IDOCK:   -6.31 KCAL/MOL
REMARK 922        TOTAL FREE ENERGY PREDICTED BY IDOCK:  -10.29 KCAL/MOL
REMARK 923 INTER-LIGAND FREE ENERGY PREDICTED BY IDOCK:   -8.95 KCAL/MOL
REMARK 924 INTRA-LIGAND FREE ENERGY PREDICTED BY IDOCK:   -1.35 KCAL/MOL
REMARK 927      BINDING AFFINITY PREDICTED BY RF-SCORE:    0.00 PKD
ROOT
HETATM    1  C   UNL     1     -12.770  15.587  71.057  1.00  0.00    -0.526 C  
HETATM    2  C   UNL     1     -11.702  14.733  70.394  1.00  0.00    -0.350 C  
ENDROOT
BRANCH   2   3
HETATM    3  C   UNL     1     -12.236  14.027  69.144  1.00  0.00    -0.299 C  
BRANCH   3   4
HETATM    4  C   UNL     1     -11.819  14.695  67.828  1.00  0.00    -0.359 C  
BRANCH   4   5
HETATM    5  C   UNL     1     -11.540  13.717  66.728  1.00  0.00    -0.364 A  
HETATM    6  N   UNL     1     -12.383  13.500  65.738  1.00  0.00    -0.456 NA 
HETATM    7  C   UNL     1     -11.802  12.571  64.929  1.00  0.00    -0.386 A  
HETATM    8 CL   UNL     1     -12.566  12.000  63.520  1.00  0.00    -0.678 Cl 
HETATM    9  C   UNL     1     -10.582  12.171  65.435  1.00  0.00    -0.272 A  
HETATM   10  N   UNL     1     -10.427  12.897  66.609  1.00  0.00    -0.260 NA 
BRANCH   9  11
HETATM   11  C   UNL     1      -9.640  11.166  64.900  1.00  0.00    -0.239 C  
HETATM   12  H   UNL     1      -9.520   9.243  64.926  1.00  0.00     0.000 HD 
HETATM   13  O   UNL     1     -10.127   9.889  65.270  1.00  0.00    -0.313 OA 
ENDBRANCH   9  11
BRANCH  10  14
HETATM   14  C   UNL     1      -9.422  12.654  67.643  1.00  0.00    -0.189 C  
BRANCH  14  15
HETATM   15  C   UNL     1      -9.686  11.449  68.509  1.00  0.00    -0.199 A  
HETATM   16  C   UNL     1     -10.986  11.124  68.905  1.00  0.00    -0.276 A  
HETATM   17  C   UNL     1     -11.241   9.980  69.675  1.00  0.00    -0.285 A  
HETATM   18  C   UNL     1     -10.206   9.153  70.140  1.00  0.00    -0.237 A  
HETATM   19  C   UNL     1      -8.909   9.471  69.701  1.00  0.00    -0.196 A  
HETATM   20  C   UNL     1      -8.653  10.588  68.892  1.00  0.00    -0.153 A  
BRANCH  18  21
HETATM   21  C   UNL     1     -10.449   7.997  71.052  1.00  0.00    -0.229 A  
HETATM   22  C   UNL     1     -10.624   8.252  72.435  1.00  0.00    -0.408 A  
HETATM   23  C   UNL     1     -10.872   7.234  73.362  1.00  0.00    -0.370 A  
HETATM   24  C   UNL     1     -10.928   5.917  72.942  1.00  0.00    -0.303 A  
HETATM   25  C   UNL     1     -10.739   5.626  71.592  1.00  0.00    -0.313 A  
HETATM   26  C   UNL     1     -10.520   6.643  70.633  1.00  0.00    -0.253 A  
BRANCH  26  27
HETATM   27  C   UNL     1     -10.409   6.206  69.247  1.00  0.00    -0.221 A  
HETATM   28  N   UNL     1     -11.377   6.382  68.325  1.00  0.00    -0.178 NA 
HETATM   29  N   UNL     1     -10.793   5.823  67.258  1.00  0.00    -0.384 NA 
HETATM   30  N   UNL     1      -9.571   5.323  67.450  1.00  0.00    -0.127 NA 
HETATM   31  H   UNL     1     -11.257   5.782  66.350  1.00  0.00     0.000 HD 
HETATM   32  N   UNL     1      -9.299   5.587  68.720  1.00  0.00    -0.122 NA 
ENDBRANCH  26  27
ENDBRANCH  18  21
ENDBRANCH  14  15
ENDBRANCH  10  14
ENDBRANCH   4   5
ENDBRANCH   3   4
ENDBRANCH   2   3
TORSDOF 8
ENDMDL
MODEL       44
REMARK 921   NORMALIZED FREE ENERGY PREDICTED BY IDOCK:   -6.30 KCAL/MOL
REMARK 922        TOTAL FREE ENERGY PREDICTED BY IDOCK:  -10.28 KCAL/MOL
REMARK 923 INTER-LIGAND FREE ENERGY PREDICTED BY IDOCK:   -8.97 KCAL/MOL
REMARK 924 INTRA-LIGAND FREE ENERGY PREDICTED BY IDOCK:   -1.31 KCAL/MOL
REMARK 927      BINDING AFFINITY PREDICTED BY RF-SCORE:    0.00 PKD
ROOT
HETATM    1  C   UNL     1      -8.551  16.719  66.317  1.00  0.00    -0.340 C  
HETATM    2  C   UNL     1      -9.462  15.540  66.017  1.00  0.00    -0.387 C  
ENDROOT
BRANCH   2   3
HETATM    3  C   UNL     1     -10.524  15.353  67.106  1.00  0.00    -0.290 C  
BRANCH   3   4
HETATM    4  C   UNL     1      -9.962  14.857  68.443  1.00  0.00    -0.222 C  
BRANCH   4   5
HETATM    5  C   UNL     1     -10.931  14.983  69.578  1.00  0.00    -0.269 A  
HETATM    6  N   UNL     1     -10.778  15.859  70.551  1.00  0.00    -0.261 NA 
HETATM    7  C   UNL     1     -11.839  15.701  71.389  1.00  0.00    -0.421 A  
HETATM    8 CL   UNL     1     -12.029  16.645  72.792  1.00  0.00    -0.505 Cl 
HETATM    9  C   UNL     1     -12.664  14.684  70.953  1.00  0.00    -0.348 A  
HETATM   10  N   UNL     1     -12.061  14.207  69.795  1.00  0.00    -0.336 NA 
BRANCH   9  11
HETATM   11  C   UNL     1     -13.898  14.159  71.572  1.00  0.00    -0.309 C  
HETATM   12  H   UNL     1     -14.314  13.124  73.144  1.00  0.00     0.000 HD 
HETATM   13  O   UNL     1     -13.520  13.461  72.746  1.00  0.00    -0.607 OA 
ENDBRANCH   9  11
BRANCH  10  14
HETATM   14  C   UNL     1     -12.403  12.971  69.094  1.00  0.00     0.100 C  
BRANCH  14  15
HETATM   15  C   UNL     1     -11.770  11.727  69.662  1.00  0.00    -0.413 A  
HETATM   16  C   UNL     1     -10.542  11.266  69.179  1.00  0.00    -0.222 A  
HETATM   17  C   UNL     1      -9.928  10.134  69.734  1.00  0.00    -0.258 A  
HETATM   18  C   UNL     1     -10.543   9.375  70.741  1.00  0.00    -0.371 A  
HETATM   19  C   UNL     1     -11.759   9.873  71.243  1.00  0.00    -0.472 A  
HETATM   20  C   UNL     1     -12.355  11.031  70.724  1.00  0.00    -0.496 A  
BRANCH  18  21
HETATM   21  C   UNL     1      -9.956   8.106  71.264  1.00  0.00    -0.225 A  
HETATM   22  C   UNL     1      -9.493   8.076  72.603  1.00  0.00    -0.317 A  
HETATM   23  C   UNL     1      -8.943   6.928  73.183  1.00  0.00    -0.151 A  
HETATM   24  C   UNL     1      -8.812   5.772  72.435  1.00  0.00    -0.131 A  
HETATM   25  C   UNL     1      -9.236   5.770  71.107  1.00  0.00    -0.168 A  
HETATM   26  C   UNL     1      -9.826   6.910  70.511  1.00  0.00    -0.187 A  
BRANCH  26  27
HETATM   27  C   UNL     1     -10.289   6.749  69.138  1.00  0.00    -0.194 A  
HETATM   28  N   UNL     1     -11.519   6.305  68.808  1.00  0.00    -0.154 NA 
HETATM   29  N   UNL     1     -11.436   6.343  67.473  1.00  0.00    -0.675 NA 
HETATM   30  N   UNL     1     -10.274   6.763  66.968  1.00  0.00    -0.211 NA 
HETATM   31  H   UNL     1     -12.216   6.067  66.876  1.00  0.00     0.000 HD 
HETATM   32  N   UNL     1      -9.535   7.054  68.029  1.00  0.00    -0.126 NA 
ENDBRANCH  26  27
ENDBRANCH  18  21
ENDBRANCH  14  15
ENDBRANCH  10  14
ENDBRANCH   4   5
ENDBRANCH   3   4
ENDBRANCH   2   3
TORSDOF 8
ENDMDL
MODEL       45
REMARK 921   NORMALIZED FREE ENERGY PREDICTED BY IDOCK:   -6.30 KCAL/MOL
REMARK 922        TOTAL FREE ENERGY PREDICTED BY IDOCK:  -10.28 KCAL/MOL
REMARK 923 INTER-LIGAND FREE ENERGY PREDICTED BY IDOCK:   -8.31 KCAL/MOL
REMARK 924 INTRA-LIGAND FREE ENERGY PREDICTED BY IDOCK:   -1.97 KCAL/MOL
REMARK 927      BINDING AFFINITY PREDICTED BY RF-SCORE:    0.00 PKD
ROOT
HETATM    1  C   UNL     1      -7.582   9.614  64.915  1.00  0.00    -0.117 C  
HETATM    2  C   UNL     1      -9.073   9.492  64.650  1.00  0.00    -0.263 C  
ENDROOT
BRANCH   2   3
HETATM    3  C   UNL     1      -9.847   9.121  65.919  1.00  0.00    -0.305 C  
BRANCH   3   4
HETATM    4  C   UNL     1      -9.084   8.177  66.857  1.00  0.00    -0.185 C  
BRANCH   4   5
HETATM    5  C   UNL     1      -9.706   8.059  68.215  1.00  0.00    -0.164 A  
HETATM    6  N   UNL     1     -10.725   7.260  68.463  1.00  0.00    -0.167 NA 
HETATM    7  C   UNL     1     -11.015   7.399  69.786  1.00  0.00    -0.200 A  
HETATM    8 CL   UNL     1     -12.282   6.538  70.527  1.00  0.00    -0.280 Cl 
HETATM    9  C   UNL     1     -10.182   8.327  70.378  1.00  0.00    -0.201 A  
HETATM   10  N   UNL     1      -9.353   8.768  69.354  1.00  0.00    -0.156 NA 
BRANCH   9  11
HETATM   11  C   UNL     1     -10.170   8.805  71.777  1.00  0.00    -0.338 C  
HETATM   12  H   UNL     1     -11.509   9.306  73.070  1.00  0.00     0.000 HD 
HETATM   13  O   UNL     1     -11.517   8.999  72.170  1.00  0.00    -0.355 OA 
ENDBRANCH   9  11
BRANCH  10  14
HETATM   14  C   UNL     1      -8.467   9.929  69.405  1.00  0.00    -0.165 C  
BRANCH  14  15
HETATM   15  C   UNL     1      -8.922  11.107  68.582  1.00  0.00    -0.162 A  
HETATM   16  C   UNL     1      -8.033  11.772  67.734  1.00  0.00    -0.141 A  
HETATM   17  C   UNL     1      -8.462  12.840  66.934  1.00  0.00    -0.106 A  
HETATM   18  C   UNL     1      -9.774  13.335  66.999  1.00  0.00    -0.238 A  
HETATM   19  C   UNL     1     -10.666  12.632  67.828  1.00  0.00    -0.239 A  
HETATM   20  C   UNL     1     -10.254  11.533  68.595  1.00  0.00    -0.217 A  
BRANCH  18  21
HETATM   21  C   UNL     1     -10.217  14.541  66.238  1.00  0.00    -0.306 A  
HETATM   22  C   UNL     1      -9.725  15.809  66.635  1.00  0.00    -0.266 A  
HETATM   23  C   UNL     1     -10.072  16.992  65.973  1.00  0.00    -0.318 A  
HETATM   24  C   UNL     1     -10.948  16.951  64.903  1.00  0.00    -0.011 A  
HETATM   25  C   UNL     1     -11.471  15.724  64.499  1.00  0.00    -0.292 A  
HETATM   26  C   UNL     1     -11.106  14.513  65.133  1.00  0.00    -0.374 A  
BRANCH  26  27
HETATM   27  C   UNL     1     -11.672  13.296  64.564  1.00  0.00    -0.378 A  
HETATM   28  N   UNL     1     -10.967  12.416  63.823  1.00  0.00    -0.411 NA 
HETATM   29  N   UNL     1     -11.918  11.512  63.560  1.00  0.00    -0.690 NA 
HETATM   30  N   UNL     1     -13.127  11.764  64.066  1.00  0.00    -0.479 NA 
HETATM   31  H   UNL     1     -11.729  10.678  63.004  1.00  0.00     0.000 HD 
HETATM   32  N   UNL     1     -12.976  12.897  64.738  1.00  0.00    -0.788 NA 
ENDBRANCH  26  27
ENDBRANCH  18  21
ENDBRANCH  14  15
ENDBRANCH  10  14
ENDBRANCH   4   5
ENDBRANCH   3   4
ENDBRANCH   2   3
TORSDOF 8
ENDMDL
MODEL       46
REMARK 921   NORMALIZED FREE ENERGY PREDICTED BY IDOCK:   -6.30 KCAL/MOL
REMARK 922        TOTAL FREE ENERGY PREDICTED BY IDOCK:  -10.28 KCAL/MOL
REMARK 923 INTER-LIGAND FREE ENERGY PREDICTED BY IDOCK:   -9.13 KCAL/MOL
REMARK 924 INTRA-LIGAND FREE ENERGY PREDICTED BY IDOCK:   -1.15 KCAL/MOL
REMARK 927      BINDING AFFINITY PREDICTED BY RF-SCORE:    0.00 PKD
ROOT
HETATM    1  C   UNL     1     -13.620  13.690  72.644  1.00  0.00    -0.596 C  
HETATM    2  C   UNL     1     -13.477  15.197  72.788  1.00  0.00    -0.603 C  
ENDROOT
BRANCH   2   3
HETATM    3  C   UNL     1     -12.454  15.766  71.800  1.00  0.00    -0.524 C  
BRANCH   3   4
HETATM    4  C   UNL     1     -12.672  15.317  70.351  1.00  0.00    -0.400 C  
BRANCH   4   5
HETATM    5  C   UNL     1     -11.425  15.353  69.523  1.00  0.00    -0.319 A  
HETATM    6  N   UNL     1     -10.609  16.389  69.512  1.00  0.00    -0.308 NA 
HETATM    7  C   UNL     1      -9.588  16.071  68.669  1.00  0.00    -0.222 A  
HETATM    8 CL   UNL     1      -8.305  17.146  68.362  1.00  0.00    -0.242 Cl 
HETATM    9  C   UNL     1      -9.778  14.822  68.114  1.00  0.00    -0.217 A  
HETATM   10  N   UNL     1     -10.977  14.371  68.651  1.00  0.00    -0.241 NA 
BRANCH   9  11
HETATM   11  C   UNL     1      -8.939  14.104  67.132  1.00  0.00    -0.225 C  
HETATM   12  H   UNL     1      -7.362  13.000  67.218  1.00  0.00     0.000 HD 
HETATM   13  O   UNL     1      -7.901  13.461  67.850  1.00  0.00    -0.123 OA 
ENDBRANCH   9  11
BRANCH  10  14
HETATM   14  C   UNL     1     -11.744  13.215  68.192  1.00  0.00    -0.355 C  
BRANCH  14  15
HETATM   15  C   UNL     1     -11.483  11.941  68.954  1.00  0.00    -0.358 A  
HETATM   16  C   UNL     1     -10.496  11.046  68.535  1.00  0.00    -0.210 A  
HETATM   17  C   UNL     1     -10.220   9.881  69.266  1.00  0.00    -0.222 A  
HETATM   18  C   UNL     1     -10.963   9.525  70.402  1.00  0.00    -0.333 A  
HETATM   19  C   UNL     1     -11.926  10.455  70.834  1.00  0.00    -0.478 A  
HETATM   20  C   UNL     1     -12.174  11.644  70.133  1.00  0.00    -0.367 A  
BRANCH  18  21
HETATM   21  C   UNL     1     -10.758   8.236  71.126  1.00  0.00    -0.270 A  
HETATM   22  C   UNL     1     -10.920   8.218  72.533  1.00  0.00    -0.424 A  
HETATM   23  C   UNL     1     -10.763   7.053  73.294  1.00  0.00    -0.373 A  
HETATM   24  C   UNL     1     -10.412   5.867  72.674  1.00  0.00    -0.237 A  
HETATM   25  C   UNL     1     -10.223   5.852  71.293  1.00  0.00    -0.262 A  
HETATM   26  C   UNL     1     -10.409   7.010  70.502  1.00  0.00    -0.218 A  
BRANCH  26  27
HETATM   27  C   UNL     1     -10.248   6.838  69.063  1.00  0.00    -0.178 A  
HETATM   28  N   UNL     1      -9.059   6.887  68.430  1.00  0.00    -0.127 NA 
HETATM   29  N   UNL     1      -9.451   6.675  67.169  1.00  0.00    -0.132 NA 
HETATM   30  N   UNL     1     -10.761   6.507  66.980  1.00  0.00    -0.330 NA 
HETATM   31  H   UNL     1      -8.786   6.643  66.395  1.00  0.00     0.000 HD 
HETATM   32  N   UNL     1     -11.284   6.582  68.196  1.00  0.00    -0.232 NA 
ENDBRANCH  26  27
ENDBRANCH  18  21
ENDBRANCH  14  15
ENDBRANCH  10  14
ENDBRANCH   4   5
ENDBRANCH   3   4
ENDBRANCH   2   3
TORSDOF 8
ENDMDL
MODEL       47
REMARK 921   NORMALIZED FREE ENERGY PREDICTED BY IDOCK:   -6.30 KCAL/MOL
REMARK 922        TOTAL FREE ENERGY PREDICTED BY IDOCK:  -10.27 KCAL/MOL
REMARK 923 INTER-LIGAND FREE ENERGY PREDICTED BY IDOCK:   -9.56 KCAL/MOL
REMARK 924 INTRA-LIGAND FREE ENERGY PREDICTED BY IDOCK:   -0.71 KCAL/MOL
REMARK 927      BINDING AFFINITY PREDICTED BY RF-SCORE:    0.00 PKD
ROOT
HETATM    1  C   UNL     1      -8.734   8.755  64.684  1.00  0.00    -0.103 C  
HETATM    2  C   UNL     1      -9.361   9.577  65.798  1.00  0.00    -0.293 C  
ENDROOT
BRANCH   2   3
HETATM    3  C   UNL     1      -9.841   8.692  66.954  1.00  0.00    -0.305 C  
BRANCH   3   4
HETATM    4  C   UNL     1      -9.040   8.874  68.249  1.00  0.00    -0.140 C  
BRANCH   4   5
HETATM    5  C   UNL     1      -9.903   9.053  69.460  1.00  0.00    -0.180 A  
HETATM    6  N   UNL     1      -9.835   8.253  70.506  1.00  0.00    -0.182 NA 
HETATM    7  C   UNL     1     -10.742   8.716  71.410  1.00  0.00    -0.268 A  
HETATM    8 CL   UNL     1     -10.980   7.960  72.916  1.00  0.00    -0.461 Cl 
HETATM    9  C   UNL     1     -11.417   9.812  70.913  1.00  0.00    -0.369 A  
HETATM   10  N   UNL     1     -10.888  10.012  69.644  1.00  0.00    -0.244 NA 
BRANCH   9  11
HETATM   11  C   UNL     1     -12.498  10.600  71.541  1.00  0.00    -0.366 C  
HETATM   12  H   UNL     1     -14.189  10.195  72.374  1.00  0.00     0.000 HD 
HETATM   13  O   UNL     1     -13.494   9.688  71.970  1.00  0.00    -0.410 OA 
ENDBRANCH   9  11
BRANCH  10  14
HETATM   14  C   UNL     1     -11.439  10.889  68.612  1.00  0.00    -0.311 C  
BRANCH  14  15
HETATM   15  C   UNL     1     -10.757  12.227  68.491  1.00  0.00    -0.261 A  
HETATM   16  C   UNL     1     -11.409  13.400  68.881  1.00  0.00    -0.331 A  
HETATM   17  C   UNL     1     -10.763  14.642  68.811  1.00  0.00    -0.252 A  
HETATM   18  C   UNL     1      -9.468  14.777  68.284  1.00  0.00    -0.207 A  
HETATM   19  C   UNL     1      -8.811  13.584  67.933  1.00  0.00    -0.190 A  
HETATM   20  C   UNL     1      -9.436  12.333  68.045  1.00  0.00    -0.206 A  
BRANCH  18  21
HETATM   21  C   UNL     1      -8.809  16.103  68.098  1.00  0.00    -0.184 A  
HETATM   22  C   UNL     1      -7.889  16.544  69.082  1.00  0.00    -0.192 A  
HETATM   23  C   UNL     1      -7.212  17.764  68.985  1.00  0.00    -0.207 A  
HETATM   24  C   UNL     1      -7.452  18.602  67.910  1.00  0.00    -0.254 A  
HETATM   25  C   UNL     1      -8.367  18.212  66.935  1.00  0.00    -0.258 A  
HETATM   26  C   UNL     1      -9.037  16.967  66.996  1.00  0.00    -0.234 A  
BRANCH  26  27
HETATM   27  C   UNL     1      -9.914  16.654  65.874  1.00  0.00    -0.295 A  
HETATM   28  N   UNL     1     -10.092  15.410  65.387  1.00  0.00    -0.365 NA 
HETATM   29  N   UNL     1     -10.961  15.663  64.400  1.00  0.00    -0.792 NA 
HETATM   30  N   UNL     1     -11.318  16.939  64.244  1.00  0.00    -1.103 NA 
HETATM   31  H   UNL     1     -11.329  14.923  63.803  1.00  0.00     0.000 HD 
HETATM   32  N   UNL     1     -10.672  17.585  65.205  1.00  0.00    -0.595 NA 
ENDBRANCH  26  27
ENDBRANCH  18  21
ENDBRANCH  14  15
ENDBRANCH  10  14
ENDBRANCH   4   5
ENDBRANCH   3   4
ENDBRANCH   2   3
TORSDOF 8
ENDMDL
MODEL       48
REMARK 921   NORMALIZED FREE ENERGY PREDICTED BY IDOCK:   -6.29 KCAL/MOL
REMARK 922        TOTAL FREE ENERGY PREDICTED BY IDOCK:  -10.27 KCAL/MOL
REMARK 923 INTER-LIGAND FREE ENERGY PREDICTED BY IDOCK:  -10.12 KCAL/MOL
REMARK 924 INTRA-LIGAND FREE ENERGY PREDICTED BY IDOCK:   -0.15 KCAL/MOL
REMARK 927      BINDING AFFINITY PREDICTED BY RF-SCORE:    0.00 PKD
ROOT
HETATM    1  C   UNL     1     -14.210  14.321  72.069  1.00  0.00    -0.631 C  
HETATM    2  C   UNL     1     -12.986  13.480  72.392  1.00  0.00    -0.399 C  
ENDROOT
BRANCH   2   3
HETATM    3  C   UNL     1     -13.208  12.002  72.056  1.00  0.00    -0.481 C  
BRANCH   3   4
HETATM    4  C   UNL     1     -12.229  11.448  71.014  1.00  0.00    -0.391 C  
BRANCH   4   5
HETATM    5  C   UNL     1     -12.176   9.952  70.985  1.00  0.00    -0.353 A  
HETATM    6  N   UNL     1     -13.008   9.197  71.676  1.00  0.00    -0.345 NA 
HETATM    7  C   UNL     1     -12.679   7.905  71.402  1.00  0.00    -0.292 A  
HETATM    8 CL   UNL     1     -13.513   6.596  72.100  1.00  0.00    -0.052 Cl 
HETATM    9  C   UNL     1     -11.600   7.841  70.545  1.00  0.00    -0.158 A  
HETATM   10  N   UNL     1     -11.263   9.166  70.296  1.00  0.00    -0.240 NA 
BRANCH   9  11
HETATM   11  C   UNL     1     -10.900   6.650  70.018  1.00  0.00    -0.280 C  
HETATM   12  H   UNL     1      -9.470   5.514  70.631  1.00  0.00     0.000 HD 
HETATM   13  O   UNL     1      -9.919   6.280  70.970  1.00  0.00    -0.179 OA 
ENDBRANCH   9  11
BRANCH  10  14
HETATM   14  C   UNL     1     -10.038   9.635  69.652  1.00  0.00    -0.224 C  
BRANCH  14  15
HETATM   15  C   UNL     1     -10.208  10.857  68.786  1.00  0.00    -0.210 A  
HETATM   16  C   UNL     1      -9.167  11.777  68.637  1.00  0.00    -0.088 A  
HETATM   17  C   UNL     1      -9.305  12.893  67.798  1.00  0.00    -0.203 A  
HETATM   18  C   UNL     1     -10.508  13.175  67.132  1.00  0.00    -0.247 A  
HETATM   19  C   UNL     1     -11.532  12.220  67.261  1.00  0.00    -0.426 A  
HETATM   20  C   UNL     1     -11.382  11.078  68.061  1.00  0.00    -0.374 A  
BRANCH  18  21
HETATM   21  C   UNL     1     -10.709  14.416  66.326  1.00  0.00    -0.307 A  
HETATM   22  C   UNL     1     -10.350  15.660  66.900  1.00  0.00    -0.293 A  
HETATM   23  C   UNL     1     -10.487  16.872  66.215  1.00  0.00    -0.263 A  
HETATM   24  C   UNL     1     -11.015  16.885  64.936  1.00  0.00    -0.011 A  
HETATM   25  C   UNL     1     -11.400  15.682  64.347  1.00  0.00    -0.272 A  
HETATM   26  C   UNL     1     -11.238  14.443  65.010  1.00  0.00    -0.376 A  
BRANCH  26  27
HETATM   27  C   UNL     1     -11.616  13.256  64.252  1.00  0.00    -0.400 A  
HETATM   28  N   UNL     1     -10.733  12.448  63.633  1.00  0.00    -0.446 NA 
HETATM   29  N   UNL     1     -11.566  11.543  63.105  1.00  0.00    -0.882 NA 
HETATM   30  N   UNL     1     -12.865  11.731  63.343  1.00  0.00    -0.585 NA 
HETATM   31  H   UNL     1     -11.226  10.755  62.553  1.00  0.00     0.000 HD 
HETATM   32  N   UNL     1     -12.911  12.816  64.104  1.00  0.00    -0.710 NA 
ENDBRANCH  26  27
ENDBRANCH  18  21
ENDBRANCH  14  15
ENDBRANCH  10  14
ENDBRANCH   4   5
ENDBRANCH   3   4
ENDBRANCH   2   3
TORSDOF 8
ENDMDL
MODEL       49
REMARK 921   NORMALIZED FREE ENERGY PREDICTED BY IDOCK:   -6.27 KCAL/MOL
REMARK 922        TOTAL FREE ENERGY PREDICTED BY IDOCK:  -10.24 KCAL/MOL
REMARK 923 INTER-LIGAND FREE ENERGY PREDICTED BY IDOCK:   -8.59 KCAL/MOL
REMARK 924 INTRA-LIGAND FREE ENERGY PREDICTED BY IDOCK:   -1.64 KCAL/MOL
REMARK 927      BINDING AFFINITY PREDICTED BY RF-SCORE:    0.00 PKD
ROOT
HETATM    1  C   UNL     1     -12.754   8.260  71.236  1.00  0.00    -0.209 C  
HETATM    2  C   UNL     1     -13.440   9.616  71.283  1.00  0.00    -0.359 C  
ENDROOT
BRANCH   2   3
HETATM    3  C   UNL     1     -12.443  10.746  71.558  1.00  0.00    -0.447 C  
BRANCH   3   4
HETATM    4  C   UNL     1     -12.268  11.719  70.386  1.00  0.00    -0.416 C  
BRANCH   4   5
HETATM    5  C   UNL     1     -11.297  11.236  69.353  1.00  0.00    -0.292 A  
HETATM    6  N   UNL     1     -10.277  10.452  69.647  1.00  0.00    -0.230 NA 
HETATM    7  C   UNL     1      -9.625  10.208  68.477  1.00  0.00    -0.154 A  
HETATM    8 CL   UNL     1      -8.233   9.231  68.409  1.00  0.00    -0.114 Cl 
HETATM    9  C   UNL     1     -10.226  10.874  67.429  1.00  0.00    -0.201 A  
HETATM   10  N   UNL     1     -11.292  11.556  68.003  1.00  0.00    -0.273 NA 
BRANCH   9  11
HETATM   11  C   UNL     1      -9.831  10.915  66.005  1.00  0.00    -0.233 C  
HETATM   12  H   UNL     1      -9.833   9.661  64.542  1.00  0.00     0.000 HD 
HETATM   13  O   UNL     1     -10.087   9.634  65.457  1.00  0.00    -0.290 OA 
ENDBRANCH   9  11
BRANCH  10  14
HETATM   14  C   UNL     1     -12.087  12.603  67.364  1.00  0.00    -0.111 C  
BRANCH  14  15
HETATM   15  C   UNL     1     -11.460  13.973  67.386  1.00  0.00    -0.373 A  
HETATM   16  C   UNL     1     -10.795  14.472  66.263  1.00  0.00    -0.317 A  
HETATM   17  C   UNL     1     -10.248  15.763  66.263  1.00  0.00    -0.317 A  
HETATM   18  C   UNL     1     -10.278  16.581  67.404  1.00  0.00    -0.287 A  
HETATM   19  C   UNL     1     -10.983  16.080  68.512  1.00  0.00    -0.326 A  
HETATM   20  C   UNL     1     -11.574  14.808  68.501  1.00  0.00    -0.348 A  
BRANCH  18  21
HETATM   21  C   UNL     1      -9.603  17.912  67.457  1.00  0.00    -0.269 A  
HETATM   22  C   UNL     1     -10.390  19.076  67.278  1.00  0.00    -0.505 A  
HETATM   23  C   UNL     1      -9.849  20.366  67.328  1.00  0.00    -0.597 A  
HETATM   24  C   UNL     1      -8.491  20.535  67.532  1.00  0.00    -0.316 A  
HETATM   25  C   UNL     1      -7.681  19.412  67.690  1.00  0.00    -0.299 A  
HETATM   26  C   UNL     1      -8.214  18.101  67.677  1.00  0.00    -0.243 A  
BRANCH  26  27
HETATM   27  C   UNL     1      -7.267  17.021  67.924  1.00  0.00    -0.154 A  
HETATM   28  N   UNL     1      -6.908  16.605  69.155  1.00  0.00    -0.215 NA 
HETATM   29  N   UNL     1      -6.050  15.628  68.836  1.00  0.00    -0.106 NA 
HETATM   30  N   UNL     1      -5.855  15.419  67.532  1.00  0.00    -0.320 NA 
HETATM   31  H   UNL     1      -5.573  15.075  69.548  1.00  0.00     0.000 HD 
HETATM   32  N   UNL     1      -6.654  16.291  66.933  1.00  0.00    -0.273 NA 
ENDBRANCH  26  27
ENDBRANCH  18  21
ENDBRANCH  14  15
ENDBRANCH  10  14
ENDBRANCH   4   5
ENDBRANCH   3   4
ENDBRANCH   2   3
TORSDOF 8
ENDMDL
MODEL       50
REMARK 921   NORMALIZED FREE ENERGY PREDICTED BY IDOCK:   -6.27 KCAL/MOL
REMARK 922        TOTAL FREE ENERGY PREDICTED BY IDOCK:  -10.23 KCAL/MOL
REMARK 923 INTER-LIGAND FREE ENERGY PREDICTED BY IDOCK:   -9.79 KCAL/MOL
REMARK 924 INTRA-LIGAND FREE ENERGY PREDICTED BY IDOCK:   -0.44 KCAL/MOL
REMARK 927      BINDING AFFINITY PREDICTED BY RF-SCORE:    0.00 PKD
ROOT
HETATM    1  C   UNL     1      -5.355  11.543  68.444  1.00  0.00    -0.042 C  
HETATM    2  C   UNL     1      -6.854  11.581  68.689  1.00  0.00    -0.077 C  
ENDROOT
BRANCH   2   3
HETATM    3  C   UNL     1      -7.295  10.498  69.678  1.00  0.00    -0.151 C  
BRANCH   3   4
HETATM    4  C   UNL     1      -8.435   9.612  69.163  1.00  0.00    -0.143 C  
BRANCH   4   5
HETATM    5  C   UNL     1      -9.500   9.360  70.185  1.00  0.00    -0.240 A  
HETATM    6  N   UNL     1      -9.285   8.650  71.276  1.00  0.00    -0.198 NA 
HETATM    7  C   UNL     1     -10.456   8.640  71.970  1.00  0.00    -0.352 A  
HETATM    8 CL   UNL     1     -10.616   7.823  73.455  1.00  0.00    -0.358 Cl 
HETATM    9  C   UNL     1     -11.439   9.331  71.291  1.00  0.00    -0.347 A  
HETATM   10  N   UNL     1     -10.823   9.774  70.127  1.00  0.00    -0.268 NA 
BRANCH   9  11
HETATM   11  C   UNL     1     -12.854   9.539  71.662  1.00  0.00    -0.393 C  
HETATM   12  H   UNL     1     -13.931  11.052  72.177  1.00  0.00     0.000 HD 
HETATM   13  O   UNL     1     -13.021  10.918  71.939  1.00  0.00    -0.458 OA 
ENDBRANCH   9  11
BRANCH  10  14
HETATM   14  C   UNL     1     -11.498  10.337  68.958  1.00  0.00    -0.137 C  
BRANCH  14  15
HETATM   15  C   UNL     1     -11.112  11.755  68.628  1.00  0.00    -0.289 A  
HETATM   16  C   UNL     1     -10.157  12.026  67.645  1.00  0.00    -0.205 A  
HETATM   17  C   UNL     1      -9.826  13.346  67.304  1.00  0.00    -0.233 A  
HETATM   18  C   UNL     1     -10.379  14.446  67.977  1.00  0.00    -0.227 A  
HETATM   19  C   UNL     1     -11.366  14.159  68.937  1.00  0.00    -0.308 A  
HETATM   20  C   UNL     1     -11.735  12.842  69.248  1.00  0.00    -0.378 A  
BRANCH  18  21
HETATM   21  C   UNL     1      -9.956  15.852  67.705  1.00  0.00    -0.237 A  
HETATM   22  C   UNL     1      -9.141  16.509  68.659  1.00  0.00    -0.239 A  
HETATM   23  C   UNL     1      -8.682  17.819  68.482  1.00  0.00    -0.284 A  
HETATM   24  C   UNL     1      -9.046  18.530  67.352  1.00  0.00    -0.283 A  
HETATM   25  C   UNL     1      -9.866  17.923  66.402  1.00  0.00    -0.339 A  
HETATM   26  C   UNL     1     -10.312  16.589  66.546  1.00  0.00    -0.307 A  
BRANCH  26  27
HETATM   27  C   UNL     1     -11.104  16.055  65.444  1.00  0.00    -0.155 A  
HETATM   28  N   UNL     1     -11.394  16.746  64.324  1.00  0.00    -1.111 NA 
HETATM   29  N   UNL     1     -12.116  15.835  63.661  1.00  0.00    -1.012 NA 
HETATM   30  N   UNL     1     -12.294  14.664  64.277  1.00  0.00    -0.678 NA 
HETATM   31  H   UNL     1     -12.509  16.025  62.739  1.00  0.00     0.000 HD 
HETATM   32  N   UNL     1     -11.624  14.782  65.415  1.00  0.00    -0.338 NA 
ENDBRANCH  26  27
ENDBRANCH  18  21
ENDBRANCH  14  15
ENDBRANCH  10  14
ENDBRANCH   4   5
ENDBRANCH   3   4
ENDBRANCH   2   3
TORSDOF 8
ENDMDL
MODEL       51
REMARK 921   NORMALIZED FREE ENERGY PREDICTED BY IDOCK:   -6.27 KCAL/MOL
REMARK 922        TOTAL FREE ENERGY PREDICTED BY IDOCK:  -10.23 KCAL/MOL
REMARK 923 INTER-LIGAND FREE ENERGY PREDICTED BY IDOCK:   -9.07 KCAL/MOL
REMARK 924 INTRA-LIGAND FREE ENERGY PREDICTED BY IDOCK:   -1.16 KCAL/MOL
REMARK 927      BINDING AFFINITY PREDICTED BY RF-SCORE:    0.00 PKD
ROOT
HETATM    1  C   UNL     1     -13.635  15.680  72.968  1.00  0.00    -0.619 C  
HETATM    2  C   UNL     1     -13.818  14.814  71.733  1.00  0.00    -0.540 C  
ENDROOT
BRANCH   2   3
HETATM    3  C   UNL     1     -12.744  13.725  71.640  1.00  0.00    -0.409 C  
BRANCH   3   4
HETATM    4  C   UNL     1     -13.274  12.370  71.155  1.00  0.00     0.034 C  
BRANCH   4   5
HETATM    5  C   UNL     1     -12.219  11.509  70.531  1.00  0.00    -0.377 A  
HETATM    6  N   UNL     1     -11.630  10.523  71.180  1.00  0.00    -0.248 NA 
HETATM    7  C   UNL     1     -10.747   9.958  70.312  1.00  0.00    -0.310 A  
HETATM    8 CL   UNL     1      -9.766   8.639  70.754  1.00  0.00    -0.218 Cl 
HETATM    9  C   UNL     1     -10.756  10.619  69.100  1.00  0.00    -0.228 A  
HETATM   10  N   UNL     1     -11.691  11.635  69.254  1.00  0.00    -0.303 NA 
BRANCH   9  11
HETATM   11  C   UNL     1      -9.938  10.363  67.896  1.00  0.00    -0.167 C  
HETATM   12  H   UNL     1     -10.173   9.372  66.260  1.00  0.00     0.000 HD 
HETATM   13  O   UNL     1     -10.700   9.536  67.034  1.00  0.00    -0.231 OA 
ENDBRANCH   9  11
BRANCH  10  14
HETATM   14  C   UNL     1     -11.890  12.765  68.349  1.00  0.00    -0.310 C  
BRANCH  14  15
HETATM   15  C   UNL     1     -10.858  13.856  68.466  1.00  0.00    -0.274 A  
HETATM   16  C   UNL     1     -10.916  14.787  69.507  1.00  0.00    -0.287 A  
HETATM   17  C   UNL     1      -9.934  15.778  69.645  1.00  0.00    -0.284 A  
HETATM   18  C   UNL     1      -8.894  15.927  68.714  1.00  0.00    -0.213 A  
HETATM   19  C   UNL     1      -8.826  14.960  67.695  1.00  0.00    -0.184 A  
HETATM   20  C   UNL     1      -9.780  13.938  67.580  1.00  0.00    -0.232 A  
BRANCH  18  21
HETATM   21  C   UNL     1      -7.906  17.043  68.783  1.00  0.00    -0.253 A  
HETATM   22  C   UNL     1      -6.695  16.831  69.488  1.00  0.00    -0.181 A  
HETATM   23  C   UNL     1      -5.703  17.813  69.593  1.00  0.00    -0.234 A  
HETATM   24  C   UNL     1      -5.900  19.055  69.017  1.00  0.00    -0.234 A  
HETATM   25  C   UNL     1      -7.089  19.308  68.335  1.00  0.00    -0.328 A  
HETATM   26  C   UNL     1      -8.089  18.318  68.189  1.00  0.00    -0.297 A  
BRANCH  26  27
HETATM   27  C   UNL     1      -9.251  18.693  67.391  1.00  0.00    -0.279 A  
HETATM   28  N   UNL     1     -10.244  19.488  67.839  1.00  0.00    -0.407 NA 
HETATM   29  N   UNL     1     -11.032  19.516  66.758  1.00  0.00    -0.386 NA 
HETATM   30  N   UNL     1     -10.613  18.811  65.705  1.00  0.00    -0.572 NA 
HETATM   31  H   UNL     1     -11.904  20.046  66.740  1.00  0.00     0.000 HD 
HETATM   32  N   UNL     1      -9.453  18.298  66.089  1.00  0.00    -0.502 NA 
ENDBRANCH  26  27
ENDBRANCH  18  21
ENDBRANCH  14  15
ENDBRANCH  10  14
ENDBRANCH   4   5
ENDBRANCH   3   4
ENDBRANCH   2   3
TORSDOF 8
ENDMDL
MODEL       52
REMARK 921   NORMALIZED FREE ENERGY PREDICTED BY IDOCK:   -6.27 KCAL/MOL
REMARK 922        TOTAL FREE ENERGY PREDICTED BY IDOCK:  -10.23 KCAL/MOL
REMARK 923 INTER-LIGAND FREE ENERGY PREDICTED BY IDOCK:   -7.94 KCAL/MOL
REMARK 924 INTRA-LIGAND FREE ENERGY PREDICTED BY IDOCK:   -2.28 KCAL/MOL
REMARK 927      BINDING AFFINITY PREDICTED BY RF-SCORE:    0.00 PKD
ROOT
HETATM    1  C   UNL     1     -12.690  11.938  63.512  1.00  0.00    -0.530 C  
HETATM    2  C   UNL     1     -11.177  11.825  63.594  1.00  0.00    -0.519 C  
ENDROOT
BRANCH   2   3
HETATM    3  C   UNL     1     -10.549  13.071  64.229  1.00  0.00    -0.434 C  
BRANCH   3   4
HETATM    4  C   UNL     1     -11.543  14.213  64.471  1.00  0.00    -0.400 C  
BRANCH   4   5
HETATM    5  C   UNL     1     -11.068  15.210  65.482  1.00  0.00    -0.345 A  
HETATM    6  N   UNL     1     -10.239  16.190  65.178  1.00  0.00    -0.542 NA 
HETATM    7  C   UNL     1     -10.037  16.898  66.323  1.00  0.00    -0.324 A  
HETATM    8 CL   UNL     1      -9.017  18.259  66.374  1.00  0.00    -0.283 Cl 
HETATM    9  C   UNL     1     -10.728  16.337  67.378  1.00  0.00    -0.287 A  
HETATM   10  N   UNL     1     -11.374  15.233  66.834  1.00  0.00    -0.267 NA 
BRANCH   9  11
HETATM   11  C   UNL     1     -10.765  16.759  68.794  1.00  0.00    -0.341 C  
HETATM   12  H   UNL     1      -9.605  16.556  70.319  1.00  0.00     0.000 HD 
HETATM   13  O   UNL     1      -9.581  16.284  69.409  1.00  0.00    -0.240 OA 
ENDBRANCH   9  11
BRANCH  10  14
HETATM   14  C   UNL     1     -12.030  14.165  67.586  1.00  0.00    -0.370 C  
BRANCH  14  15
HETATM   15  C   UNL     1     -11.213  12.908  67.740  1.00  0.00    -0.319 A  
HETATM   16  C   UNL     1      -9.886  12.967  68.177  1.00  0.00    -0.227 A  
HETATM   17  C   UNL     1      -9.136  11.797  68.363  1.00  0.00    -0.176 A  
HETATM   18  C   UNL     1      -9.651  10.528  68.055  1.00  0.00    -0.159 A  
HETATM   19  C   UNL     1     -10.998  10.482  67.655  1.00  0.00    -0.375 A  
HETATM   20  C   UNL     1     -11.768  11.646  67.512  1.00  0.00    -0.288 A  
BRANCH  18  21
HETATM   21  C   UNL     1      -8.830   9.284  68.141  1.00  0.00    -0.129 A  
HETATM   22  C   UNL     1      -8.780   8.592  69.376  1.00  0.00    -0.136 A  
HETATM   23  C   UNL     1      -8.051   7.410  69.547  1.00  0.00    -0.129 A  
HETATM   24  C   UNL     1      -7.321   6.892  68.492  1.00  0.00    -0.090 A  
HETATM   25  C   UNL     1      -7.328   7.559  67.268  1.00  0.00    -0.098 A  
HETATM   26  C   UNL     1      -8.086   8.736  67.065  1.00  0.00    -0.099 A  
BRANCH  26  27
HETATM   27  C   UNL     1      -8.060   9.291  65.717  1.00  0.00    -0.115 A  
HETATM   28  N   UNL     1      -7.286  10.332  65.349  1.00  0.00    -0.143 NA 
HETATM   29  N   UNL     1      -7.627  10.438  64.060  1.00  0.00    -0.314 NA 
HETATM   30  N   UNL     1      -8.535   9.566  63.617  1.00  0.00    -0.182 NA 
HETATM   31  H   UNL     1      -7.216  11.145  63.450  1.00  0.00     0.000 HD 
HETATM   32  N   UNL     1      -8.803   8.803  64.668  1.00  0.00    -0.082 NA 
ENDBRANCH  26  27
ENDBRANCH  18  21
ENDBRANCH  14  15
ENDBRANCH  10  14
ENDBRANCH   4   5
ENDBRANCH   3   4
ENDBRANCH   2   3
TORSDOF 8
ENDMDL
MODEL       53
REMARK 921   NORMALIZED FREE ENERGY PREDICTED BY IDOCK:   -6.24 KCAL/MOL
REMARK 922        TOTAL FREE ENERGY PREDICTED BY IDOCK:  -10.19 KCAL/MOL
REMARK 923 INTER-LIGAND FREE ENERGY PREDICTED BY IDOCK:   -8.98 KCAL/MOL
REMARK 924 INTRA-LIGAND FREE ENERGY PREDICTED BY IDOCK:   -1.21 KCAL/MOL
REMARK 927      BINDING AFFINITY PREDICTED BY RF-SCORE:    0.00 PKD
ROOT
HETATM    1  C   UNL     1     -11.238   7.589  72.724  1.00  0.00    -0.403 C  
HETATM    2  C   UNL     1     -11.544   6.359  71.884  1.00  0.00    -0.367 C  
ENDROOT
BRANCH   2   3
HETATM    3  C   UNL     1     -11.984   6.736  70.466  1.00  0.00    -0.385 C  
BRANCH   3   4
HETATM    4  C   UNL     1     -11.102   6.142  69.362  1.00  0.00    -0.479 C  
BRANCH   4   5
HETATM    5  C   UNL     1      -9.774   6.822  69.233  1.00  0.00    -0.151 A  
HETATM    6  N   UNL     1      -8.727   6.484  69.961  1.00  0.00    -0.139 NA 
HETATM    7  C   UNL     1      -7.704   7.294  69.572  1.00  0.00    -0.113 A  
HETATM    8 CL   UNL     1      -6.156   7.189  70.271  1.00  0.00    -0.024 Cl 
HETATM    9  C   UNL     1      -8.121   8.182  68.601  1.00  0.00    -0.124 A  
HETATM   10  N   UNL     1      -9.464   7.889  68.402  1.00  0.00    -0.147 NA 
BRANCH   9  11
HETATM   11  C   UNL     1      -7.352   9.250  67.929  1.00  0.00    -0.080 C  
HETATM   12  H   UNL     1      -6.932  11.092  68.313  1.00  0.00     0.000 HD 
HETATM   13  O   UNL     1      -7.427  10.405  68.745  1.00  0.00    -0.082 OA 
ENDBRANCH   9  11
BRANCH  10  14
HETATM   14  C   UNL     1     -10.421   8.708  67.661  1.00  0.00    -0.244 C  
BRANCH  14  15
HETATM   15  C   UNL     1     -10.958   9.894  68.420  1.00  0.00    -0.235 A  
HETATM   16  C   UNL     1     -11.355  11.053  67.748  1.00  0.00    -0.365 A  
HETATM   17  C   UNL     1     -11.895  12.143  68.446  1.00  0.00    -0.360 A  
HETATM   18  C   UNL     1     -11.996  12.151  69.846  1.00  0.00    -0.380 A  
HETATM   19  C   UNL     1     -11.629  10.964  70.504  1.00  0.00    -0.397 A  
HETATM   20  C   UNL     1     -11.132   9.853  69.807  1.00  0.00    -0.294 A  
BRANCH  18  21
HETATM   21  C   UNL     1     -12.463  13.344  70.612  1.00  0.00    -0.385 A  
HETATM   22  C   UNL     1     -13.315  13.140  71.726  1.00  0.00    -0.477 A  
HETATM   23  C   UNL     1     -13.789  14.196  72.513  1.00  0.00    -0.590 A  
HETATM   24  C   UNL     1     -13.450  15.499  72.195  1.00  0.00    -0.587 A  
HETATM   25  C   UNL     1     -12.632  15.739  71.092  1.00  0.00    -0.487 A  
HETATM   26  C   UNL     1     -12.114  14.684  70.305  1.00  0.00    -0.380 A  
BRANCH  26  27
HETATM   27  C   UNL     1     -11.215  15.072  69.225  1.00  0.00    -0.286 A  
HETATM   28  N   UNL     1     -11.631  15.585  68.049  1.00  0.00    -0.317 NA 
HETATM   29  N   UNL     1     -10.455  15.762  67.437  1.00  0.00    -0.291 NA 
HETATM   30  N   UNL     1      -9.371  15.401  68.127  1.00  0.00    -0.195 NA 
HETATM   31  H   UNL     1     -10.390  16.151  66.496  1.00  0.00     0.000 HD 
HETATM   32  N   UNL     1      -9.844  14.980  69.292  1.00  0.00    -0.215 NA 
ENDBRANCH  26  27
ENDBRANCH  18  21
ENDBRANCH  14  15
ENDBRANCH  10  14
ENDBRANCH   4   5
ENDBRANCH   3   4
ENDBRANCH   2   3
TORSDOF 8
ENDMDL
MODEL       54
REMARK 921   NORMALIZED FREE ENERGY PREDICTED BY IDOCK:   -6.24 KCAL/MOL
REMARK 922        TOTAL FREE ENERGY PREDICTED BY IDOCK:  -10.18 KCAL/MOL
REMARK 923 INTER-LIGAND FREE ENERGY PREDICTED BY IDOCK:   -8.37 KCAL/MOL
REMARK 924 INTRA-LIGAND FREE ENERGY PREDICTED BY IDOCK:   -1.81 KCAL/MOL
REMARK 927      BINDING AFFINITY PREDICTED BY RF-SCORE:    0.00 PKD
ROOT
HETATM    1  C   UNL     1     -13.098   8.561  72.022  1.00  0.00    -0.403 C  
HETATM    2  C   UNL     1     -13.046   7.090  71.641  1.00  0.00    -0.384 C  
ENDROOT
BRANCH   2   3
HETATM    3  C   UNL     1     -11.968   6.816  70.586  1.00  0.00    -0.418 C  
BRANCH   3   4
HETATM    4  C   UNL     1     -10.861   5.868  71.061  1.00  0.00    -0.339 C  
BRANCH   4   5
HETATM    5  C   UNL     1      -9.688   6.579  71.662  1.00  0.00    -0.163 A  
HETATM    6  N   UNL     1      -9.718   7.106  72.870  1.00  0.00    -0.156 NA 
HETATM    7  C   UNL     1      -8.490   7.652  73.088  1.00  0.00    -0.146 A  
HETATM    8 CL   UNL     1      -8.101   8.447  74.541  1.00  0.00    -0.253 Cl 
HETATM    9  C   UNL     1      -7.677   7.492  71.983  1.00  0.00    -0.089 A  
HETATM   10  N   UNL     1      -8.463   6.819  71.056  1.00  0.00    -0.131 NA 
BRANCH   9  11
HETATM   11  C   UNL     1      -6.290   7.957  71.777  1.00  0.00    -0.040 C  
HETATM   12  H   UNL     1      -5.369   9.644  71.921  1.00  0.00     0.000 HD 
HETATM   13  O   UNL     1      -6.262   9.346  72.054  1.00  0.00    -0.268 OA 
ENDBRANCH   9  11
BRANCH  10  14
HETATM   14  C   UNL     1      -8.152   6.633  69.640  1.00  0.00    -0.126 C  
BRANCH  14  15
HETATM   15  C   UNL     1      -8.733   7.680  68.724  1.00  0.00    -0.128 A  
HETATM   16  C   UNL     1      -8.154   8.948  68.630  1.00  0.00    -0.111 A  
HETATM   17  C   UNL     1      -8.665   9.910  67.747  1.00  0.00    -0.129 A  
HETATM   18  C   UNL     1      -9.814   9.674  66.976  1.00  0.00    -0.249 A  
HETATM   19  C   UNL     1     -10.362   8.381  67.053  1.00  0.00    -0.385 A  
HETATM   20  C   UNL     1      -9.827   7.399  67.899  1.00  0.00    -0.177 A  
BRANCH  18  21
HETATM   21  C   UNL     1     -10.436  10.724  66.117  1.00  0.00    -0.278 A  
HETATM   22  C   UNL     1     -10.292  10.620  64.711  1.00  0.00    -0.353 A  
HETATM   23  C   UNL     1     -10.853  11.547  63.826  1.00  0.00    -0.486 A  
HETATM   24  C   UNL     1     -11.558  12.631  64.319  1.00  0.00    -0.435 A  
HETATM   25  C   UNL     1     -11.701  12.778  65.697  1.00  0.00    -0.443 A  
HETATM   26  C   UNL     1     -11.171  11.834  66.607  1.00  0.00    -0.383 A  
BRANCH  26  27
HETATM   27  C   UNL     1     -11.455  12.073  68.018  1.00  0.00    -0.328 A  
HETATM   28  N   UNL     1     -10.961  13.114  68.716  1.00  0.00    -0.258 NA 
HETATM   29  N   UNL     1     -11.505  12.877  69.916  1.00  0.00    -0.515 NA 
HETATM   30  N   UNL     1     -12.275  11.790  70.007  1.00  0.00    -0.271 NA 
HETATM   31  H   UNL     1     -11.342  13.491  70.714  1.00  0.00     0.000 HD 
HETATM   32  N   UNL     1     -12.274  11.277  68.784  1.00  0.00    -0.525 NA 
ENDBRANCH  26  27
ENDBRANCH  18  21
ENDBRANCH  14  15
ENDBRANCH  10  14
ENDBRANCH   4   5
ENDBRANCH   3   4
ENDBRANCH   2   3
TORSDOF 8
ENDMDL
MODEL       55
REMARK 921   NORMALIZED FREE ENERGY PREDICTED BY IDOCK:   -6.23 KCAL/MOL
REMARK 922        TOTAL FREE ENERGY PREDICTED BY IDOCK:  -10.17 KCAL/MOL
REMARK 923 INTER-LIGAND FREE ENERGY PREDICTED BY IDOCK:   -9.11 KCAL/MOL
REMARK 924 INTRA-LIGAND FREE ENERGY PREDICTED BY IDOCK:   -1.06 KCAL/MOL
REMARK 927      BINDING AFFINITY PREDICTED BY RF-SCORE:    0.00 PKD
ROOT
HETATM    1  C   UNL     1      -5.387  20.989  69.448  1.00  0.00    -0.376 C  
HETATM    2  C   UNL     1      -6.162  19.883  70.146  1.00  0.00    -0.376 C  
ENDROOT
BRANCH   2   3
HETATM    3  C   UNL     1      -5.769  18.498  69.621  1.00  0.00    -0.243 C  
BRANCH   3   4
HETATM    4  C   UNL     1      -6.905  17.762  68.901  1.00  0.00    -0.240 C  
BRANCH   4   5
HETATM    5  C   UNL     1      -7.437  18.506  67.715  1.00  0.00    -0.230 A  
HETATM    6  N   UNL     1      -6.661  18.944  66.743  1.00  0.00    -0.190 NA 
HETATM    7  C   UNL     1      -7.476  19.555  65.840  1.00  0.00    -0.300 A  
HETATM    8 CL   UNL     1      -6.871  20.270  64.419  1.00  0.00    -0.061 Cl 
HETATM    9  C   UNL     1      -8.789  19.529  66.264  1.00  0.00    -0.361 A  
HETATM   10  N   UNL     1      -8.756  18.871  67.487  1.00  0.00    -0.273 NA 
BRANCH   9  11
HETATM   11  C   UNL     1      -9.987  20.100  65.613  1.00  0.00    -0.123 C  
HETATM   12  H   UNL     1     -11.604  19.388  64.843  1.00  0.00     0.000 HD 
HETATM   13  O   UNL     1     -10.834  19.020  65.261  1.00  0.00    -0.540 OA 
ENDBRANCH   9  11
BRANCH  10  14
HETATM   14  C   UNL     1      -9.847  18.807  68.458  1.00  0.00    -0.396 C  
BRANCH  14  15
HETATM   15  C   UNL     1     -10.313  17.414  68.793  1.00  0.00    -0.357 A  
HETATM   16  C   UNL     1     -10.338  16.967  70.117  1.00  0.00     0.384 A  
HETATM   17  C   UNL     1     -10.812  15.687  70.437  1.00  0.00    -0.358 A  
HETATM   18  C   UNL     1     -11.213  14.775  69.448  1.00  0.00    -0.308 A  
HETATM   19  C   UNL     1     -11.219  15.253  68.126  1.00  0.00    -0.328 A  
HETATM   20  C   UNL     1     -10.791  16.549  67.804  1.00  0.00    -0.304 A  
BRANCH  18  21
HETATM   21  C   UNL     1     -11.614  13.372  69.763  1.00  0.00    -0.305 A  
HETATM   22  C   UNL     1     -11.099  12.326  68.957  1.00  0.00    -0.289 A  
HETATM   23  C   UNL     1     -11.406  10.980  69.186  1.00  0.00    -0.348 A  
HETATM   24  C   UNL     1     -12.263  10.634  70.216  1.00  0.00    -0.417 A  
HETATM   25  C   UNL     1     -12.806  11.638  71.015  1.00  0.00    -0.339 A  
HETATM   26  C   UNL     1     -12.482  13.001  70.822  1.00  0.00    -0.384 A  
BRANCH  26  27
HETATM   27  C   UNL     1     -13.064  13.941  71.773  1.00  0.00    -0.377 A  
HETATM   28  N   UNL     1     -12.667  14.052  73.056  1.00  0.00    -0.243 NA 
HETATM   29  N   UNL     1     -13.489  15.020  73.477  1.00  0.00    -0.541 NA 
HETATM   30  N   UNL     1     -14.346  15.499  72.573  1.00  0.00    -0.436 NA 
HETATM   31  H   UNL     1     -13.462  15.373  74.434  1.00  0.00     0.000 HD 
HETATM   32  N   UNL     1     -14.065  14.831  71.463  1.00  0.00    -0.452 NA 
ENDBRANCH  26  27
ENDBRANCH  18  21
ENDBRANCH  14  15
ENDBRANCH  10  14
ENDBRANCH   4   5
ENDBRANCH   3   4
ENDBRANCH   2   3
TORSDOF 8
ENDMDL
MODEL       56
REMARK 921   NORMALIZED FREE ENERGY PREDICTED BY IDOCK:   -6.22 KCAL/MOL
REMARK 922        TOTAL FREE ENERGY PREDICTED BY IDOCK:  -10.15 KCAL/MOL
REMARK 923 INTER-LIGAND FREE ENERGY PREDICTED BY IDOCK:   -7.95 KCAL/MOL
REMARK 924 INTRA-LIGAND FREE ENERGY PREDICTED BY IDOCK:   -2.20 KCAL/MOL
REMARK 927      BINDING AFFINITY PREDICTED BY RF-SCORE:    0.00 PKD
ROOT
HETATM    1  C   UNL     1     -10.097   9.093  71.159  1.00  0.00    -0.384 C  
HETATM    2  C   UNL     1     -11.433   8.370  71.209  1.00  0.00    -0.325 C  
ENDROOT
BRANCH   2   3
HETATM    3  C   UNL     1     -11.293   6.895  70.819  1.00  0.00    -0.355 C  
BRANCH   3   4
HETATM    4  C   UNL     1      -9.886   6.326  71.034  1.00  0.00    -0.206 C  
BRANCH   4   5
HETATM    5  C   UNL     1      -9.514   5.271  70.038  1.00  0.00    -0.160 A  
HETATM    6  N   UNL     1      -9.894   4.014  70.158  1.00  0.00    -0.194 NA 
HETATM    7  C   UNL     1      -9.390   3.351  69.081  1.00  0.00    -0.167 A  
HETATM    8 CL   UNL     1      -9.647   1.685  68.847  1.00  0.00    -0.183 Cl 
HETATM    9  C   UNL     1      -8.652   4.199  68.280  1.00  0.00    -0.095 A  
HETATM   10  N   UNL     1      -8.715   5.433  68.915  1.00  0.00    -0.098 NA 
BRANCH   9  11
HETATM   11  C   UNL     1      -7.909   3.893  67.040  1.00  0.00    -0.084 C  
HETATM   12  H   UNL     1      -8.170   4.236  65.162  1.00  0.00     0.000 HD 
HETATM   13  O   UNL     1      -8.648   4.432  65.959  1.00  0.00    -0.113 OA 
ENDBRANCH   9  11
BRANCH  10  14
HETATM   14  C   UNL     1      -7.894   6.602  68.605  1.00  0.00    -0.114 C  
BRANCH  14  15
HETATM   15  C   UNL     1      -8.639   7.746  67.967  1.00  0.00    -0.123 A  
HETATM   16  C   UNL     1      -9.949   7.580  67.510  1.00  0.00    -0.228 A  
HETATM   17  C   UNL     1     -10.660   8.653  66.955  1.00  0.00    -0.293 A  
HETATM   18  C   UNL     1     -10.074   9.915  66.768  1.00  0.00    -0.292 A  
HETATM   19  C   UNL     1      -8.770  10.077  67.268  1.00  0.00    -0.127 A  
HETATM   20  C   UNL     1      -8.070   9.019  67.867  1.00  0.00    -0.106 A  
BRANCH  18  21
HETATM   21  C   UNL     1     -10.780  11.035  66.078  1.00  0.00    -0.242 A  
HETATM   22  C   UNL     1     -10.761  11.074  64.661  1.00  0.00    -0.318 A  
HETATM   23  C   UNL     1     -11.408  12.076  63.928  1.00  0.00    -0.503 A  
HETATM   24  C   UNL     1     -12.075  13.092  64.589  1.00  0.00    -0.462 A  
HETATM   25  C   UNL     1     -12.095  13.098  65.983  1.00  0.00    -0.495 A  
HETATM   26  C   UNL     1     -11.477  12.077  66.742  1.00  0.00    -0.410 A  
BRANCH  26  27
HETATM   27  C   UNL     1     -11.634  12.168  68.188  1.00  0.00    -0.337 A  
HETATM   28  N   UNL     1     -11.093  13.146  68.942  1.00  0.00    -0.264 NA 
HETATM   29  N   UNL     1     -11.524  12.778  70.155  1.00  0.00    -0.519 NA 
HETATM   30  N   UNL     1     -12.267  11.671  70.204  1.00  0.00    -0.306 NA 
HETATM   31  H   UNL     1     -11.297  13.313  70.993  1.00  0.00     0.000 HD 
HETATM   32  N   UNL     1     -12.370  11.282  68.941  1.00  0.00    -0.444 NA 
ENDBRANCH  26  27
ENDBRANCH  18  21
ENDBRANCH  14  15
ENDBRANCH  10  14
ENDBRANCH   4   5
ENDBRANCH   3   4
ENDBRANCH   2   3
TORSDOF 8
ENDMDL
MODEL       57
REMARK 921   NORMALIZED FREE ENERGY PREDICTED BY IDOCK:   -6.18 KCAL/MOL
REMARK 922        TOTAL FREE ENERGY PREDICTED BY IDOCK:  -10.10 KCAL/MOL
REMARK 923 INTER-LIGAND FREE ENERGY PREDICTED BY IDOCK:   -8.73 KCAL/MOL
REMARK 924 INTRA-LIGAND FREE ENERGY PREDICTED BY IDOCK:   -1.37 KCAL/MOL
REMARK 927      BINDING AFFINITY PREDICTED BY RF-SCORE:    0.00 PKD
ROOT
HETATM    1  C   UNL     1      -9.603   3.736  66.625  1.00  0.00    -0.197 C  
HETATM    2  C   UNL     1     -10.143   4.877  65.778  1.00  0.00    -0.195 C  
ENDROOT
BRANCH   2   3
HETATM    3  C   UNL     1     -10.901   5.903  66.627  1.00  0.00    -0.292 C  
BRANCH   3   4
HETATM    4  C   UNL     1     -10.112   7.189  66.899  1.00  0.00    -0.308 C  
BRANCH   4   5
HETATM    5  C   UNL     1      -9.405   7.183  68.219  1.00  0.00    -0.130 A  
HETATM    6  N   UNL     1      -8.435   6.336  68.503  1.00  0.00    -0.115 NA 
HETATM    7  C   UNL     1      -8.024   6.626  69.768  1.00  0.00    -0.120 A  
HETATM    8 CL   UNL     1      -6.776   5.756  70.531  1.00  0.00    -0.046 Cl 
HETATM    9  C   UNL     1      -8.769   7.656  70.305  1.00  0.00    -0.144 A  
HETATM   10  N   UNL     1      -9.675   7.998  69.309  1.00  0.00    -0.165 NA 
BRANCH   9  11
HETATM   11  C   UNL     1      -8.682   8.262  71.650  1.00  0.00    -0.163 C  
HETATM   12  H   UNL     1      -7.587   9.613  72.481  1.00  0.00     0.000 HD 
HETATM   13  O   UNL     1      -7.642   9.223  71.616  1.00  0.00    -0.338 OA 
ENDBRANCH   9  11
BRANCH  10  14
HETATM   14  C   UNL     1     -10.845   8.859  69.471  1.00  0.00    -0.153 C  
BRANCH  14  15
HETATM   15  C   UNL     1     -10.737  10.204  68.800  1.00  0.00    -0.247 A  
HETATM   16  C   UNL     1     -11.821  11.085  68.784  1.00  0.00    -0.352 A  
HETATM   17  C   UNL     1     -11.711  12.354  68.199  1.00  0.00    -0.408 A  
HETATM   18  C   UNL     1     -10.542  12.770  67.543  1.00  0.00    -0.240 A  
HETATM   19  C   UNL     1      -9.448  11.889  67.601  1.00  0.00    -0.182 A  
HETATM   20  C   UNL     1      -9.537  10.637  68.226  1.00  0.00    -0.167 A  
BRANCH  18  21
HETATM   21  C   UNL     1     -10.446  14.072  66.819  1.00  0.00    -0.277 A  
HETATM   22  C   UNL     1      -9.851  15.173  67.483  1.00  0.00    -0.220 A  
HETATM   23  C   UNL     1      -9.702  16.426  66.878  1.00  0.00    -0.260 A  
HETATM   24  C   UNL     1     -10.170  16.630  65.593  1.00  0.00    -0.285 A  
HETATM   25  C   UNL     1     -10.782  15.576  64.916  1.00  0.00    -0.415 A  
HETATM   26  C   UNL     1     -10.911  14.293  65.496  1.00  0.00    -0.325 A  
BRANCH  26  27
HETATM   27  C   UNL     1     -11.506  13.263  64.652  1.00  0.00    -0.342 A  
HETATM   28  N   UNL     1     -10.789  12.385  63.923  1.00  0.00    -0.383 NA 
HETATM   29  N   UNL     1     -11.778  11.685  63.354  1.00  0.00    -0.798 NA 
HETATM   30  N   UNL     1     -13.020  12.060  63.667  1.00  0.00    -0.744 NA 
HETATM   31  H   UNL     1     -11.593  10.909  62.719  1.00  0.00     0.000 HD 
HETATM   32  N   UNL     1     -12.860  13.059  64.524  1.00  0.00    -0.719 NA 
ENDBRANCH  26  27
ENDBRANCH  18  21
ENDBRANCH  14  15
ENDBRANCH  10  14
ENDBRANCH   4   5
ENDBRANCH   3   4
ENDBRANCH   2   3
TORSDOF 8
ENDMDL
MODEL       58
REMARK 921   NORMALIZED FREE ENERGY PREDICTED BY IDOCK:   -6.18 KCAL/MOL
REMARK 922        TOTAL FREE ENERGY PREDICTED BY IDOCK:  -10.10 KCAL/MOL
REMARK 923 INTER-LIGAND FREE ENERGY PREDICTED BY IDOCK:   -8.34 KCAL/MOL
REMARK 924 INTRA-LIGAND FREE ENERGY PREDICTED BY IDOCK:   -1.76 KCAL/MOL
REMARK 927      BINDING AFFINITY PREDICTED BY RF-SCORE:    0.00 PKD
ROOT
HETATM    1  C   UNL     1      -9.676   9.770  65.297  1.00  0.00    -0.371 C  
HETATM    2  C   UNL     1      -9.924  10.984  64.418  1.00  0.00    -0.368 C  
ENDROOT
BRANCH   2   3
HETATM    3  C   UNL     1     -10.241  12.231  65.250  1.00  0.00    -0.305 C  
BRANCH   3   4
HETATM    4  C   UNL     1     -11.683  12.282  65.769  1.00  0.00    -0.445 C  
BRANCH   4   5
HETATM    5  C   UNL     1     -11.779  12.218  67.262  1.00  0.00    -0.324 A  
HETATM    6  N   UNL     1     -11.726  11.082  67.931  1.00  0.00    -0.592 NA 
HETATM    7  C   UNL     1     -11.831  11.402  69.250  1.00  0.00    -0.349 A  
HETATM    8 CL   UNL     1     -11.810  10.215  70.469  1.00  0.00    -0.380 Cl 
HETATM    9  C   UNL     1     -11.984  12.764  69.417  1.00  0.00    -0.263 A  
HETATM   10  N   UNL     1     -11.974  13.284  68.129  1.00  0.00    -0.339 NA 
BRANCH   9  11
HETATM   11  C   UNL     1     -12.166  13.532  70.666  1.00  0.00    -0.358 C  
HETATM   12  H   UNL     1     -13.484  13.579  72.071  1.00  0.00     0.000 HD 
HETATM   13  O   UNL     1     -13.368  13.085  71.268  1.00  0.00    -0.187 OA 
ENDBRANCH   9  11
BRANCH  10  14
HETATM   14  C   UNL     1     -12.352  14.644  67.748  1.00  0.00     0.135 C  
BRANCH  14  15
HETATM   15  C   UNL     1     -11.212  15.628  67.706  1.00  0.00    -0.297 A  
HETATM   16  C   UNL     1     -10.943  16.458  68.798  1.00  0.00    -0.344 A  
HETATM   17  C   UNL     1      -9.857  17.345  68.780  1.00  0.00    -0.311 A  
HETATM   18  C   UNL     1      -9.039  17.493  67.650  1.00  0.00    -0.243 A  
HETATM   19  C   UNL     1      -9.298  16.624  66.575  1.00  0.00    -0.290 A  
HETATM   20  C   UNL     1     -10.354  15.702  66.605  1.00  0.00    -0.290 A  
BRANCH  18  21
HETATM   21  C   UNL     1      -7.949  18.510  67.573  1.00  0.00    -0.245 A  
HETATM   22  C   UNL     1      -8.289  19.838  67.214  1.00  0.00    -0.351 A  
HETATM   23  C   UNL     1      -7.338  20.862  67.132  1.00  0.00    -0.369 A  
HETATM   24  C   UNL     1      -6.006  20.587  67.382  1.00  0.00    -0.252 A  
HETATM   25  C   UNL     1      -5.631  19.286  67.716  1.00  0.00    -0.185 A  
HETATM   26  C   UNL     1      -6.581  18.245  67.837  1.00  0.00    -0.203 A  
BRANCH  26  27
HETATM   27  C   UNL     1      -6.063  16.950  68.263  1.00  0.00    -0.133 A  
HETATM   28  N   UNL     1      -5.488  16.061  67.428  1.00  0.00    -0.286 NA 
HETATM   29  N   UNL     1      -5.198  15.078  68.288  1.00  0.00    -0.107 NA 
HETATM   30  N   UNL     1      -5.547  15.288  69.560  1.00  0.00    -0.096 NA 
HETATM   31  H   UNL     1      -4.737  14.219  67.990  1.00  0.00     0.000 HD 
HETATM   32  N   UNL     1      -6.080  16.502  69.563  1.00  0.00    -0.187 NA 
ENDBRANCH  26  27
ENDBRANCH  18  21
ENDBRANCH  14  15
ENDBRANCH  10  14
ENDBRANCH   4   5
ENDBRANCH   3   4
ENDBRANCH   2   3
TORSDOF 8
ENDMDL
MODEL       59
REMARK 921   NORMALIZED FREE ENERGY PREDICTED BY IDOCK:   -6.18 KCAL/MOL
REMARK 922        TOTAL FREE ENERGY PREDICTED BY IDOCK:  -10.09 KCAL/MOL
REMARK 923 INTER-LIGAND FREE ENERGY PREDICTED BY IDOCK:   -8.42 KCAL/MOL
REMARK 924 INTRA-LIGAND FREE ENERGY PREDICTED BY IDOCK:   -1.67 KCAL/MOL
REMARK 927      BINDING AFFINITY PREDICTED BY RF-SCORE:    0.00 PKD
ROOT
HETATM    1  C   UNL     1      -6.351  12.008  69.461  1.00  0.00    -0.123 C  
HETATM    2  C   UNL     1      -7.397  11.197  68.714  1.00  0.00    -0.114 C  
ENDROOT
BRANCH   2   3
HETATM    3  C   UNL     1      -7.744  11.829  67.362  1.00  0.00    -0.151 C  
BRANCH   3   4
HETATM    4  C   UNL     1      -7.601  10.871  66.174  1.00  0.00    -0.119 C  
BRANCH   4   5
HETATM    5  C   UNL     1      -8.160   9.507  66.440  1.00  0.00    -0.111 A  
HETATM    6  N   UNL     1      -7.399   8.435  66.549  1.00  0.00    -0.080 NA 
HETATM    7  C   UNL     1      -8.234   7.390  66.799  1.00  0.00    -0.121 A  
HETATM    8 CL   UNL     1      -7.655   5.803  67.008  1.00  0.00    -0.098 Cl 
HETATM    9  C   UNL     1      -9.551   7.804  66.818  1.00  0.00    -0.212 A  
HETATM   10  N   UNL     1      -9.500   9.168  66.562  1.00  0.00    -0.189 NA 
BRANCH   9  11
HETATM   11  C   UNL     1     -10.774   7.000  67.019  1.00  0.00    -0.353 C  
HETATM   12  H   UNL     1     -11.560   6.038  68.493  1.00  0.00     0.000 HD 
HETATM   13  O   UNL     1     -10.773   6.555  68.364  1.00  0.00    -0.225 OA 
ENDBRANCH   9  11
BRANCH  10  14
HETATM   14  C   UNL     1     -10.638  10.023  66.230  1.00  0.00    -0.044 C  
BRANCH  14  15
HETATM   15  C   UNL     1     -11.058  10.969  67.325  1.00  0.00    -0.359 A  
HETATM   16  C   UNL     1     -11.464  12.272  67.028  1.00  0.00    -0.419 A  
HETATM   17  C   UNL     1     -11.897  13.142  68.039  1.00  0.00    -0.398 A  
HETATM   18  C   UNL     1     -11.877  12.773  69.393  1.00  0.00    -0.359 A  
HETATM   19  C   UNL     1     -11.503  11.446  69.673  1.00  0.00    -0.380 A  
HETATM   20  C   UNL     1     -11.114  10.558  68.660  1.00  0.00    -0.319 A  
BRANCH  18  21
HETATM   21  C   UNL     1     -12.228  13.722  70.491  1.00  0.00    -0.440 A  
HETATM   22  C   UNL     1     -13.089  13.273  71.523  1.00  0.00    -0.414 A  
HETATM   23  C   UNL     1     -13.460  14.086  72.600  1.00  0.00    -0.650 A  
HETATM   24  C   UNL     1     -13.003  15.390  72.668  1.00  0.00    -0.521 A  
HETATM   25  C   UNL     1     -12.172  15.873  71.659  1.00  0.00    -0.544 A  
HETATM   26  C   UNL     1     -11.758  15.058  70.580  1.00  0.00    -0.357 A  
BRANCH  26  27
HETATM   27  C   UNL     1     -10.832  15.668  69.633  1.00  0.00    -0.287 A  
HETATM   28  N   UNL     1     -11.194  16.591  68.719  1.00  0.00    -0.315 NA 
HETATM   29  N   UNL     1     -10.015  16.814  68.126  1.00  0.00    -0.260 NA 
HETATM   30  N   UNL     1      -8.980  16.111  68.592  1.00  0.00    -0.210 NA 
HETATM   31  H   UNL     1      -9.913  17.482  67.363  1.00  0.00     0.000 HD 
HETATM   32  N   UNL     1      -9.487  15.388  69.581  1.00  0.00    -0.254 NA 
ENDBRANCH  26  27
ENDBRANCH  18  21
ENDBRANCH  14  15
ENDBRANCH  10  14
ENDBRANCH   4   5
ENDBRANCH   3   4
ENDBRANCH   2   3
TORSDOF 8
ENDMDL
MODEL       60
REMARK 921   NORMALIZED FREE ENERGY PREDICTED BY IDOCK:   -6.14 KCAL/MOL
REMARK 922        TOTAL FREE ENERGY PREDICTED BY IDOCK:  -10.04 KCAL/MOL
REMARK 923 INTER-LIGAND FREE ENERGY PREDICTED BY IDOCK:   -8.18 KCAL/MOL
REMARK 924 INTRA-LIGAND FREE ENERGY PREDICTED BY IDOCK:   -1.85 KCAL/MOL
REMARK 927      BINDING AFFINITY PREDICTED BY RF-SCORE:    0.00 PKD
ROOT
HETATM    1  C   UNL     1      -8.231   7.298  66.328  1.00  0.00    -0.123 C  
HETATM    2  C   UNL     1      -9.688   7.680  66.528  1.00  0.00    -0.251 C  
ENDROOT
BRANCH   2   3
HETATM    3  C   UNL     1     -10.560   6.455  66.826  1.00  0.00    -0.328 C  
BRANCH   3   4
HETATM    4  C   UNL     1     -11.352   6.561  68.135  1.00  0.00    -0.105 C  
BRANCH   4   5
HETATM    5  C   UNL     1     -10.484   6.746  69.341  1.00  0.00    -0.217 A  
HETATM    6  N   UNL     1      -9.597   5.848  69.725  1.00  0.00    -0.150 NA 
HETATM    7  C   UNL     1      -8.991   6.350  70.835  1.00  0.00    -0.144 A  
HETATM    8 CL   UNL     1      -7.772   5.496  71.660  1.00  0.00    -0.104 Cl 
HETATM    9  C   UNL     1      -9.525   7.576  71.178  1.00  0.00    -0.158 A  
HETATM   10  N   UNL     1     -10.505   7.817  70.223  1.00  0.00    -0.220 NA 
BRANCH   9  11
HETATM   11  C   UNL     1      -9.188   8.449  72.321  1.00  0.00    -0.259 C  
HETATM   12  H   UNL     1      -9.814   8.643  74.134  1.00  0.00     0.000 HD 
HETATM   13  O   UNL     1     -10.032   8.081  73.398  1.00  0.00    -0.289 OA 
ENDBRANCH   9  11
BRANCH  10  14
HETATM   14  C   UNL     1     -11.528   8.860  70.286  1.00  0.00    -0.105 C  
BRANCH  14  15
HETATM   15  C   UNL     1     -11.184  10.126  69.544  1.00  0.00    -0.288 A  
HETATM   16  C   UNL     1     -12.100  11.179  69.466  1.00  0.00    -0.396 A  
HETATM   17  C   UNL     1     -11.768  12.375  68.814  1.00  0.00    -0.379 A  
HETATM   18  C   UNL     1     -10.541  12.546  68.154  1.00  0.00    -0.239 A  
HETATM   19  C   UNL     1      -9.617  11.493  68.275  1.00  0.00    -0.189 A  
HETATM   20  C   UNL     1      -9.925  10.312  68.966  1.00  0.00    -0.223 A  
BRANCH  18  21
HETATM   21  C   UNL     1     -10.217  13.769  67.362  1.00  0.00    -0.252 A  
HETATM   22  C   UNL     1      -9.408  14.766  67.960  1.00  0.00    -0.196 A  
HETATM   23  C   UNL     1      -9.039  15.938  67.289  1.00  0.00    -0.218 A  
HETATM   24  C   UNL     1      -9.491  16.166  66.001  1.00  0.00    -0.374 A  
HETATM   25  C   UNL     1     -10.307  15.216  65.389  1.00  0.00    -0.415 A  
HETATM   26  C   UNL     1     -10.663  14.011  66.037  1.00  0.00    -0.294 A  
BRANCH  26  27
HETATM   27  C   UNL     1     -11.463  13.074  65.256  1.00  0.00    -0.309 A  
HETATM   28  N   UNL     1     -10.940  12.076  64.517  1.00  0.00    -0.303 NA 
HETATM   29  N   UNL     1     -12.060  11.534  64.022  1.00  0.00    -0.262 NA 
HETATM   30  N   UNL     1     -13.205  12.113  64.388  1.00  0.00    -0.681 NA 
HETATM   31  H   UNL     1     -12.038  10.725  63.400  1.00  0.00     0.000 HD 
HETATM   32  N   UNL     1     -12.838  13.090  65.205  1.00  0.00    -0.713 NA 
ENDBRANCH  26  27
ENDBRANCH  18  21
ENDBRANCH  14  15
ENDBRANCH  10  14
ENDBRANCH   4   5
ENDBRANCH   3   4
ENDBRANCH   2   3
TORSDOF 8
ENDMDL
MODEL       61
REMARK 921   NORMALIZED FREE ENERGY PREDICTED BY IDOCK:   -6.13 KCAL/MOL
REMARK 922        TOTAL FREE ENERGY PREDICTED BY IDOCK:  -10.03 KCAL/MOL
REMARK 923 INTER-LIGAND FREE ENERGY PREDICTED BY IDOCK:   -8.13 KCAL/MOL
REMARK 924 INTRA-LIGAND FREE ENERGY PREDICTED BY IDOCK:   -1.90 KCAL/MOL
REMARK 927      BINDING AFFINITY PREDICTED BY RF-SCORE:    0.00 PKD
ROOT
HETATM    1  C   UNL     1      -9.332   7.560  66.528  1.00  0.00    -0.231 C  
HETATM    2  C   UNL     1     -10.780   7.388  66.956  1.00  0.00    -0.389 C  
ENDROOT
BRANCH   2   3
HETATM    3  C   UNL     1     -10.936   6.268  67.990  1.00  0.00    -0.418 C  
BRANCH   3   4
HETATM    4  C   UNL     1     -11.041   6.766  69.436  1.00  0.00    -0.310 C  
BRANCH   4   5
HETATM    5  C   UNL     1      -9.710   6.977  70.089  1.00  0.00    -0.175 A  
HETATM    6  N   UNL     1      -8.799   6.027  70.172  1.00  0.00    -0.142 NA 
HETATM    7  C   UNL     1      -7.726   6.570  70.809  1.00  0.00    -0.101 A  
HETATM    8 CL   UNL     1      -6.317   5.671  71.126  1.00  0.00    -0.034 Cl 
HETATM    9  C   UNL     1      -7.975   7.881  71.163  1.00  0.00    -0.091 A  
HETATM   10  N   UNL     1      -9.266   8.132  70.716  1.00  0.00    -0.148 NA 
BRANCH   9  11
HETATM   11  C   UNL     1      -7.104   8.827  71.892  1.00  0.00    -0.030 C  
HETATM   12  H   UNL     1      -6.839   9.304  73.740  1.00  0.00     0.000 HD 
HETATM   13  O   UNL     1      -7.399   8.696  73.271  1.00  0.00    -0.339 OA 
ENDBRANCH   9  11
BRANCH  10  14
HETATM   14  C   UNL     1     -10.086   9.290  71.067  1.00  0.00    -0.303 C  
BRANCH  14  15
HETATM   15  C   UNL     1     -10.404  10.210  69.917  1.00  0.00    -0.308 A  
HETATM   16  C   UNL     1     -11.591  10.947  69.897  1.00  0.00    -0.410 A  
HETATM   17  C   UNL     1     -11.871  11.837  68.850  1.00  0.00    -0.381 A  
HETATM   18  C   UNL     1     -11.015  11.977  67.747  1.00  0.00    -0.279 A  
HETATM   19  C   UNL     1      -9.807  11.259  67.800  1.00  0.00    -0.186 A  
HETATM   20  C   UNL     1      -9.500  10.403  68.868  1.00  0.00    -0.190 A  
BRANCH  18  21
HETATM   21  C   UNL     1     -11.350  12.834  66.572  1.00  0.00    -0.369 A  
HETATM   22  C   UNL     1     -11.919  12.221  65.428  1.00  0.00    -0.395 A  
HETATM   23  C   UNL     1     -12.281  12.946  64.287  1.00  0.00    -0.481 A  
HETATM   24  C   UNL     1     -12.061  14.311  64.240  1.00  0.00    -0.467 A  
HETATM   25  C   UNL     1     -11.482  14.945  65.338  1.00  0.00    -0.320 A  
HETATM   26  C   UNL     1     -11.141  14.237  66.513  1.00  0.00    -0.323 A  
BRANCH  26  27
HETATM   27  C   UNL     1     -10.609  15.034  67.612  1.00  0.00    -0.267 A  
HETATM   28  N   UNL     1     -11.331  15.944  68.296  1.00  0.00    -0.356 NA 
HETATM   29  N   UNL     1     -10.409  16.376  69.165  1.00  0.00    -0.269 NA 
HETATM   30  N   UNL     1      -9.200  15.817  69.066  1.00  0.00    -0.226 NA 
HETATM   31  H   UNL     1     -10.617  17.091  69.862  1.00  0.00     0.000 HD 
HETATM   32  N   UNL     1      -9.323  14.931  68.088  1.00  0.00    -0.189 NA 
ENDBRANCH  26  27
ENDBRANCH  18  21
ENDBRANCH  14  15
ENDBRANCH  10  14
ENDBRANCH   4   5
ENDBRANCH   3   4
ENDBRANCH   2   3
TORSDOF 8
ENDMDL
MODEL       62
REMARK 921   NORMALIZED FREE ENERGY PREDICTED BY IDOCK:   -6.10 KCAL/MOL
REMARK 922        TOTAL FREE ENERGY PREDICTED BY IDOCK:   -9.99 KCAL/MOL
REMARK 923 INTER-LIGAND FREE ENERGY PREDICTED BY IDOCK:   -8.30 KCAL/MOL
REMARK 924 INTRA-LIGAND FREE ENERGY PREDICTED BY IDOCK:   -1.68 KCAL/MOL
REMARK 927      BINDING AFFINITY PREDICTED BY RF-SCORE:    0.00 PKD
ROOT
HETATM    1  C   UNL     1     -13.752  13.497  72.455  1.00  0.00    -0.704 C  
HETATM    2  C   UNL     1     -13.312  12.098  72.059  1.00  0.00    -0.470 C  
ENDROOT
BRANCH   2   3
HETATM    3  C   UNL     1     -12.393  12.118  70.833  1.00  0.00    -0.370 C  
BRANCH   3   4
HETATM    4  C   UNL     1     -12.464  10.845  69.982  1.00  0.00    -0.332 C  
BRANCH   4   5
HETATM    5  C   UNL     1     -11.320   9.907  70.219  1.00  0.00    -0.291 A  
HETATM    6  N   UNL     1     -10.982   9.487  71.422  1.00  0.00    -0.365 NA 
HETATM    7  C   UNL     1      -9.921   8.650  71.259  1.00  0.00    -0.246 A  
HETATM    8 CL   UNL     1      -9.166   7.884  72.577  1.00  0.00    -0.226 Cl 
HETATM    9  C   UNL     1      -9.563   8.562  69.928  1.00  0.00    -0.171 A  
HETATM   10  N   UNL     1     -10.455   9.394  69.263  1.00  0.00    -0.213 NA 
BRANCH   9  11
HETATM   11  C   UNL     1      -8.457   7.799  69.313  1.00  0.00    -0.138 C  
HETATM   12  H   UNL     1      -6.622   8.167  68.855  1.00  0.00     0.000 HD 
HETATM   13  O   UNL     1      -7.333   8.658  69.251  1.00  0.00    -0.071 OA 
ENDBRANCH   9  11
BRANCH  10  14
HETATM   14  C   UNL     1     -10.341   9.843  67.877  1.00  0.00    -0.212 C  
BRANCH  14  15
HETATM   15  C   UNL     1     -10.063  11.315  67.711  1.00  0.00    -0.199 A  
HETATM   16  C   UNL     1      -8.994  11.920  68.375  1.00  0.00    -0.163 A  
HETATM   17  C   UNL     1      -8.706  13.280  68.190  1.00  0.00    -0.179 A  
HETATM   18  C   UNL     1      -9.512  14.107  67.392  1.00  0.00    -0.220 A  
HETATM   19  C   UNL     1     -10.560  13.476  66.699  1.00  0.00    -0.280 A  
HETATM   20  C   UNL     1     -10.824  12.106  66.844  1.00  0.00    -0.291 A  
BRANCH  18  21
HETATM   21  C   UNL     1      -9.286  15.578  67.273  1.00  0.00    -0.220 A  
HETATM   22  C   UNL     1      -8.348  16.042  66.317  1.00  0.00    -0.287 A  
HETATM   23  C   UNL     1      -8.082  17.402  66.124  1.00  0.00    -0.255 A  
HETATM   24  C   UNL     1      -8.728  18.348  66.900  1.00  0.00    -0.275 A  
HETATM   25  C   UNL     1      -9.640  17.927  67.866  1.00  0.00    -0.286 A  
HETATM   26  C   UNL     1      -9.949  16.560  68.054  1.00  0.00    -0.245 A  
BRANCH  26  27
HETATM   27  C   UNL     1     -10.973  16.264  69.049  1.00  0.00    -0.325 A  
HETATM   28  N   UNL     1     -12.205  15.809  68.744  1.00  0.00    -0.076 NA 
HETATM   29  N   UNL     1     -12.730  15.703  69.971  1.00  0.00    -0.565 NA 
HETATM   30  N   UNL     1     -11.935  16.055  70.984  1.00  0.00    -0.402 NA 
HETATM   31  H   UNL     1     -13.683  15.372  70.123  1.00  0.00     0.000 HD 
HETATM   32  N   UNL     1     -10.790  16.393  70.406  1.00  0.00    -0.225 NA 
ENDBRANCH  26  27
ENDBRANCH  18  21
ENDBRANCH  14  15
ENDBRANCH  10  14
ENDBRANCH   4   5
ENDBRANCH   3   4
ENDBRANCH   2   3
TORSDOF 8
ENDMDL
MODEL       63
REMARK 921   NORMALIZED FREE ENERGY PREDICTED BY IDOCK:   -6.09 KCAL/MOL
REMARK 922        TOTAL FREE ENERGY PREDICTED BY IDOCK:   -9.97 KCAL/MOL
REMARK 923 INTER-LIGAND FREE ENERGY PREDICTED BY IDOCK:   -8.39 KCAL/MOL
REMARK 924 INTRA-LIGAND FREE ENERGY PREDICTED BY IDOCK:   -1.57 KCAL/MOL
REMARK 927      BINDING AFFINITY PREDICTED BY RF-SCORE:    0.00 PKD
ROOT
HETATM    1  C   UNL     1     -12.994  11.274  71.576  1.00  0.00    -0.520 C  
HETATM    2  C   UNL     1     -12.348  12.391  70.774  1.00  0.00    -0.377 C  
ENDROOT
BRANCH   2   3
HETATM    3  C   UNL     1     -12.063  11.962  69.331  1.00  0.00    -0.277 C  
BRANCH   3   4
HETATM    4  C   UNL     1     -11.833  13.133  68.368  1.00  0.00    -0.386 C  
BRANCH   4   5
HETATM    5  C   UNL     1     -11.530  12.699  66.967  1.00  0.00    -0.346 A  
HETATM    6  N   UNL     1     -12.441  12.689  66.013  1.00  0.00    -0.485 NA 
HETATM    7  C   UNL     1     -11.816  12.256  64.884  1.00  0.00    -0.358 A  
HETATM    8 CL   UNL     1     -12.641  12.090  63.404  1.00  0.00    -0.681 Cl 
HETATM    9  C   UNL     1     -10.492  11.958  65.136  1.00  0.00    -0.287 A  
HETATM   10  N   UNL     1     -10.318  12.224  66.488  1.00  0.00    -0.224 NA 
BRANCH   9  11
HETATM   11  C   UNL     1      -9.467  11.431  64.212  1.00  0.00    -0.133 C  
HETATM   12  H   UNL     1      -9.182   9.770  63.276  1.00  0.00     0.000 HD 
HETATM   13  O   UNL     1      -9.842  10.109  63.871  1.00  0.00    -0.274 OA 
ENDBRANCH   9  11
BRANCH  10  14
HETATM   14  C   UNL     1      -9.166  11.835  67.299  1.00  0.00    -0.173 C  
BRANCH  14  15
HETATM   15  C   UNL     1      -9.235  10.441  67.866  1.00  0.00    -0.143 A  
HETATM   16  C   UNL     1      -8.566  10.115  69.048  1.00  0.00    -0.156 A  
HETATM   17  C   UNL     1      -8.663   8.831  69.602  1.00  0.00    -0.136 A  
HETATM   18  C   UNL     1      -9.371   7.799  68.965  1.00  0.00    -0.150 A  
HETATM   19  C   UNL     1     -10.070   8.152  67.797  1.00  0.00    -0.260 A  
HETATM   20  C   UNL     1     -10.015   9.448  67.264  1.00  0.00    -0.252 A  
BRANCH  18  21
HETATM   21  C   UNL     1      -9.391   6.399  69.482  1.00  0.00    -0.146 A  
HETATM   22  C   UNL     1      -8.503   5.455  68.910  1.00  0.00    -0.099 A  
HETATM   23  C   UNL     1      -8.440   4.125  69.341  1.00  0.00    -0.096 A  
HETATM   24  C   UNL     1      -9.285   3.684  70.344  1.00  0.00    -0.216 A  
HETATM   25  C   UNL     1     -10.188   4.580  70.915  1.00  0.00    -0.170 A  
HETATM   26  C   UNL     1     -10.244   5.937  70.518  1.00  0.00    -0.271 A  
BRANCH  26  27
HETATM   27  C   UNL     1     -11.184   6.780  71.246  1.00  0.00    -0.276 A  
HETATM   28  N   UNL     1     -10.881   7.427  72.389  1.00  0.00    -0.244 NA 
HETATM   29  N   UNL     1     -12.047   8.036  72.634  1.00  0.00    -0.593 NA 
HETATM   30  N   UNL     1     -13.024   7.815  71.752  1.00  0.00    -0.328 NA 
HETATM   31  H   UNL     1     -12.182   8.636  73.449  1.00  0.00     0.000 HD 
HETATM   32  N   UNL     1     -12.473   7.029  70.837  1.00  0.00    -0.336 NA 
ENDBRANCH  26  27
ENDBRANCH  18  21
ENDBRANCH  14  15
ENDBRANCH  10  14
ENDBRANCH   4   5
ENDBRANCH   3   4
ENDBRANCH   2   3
TORSDOF 8
ENDMDL
MODEL       64
REMARK 921   NORMALIZED FREE ENERGY PREDICTED BY IDOCK:   -6.05 KCAL/MOL
REMARK 922        TOTAL FREE ENERGY PREDICTED BY IDOCK:   -9.91 KCAL/MOL
REMARK 923 INTER-LIGAND FREE ENERGY PREDICTED BY IDOCK:   -8.64 KCAL/MOL
REMARK 924 INTRA-LIGAND FREE ENERGY PREDICTED BY IDOCK:   -1.26 KCAL/MOL
REMARK 927      BINDING AFFINITY PREDICTED BY RF-SCORE:    0.00 PKD
ROOT
HETATM    1  C   UNL     1      -9.484  10.449  65.357  1.00  0.00    -0.285 C  
HETATM    2  C   UNL     1     -10.025   9.239  66.099  1.00  0.00    -0.348 C  
ENDROOT
BRANCH   2   3
HETATM    3  C   UNL     1     -10.382   9.577  67.551  1.00  0.00    -0.306 C  
BRANCH   3   4
HETATM    4  C   UNL     1     -10.315  11.074  67.874  1.00  0.00    -0.213 C  
BRANCH   4   5
HETATM    5  C   UNL     1     -11.211  11.478  69.004  1.00  0.00    -0.262 A  
HETATM    6  N   UNL     1     -11.574  10.643  69.958  1.00  0.00    -0.297 NA 
HETATM    7  C   UNL     1     -12.368  11.347  70.811  1.00  0.00    -0.386 A  
HETATM    8 CL   UNL     1     -13.060  10.635  72.193  1.00  0.00    -0.506 Cl 
HETATM    9  C   UNL     1     -12.534  12.645  70.372  1.00  0.00    -0.143 A  
HETATM   10  N   UNL     1     -11.803  12.719  69.192  1.00  0.00    -0.309 NA 
BRANCH   9  11
HETATM   11  C   UNL     1     -13.335  13.732  70.970  1.00  0.00    -0.086 C  
HETATM   12  H   UNL     1     -13.040  15.073  72.324  1.00  0.00     0.000 HD 
HETATM   13  O   UNL     1     -12.524  14.373  71.939  1.00  0.00    -0.332 OA 
ENDBRANCH   9  11
BRANCH  10  14
HETATM   14  C   UNL     1     -11.860  13.802  68.212  1.00  0.00    -0.378 C  
BRANCH  14  15
HETATM   15  C   UNL     1     -10.764  14.828  68.341  1.00  0.00    -0.243 A  
HETATM   16  C   UNL     1     -10.974  16.014  69.048  1.00  0.00    -0.296 A  
HETATM   17  C   UNL     1      -9.944  16.952  69.207  1.00  0.00    -0.184 A  
HETATM   18  C   UNL     1      -8.685  16.779  68.609  1.00  0.00    -0.255 A  
HETATM   19  C   UNL     1      -8.477  15.564  67.934  1.00  0.00    -0.146 A  
HETATM   20  C   UNL     1      -9.489  14.601  67.812  1.00  0.00    -0.205 A  
BRANCH  18  21
HETATM   21  C   UNL     1      -7.615  17.818  68.674  1.00  0.00    -0.276 A  
HETATM   22  C   UNL     1      -6.460  17.550  69.449  1.00  0.00    -0.230 A  
HETATM   23  C   UNL     1      -5.399  18.456  69.556  1.00  0.00    -0.197 A  
HETATM   24  C   UNL     1      -5.468  19.678  68.911  1.00  0.00    -0.226 A  
HETATM   25  C   UNL     1      -6.599  19.985  68.158  1.00  0.00    -0.315 A  
HETATM   26  C   UNL     1      -7.667  19.070  68.009  1.00  0.00    -0.304 A  
BRANCH  26  27
HETATM   27  C   UNL     1      -8.757  19.491  67.136  1.00  0.00    -0.301 A  
HETATM   28  N   UNL     1      -9.465  20.624  67.313  1.00  0.00    -0.421 NA 
HETATM   29  N   UNL     1     -10.311  20.541  66.279  1.00  0.00    -0.339 NA 
HETATM   30  N   UNL     1     -10.182  19.466  65.499  1.00  0.00    -0.385 NA 
HETATM   31  H   UNL     1     -11.012  21.259  66.097  1.00  0.00     0.000 HD 
HETATM   32  N   UNL     1      -9.167  18.794  66.024  1.00  0.00    -0.469 NA 
ENDBRANCH  26  27
ENDBRANCH  18  21
ENDBRANCH  14  15
ENDBRANCH  10  14
ENDBRANCH   4   5
ENDBRANCH   3   4
ENDBRANCH   2   3
TORSDOF 8
ENDMDL
MODEL       65
REMARK 921   NORMALIZED FREE ENERGY PREDICTED BY IDOCK:   -6.05 KCAL/MOL
REMARK 922        TOTAL FREE ENERGY PREDICTED BY IDOCK:   -9.90 KCAL/MOL
REMARK 923 INTER-LIGAND FREE ENERGY PREDICTED BY IDOCK:   -8.26 KCAL/MOL
REMARK 924 INTRA-LIGAND FREE ENERGY PREDICTED BY IDOCK:   -1.64 KCAL/MOL
REMARK 927      BINDING AFFINITY PREDICTED BY RF-SCORE:    0.00 PKD
ROOT
HETATM    1  C   UNL     1     -14.355   7.350  71.488  1.00  0.00    -0.594 C  
HETATM    2  C   UNL     1     -13.586   8.567  71.975  1.00  0.00    -0.427 C  
ENDROOT
BRANCH   2   3
HETATM    3  C   UNL     1     -12.099   8.256  72.176  1.00  0.00    -0.425 C  
BRANCH   3   4
HETATM    4  C   UNL     1     -11.166   9.416  71.811  1.00  0.00    -0.359 C  
BRANCH   4   5
HETATM    5  C   UNL     1      -9.880   8.971  71.187  1.00  0.00    -0.300 A  
HETATM    6  N   UNL     1      -8.717   9.080  71.800  1.00  0.00    -0.353 NA 
HETATM    7  C   UNL     1      -7.781   8.571  70.953  1.00  0.00    -0.090 A  
HETATM    8 CL   UNL     1      -6.129   8.523  71.358  1.00  0.00    -0.041 Cl 
HETATM    9  C   UNL     1      -8.360   8.159  69.769  1.00  0.00    -0.124 A  
HETATM   10  N   UNL     1      -9.712   8.440  69.916  1.00  0.00    -0.178 NA 
BRANCH   9  11
HETATM   11  C   UNL     1      -7.715   7.582  68.571  1.00  0.00    -0.120 C  
HETATM   12  H   UNL     1      -6.656   8.269  67.115  1.00  0.00     0.000 HD 
HETATM   13  O   UNL     1      -7.071   8.640  67.885  1.00  0.00    -0.080 OA 
ENDBRANCH   9  11
BRANCH  10  14
HETATM   14  C   UNL     1     -10.714   8.425  68.852  1.00  0.00    -0.068 C  
BRANCH  14  15
HETATM   15  C   UNL     1     -10.844   9.717  68.089  1.00  0.00    -0.264 A  
HETATM   16  C   UNL     1     -10.198   9.891  66.862  1.00  0.00    -0.302 A  
HETATM   17  C   UNL     1     -10.351  11.076  66.128  1.00  0.00    -0.306 A  
HETATM   18  C   UNL     1     -11.095  12.161  66.617  1.00  0.00    -0.353 A  
HETATM   19  C   UNL     1     -11.770  11.957  67.833  1.00  0.00    -0.368 A  
HETATM   20  C   UNL     1     -11.659  10.757  68.549  1.00  0.00    -0.325 A  
BRANCH  18  21
HETATM   21  C   UNL     1     -11.176  13.469  65.900  1.00  0.00    -0.310 A  
HETATM   22  C   UNL     1     -12.063  13.584  64.802  1.00  0.00    -0.442 A  
HETATM   23  C   UNL     1     -12.218  14.773  64.081  1.00  0.00    -0.321 A  
HETATM   24  C   UNL     1     -11.468  15.886  64.418  1.00  0.00    -0.268 A  
HETATM   25  C   UNL     1     -10.568  15.803  65.479  1.00  0.00    -0.424 A  
HETATM   26  C   UNL     1     -10.421  14.621  66.242  1.00  0.00    -0.302 A  
BRANCH  26  27
HETATM   27  C   UNL     1      -9.497  14.694  67.367  1.00  0.00    -0.201 A  
HETATM   28  N   UNL     1      -9.888  14.764  68.655  1.00  0.00    -0.220 NA 
HETATM   29  N   UNL     1      -8.697  14.809  69.264  1.00  0.00    -0.379 NA 
HETATM   30  N   UNL     1      -7.627  14.777  68.466  1.00  0.00    -0.114 NA 
HETATM   31  H   UNL     1      -8.612  14.864  70.279  1.00  0.00     0.000 HD 
HETATM   32  N   UNL     1      -8.128  14.676  67.243  1.00  0.00    -0.202 NA 
ENDBRANCH  26  27
ENDBRANCH  18  21
ENDBRANCH  14  15
ENDBRANCH  10  14
ENDBRANCH   4   5
ENDBRANCH   3   4
ENDBRANCH   2   3
TORSDOF 8
ENDMDL
MODEL       66
REMARK 921   NORMALIZED FREE ENERGY PREDICTED BY IDOCK:   -6.04 KCAL/MOL
REMARK 922        TOTAL FREE ENERGY PREDICTED BY IDOCK:   -9.89 KCAL/MOL
REMARK 923 INTER-LIGAND FREE ENERGY PREDICTED BY IDOCK:   -7.84 KCAL/MOL
REMARK 924 INTRA-LIGAND FREE ENERGY PREDICTED BY IDOCK:   -2.05 KCAL/MOL
REMARK 927      BINDING AFFINITY PREDICTED BY RF-SCORE:    0.00 PKD
ROOT
HETATM    1  C   UNL     1      -8.594   7.832  66.454  1.00  0.00    -0.153 C  
HETATM    2  C   UNL     1     -10.044   7.837  66.909  1.00  0.00    -0.356 C  
ENDROOT
BRANCH   2   3
HETATM    3  C   UNL     1     -10.353   6.652  67.829  1.00  0.00    -0.239 C  
BRANCH   3   4
HETATM    4  C   UNL     1      -9.262   6.371  68.870  1.00  0.00    -0.128 C  
BRANCH   4   5
HETATM    5  C   UNL     1      -9.766   6.396  70.280  1.00  0.00    -0.167 A  
HETATM    6  N   UNL     1     -10.634   5.516  70.741  1.00  0.00    -0.261 NA 
HETATM    7  C   UNL     1     -10.852   5.831  72.047  1.00  0.00    -0.251 A  
HETATM    8 CL   UNL     1     -11.921   4.938  73.023  1.00  0.00    -0.183 Cl 
HETATM    9  C   UNL     1     -10.131   6.951  72.410  1.00  0.00    -0.170 A  
HETATM   10  N   UNL     1      -9.449   7.325  71.259  1.00  0.00    -0.155 NA 
BRANCH   9  11
HETATM   11  C   UNL     1     -10.097   7.651  73.711  1.00  0.00    -0.088 C  
HETATM   12  H   UNL     1      -8.729   8.115  74.987  1.00  0.00     0.000 HD 
HETATM   13  O   UNL     1      -8.751   7.664  74.151  1.00  0.00    -0.228 OA 
ENDBRANCH   9  11
BRANCH  10  14
HETATM   14  C   UNL     1      -8.747   8.590  71.050  1.00  0.00    -0.173 C  
BRANCH  14  15
HETATM   15  C   UNL     1      -9.421   9.533  70.087  1.00  0.00    -0.287 A  
HETATM   16  C   UNL     1      -8.668  10.310  69.202  1.00  0.00    -0.176 A  
HETATM   17  C   UNL     1      -9.291  11.157  68.275  1.00  0.00    -0.176 A  
HETATM   18  C   UNL     1     -10.685  11.318  68.238  1.00  0.00    -0.231 A  
HETATM   19  C   UNL     1     -11.431  10.502  69.107  1.00  0.00    -0.314 A  
HETATM   20  C   UNL     1     -10.814   9.618  70.004  1.00  0.00    -0.302 A  
BRANCH  18  21
HETATM   21  C   UNL     1     -11.358  12.297  67.334  1.00  0.00    -0.389 A  
HETATM   22  C   UNL     1     -11.721  11.875  66.031  1.00  0.00    -0.209 A  
HETATM   23  C   UNL     1     -12.369  12.718  65.121  1.00  0.00    -0.555 A  
HETATM   24  C   UNL     1     -12.654  14.025  65.474  1.00  0.00    -0.543 A  
HETATM   25  C   UNL     1     -12.291  14.482  66.739  1.00  0.00    -0.111 A  
HETATM   26  C   UNL     1     -11.666  13.637  67.686  1.00  0.00    -0.398 A  
BRANCH  26  27
HETATM   27  C   UNL     1     -11.406  14.222  68.996  1.00  0.00    -0.272 A  
HETATM   28  N   UNL     1     -12.067  13.875  70.118  1.00  0.00    -0.329 NA 
HETATM   29  N   UNL     1     -11.467  14.677  71.006  1.00  0.00    -0.510 NA 
HETATM   30  N   UNL     1     -10.512  15.476  70.526  1.00  0.00    -0.237 NA 
HETATM   31  H   UNL     1     -11.725  14.677  71.993  1.00  0.00     0.000 HD 
HETATM   32  N   UNL     1     -10.443  15.175  69.237  1.00  0.00    -0.250 NA 
ENDBRANCH  26  27
ENDBRANCH  18  21
ENDBRANCH  14  15
ENDBRANCH  10  14
ENDBRANCH   4   5
ENDBRANCH   3   4
ENDBRANCH   2   3
TORSDOF 8
ENDMDL
MODEL       67
REMARK 921   NORMALIZED FREE ENERGY PREDICTED BY IDOCK:   -6.02 KCAL/MOL
REMARK 922        TOTAL FREE ENERGY PREDICTED BY IDOCK:   -9.87 KCAL/MOL
REMARK 923 INTER-LIGAND FREE ENERGY PREDICTED BY IDOCK:   -8.08 KCAL/MOL
REMARK 924 INTRA-LIGAND FREE ENERGY PREDICTED BY IDOCK:   -1.79 KCAL/MOL
REMARK 927      BINDING AFFINITY PREDICTED BY RF-SCORE:    0.00 PKD
ROOT
HETATM    1  C   UNL     1     -13.450  14.723  72.198  1.00  0.00    -0.491 C  
HETATM    2  C   UNL     1     -13.993  13.306  72.283  1.00  0.00    -0.559 C  
ENDROOT
BRANCH   2   3
HETATM    3  C   UNL     1     -12.874  12.263  72.186  1.00  0.00    -0.152 C  
BRANCH   3   4
HETATM    4  C   UNL     1     -13.168  11.127  71.200  1.00  0.00    -0.132 C  
BRANCH   4   5
HETATM    5  C   UNL     1     -11.933  10.511  70.618  1.00  0.00    -0.357 A  
HETATM    6  N   UNL     1     -11.042   9.874  71.353  1.00  0.00    -0.257 NA 
HETATM    7  C   UNL     1     -10.072   9.442  70.501  1.00  0.00    -0.275 A  
HETATM    8 CL   UNL     1      -8.717   8.569  71.046  1.00  0.00    -0.185 Cl 
HETATM    9  C   UNL     1     -10.340   9.839  69.207  1.00  0.00    -0.215 A  
HETATM   10  N   UNL     1     -11.532  10.549  69.291  1.00  0.00    -0.261 NA 
BRANCH   9  11
HETATM   11  C   UNL     1      -9.543   9.617  67.983  1.00  0.00    -0.143 C  
HETATM   12  H   UNL     1      -9.588   8.360  66.522  1.00  0.00     0.000 HD 
HETATM   13  O   UNL     1     -10.101   8.503  67.310  1.00  0.00    -0.204 OA 
ENDBRANCH   9  11
BRANCH  10  14
HETATM   14  C   UNL     1     -12.108  11.389  68.242  1.00  0.00    -0.009 C  
BRANCH  14  15
HETATM   15  C   UNL     1     -11.542  12.783  68.167  1.00  0.00    -0.380 A  
HETATM   16  C   UNL     1     -10.688  13.153  67.125  1.00  0.00    -0.263 A  
HETATM   17  C   UNL     1     -10.193  14.461  67.027  1.00  0.00    -0.263 A  
HETATM   18  C   UNL     1     -10.471  15.434  68.000  1.00  0.00    -0.257 A  
HETATM   19  C   UNL     1     -11.362  15.058  69.021  1.00  0.00    -0.306 A  
HETATM   20  C   UNL     1     -11.897  13.764  69.097  1.00  0.00    -0.398 A  
BRANCH  18  21
HETATM   21  C   UNL     1      -9.863  16.797  67.972  1.00  0.00    -0.265 A  
HETATM   22  C   UNL     1     -10.720  17.917  67.831  1.00  0.00    -0.328 A  
HETATM   23  C   UNL     1     -10.243  19.232  67.810  1.00  0.00    -0.507 A  
HETATM   24  C   UNL     1      -8.884  19.473  67.902  1.00  0.00    -0.372 A  
HETATM   25  C   UNL     1      -8.008  18.395  68.020  1.00  0.00    -0.289 A  
HETATM   26  C   UNL     1      -8.473  17.061  68.077  1.00  0.00    -0.216 A  
BRANCH  26  27
HETATM   27  C   UNL     1      -7.455  16.035  68.272  1.00  0.00    -0.136 A  
HETATM   28  N   UNL     1      -7.115  15.535  69.477  1.00  0.00    -0.191 NA 
HETATM   29  N   UNL     1      -6.172  14.657  69.113  1.00  0.00    -0.101 NA 
HETATM   30  N   UNL     1      -5.908  14.585  67.807  1.00  0.00    -0.291 NA 
HETATM   31  H   UNL     1      -5.683  14.078  69.796  1.00  0.00     0.000 HD 
HETATM   32  N   UNL     1      -6.747  15.447  67.250  1.00  0.00    -0.277 NA 
ENDBRANCH  26  27
ENDBRANCH  18  21
ENDBRANCH  14  15
ENDBRANCH  10  14
ENDBRANCH   4   5
ENDBRANCH   3   4
ENDBRANCH   2   3
TORSDOF 8
ENDMDL
MODEL       68
REMARK 921   NORMALIZED FREE ENERGY PREDICTED BY IDOCK:   -6.01 KCAL/MOL
REMARK 922        TOTAL FREE ENERGY PREDICTED BY IDOCK:   -9.85 KCAL/MOL
REMARK 923 INTER-LIGAND FREE ENERGY PREDICTED BY IDOCK:   -8.55 KCAL/MOL
REMARK 924 INTRA-LIGAND FREE ENERGY PREDICTED BY IDOCK:   -1.30 KCAL/MOL
REMARK 927      BINDING AFFINITY PREDICTED BY RF-SCORE:    0.00 PKD
ROOT
HETATM    1  C   UNL     1      -9.573   4.611  66.041  1.00  0.00    -0.189 C  
HETATM    2  C   UNL     1      -9.476   4.745  67.551  1.00  0.00    -0.171 C  
ENDROOT
BRANCH   2   3
HETATM    3  C   UNL     1     -10.338   5.899  68.074  1.00  0.00    -0.257 C  
BRANCH   3   4
HETATM    4  C   UNL     1      -9.813   6.529  69.370  1.00  0.00    -0.161 C  
BRANCH   4   5
HETATM    5  C   UNL     1     -10.898   7.070  70.249  1.00  0.00    -0.254 A  
HETATM    6  N   UNL     1     -12.023   6.420  70.472  1.00  0.00    -0.271 NA 
HETATM    7  C   UNL     1     -12.759   7.194  71.316  1.00  0.00    -0.366 A  
HETATM    8 CL   UNL     1     -14.300   6.721  71.860  1.00  0.00    -0.367 Cl 
HETATM    9  C   UNL     1     -12.098   8.370  71.609  1.00  0.00    -0.313 A  
HETATM   10  N   UNL     1     -10.907   8.296  70.899  1.00  0.00    -0.225 NA 
BRANCH   9  11
HETATM   11  C   UNL     1     -12.543   9.501  72.450  1.00  0.00    -0.189 C  
HETATM   12  H   UNL     1     -14.041  10.713  72.443  1.00  0.00     0.000 HD 
HETATM   13  O   UNL     1     -13.755   9.986  71.901  1.00  0.00    -0.281 OA 
ENDBRANCH   9  11
BRANCH  10  14
HETATM   14  C   UNL     1      -9.971   9.397  70.672  1.00  0.00    -0.284 C  
BRANCH  14  15
HETATM   15  C   UNL     1     -10.324  10.297  69.517  1.00  0.00    -0.267 A  
HETATM   16  C   UNL     1     -11.425  11.155  69.590  1.00  0.00    -0.383 A  
HETATM   17  C   UNL     1     -11.732  12.026  68.534  1.00  0.00    -0.387 A  
HETATM   18  C   UNL     1     -10.999  12.028  67.337  1.00  0.00    -0.311 A  
HETATM   19  C   UNL     1      -9.872  11.188  67.294  1.00  0.00    -0.198 A  
HETATM   20  C   UNL     1      -9.533  10.349  68.365  1.00  0.00    -0.151 A  
BRANCH  18  21
HETATM   21  C   UNL     1     -11.379  12.867  66.162  1.00  0.00    -0.356 A  
HETATM   22  C   UNL     1     -11.941  12.229  65.029  1.00  0.00    -0.413 A  
HETATM   23  C   UNL     1     -12.342  12.935  63.890  1.00  0.00    -0.476 A  
HETATM   24  C   UNL     1     -12.170  14.307  63.833  1.00  0.00    -0.233 A  
HETATM   25  C   UNL     1     -11.599  14.966  64.920  1.00  0.00    -0.395 A  
HETATM   26  C   UNL     1     -11.219  14.275  66.095  1.00  0.00    -0.331 A  
BRANCH  26  27
HETATM   27  C   UNL     1     -10.701  15.096  67.183  1.00  0.00    -0.310 A  
HETATM   28  N   UNL     1      -9.388  15.271  67.431  1.00  0.00    -0.196 NA 
HETATM   29  N   UNL     1      -9.452  16.081  68.495  1.00  0.00    -0.209 NA 
HETATM   30  N   UNL     1     -10.677  16.406  68.914  1.00  0.00    -0.297 NA 
HETATM   31  H   UNL     1      -8.613  16.430  68.959  1.00  0.00     0.000 HD 
HETATM   32  N   UNL     1     -11.492  15.800  68.061  1.00  0.00    -0.311 NA 
ENDBRANCH  26  27
ENDBRANCH  18  21
ENDBRANCH  14  15
ENDBRANCH  10  14
ENDBRANCH   4   5
ENDBRANCH   3   4
ENDBRANCH   2   3
TORSDOF 8
ENDMDL
MODEL       69
REMARK 921   NORMALIZED FREE ENERGY PREDICTED BY IDOCK:   -6.01 KCAL/MOL
REMARK 922        TOTAL FREE ENERGY PREDICTED BY IDOCK:   -9.84 KCAL/MOL
REMARK 923 INTER-LIGAND FREE ENERGY PREDICTED BY IDOCK:   -8.43 KCAL/MOL
REMARK 924 INTRA-LIGAND FREE ENERGY PREDICTED BY IDOCK:   -1.42 KCAL/MOL
REMARK 927      BINDING AFFINITY PREDICTED BY RF-SCORE:    0.00 PKD
ROOT
HETATM    1  C   UNL     1     -10.267  11.665  64.136  1.00  0.00    -0.372 C  
HETATM    2  C   UNL     1      -9.736  10.245  64.233  1.00  0.00    -0.373 C  
ENDROOT
BRANCH   2   3
HETATM    3  C   UNL     1      -8.266  10.217  64.664  1.00  0.00    -0.161 C  
BRANCH   3   4
HETATM    4  C   UNL     1      -8.048  10.523  66.150  1.00  0.00    -0.145 C  
BRANCH   4   5
HETATM    5  C   UNL     1      -7.937   9.295  67.000  1.00  0.00    -0.102 A  
HETATM    6  N   UNL     1      -6.799   8.652  67.174  1.00  0.00    -0.066 NA 
HETATM    7  C   UNL     1      -7.066   7.606  68.004  1.00  0.00    -0.085 A  
HETATM    8 CL   UNL     1      -5.860   6.508  68.487  1.00  0.00    -0.020 Cl 
HETATM    9  C   UNL     1      -8.405   7.570  68.336  1.00  0.00    -0.125 A  
HETATM   10  N   UNL     1      -8.968   8.649  67.666  1.00  0.00    -0.135 NA 
BRANCH   9  11
HETATM   11  C   UNL     1      -9.128   6.593  69.177  1.00  0.00    -0.137 C  
HETATM   12  H   UNL     1      -9.574   6.455  71.047  1.00  0.00     0.000 HD 
HETATM   13  O   UNL     1      -9.109   7.083  70.506  1.00  0.00    -0.154 OA 
ENDBRANCH   9  11
BRANCH  10  14
HETATM   14  C   UNL     1     -10.397   8.900  67.488  1.00  0.00    -0.263 C  
BRANCH  14  15
HETATM   15  C   UNL     1     -10.947  10.033  68.315  1.00  0.00    -0.278 A  
HETATM   16  C   UNL     1     -11.313  11.242  67.719  1.00  0.00    -0.354 A  
HETATM   17  C   UNL     1     -11.866  12.283  68.478  1.00  0.00    -0.359 A  
HETATM   18  C   UNL     1     -12.011  12.189  69.871  1.00  0.00    -0.380 A  
HETATM   19  C   UNL     1     -11.675  10.953  70.451  1.00  0.00    -0.444 A  
HETATM   20  C   UNL     1     -11.166   9.892  69.689  1.00  0.00    -0.251 A  
BRANCH  18  21
HETATM   21  C   UNL     1     -12.492  13.328  70.708  1.00  0.00    -0.403 A  
HETATM   22  C   UNL     1     -13.320  13.044  71.823  1.00  0.00    -0.468 A  
HETATM   23  C   UNL     1     -13.805  14.044  72.673  1.00  0.00    -0.516 A  
HETATM   24  C   UNL     1     -13.501  15.370  72.422  1.00  0.00    -0.591 A  
HETATM   25  C   UNL     1     -12.708  15.688  71.321  1.00  0.00    -0.537 A  
HETATM   26  C   UNL     1     -12.179  14.691  70.469  1.00  0.00    -0.389 A  
BRANCH  26  27
HETATM   27  C   UNL     1     -11.308  15.157  69.398  1.00  0.00    -0.294 A  
HETATM   28  N   UNL     1      -9.962  15.161  69.473  1.00  0.00    -0.224 NA 
HETATM   29  N   UNL     1      -9.657  15.666  68.272  1.00  0.00    -0.199 NA 
HETATM   30  N   UNL     1     -10.689  15.971  67.483  1.00  0.00    -0.317 NA 
HETATM   31  H   UNL     1      -8.691  15.809  67.976  1.00  0.00     0.000 HD 
HETATM   32  N   UNL     1     -11.759  15.623  68.185  1.00  0.00    -0.283 NA 
ENDBRANCH  26  27
ENDBRANCH  18  21
ENDBRANCH  14  15
ENDBRANCH  10  14
ENDBRANCH   4   5
ENDBRANCH   3   4
ENDBRANCH   2   3
TORSDOF 8
ENDMDL
MODEL       70
REMARK 921   NORMALIZED FREE ENERGY PREDICTED BY IDOCK:   -6.00 KCAL/MOL
REMARK 922        TOTAL FREE ENERGY PREDICTED BY IDOCK:   -9.84 KCAL/MOL
REMARK 923 INTER-LIGAND FREE ENERGY PREDICTED BY IDOCK:   -8.31 KCAL/MOL
REMARK 924 INTRA-LIGAND FREE ENERGY PREDICTED BY IDOCK:   -1.53 KCAL/MOL
REMARK 927      BINDING AFFINITY PREDICTED BY RF-SCORE:    0.00 PKD
ROOT
HETATM    1  C   UNL     1     -10.743  19.434  65.873  1.00  0.00    -0.501 C  
HETATM    2  C   UNL     1      -9.431  20.200  65.831  1.00  0.00    -0.241 C  
ENDROOT
BRANCH   2   3
HETATM    3  C   UNL     1      -8.756  20.244  67.206  1.00  0.00    -0.441 C  
BRANCH   3   4
HETATM    4  C   UNL     1      -7.232  20.077  67.156  1.00  0.00    -0.284 C  
BRANCH   4   5
HETATM    5  C   UNL     1      -6.659  19.478  68.403  1.00  0.00    -0.260 A  
HETATM    6  N   UNL     1      -6.530  20.158  69.525  1.00  0.00    -0.321 NA 
HETATM    7  C   UNL     1      -5.992  19.304  70.438  1.00  0.00    -0.166 A  
HETATM    8 CL   UNL     1      -5.656  19.787  72.035  1.00  0.00    -0.350 Cl 
HETATM    9  C   UNL     1      -5.749  18.068  69.874  1.00  0.00    -0.245 A  
HETATM   10  N   UNL     1      -6.160  18.192  68.553  1.00  0.00    -0.188 NA 
BRANCH   9  11
HETATM   11  C   UNL     1      -5.147  16.868  70.491  1.00  0.00    -0.229 C  
HETATM   12  H   UNL     1      -5.768  15.104  70.958  1.00  0.00     0.000 HD 
HETATM   13  O   UNL     1      -6.156  15.876  70.561  1.00  0.00    -0.037 OA 
ENDBRANCH   9  11
BRANCH  10  14
HETATM   14  C   UNL     1      -5.880  17.247  67.474  1.00  0.00    -0.136 C  
BRANCH  14  15
HETATM   15  C   UNL     1      -7.064  16.426  67.031  1.00  0.00    -0.259 A  
HETATM   16  C   UNL     1      -8.102  17.006  66.298  1.00  0.00    -0.332 A  
HETATM   17  C   UNL     1      -9.185  16.236  65.848  1.00  0.00    -0.268 A  
HETATM   18  C   UNL     1      -9.312  14.876  66.169  1.00  0.00    -0.307 A  
HETATM   19  C   UNL     1      -8.241  14.298  66.873  1.00  0.00    -0.020 A  
HETATM   20  C   UNL     1      -7.134  15.053  67.286  1.00  0.00    -0.134 A  
BRANCH  18  21
HETATM   21  C   UNL     1     -10.512  14.070  65.793  1.00  0.00    -0.317 A  
HETATM   22  C   UNL     1     -10.625  13.610  64.458  1.00  0.00    -0.428 A  
HETATM   23  C   UNL     1     -11.704  12.835  64.018  1.00  0.00    -0.494 A  
HETATM   24  C   UNL     1     -12.725  12.515  64.895  1.00  0.00    -0.371 A  
HETATM   25  C   UNL     1     -12.658  12.969  66.211  1.00  0.00     0.091 A  
HETATM   26  C   UNL     1     -11.560  13.724  66.684  1.00  0.00    -0.392 A  
BRANCH  26  27
HETATM   27  C   UNL     1     -11.584  14.074  68.100  1.00  0.00    -0.334 A  
HETATM   28  N   UNL     1     -11.194  13.240  69.085  1.00  0.00    -0.264 NA 
HETATM   29  N   UNL     1     -11.405  14.019  70.153  1.00  0.00    -0.483 NA 
HETATM   30  N   UNL     1     -11.888  15.238  69.906  1.00  0.00    -0.313 NA 
HETATM   31  H   UNL     1     -11.208  13.698  71.101  1.00  0.00     0.000 HD 
HETATM   32  N   UNL     1     -11.982  15.297  68.585  1.00  0.00    -0.288 NA 
ENDBRANCH  26  27
ENDBRANCH  18  21
ENDBRANCH  14  15
ENDBRANCH  10  14
ENDBRANCH   4   5
ENDBRANCH   3   4
ENDBRANCH   2   3
TORSDOF 8
ENDMDL
MODEL       71
REMARK 921   NORMALIZED FREE ENERGY PREDICTED BY IDOCK:   -5.99 KCAL/MOL
REMARK 922        TOTAL FREE ENERGY PREDICTED BY IDOCK:   -9.81 KCAL/MOL
REMARK 923 INTER-LIGAND FREE ENERGY PREDICTED BY IDOCK:   -7.95 KCAL/MOL
REMARK 924 INTRA-LIGAND FREE ENERGY PREDICTED BY IDOCK:   -1.86 KCAL/MOL
REMARK 927      BINDING AFFINITY PREDICTED BY RF-SCORE:    0.00 PKD
ROOT
HETATM    1  C   UNL     1     -12.438  12.946  64.941  1.00  0.00    -0.540 C  
HETATM    2  C   UNL     1     -11.819  12.705  63.574  1.00  0.00    -0.619 C  
ENDROOT
BRANCH   2   3
HETATM    3  C   UNL     1     -11.070  11.370  63.518  1.00  0.00    -0.373 C  
BRANCH   3   4
HETATM    4  C   UNL     1      -9.553  11.515  63.345  1.00  0.00    -0.330 C  
BRANCH   4   5
HETATM    5  C   UNL     1      -8.791  10.286  63.735  1.00  0.00    -0.221 A  
HETATM    6  N   UNL     1      -8.851   9.163  63.046  1.00  0.00    -0.163 NA 
HETATM    7  C   UNL     1      -8.032   8.276  63.675  1.00  0.00    -0.153 A  
HETATM    8 CL   UNL     1      -7.820   6.686  63.107  1.00  0.00    -0.108 Cl 
HETATM    9  C   UNL     1      -7.467   8.840  64.801  1.00  0.00    -0.100 A  
HETATM   10  N   UNL     1      -7.978  10.131  64.848  1.00  0.00    -0.148 NA 
BRANCH   9  11
HETATM   11  C   UNL     1      -6.551   8.228  65.786  1.00  0.00    -0.052 C  
HETATM   12  H   UNL     1      -6.755   7.109  67.341  1.00  0.00     0.000 HD 
HETATM   13  O   UNL     1      -7.344   7.502  66.708  1.00  0.00    -0.088 OA 
ENDBRANCH   9  11
BRANCH  10  14
HETATM   14  C   UNL     1      -7.885  11.051  65.981  1.00  0.00    -0.077 C  
BRANCH  14  15
HETATM   15  C   UNL     1      -8.827  10.749  67.117  1.00  0.00    -0.135 A  
HETATM   16  C   UNL     1      -8.338  10.474  68.397  1.00  0.00    -0.126 A  
HETATM   17  C   UNL     1      -9.212  10.235  69.468  1.00  0.00    -0.191 A  
HETATM   18  C   UNL     1     -10.604  10.190  69.293  1.00  0.00    -0.254 A  
HETATM   19  C   UNL     1     -11.082  10.506  68.009  1.00  0.00    -0.361 A  
HETATM   20  C   UNL     1     -10.214  10.792  66.945  1.00  0.00    -0.274 A  
BRANCH  18  21
HETATM   21  C   UNL     1     -11.542   9.827  70.396  1.00  0.00    -0.327 A  
HETATM   22  C   UNL     1     -12.391  10.833  70.919  1.00  0.00    -0.497 A  
HETATM   23  C   UNL     1     -13.313  10.582  71.942  1.00  0.00    -0.461 A  
HETATM   24  C   UNL     1     -13.398   9.318  72.498  1.00  0.00    -0.463 A  
HETATM   25  C   UNL     1     -12.562   8.309  72.024  1.00  0.00    -0.387 A  
HETATM   26  C   UNL     1     -11.648   8.533  70.968  1.00  0.00    -0.317 A  
BRANCH  26  27
HETATM   27  C   UNL     1     -10.885   7.373  70.523  1.00  0.00    -0.243 A  
HETATM   28  N   UNL     1      -9.740   6.961  71.102  1.00  0.00    -0.173 NA 
HETATM   29  N   UNL     1      -9.458   5.896  70.342  1.00  0.00    -0.161 NA 
HETATM   30  N   UNL     1     -10.320   5.630  69.359  1.00  0.00    -0.246 NA 
HETATM   31  H   UNL     1      -8.632   5.320  70.505  1.00  0.00     0.000 HD 
HETATM   32  N   UNL     1     -11.260   6.558  69.480  1.00  0.00    -0.366 NA 
ENDBRANCH  26  27
ENDBRANCH  18  21
ENDBRANCH  14  15
ENDBRANCH  10  14
ENDBRANCH   4   5
ENDBRANCH   3   4
ENDBRANCH   2   3
TORSDOF 8
ENDMDL
MODEL       72
REMARK 921   NORMALIZED FREE ENERGY PREDICTED BY IDOCK:   -5.99 KCAL/MOL
REMARK 922        TOTAL FREE ENERGY PREDICTED BY IDOCK:   -9.81 KCAL/MOL
REMARK 923 INTER-LIGAND FREE ENERGY PREDICTED BY IDOCK:   -8.40 KCAL/MOL
REMARK 924 INTRA-LIGAND FREE ENERGY PREDICTED BY IDOCK:   -1.41 KCAL/MOL
REMARK 927      BINDING AFFINITY PREDICTED BY RF-SCORE:    0.00 PKD
ROOT
HETATM    1  C   UNL     1      -7.845  16.424  66.957  1.00  0.00    -0.247 C  
HETATM    2  C   UNL     1      -9.316  16.706  67.210  1.00  0.00    -0.234 C  
ENDROOT
BRANCH   2   3
HETATM    3  C   UNL     1      -9.626  16.801  68.707  1.00  0.00    -0.260 C  
BRANCH   3   4
HETATM    4  C   UNL     1      -9.811  15.441  69.391  1.00  0.00    -0.273 C  
BRANCH   4   5
HETATM    5  C   UNL     1     -10.977  15.403  70.331  1.00  0.00    -0.323 A  
HETATM    6  N   UNL     1     -10.939  15.942  71.534  1.00  0.00     0.010 NA 
HETATM    7  C   UNL     1     -12.162  15.730  72.093  1.00  0.00    -0.464 A  
HETATM    8 CL   UNL     1     -12.541  16.270  73.662  1.00  0.00    -0.628 Cl 
HETATM    9  C   UNL     1     -12.978  15.016  71.239  1.00  0.00    -0.377 A  
HETATM   10  N   UNL     1     -12.200  14.787  70.111  1.00  0.00    -0.321 NA 
BRANCH   9  11
HETATM   11  C   UNL     1     -14.362  14.544  71.455  1.00  0.00    -0.417 C  
HETATM   12  H   UNL     1     -15.204  13.223  72.577  1.00  0.00     0.000 HD 
HETATM   13  O   UNL     1     -14.314  13.526  72.438  1.00  0.00    -0.645 OA 
ENDBRANCH   9  11
BRANCH  10  14
HETATM   14  C   UNL     1     -12.515  13.862  69.024  1.00  0.00     0.123 C  
BRANCH  14  15
HETATM   15  C   UNL     1     -12.025  12.452  69.233  1.00  0.00    -0.308 A  
HETATM   16  C   UNL     1     -12.081  11.856  70.495  1.00  0.00    -0.422 A  
HETATM   17  C   UNL     1     -11.667  10.529  70.686  1.00  0.00    -0.453 A  
HETATM   18  C   UNL     1     -11.115   9.768  69.644  1.00  0.00    -0.251 A  
HETATM   19  C   UNL     1     -11.101  10.368  68.372  1.00  0.00    -0.322 A  
HETATM   20  C   UNL     1     -11.558  11.678  68.167  1.00  0.00    -0.389 A  
BRANCH  18  21
HETATM   21  C   UNL     1     -10.566   8.396  69.854  1.00  0.00    -0.228 A  
HETATM   22  C   UNL     1     -11.464   7.300  69.842  1.00  0.00    -0.085 A  
HETATM   23  C   UNL     1     -11.040   5.978  70.014  1.00  0.00    -0.451 A  
HETATM   24  C   UNL     1      -9.701   5.706  70.232  1.00  0.00    -0.232 A  
HETATM   25  C   UNL     1      -8.791   6.762  70.273  1.00  0.00    -0.152 A  
HETATM   26  C   UNL     1      -9.195   8.102  70.068  1.00  0.00    -0.155 A  
BRANCH  26  27
HETATM   27  C   UNL     1      -8.131   9.099  70.067  1.00  0.00    -0.128 A  
HETATM   28  N   UNL     1      -7.630   9.660  68.948  1.00  0.00    -0.074 NA 
HETATM   29  N   UNL     1      -6.714  10.477  69.481  1.00  0.00    -0.075 NA 
HETATM   30  N   UNL     1      -6.611  10.458  70.812  1.00  0.00    -0.346 NA 
HETATM   31  H   UNL     1      -6.127  11.080  68.903  1.00  0.00     0.000 HD 
HETATM   32  N   UNL     1      -7.538   9.595  71.204  1.00  0.00    -0.272 NA 
ENDBRANCH  26  27
ENDBRANCH  18  21
ENDBRANCH  14  15
ENDBRANCH  10  14
ENDBRANCH   4   5
ENDBRANCH   3   4
ENDBRANCH   2   3
TORSDOF 8
ENDMDL
MODEL       73
REMARK 921   NORMALIZED FREE ENERGY PREDICTED BY IDOCK:   -5.96 KCAL/MOL
REMARK 922        TOTAL FREE ENERGY PREDICTED BY IDOCK:   -9.78 KCAL/MOL
REMARK 923 INTER-LIGAND FREE ENERGY PREDICTED BY IDOCK:   -7.93 KCAL/MOL
REMARK 924 INTRA-LIGAND FREE ENERGY PREDICTED BY IDOCK:   -1.85 KCAL/MOL
REMARK 927      BINDING AFFINITY PREDICTED BY RF-SCORE:    0.00 PKD
ROOT
HETATM    1  C   UNL     1     -13.073  11.427  71.828  1.00  0.00    -0.523 C  
HETATM    2  C   UNL     1     -12.392  10.263  71.126  1.00  0.00    -0.501 C  
ENDROOT
BRANCH   2   3
HETATM    3  C   UNL     1     -11.330  10.744  70.132  1.00  0.00    -0.390 C  
BRANCH   3   4
HETATM    4  C   UNL     1     -10.081   9.856  70.080  1.00  0.00    -0.309 C  
BRANCH   4   5
HETATM    5  C   UNL     1      -9.952   9.086  68.802  1.00  0.00    -0.182 A  
HETATM    6  N   UNL     1     -10.671   8.011  68.544  1.00  0.00    -0.087 NA 
HETATM    7  C   UNL     1     -10.303   7.586  67.304  1.00  0.00    -0.296 A  
HETATM    8 CL   UNL     1     -10.994   6.209  66.582  1.00  0.00    -0.322 Cl 
HETATM    9  C   UNL     1      -9.312   8.391  66.780  1.00  0.00    -0.184 A  
HETATM   10  N   UNL     1      -9.072   9.345  67.761  1.00  0.00    -0.126 NA 
BRANCH   9  11
HETATM   11  C   UNL     1      -8.606   8.273  65.488  1.00  0.00    -0.159 C  
HETATM   12  H   UNL     1      -8.593   9.262  63.833  1.00  0.00     0.000 HD 
HETATM   13  O   UNL     1      -9.048   9.338  64.665  1.00  0.00    -0.210 OA 
ENDBRANCH   9  11
BRANCH  10  14
HETATM   14  C   UNL     1      -7.943  10.272  67.801  1.00  0.00    -0.102 C  
BRANCH  14  15
HETATM   15  C   UNL     1      -8.316  11.727  67.681  1.00  0.00    -0.145 A  
HETATM   16  C   UNL     1      -7.625  12.704  68.403  1.00  0.00    -0.132 A  
HETATM   17  C   UNL     1      -7.941  14.063  68.262  1.00  0.00    -0.146 A  
HETATM   18  C   UNL     1      -9.002  14.499  67.452  1.00  0.00    -0.207 A  
HETATM   19  C   UNL     1      -9.661  13.508  66.703  1.00  0.00    -0.281 A  
HETATM   20  C   UNL     1      -9.319  12.152  66.804  1.00  0.00    -0.212 A  
BRANCH  18  21
HETATM   21  C   UNL     1      -9.422  15.929  67.377  1.00  0.00    -0.220 A  
HETATM   22  C   UNL     1      -8.778  16.775  66.441  1.00  0.00    -0.337 A  
HETATM   23  C   UNL     1      -9.116  18.124  66.289  1.00  0.00    -0.199 A  
HETATM   24  C   UNL     1     -10.095  18.684  67.089  1.00  0.00    -0.391 A  
HETATM   25  C   UNL     1     -10.735  17.887  68.038  1.00  0.00    -0.307 A  
HETATM   26  C   UNL     1     -10.432  16.514  68.184  1.00  0.00    -0.313 A  
BRANCH  26  27
HETATM   27  C   UNL     1     -11.226  15.782  69.164  1.00  0.00    -0.322 A  
HETATM   28  N   UNL     1     -12.281  15.004  68.846  1.00  0.00    -0.166 NA 
HETATM   29  N   UNL     1     -12.640  14.580  70.064  1.00  0.00    -0.512 NA 
HETATM   30  N   UNL     1     -11.907  15.031  71.084  1.00  0.00    -0.310 NA 
HETATM   31  H   UNL     1     -13.428  13.948  70.204  1.00  0.00     0.000 HD 
HETATM   32  N   UNL     1     -10.975  15.785  70.516  1.00  0.00    -0.338 NA 
ENDBRANCH  26  27
ENDBRANCH  18  21
ENDBRANCH  14  15
ENDBRANCH  10  14
ENDBRANCH   4   5
ENDBRANCH   3   4
ENDBRANCH   2   3
TORSDOF 8
ENDMDL
MODEL       74
REMARK 921   NORMALIZED FREE ENERGY PREDICTED BY IDOCK:   -5.96 KCAL/MOL
REMARK 922        TOTAL FREE ENERGY PREDICTED BY IDOCK:   -9.78 KCAL/MOL
REMARK 923 INTER-LIGAND FREE ENERGY PREDICTED BY IDOCK:   -8.00 KCAL/MOL
REMARK 924 INTRA-LIGAND FREE ENERGY PREDICTED BY IDOCK:   -1.78 KCAL/MOL
REMARK 927      BINDING AFFINITY PREDICTED BY RF-SCORE:    0.00 PKD
ROOT
HETATM    1  C   UNL     1      -6.639   7.309  67.939  1.00  0.00    -0.050 C  
HETATM    2  C   UNL     1      -5.595   8.307  67.465  1.00  0.00    -0.039 C  
ENDROOT
BRANCH   2   3
HETATM    3  C   UNL     1      -6.142   9.739  67.458  1.00  0.00    -0.058 C  
BRANCH   3   4
HETATM    4  C   UNL     1      -6.960  10.085  66.208  1.00  0.00    -0.104 C  
BRANCH   4   5
HETATM    5  C   UNL     1      -8.115  10.996  66.488  1.00  0.00    -0.161 A  
HETATM    6  N   UNL     1      -7.962  12.201  67.003  1.00  0.00    -0.162 NA 
HETATM    7  C   UNL     1      -9.208  12.741  67.107  1.00  0.00    -0.219 A  
HETATM    8 CL   UNL     1      -9.464  14.302  67.734  1.00  0.00    -0.211 Cl 
HETATM    9  C   UNL     1     -10.169  11.848  66.678  1.00  0.00    -0.208 A  
HETATM   10  N   UNL     1      -9.461  10.714  66.301  1.00  0.00    -0.172 NA 
BRANCH   9  11
HETATM   11  C   UNL     1     -11.638  12.008  66.650  1.00  0.00    -0.319 C  
HETATM   12  H   UNL     1     -13.101  11.470  67.784  1.00  0.00     0.000 HD 
HETATM   13  O   UNL     1     -12.156  11.367  67.802  1.00  0.00    -0.637 OA 
ENDBRANCH   9  11
BRANCH  10  14
HETATM   14  C   UNL     1     -10.032   9.400  66.014  1.00  0.00    -0.281 C  
BRANCH  14  15
HETATM   15  C   UNL     1     -10.201   8.508  67.217  1.00  0.00    -0.346 A  
HETATM   16  C   UNL     1      -9.841   8.953  68.492  1.00  0.00    -0.182 A  
HETATM   17  C   UNL     1     -10.036   8.143  69.620  1.00  0.00    -0.199 A  
HETATM   18  C   UNL     1     -10.531   6.833  69.517  1.00  0.00    -0.248 A  
HETATM   19  C   UNL     1     -10.925   6.415  68.233  1.00  0.00    -0.396 A  
HETATM   20  C   UNL     1     -10.775   7.238  67.108  1.00  0.00    -0.413 A  
BRANCH  18  21
HETATM   21  C   UNL     1     -10.640   5.920  70.692  1.00  0.00    -0.334 A  
HETATM   22  C   UNL     1      -9.827   4.760  70.724  1.00  0.00    -0.280 A  
HETATM   23  C   UNL     1      -9.849   3.855  71.791  1.00  0.00    -0.249 A  
HETATM   24  C   UNL     1     -10.708   4.064  72.855  1.00  0.00    -0.217 A  
HETATM   25  C   UNL     1     -11.539   5.183  72.848  1.00  0.00    -0.282 A  
HETATM   26  C   UNL     1     -11.508   6.128  71.795  1.00  0.00    -0.342 A  
BRANCH  26  27
HETATM   27  C   UNL     1     -12.378   7.288  71.948  1.00  0.00    -0.312 A  
HETATM   28  N   UNL     1     -12.056   8.378  72.674  1.00  0.00    -0.345 NA 
HETATM   29  N   UNL     1     -13.155   9.119  72.492  1.00  0.00    -0.434 NA 
HETATM   30  N   UNL     1     -14.110   8.579  71.732  1.00  0.00    -0.426 NA 
HETATM   31  H   UNL     1     -13.257  10.043  72.911  1.00  0.00     0.000 HD 
HETATM   32  N   UNL     1     -13.611   7.411  71.352  1.00  0.00    -0.368 NA 
ENDBRANCH  26  27
ENDBRANCH  18  21
ENDBRANCH  14  15
ENDBRANCH  10  14
ENDBRANCH   4   5
ENDBRANCH   3   4
ENDBRANCH   2   3
TORSDOF 8
ENDMDL
MODEL       75
REMARK 921   NORMALIZED FREE ENERGY PREDICTED BY IDOCK:   -5.93 KCAL/MOL
REMARK 922        TOTAL FREE ENERGY PREDICTED BY IDOCK:   -9.73 KCAL/MOL
REMARK 923 INTER-LIGAND FREE ENERGY PREDICTED BY IDOCK:   -8.19 KCAL/MOL
REMARK 924 INTRA-LIGAND FREE ENERGY PREDICTED BY IDOCK:   -1.53 KCAL/MOL
REMARK 927      BINDING AFFINITY PREDICTED BY RF-SCORE:    0.00 PKD
ROOT
HETATM    1  C   UNL     1      -6.231  10.129  63.219  1.00  0.00    -0.141 C  
HETATM    2  C   UNL     1      -7.123   9.541  64.300  1.00  0.00    -0.108 C  
ENDROOT
BRANCH   2   3
HETATM    3  C   UNL     1      -6.526   8.260  64.892  1.00  0.00    -0.056 C  
BRANCH   3   4
HETATM    4  C   UNL     1      -6.819   8.070  66.385  1.00  0.00    -0.062 C  
BRANCH   4   5
HETATM    5  C   UNL     1      -8.081   7.309  66.652  1.00  0.00    -0.113 A  
HETATM    6  N   UNL     1      -8.535   6.377  65.836  1.00  0.00    -0.142 NA 
HETATM    7  C   UNL     1      -9.680   5.896  66.394  1.00  0.00    -0.134 A  
HETATM    8 CL   UNL     1     -10.596   4.668  65.654  1.00  0.00    -0.297 Cl 
HETATM    9  C   UNL     1      -9.971   6.558  67.570  1.00  0.00    -0.137 A  
HETATM   10  N   UNL     1      -8.948   7.486  67.720  1.00  0.00    -0.131 NA 
BRANCH   9  11
HETATM   11  C   UNL     1     -11.126   6.380  68.474  1.00  0.00    -0.300 C  
HETATM   12  H   UNL     1     -11.526   5.255  69.988  1.00  0.00     0.000 HD 
HETATM   13  O   UNL     1     -10.783   5.370  69.406  1.00  0.00    -0.274 OA 
ENDBRANCH   9  11
BRANCH  10  14
HETATM   14  C   UNL     1      -8.928   8.597  68.670  1.00  0.00    -0.142 C  
BRANCH  14  15
HETATM   15  C   UNL     1      -9.226   9.946  68.068  1.00  0.00    -0.129 A  
HETATM   16  C   UNL     1      -8.191  10.802  67.683  1.00  0.00    -0.115 A  
HETATM   17  C   UNL     1      -8.463  12.039  67.083  1.00  0.00    -0.180 A  
HETATM   18  C   UNL     1      -9.775  12.506  66.908  1.00  0.00    -0.232 A  
HETATM   19  C   UNL     1     -10.806  11.618  67.265  1.00  0.00    -0.302 A  
HETATM   20  C   UNL     1     -10.539  10.359  67.821  1.00  0.00    -0.294 A  
BRANCH  18  21
HETATM   21  C   UNL     1     -10.081  13.867  66.374  1.00  0.00    -0.298 A  
HETATM   22  C   UNL     1      -9.507  14.990  67.021  1.00  0.00    -0.240 A  
HETATM   23  C   UNL     1      -9.723  16.301  66.583  1.00  0.00    -0.266 A  
HETATM   24  C   UNL     1     -10.546  16.538  65.495  1.00  0.00    -0.310 A  
HETATM   25  C   UNL     1     -11.145  15.459  64.848  1.00  0.00    -0.435 A  
HETATM   26  C   UNL     1     -10.912  14.124  65.254  1.00  0.00    -0.339 A  
BRANCH  26  27
HETATM   27  C   UNL     1     -11.545  13.088  64.446  1.00  0.00    -0.369 A  
HETATM   28  N   UNL     1     -10.915  12.412  63.465  1.00  0.00    -0.460 NA 
HETATM   29  N   UNL     1     -11.903  11.608  63.056  1.00  0.00    -0.877 NA 
HETATM   30  N   UNL     1     -13.069  11.738  63.693  1.00  0.00    -0.518 NA 
HETATM   31  H   UNL     1     -11.773  10.935  62.301  1.00  0.00     0.000 HD 
HETATM   32  N   UNL     1     -12.844  12.669  64.610  1.00  0.00    -0.792 NA 
ENDBRANCH  26  27
ENDBRANCH  18  21
ENDBRANCH  14  15
ENDBRANCH  10  14
ENDBRANCH   4   5
ENDBRANCH   3   4
ENDBRANCH   2   3
TORSDOF 8
ENDMDL
MODEL       76
REMARK 921   NORMALIZED FREE ENERGY PREDICTED BY IDOCK:   -5.92 KCAL/MOL
REMARK 922        TOTAL FREE ENERGY PREDICTED BY IDOCK:   -9.72 KCAL/MOL
REMARK 923 INTER-LIGAND FREE ENERGY PREDICTED BY IDOCK:   -8.82 KCAL/MOL
REMARK 924 INTRA-LIGAND FREE ENERGY PREDICTED BY IDOCK:   -0.90 KCAL/MOL
REMARK 927      BINDING AFFINITY PREDICTED BY RF-SCORE:    0.00 PKD
ROOT
HETATM    1  C   UNL     1      -5.195  20.959  70.288  1.00  0.00    -0.327 C  
HETATM    2  C   UNL     1      -6.257  19.912  69.992  1.00  0.00    -0.385 C  
ENDROOT
BRANCH   2   3
HETATM    3  C   UNL     1      -5.648  18.514  69.841  1.00  0.00    -0.235 C  
BRANCH   3   4
HETATM    4  C   UNL     1      -6.473  17.570  68.958  1.00  0.00    -0.227 C  
BRANCH   4   5
HETATM    5  C   UNL     1      -7.231  18.278  67.877  1.00  0.00    -0.228 A  
HETATM    6  N   UNL     1      -6.661  19.134  67.052  1.00  0.00    -0.196 NA 
HETATM    7  C   UNL     1      -7.636  19.567  66.206  1.00  0.00    -0.291 A  
HETATM    8 CL   UNL     1      -7.322  20.697  64.973  1.00  0.00     0.084 Cl 
HETATM    9  C   UNL     1      -8.852  18.997  66.522  1.00  0.00    -0.327 A  
HETATM   10  N   UNL     1      -8.591  18.183  67.617  1.00  0.00    -0.249 NA 
BRANCH   9  11
HETATM   11  C   UNL     1     -10.171  19.211  65.890  1.00  0.00    -0.337 C  
HETATM   12  H   UNL     1     -11.462  18.096  64.994  1.00  0.00     0.000 HD 
HETATM   13  O   UNL     1     -10.614  17.958  65.401  1.00  0.00    -0.656 OA 
ENDBRANCH   9  11
BRANCH  10  14
HETATM   14  C   UNL     1      -9.590  17.558  68.482  1.00  0.00    -0.305 C  
BRANCH  14  15
HETATM   15  C   UNL     1      -9.769  16.077  68.271  1.00  0.00    -0.214 A  
HETATM   16  C   UNL     1     -10.661  15.345  69.060  1.00  0.00    -0.247 A  
HETATM   17  C   UNL     1     -10.863  13.975  68.839  1.00  0.00    -0.278 A  
HETATM   18  C   UNL     1     -10.134  13.264  67.872  1.00  0.00    -0.235 A  
HETATM   19  C   UNL     1      -9.270  14.021  67.061  1.00  0.00    -0.262 A  
HETATM   20  C   UNL     1      -9.099  15.401  67.247  1.00  0.00    -0.218 A  
BRANCH  18  21
HETATM   21  C   UNL     1     -10.255  11.786  67.699  1.00  0.00    -0.216 A  
HETATM   22  C   UNL     1      -9.851  10.946  68.767  1.00  0.00    -0.203 A  
HETATM   23  C   UNL     1      -9.942   9.551  68.702  1.00  0.00    -0.181 A  
HETATM   24  C   UNL     1     -10.418   8.944  67.553  1.00  0.00    -0.337 A  
HETATM   25  C   UNL     1     -10.804   9.738  66.475  1.00  0.00     0.053 A  
HETATM   26  C   UNL     1     -10.752  11.150  66.532  1.00  0.00    -0.314 A  
BRANCH  26  27
HETATM   27  C   UNL     1     -11.252  11.860  65.361  1.00  0.00    -0.295 A  
HETATM   28  N   UNL     1     -10.685  11.786  64.140  1.00  0.00    -0.325 NA 
HETATM   29  N   UNL     1     -11.500  12.591  63.449  1.00  0.00    -0.631 NA 
HETATM   30  N   UNL     1     -12.500  13.147  64.137  1.00  0.00    -0.631 NA 
HETATM   31  H   UNL     1     -11.365  12.770  62.454  1.00  0.00     0.000 HD 
HETATM   32  N   UNL     1     -12.369  12.662  65.364  1.00  0.00    -0.609 NA 
ENDBRANCH  26  27
ENDBRANCH  18  21
ENDBRANCH  14  15
ENDBRANCH  10  14
ENDBRANCH   4   5
ENDBRANCH   3   4
ENDBRANCH   2   3
TORSDOF 8
ENDMDL
MODEL       77
REMARK 921   NORMALIZED FREE ENERGY PREDICTED BY IDOCK:   -5.92 KCAL/MOL
REMARK 922        TOTAL FREE ENERGY PREDICTED BY IDOCK:   -9.72 KCAL/MOL
REMARK 923 INTER-LIGAND FREE ENERGY PREDICTED BY IDOCK:   -7.82 KCAL/MOL
REMARK 924 INTRA-LIGAND FREE ENERGY PREDICTED BY IDOCK:   -1.89 KCAL/MOL
REMARK 927      BINDING AFFINITY PREDICTED BY RF-SCORE:    0.00 PKD
ROOT
HETATM    1  C   UNL     1      -7.292   6.191  66.411  1.00  0.00    -0.085 C  
HETATM    2  C   UNL     1      -8.662   6.439  65.801  1.00  0.00    -0.135 C  
ENDROOT
BRANCH   2   3
HETATM    3  C   UNL     1      -9.789   5.960  66.723  1.00  0.00    -0.191 C  
BRANCH   3   4
HETATM    4  C   UNL     1      -9.295   5.321  68.026  1.00  0.00    -0.135 C  
BRANCH   4   5
HETATM    5  C   UNL     1      -9.813   6.003  69.255  1.00  0.00    -0.152 A  
HETATM    6  N   UNL     1     -10.831   5.536  69.952  1.00  0.00    -0.299 NA 
HETATM    7  C   UNL     1     -11.014   6.392  70.994  1.00  0.00    -0.274 A  
HETATM    8 CL   UNL     1     -12.243   6.158  72.148  1.00  0.00    -0.311 Cl 
HETATM    9  C   UNL     1     -10.113   7.437  70.939  1.00  0.00    -0.188 A  
HETATM   10  N   UNL     1      -9.354   7.193  69.801  1.00  0.00    -0.147 NA 
BRANCH   9  11
HETATM   11  C   UNL     1      -9.980   8.597  71.843  1.00  0.00    -0.322 C  
HETATM   12  H   UNL     1     -10.997  10.199  72.183  1.00  0.00     0.000 HD 
HETATM   13  O   UNL     1     -11.083   9.453  71.601  1.00  0.00    -0.369 OA 
ENDBRANCH   9  11
BRANCH  10  14
HETATM   14  C   UNL     1      -8.436   8.134  69.162  1.00  0.00    -0.135 C  
BRANCH  14  15
HETATM   15  C   UNL     1      -9.095   9.144  68.259  1.00  0.00    -0.132 A  
HETATM   16  C   UNL     1      -8.340   9.890  67.350  1.00  0.00    -0.118 A  
HETATM   17  C   UNL     1      -8.954  10.799  66.477  1.00  0.00    -0.168 A  
HETATM   18  C   UNL     1     -10.333  11.056  66.522  1.00  0.00    -0.295 A  
HETATM   19  C   UNL     1     -11.084  10.270  67.415  1.00  0.00    -0.261 A  
HETATM   20  C   UNL     1     -10.481   9.325  68.257  1.00  0.00    -0.260 A  
BRANCH  18  21
HETATM   21  C   UNL     1     -10.985  12.100  65.679  1.00  0.00    -0.337 A  
HETATM   22  C   UNL     1     -11.288  11.788  64.330  1.00  0.00    -0.400 A  
HETATM   23  C   UNL     1     -11.913  12.697  63.469  1.00  0.00    -0.630 A  
HETATM   24  C   UNL     1     -12.234  13.965  63.921  1.00  0.00    -0.375 A  
HETATM   25  C   UNL     1     -11.931  14.315  65.236  1.00  0.00    -0.389 A  
HETATM   26  C   UNL     1     -11.331  13.400  66.131  1.00  0.00    -0.324 A  
BRANCH  26  27
HETATM   27  C   UNL     1     -11.134  13.873  67.496  1.00  0.00    -0.286 A  
HETATM   28  N   UNL     1     -10.057  14.577  67.898  1.00  0.00    -0.225 NA 
HETATM   29  N   UNL     1     -10.357  14.756  69.190  1.00  0.00    -0.239 NA 
HETATM   30  N   UNL     1     -11.509  14.224  69.605  1.00  0.00    -0.274 NA 
HETATM   31  H   UNL     1      -9.742  15.270  69.821  1.00  0.00     0.000 HD 
HETATM   32  N   UNL     1     -12.033  13.675  68.518  1.00  0.00    -0.369 NA 
ENDBRANCH  26  27
ENDBRANCH  18  21
ENDBRANCH  14  15
ENDBRANCH  10  14
ENDBRANCH   4   5
ENDBRANCH   3   4
ENDBRANCH   2   3
TORSDOF 8
ENDMDL
MODEL       78
REMARK 921   NORMALIZED FREE ENERGY PREDICTED BY IDOCK:   -5.90 KCAL/MOL
REMARK 922        TOTAL FREE ENERGY PREDICTED BY IDOCK:   -9.68 KCAL/MOL
REMARK 923 INTER-LIGAND FREE ENERGY PREDICTED BY IDOCK:   -8.06 KCAL/MOL
REMARK 924 INTRA-LIGAND FREE ENERGY PREDICTED BY IDOCK:   -1.62 KCAL/MOL
REMARK 927      BINDING AFFINITY PREDICTED BY RF-SCORE:    0.00 PKD
ROOT
HETATM    1  C   UNL     1      -8.174   2.704  67.539  1.00  0.00    -0.083 C  
HETATM    2  C   UNL     1      -9.518   3.166  68.078  1.00  0.00    -0.218 C  
ENDROOT
BRANCH   2   3
HETATM    3  C   UNL     1      -9.399   3.714  69.504  1.00  0.00    -0.247 C  
BRANCH   3   4
HETATM    4  C   UNL     1     -10.117   5.052  69.717  1.00  0.00    -0.337 C  
BRANCH   4   5
HETATM    5  C   UNL     1      -9.341   6.015  70.561  1.00  0.00    -0.160 A  
HETATM    6  N   UNL     1      -9.659   6.280  71.813  1.00  0.00    -0.154 NA 
HETATM    7  C   UNL     1      -8.741   7.177  72.266  1.00  0.00    -0.120 A  
HETATM    8 CL   UNL     1      -8.789   7.793  73.852  1.00  0.00    -0.317 Cl 
HETATM    9  C   UNL     1      -7.844   7.510  71.271  1.00  0.00    -0.094 A  
HETATM   10  N   UNL     1      -8.250   6.774  70.165  1.00  0.00    -0.131 NA 
BRANCH   9  11
HETATM   11  C   UNL     1      -6.716   8.463  71.319  1.00  0.00    -0.059 C  
HETATM   12  H   UNL     1      -6.527  10.377  71.189  1.00  0.00     0.000 HD 
HETATM   13  O   UNL     1      -7.253   9.764  71.159  1.00  0.00    -0.327 OA 
ENDBRANCH   9  11
BRANCH  10  14
HETATM   14  C   UNL     1      -7.783   6.959  68.792  1.00  0.00    -0.110 C  
BRANCH  14  15
HETATM   15  C   UNL     1      -8.514   8.024  68.015  1.00  0.00    -0.126 A  
HETATM   16  C   UNL     1      -7.901   9.246  67.726  1.00  0.00    -0.092 A  
HETATM   17  C   UNL     1      -8.561  10.223  66.967  1.00  0.00    -0.129 A  
HETATM   18  C   UNL     1      -9.883  10.052  66.526  1.00  0.00    -0.267 A  
HETATM   19  C   UNL     1     -10.472   8.803  66.791  1.00  0.00    -0.283 A  
HETATM   20  C   UNL     1      -9.799   7.804  67.509  1.00  0.00    -0.221 A  
BRANCH  18  21
HETATM   21  C   UNL     1     -10.638  11.125  65.814  1.00  0.00    -0.289 A  
HETATM   22  C   UNL     1     -10.618  11.138  64.397  1.00  0.00    -0.411 A  
HETATM   23  C   UNL     1     -11.309  12.095  63.645  1.00  0.00    -0.545 A  
HETATM   24  C   UNL     1     -12.024  13.091  64.286  1.00  0.00    -0.466 A  
HETATM   25  C   UNL     1     -12.048  13.122  65.679  1.00  0.00    -0.501 A  
HETATM   26  C   UNL     1     -11.385  12.145  66.458  1.00  0.00    -0.405 A  
BRANCH  26  27
HETATM   27  C   UNL     1     -11.550  12.255  67.902  1.00  0.00    -0.354 A  
HETATM   28  N   UNL     1     -11.117  13.305  68.629  1.00  0.00    -0.256 NA 
HETATM   29  N   UNL     1     -11.503  12.924  69.852  1.00  0.00    -0.515 NA 
HETATM   30  N   UNL     1     -12.123  11.744  69.932  1.00  0.00    -0.303 NA 
HETATM   31  H   UNL     1     -11.335  13.501  70.676  1.00  0.00     0.000 HD 
HETATM   32  N   UNL     1     -12.184  11.315  68.679  1.00  0.00    -0.542 NA 
ENDBRANCH  26  27
ENDBRANCH  18  21
ENDBRANCH  14  15
ENDBRANCH  10  14
ENDBRANCH   4   5
ENDBRANCH   3   4
ENDBRANCH   2   3
TORSDOF 8
ENDMDL
MODEL       79
REMARK 921   NORMALIZED FREE ENERGY PREDICTED BY IDOCK:   -5.89 KCAL/MOL
REMARK 922        TOTAL FREE ENERGY PREDICTED BY IDOCK:   -9.67 KCAL/MOL
REMARK 923 INTER-LIGAND FREE ENERGY PREDICTED BY IDOCK:   -7.94 KCAL/MOL
REMARK 924 INTRA-LIGAND FREE ENERGY PREDICTED BY IDOCK:   -1.73 KCAL/MOL
REMARK 927      BINDING AFFINITY PREDICTED BY RF-SCORE:    0.00 PKD
ROOT
HETATM    1  C   UNL     1      -7.907  11.975  67.160  1.00  0.00    -0.168 C  
HETATM    2  C   UNL     1      -8.117  10.769  66.259  1.00  0.00    -0.159 C  
ENDROOT
BRANCH   2   3
HETATM    3  C   UNL     1      -9.256   9.876  66.762  1.00  0.00    -0.176 C  
BRANCH   3   4
HETATM    4  C   UNL     1     -10.614  10.585  66.837  1.00  0.00    -0.303 C  
BRANCH   4   5
HETATM    5  C   UNL     1     -11.096  10.800  68.239  1.00  0.00    -0.271 A  
HETATM    6  N   UNL     1     -11.133   9.833  69.134  1.00  0.00    -0.171 NA 
HETATM    7  C   UNL     1     -11.607  10.385  70.284  1.00  0.00    -0.327 A  
HETATM    8 CL   UNL     1     -11.817   9.471  71.704  1.00  0.00    -0.457 Cl 
HETATM    9  C   UNL     1     -11.903  11.721  70.104  1.00  0.00    -0.324 A  
HETATM   10  N   UNL     1     -11.593  11.979  68.774  1.00  0.00    -0.286 NA 
BRANCH   9  11
HETATM   11  C   UNL     1     -12.466  12.687  71.071  1.00  0.00    -0.260 C  
HETATM   12  H   UNL     1     -13.770  12.610  72.488  1.00  0.00     0.000 HD 
HETATM   13  O   UNL     1     -13.408  11.989  71.866  1.00  0.00    -0.456 OA 
ENDBRANCH   9  11
BRANCH  10  14
HETATM   14  C   UNL     1     -11.961  13.177  68.023  1.00  0.00    -0.304 C  
BRANCH  14  15
HETATM   15  C   UNL     1     -10.820  14.117  67.734  1.00  0.00    -0.260 A  
HETATM   16  C   UNL     1     -10.071  14.674  68.774  1.00  0.00    -0.235 A  
HETATM   17  C   UNL     1      -8.981  15.515  68.509  1.00  0.00    -0.191 A  
HETATM   18  C   UNL     1      -8.636  15.892  67.202  1.00  0.00    -0.221 A  
HETATM   19  C   UNL     1      -9.373  15.294  66.165  1.00  0.00    -0.360 A  
HETATM   20  C   UNL     1     -10.435  14.415  66.423  1.00  0.00    -0.295 A  
BRANCH  18  21
HETATM   21  C   UNL     1      -7.550  16.873  66.908  1.00  0.00    -0.250 A  
HETATM   22  C   UNL     1      -6.223  16.393  66.773  1.00  0.00     0.032 A  
HETATM   23  C   UNL     1      -5.144  17.235  66.483  1.00  0.00    -0.195 A  
HETATM   24  C   UNL     1      -5.351  18.596  66.343  1.00  0.00    -0.167 A  
HETATM   25  C   UNL     1      -6.639  19.108  66.491  1.00  0.00    -0.206 A  
HETATM   26  C   UNL     1      -7.748  18.269  66.751  1.00  0.00    -0.247 A  
BRANCH  26  27
HETATM   27  C   UNL     1      -9.048  18.926  66.811  1.00  0.00    -0.312 A  
HETATM   28  N   UNL     1      -9.512  19.574  67.899  1.00  0.00    -0.324 NA 
HETATM   29  N   UNL     1     -10.704  19.979  67.446  1.00  0.00    -0.302 NA 
HETATM   30  N   UNL     1     -11.005  19.634  66.192  1.00  0.00    -0.297 NA 
HETATM   31  H   UNL     1     -11.345  20.521  68.025  1.00  0.00     0.000 HD 
HETATM   32  N   UNL     1      -9.936  18.978  65.762  1.00  0.00    -0.452 NA 
ENDBRANCH  26  27
ENDBRANCH  18  21
ENDBRANCH  14  15
ENDBRANCH  10  14
ENDBRANCH   4   5
ENDBRANCH   3   4
ENDBRANCH   2   3
TORSDOF 8
ENDMDL
MODEL       80
REMARK 921   NORMALIZED FREE ENERGY PREDICTED BY IDOCK:   -5.89 KCAL/MOL
REMARK 922        TOTAL FREE ENERGY PREDICTED BY IDOCK:   -9.67 KCAL/MOL
REMARK 923 INTER-LIGAND FREE ENERGY PREDICTED BY IDOCK:   -8.49 KCAL/MOL
REMARK 924 INTRA-LIGAND FREE ENERGY PREDICTED BY IDOCK:   -1.18 KCAL/MOL
REMARK 927      BINDING AFFINITY PREDICTED BY RF-SCORE:    0.00 PKD
ROOT
HETATM    1  C   UNL     1     -11.239   3.439  73.576  1.00  0.00    -0.280 C  
HETATM    2  C   UNL     1     -10.903   4.921  73.536  1.00  0.00    -0.370 C  
ENDROOT
BRANCH   2   3
HETATM    3  C   UNL     1     -11.659   5.644  72.416  1.00  0.00    -0.281 C  
BRANCH   3   4
HETATM    4  C   UNL     1     -10.862   5.776  71.114  1.00  0.00    -0.316 C  
BRANCH   4   5
HETATM    5  C   UNL     1      -9.443   6.206  71.327  1.00  0.00    -0.163 A  
HETATM    6  N   UNL     1      -8.428   5.367  71.254  1.00  0.00    -0.124 NA 
HETATM    7  C   UNL     1      -7.303   6.098  71.487  1.00  0.00    -0.089 A  
HETATM    8 CL   UNL     1      -5.754   5.392  71.489  1.00  0.00    -0.019 Cl 
HETATM    9  C   UNL     1      -7.616   7.418  71.741  1.00  0.00    -0.085 A  
HETATM   10  N   UNL     1      -9.001   7.478  71.659  1.00  0.00    -0.123 NA 
BRANCH   9  11
HETATM   11  C   UNL     1      -6.713   8.540  72.072  1.00  0.00    -0.082 C  
HETATM   12  H   UNL     1      -6.191   9.454  73.687  1.00  0.00     0.000 HD 
HETATM   13  O   UNL     1      -6.773   8.732  73.474  1.00  0.00    -0.302 OA 
ENDBRANCH   9  11
BRANCH  10  14
HETATM   14  C   UNL     1      -9.840   8.594  72.093  1.00  0.00    -0.317 C  
BRANCH  14  15
HETATM   15  C   UNL     1     -10.278   9.521  70.988  1.00  0.00    -0.332 A  
HETATM   16  C   UNL     1      -9.382   9.924  69.996  1.00  0.00    -0.232 A  
HETATM   17  C   UNL     1      -9.796  10.752  68.942  1.00  0.00    -0.209 A  
HETATM   18  C   UNL     1     -11.100  11.268  68.873  1.00  0.00    -0.295 A  
HETATM   19  C   UNL     1     -12.000  10.822  69.856  1.00  0.00    -0.418 A  
HETATM   20  C   UNL     1     -11.603   9.957  70.886  1.00  0.00    -0.456 A  
BRANCH  18  21
HETATM   21  C   UNL     1     -11.525  12.238  67.821  1.00  0.00    -0.392 A  
HETATM   22  C   UNL     1     -11.709  11.764  66.499  1.00  0.00    -0.149 A  
HETATM   23  C   UNL     1     -12.122  12.596  65.452  1.00  0.00    -0.516 A  
HETATM   24  C   UNL     1     -12.341  13.942  65.686  1.00  0.00    -0.511 A  
HETATM   25  C   UNL     1     -12.149  14.448  66.970  1.00  0.00    -0.374 A  
HETATM   26  C   UNL     1     -11.765  13.618  68.049  1.00  0.00    -0.387 A  
BRANCH  26  27
HETATM   27  C   UNL     1     -11.669  14.264  69.353  1.00  0.00    -0.316 A  
HETATM   28  N   UNL     1     -10.590  14.956  69.770  1.00  0.00    -0.208 NA 
HETATM   29  N   UNL     1     -11.001  15.328  70.988  1.00  0.00    -0.516 NA 
HETATM   30  N   UNL     1     -12.220  14.922  71.347  1.00  0.00    -0.313 NA 
HETATM   31  H   UNL     1     -10.415  15.889  71.607  1.00  0.00     0.000 HD 
HETATM   32  N   UNL     1     -12.673  14.258  70.292  1.00  0.00    -0.314 NA 
ENDBRANCH  26  27
ENDBRANCH  18  21
ENDBRANCH  14  15
ENDBRANCH  10  14
ENDBRANCH   4   5
ENDBRANCH   3   4
ENDBRANCH   2   3
TORSDOF 8
ENDMDL
MODEL       81
REMARK 921   NORMALIZED FREE ENERGY PREDICTED BY IDOCK:   -5.88 KCAL/MOL
REMARK 922        TOTAL FREE ENERGY PREDICTED BY IDOCK:   -9.65 KCAL/MOL
REMARK 923 INTER-LIGAND FREE ENERGY PREDICTED BY IDOCK:   -7.55 KCAL/MOL
REMARK 924 INTRA-LIGAND FREE ENERGY PREDICTED BY IDOCK:   -2.10 KCAL/MOL
REMARK 927      BINDING AFFINITY PREDICTED BY RF-SCORE:    0.00 PKD
ROOT
HETATM    1  C   UNL     1      -6.653  11.032  67.037  1.00  0.00    -0.100 C  
HETATM    2  C   UNL     1      -7.159  11.734  68.286  1.00  0.00    -0.079 C  
ENDROOT
BRANCH   2   3
HETATM    3  C   UNL     1      -6.952  10.877  69.540  1.00  0.00    -0.131 C  
BRANCH   3   4
HETATM    4  C   UNL     1      -7.465   9.439  69.402  1.00  0.00    -0.080 C  
BRANCH   4   5
HETATM    5  C   UNL     1      -8.315   8.998  70.553  1.00  0.00    -0.183 A  
HETATM    6  N   UNL     1      -7.828   8.795  71.761  1.00  0.00    -0.296 NA 
HETATM    7  C   UNL     1      -8.875   8.420  72.545  1.00  0.00    -0.225 A  
HETATM    8 CL   UNL     1      -8.680   8.055  74.196  1.00  0.00    -0.279 Cl 
HETATM    9  C   UNL     1     -10.043   8.356  71.812  1.00  0.00    -0.247 A  
HETATM   10  N   UNL     1      -9.672   8.708  70.520  1.00  0.00    -0.173 NA 
BRANCH   9  11
HETATM   11  C   UNL     1     -11.397   7.963  72.254  1.00  0.00    -0.337 C  
HETATM   12  H   UNL     1     -13.065   8.881  72.552  1.00  0.00     0.000 HD 
HETATM   13  O   UNL     1     -12.194   9.134  72.268  1.00  0.00    -0.344 OA 
ENDBRANCH   9  11
BRANCH  10  14
HETATM   14  C   UNL     1     -10.489   8.550  69.318  1.00  0.00    -0.215 C  
BRANCH  14  15
HETATM   15  C   UNL     1     -10.658   9.804  68.500  1.00  0.00    -0.252 A  
HETATM   16  C   UNL     1     -11.250  10.943  69.052  1.00  0.00    -0.327 A  
HETATM   17  C   UNL     1     -11.371  12.125  68.308  1.00  0.00    -0.343 A  
HETATM   18  C   UNL     1     -10.971  12.201  66.964  1.00  0.00    -0.319 A  
HETATM   19  C   UNL     1     -10.341  11.060  66.436  1.00  0.00    -0.302 A  
HETATM   20  C   UNL     1     -10.176   9.889  67.190  1.00  0.00    -0.285 A  
BRANCH  18  21
HETATM   21  C   UNL     1     -11.194  13.416  66.126  1.00  0.00    -0.311 A  
HETATM   22  C   UNL     1     -12.119  13.338  65.056  1.00  0.00    -0.447 A  
HETATM   23  C   UNL     1     -12.404  14.429  64.228  1.00  0.00    -0.402 A  
HETATM   24  C   UNL     1     -11.752  15.633  64.424  1.00  0.00    -0.218 A  
HETATM   25  C   UNL     1     -10.818  15.740  65.453  1.00  0.00    -0.376 A  
HETATM   26  C   UNL     1     -10.540  14.660  66.323  1.00  0.00    -0.306 A  
BRANCH  26  27
HETATM   27  C   UNL     1      -9.595  14.930  67.400  1.00  0.00    -0.206 A  
HETATM   28  N   UNL     1      -9.961  15.200  68.669  1.00  0.00    -0.213 NA 
HETATM   29  N   UNL     1      -8.759  15.363  69.234  1.00  0.00    -0.241 NA 
HETATM   30  N   UNL     1      -7.705  15.223  68.427  1.00  0.00    -0.120 NA 
HETATM   31  H   UNL     1      -8.654  15.583  70.225  1.00  0.00     0.000 HD 
HETATM   32  N   UNL     1      -8.228  14.916  67.248  1.00  0.00    -0.196 NA 
ENDBRANCH  26  27
ENDBRANCH  18  21
ENDBRANCH  14  15
ENDBRANCH  10  14
ENDBRANCH   4   5
ENDBRANCH   3   4
ENDBRANCH   2   3
TORSDOF 8
ENDMDL
MODEL       82
REMARK 921   NORMALIZED FREE ENERGY PREDICTED BY IDOCK:   -5.87 KCAL/MOL
REMARK 922        TOTAL FREE ENERGY PREDICTED BY IDOCK:   -9.65 KCAL/MOL
REMARK 923 INTER-LIGAND FREE ENERGY PREDICTED BY IDOCK:   -8.69 KCAL/MOL
REMARK 924 INTRA-LIGAND FREE ENERGY PREDICTED BY IDOCK:   -0.96 KCAL/MOL
REMARK 927      BINDING AFFINITY PREDICTED BY RF-SCORE:    0.00 PKD
ROOT
HETATM    1  C   UNL     1     -12.456  15.803  72.825  1.00  0.00    -0.558 C  
HETATM    2  C   UNL     1     -13.955  15.561  72.757  1.00  0.00    -0.545 C  
ENDROOT
BRANCH   2   3
HETATM    3  C   UNL     1     -14.287  14.274  71.995  1.00  0.00    -0.629 C  
BRANCH   3   4
HETATM    4  C   UNL     1     -13.326  13.115  72.286  1.00  0.00    -0.621 C  
BRANCH   4   5
HETATM    5  C   UNL     1     -12.556  12.665  71.083  1.00  0.00    -0.258 A  
HETATM    6  N   UNL     1     -11.860  13.497  70.333  1.00  0.00    -0.269 NA 
HETATM    7  C   UNL     1     -11.289  12.748  69.349  1.00  0.00    -0.202 A  
HETATM    8 CL   UNL     1     -10.299  13.440  68.150  1.00  0.00    -0.241 Cl 
HETATM    9  C   UNL     1     -11.656  11.423  69.462  1.00  0.00    -0.331 A  
HETATM   10  N   UNL     1     -12.493  11.378  70.570  1.00  0.00    -0.311 NA 
BRANCH   9  11
HETATM   11  C   UNL     1     -11.296  10.282  68.595  1.00  0.00    -0.166 C  
HETATM   12  H   UNL     1     -11.485   9.865  66.723  1.00  0.00     0.000 HD 
HETATM   13  O   UNL     1     -11.717  10.599  67.280  1.00  0.00    -0.317 OA 
ENDBRANCH   9  11
BRANCH  10  14
HETATM   14  C   UNL     1     -13.343  10.254  70.960  1.00  0.00    -0.225 C  
BRANCH  14  15
HETATM   15  C   UNL     1     -12.597   9.022  71.404  1.00  0.00    -0.370 A  
HETATM   16  C   UNL     1     -11.295   9.116  71.901  1.00  0.00    -0.416 A  
HETATM   17  C   UNL     1     -10.613   7.978  72.355  1.00  0.00    -0.373 A  
HETATM   18  C   UNL     1     -11.172   6.693  72.267  1.00  0.00    -0.303 A  
HETATM   19  C   UNL     1     -12.496   6.620  71.802  1.00  0.00    -0.360 A  
HETATM   20  C   UNL     1     -13.201   7.761  71.390  1.00  0.00    -0.310 A  
BRANCH  18  21
HETATM   21  C   UNL     1     -10.417   5.461  72.642  1.00  0.00    -0.261 A  
HETATM   22  C   UNL     1     -10.663   4.877  73.910  1.00  0.00    -0.363 A  
HETATM   23  C   UNL     1     -10.016   3.714  74.340  1.00  0.00    -0.187 A  
HETATM   24  C   UNL     1      -9.078   3.105  73.526  1.00  0.00    -0.091 A  
HETATM   25  C   UNL     1      -8.793   3.664  72.281  1.00  0.00    -0.117 A  
HETATM   26  C   UNL     1      -9.461   4.820  71.813  1.00  0.00    -0.201 A  
BRANCH  26  27
HETATM   27  C   UNL     1      -9.119   5.257  70.465  1.00  0.00    -0.141 A  
HETATM   28  N   UNL     1      -9.790   4.875  69.360  1.00  0.00    -0.195 NA 
HETATM   29  N   UNL     1      -9.098   5.533  68.422  1.00  0.00    -0.110 NA 
HETATM   30  N   UNL     1      -8.072   6.269  68.855  1.00  0.00    -0.109 NA 
HETATM   31  H   UNL     1      -9.340   5.475  67.433  1.00  0.00     0.000 HD 
HETATM   32  N   UNL     1      -8.091   6.122  70.172  1.00  0.00    -0.114 NA 
ENDBRANCH  26  27
ENDBRANCH  18  21
ENDBRANCH  14  15
ENDBRANCH  10  14
ENDBRANCH   4   5
ENDBRANCH   3   4
ENDBRANCH   2   3
TORSDOF 8
ENDMDL
MODEL       83
REMARK 921   NORMALIZED FREE ENERGY PREDICTED BY IDOCK:   -5.87 KCAL/MOL
REMARK 922        TOTAL FREE ENERGY PREDICTED BY IDOCK:   -9.65 KCAL/MOL
REMARK 923 INTER-LIGAND FREE ENERGY PREDICTED BY IDOCK:   -7.61 KCAL/MOL
REMARK 924 INTRA-LIGAND FREE ENERGY PREDICTED BY IDOCK:   -2.04 KCAL/MOL
REMARK 927      BINDING AFFINITY PREDICTED BY RF-SCORE:    0.00 PKD
ROOT
HETATM    1  C   UNL     1      -7.178   8.848  66.107  1.00  0.00    -0.090 C  
HETATM    2  C   UNL     1      -8.493   8.309  65.568  1.00  0.00    -0.177 C  
ENDROOT
BRANCH   2   3
HETATM    3  C   UNL     1      -9.344   9.416  64.938  1.00  0.00    -0.218 C  
BRANCH   3   4
HETATM    4  C   UNL     1      -8.843  10.833  65.242  1.00  0.00    -0.200 C  
BRANCH   4   5
HETATM    5  C   UNL     1      -9.901  11.727  65.812  1.00  0.00    -0.240 A  
HETATM    6  N   UNL     1     -10.795  12.341  65.061  1.00  0.00    -0.287 NA 
HETATM    7  C   UNL     1     -11.594  13.048  65.906  1.00  0.00    -0.363 A  
HETATM    8 CL   UNL     1     -12.889  13.996  65.340  1.00  0.00    -0.515 Cl 
HETATM    9  C   UNL     1     -11.178  12.903  67.214  1.00  0.00    -0.288 A  
HETATM   10  N   UNL     1     -10.070  12.067  67.146  1.00  0.00    -0.201 NA 
BRANCH   9  11
HETATM   11  C   UNL     1     -11.734  13.516  68.439  1.00  0.00    -0.358 C  
HETATM   12  H   UNL     1     -12.623  12.865  70.020  1.00  0.00     0.000 HD 
HETATM   13  O   UNL     1     -12.266  12.470  69.233  1.00  0.00    -0.195 OA 
ENDBRANCH   9  11
BRANCH  10  14
HETATM   14  C   UNL     1      -9.120  11.811  68.227  1.00  0.00    -0.187 C  
BRANCH  14  15
HETATM   15  C   UNL     1      -9.273  10.470  68.897  1.00  0.00    -0.188 A  
HETATM   16  C   UNL     1     -10.285   9.588  68.509  1.00  0.00    -0.223 A  
HETATM   17  C   UNL     1     -10.404   8.322  69.099  1.00  0.00    -0.225 A  
HETATM   18  C   UNL     1      -9.566   7.910  70.148  1.00  0.00    -0.175 A  
HETATM   19  C   UNL     1      -8.529   8.792  70.500  1.00  0.00    -0.181 A  
HETATM   20  C   UNL     1      -8.376  10.041  69.880  1.00  0.00    -0.169 A  
BRANCH  18  21
HETATM   21  C   UNL     1      -9.750   6.612  70.862  1.00  0.00    -0.190 A  
HETATM   22  C   UNL     1      -8.744   5.623  70.736  1.00  0.00    -0.135 A  
HETATM   23  C   UNL     1      -8.822   4.384  71.381  1.00  0.00    -0.147 A  
HETATM   24  C   UNL     1      -9.926   4.079  72.157  1.00  0.00    -0.242 A  
HETATM   25  C   UNL     1     -10.947   5.020  72.286  1.00  0.00    -0.161 A  
HETATM   26  C   UNL     1     -10.871   6.291  71.670  1.00  0.00    -0.298 A  
BRANCH  26  27
HETATM   27  C   UNL     1     -11.974   7.204  71.945  1.00  0.00    -0.307 A  
HETATM   28  N   UNL     1     -11.870   8.288  72.739  1.00  0.00    -0.325 NA 
HETATM   29  N   UNL     1     -13.119   8.763  72.658  1.00  0.00    -0.608 NA 
HETATM   30  N   UNL     1     -13.965   8.068  71.896  1.00  0.00    -0.374 NA 
HETATM   31  H   UNL     1     -13.407   9.609  73.151  1.00  0.00     0.000 HD 
HETATM   32  N   UNL     1     -13.234   7.075  71.408  1.00  0.00    -0.340 NA 
ENDBRANCH  26  27
ENDBRANCH  18  21
ENDBRANCH  14  15
ENDBRANCH  10  14
ENDBRANCH   4   5
ENDBRANCH   3   4
ENDBRANCH   2   3
TORSDOF 8
ENDMDL
MODEL       84
REMARK 921   NORMALIZED FREE ENERGY PREDICTED BY IDOCK:   -5.81 KCAL/MOL
REMARK 922        TOTAL FREE ENERGY PREDICTED BY IDOCK:   -9.55 KCAL/MOL
REMARK 923 INTER-LIGAND FREE ENERGY PREDICTED BY IDOCK:   -8.91 KCAL/MOL
REMARK 924 INTRA-LIGAND FREE ENERGY PREDICTED BY IDOCK:   -0.64 KCAL/MOL
REMARK 927      BINDING AFFINITY PREDICTED BY RF-SCORE:    0.00 PKD
ROOT
HETATM    1  C   UNL     1     -10.571  19.234  67.007  1.00  0.00    -0.571 C  
HETATM    2  C   UNL     1     -10.453  17.768  67.388  1.00  0.00    -0.367 C  
ENDROOT
BRANCH   2   3
HETATM    3  C   UNL     1     -10.290  17.587  68.901  1.00  0.00    -0.338 C  
BRANCH   3   4
HETATM    4  C   UNL     1     -10.245  16.122  69.351  1.00  0.00    -0.266 C  
BRANCH   4   5
HETATM    5  C   UNL     1     -11.300  15.776  70.356  1.00  0.00    -0.374 A  
HETATM    6  N   UNL     1     -11.255  16.191  71.607  1.00  0.00    -0.117 NA 
HETATM    7  C   UNL     1     -12.368  15.703  72.219  1.00  0.00    -0.428 A  
HETATM    8 CL   UNL     1     -12.699  16.005  73.861  1.00  0.00    -0.681 Cl 
HETATM    9  C   UNL     1     -13.117  14.940  71.346  1.00  0.00    -0.369 A  
HETATM   10  N   UNL     1     -12.411  14.971  70.149  1.00  0.00    -0.329 NA 
BRANCH   9  11
HETATM   11  C   UNL     1     -14.373  14.203  71.599  1.00  0.00    -0.294 C  
HETATM   12  H   UNL     1     -14.946  12.853  72.849  1.00  0.00     0.000 HD 
HETATM   13  O   UNL     1     -14.138  13.327  72.687  1.00  0.00    -0.744 OA 
ENDBRANCH   9  11
BRANCH  10  14
HETATM   14  C   UNL     1     -12.652  14.117  68.988  1.00  0.00     0.321 C  
BRANCH  14  15
HETATM   15  C   UNL     1     -11.957  12.781  69.032  1.00  0.00    -0.288 A  
HETATM   16  C   UNL     1     -11.838  12.077  70.234  1.00  0.00    -0.356 A  
HETATM   17  C   UNL     1     -11.231  10.814  70.272  1.00  0.00    -0.326 A  
HETATM   18  C   UNL     1     -10.656  10.232  69.131  1.00  0.00    -0.254 A  
HETATM   19  C   UNL     1     -10.818  10.934  67.924  1.00  0.00    -0.295 A  
HETATM   20  C   UNL     1     -11.466  12.176  67.871  1.00  0.00    -0.392 A  
BRANCH  18  21
HETATM   21  C   UNL     1      -9.908   8.940  69.177  1.00  0.00    -0.180 A  
HETATM   22  C   UNL     1      -8.818   8.759  68.291  1.00  0.00    -0.141 A  
HETATM   23  C   UNL     1      -8.050   7.589  68.273  1.00  0.00    -0.124 A  
HETATM   24  C   UNL     1      -8.363   6.546  69.126  1.00  0.00    -0.119 A  
HETATM   25  C   UNL     1      -9.443   6.680  69.996  1.00  0.00    -0.161 A  
HETATM   26  C   UNL     1     -10.211   7.866  70.054  1.00  0.00    -0.208 A  
BRANCH  26  27
HETATM   27  C   UNL     1     -11.268   7.899  71.058  1.00  0.00    -0.269 A  
HETATM   28  N   UNL     1     -12.528   7.476  70.836  1.00  0.00    -0.194 NA 
HETATM   29  N   UNL     1     -13.074   7.713  72.034  1.00  0.00    -0.490 NA 
HETATM   30  N   UNL     1     -12.266   8.242  72.955  1.00  0.00    -0.198 NA 
HETATM   31  H   UNL     1     -14.052   7.501  72.233  1.00  0.00     0.000 HD 
HETATM   32  N   UNL     1     -11.091   8.342  72.348  1.00  0.00    -0.360 NA 
ENDBRANCH  26  27
ENDBRANCH  18  21
ENDBRANCH  14  15
ENDBRANCH  10  14
ENDBRANCH   4   5
ENDBRANCH   3   4
ENDBRANCH   2   3
TORSDOF 8
ENDMDL
MODEL       85
REMARK 921   NORMALIZED FREE ENERGY PREDICTED BY IDOCK:   -5.78 KCAL/MOL
REMARK 922        TOTAL FREE ENERGY PREDICTED BY IDOCK:   -9.51 KCAL/MOL
REMARK 923 INTER-LIGAND FREE ENERGY PREDICTED BY IDOCK:   -8.39 KCAL/MOL
REMARK 924 INTRA-LIGAND FREE ENERGY PREDICTED BY IDOCK:   -1.12 KCAL/MOL
REMARK 927      BINDING AFFINITY PREDICTED BY RF-SCORE:    0.00 PKD
ROOT
HETATM    1  C   UNL     1      -7.237   2.834  73.585  1.00  0.00    -0.041 C  
HETATM    2  C   UNL     1      -7.212   4.014  74.543  1.00  0.00    -0.069 C  
ENDROOT
BRANCH   2   3
HETATM    3  C   UNL     1      -7.833   5.267  73.916  1.00  0.00    -0.101 C  
BRANCH   3   4
HETATM    4  C   UNL     1      -9.263   5.061  73.404  1.00  0.00    -0.124 C  
BRANCH   4   5
HETATM    5  C   UNL     1      -9.406   5.292  71.931  1.00  0.00    -0.141 A  
HETATM    6  N   UNL     1      -8.393   5.187  71.093  1.00  0.00    -0.118 NA 
HETATM    7  C   UNL     1      -8.886   5.449  69.852  1.00  0.00    -0.125 A  
HETATM    8 CL   UNL     1      -7.899   5.423  68.466  1.00  0.00    -0.087 Cl 
HETATM    9  C   UNL     1     -10.231   5.756  69.910  1.00  0.00    -0.236 A  
HETATM   10  N   UNL     1     -10.557   5.675  71.258  1.00  0.00    -0.252 NA 
BRANCH   9  11
HETATM   11  C   UNL     1     -11.146   6.132  68.813  1.00  0.00    -0.319 C  
HETATM   12  H   UNL     1     -11.360   7.668  67.668  1.00  0.00     0.000 HD 
HETATM   13  O   UNL     1     -10.771   7.426  68.374  1.00  0.00    -0.180 OA 
ENDBRANCH   9  11
BRANCH  10  14
HETATM   14  C   UNL     1     -11.794   6.153  71.873  1.00  0.00    -0.257 C  
BRANCH  14  15
HETATM   15  C   UNL     1     -12.025   7.637  71.755  1.00  0.00    -0.333 A  
HETATM   16  C   UNL     1     -13.319   8.165  71.795  1.00  0.00    -0.370 A  
HETATM   17  C   UNL     1     -13.536   9.549  71.729  1.00  0.00    -0.480 A  
HETATM   18  C   UNL     1     -12.481  10.457  71.549  1.00  0.00    -0.508 A  
HETATM   19  C   UNL     1     -11.184   9.915  71.550  1.00  0.00    -0.169 A  
HETATM   20  C   UNL     1     -10.958   8.536  71.663  1.00  0.00    -0.362 A  
BRANCH  18  21
HETATM   21  C   UNL     1     -12.704  11.922  71.365  1.00  0.00    -0.395 A  
HETATM   22  C   UNL     1     -13.327  12.647  72.411  1.00  0.00    -0.424 A  
HETATM   23  C   UNL     1     -13.562  14.025  72.334  1.00  0.00    -0.658 A  
HETATM   24  C   UNL     1     -13.205  14.723  71.194  1.00  0.00    -0.452 A  
HETATM   25  C   UNL     1     -12.611  14.038  70.136  1.00  0.00    -0.310 A  
HETATM   26  C   UNL     1     -12.333  12.653  70.206  1.00  0.00    -0.269 A  
BRANCH  26  27
HETATM   27  C   UNL     1     -11.645  12.076  69.058  1.00  0.00    -0.313 A  
HETATM   28  N   UNL     1     -12.150  11.081  68.302  1.00  0.00    -0.571 NA 
HETATM   29  N   UNL     1     -11.160  10.931  67.413  1.00  0.00    -0.310 NA 
HETATM   30  N   UNL     1     -10.106  11.736  67.565  1.00  0.00    -0.190 NA 
HETATM   31  H   UNL     1     -11.209  10.240  66.664  1.00  0.00     0.000 HD 
HETATM   32  N   UNL     1     -10.417  12.498  68.604  1.00  0.00    -0.224 NA 
ENDBRANCH  26  27
ENDBRANCH  18  21
ENDBRANCH  14  15
ENDBRANCH  10  14
ENDBRANCH   4   5
ENDBRANCH   3   4
ENDBRANCH   2   3
TORSDOF 8
ENDMDL
MODEL       86
REMARK 921   NORMALIZED FREE ENERGY PREDICTED BY IDOCK:   -5.74 KCAL/MOL
REMARK 922        TOTAL FREE ENERGY PREDICTED BY IDOCK:   -9.46 KCAL/MOL
REMARK 923 INTER-LIGAND FREE ENERGY PREDICTED BY IDOCK:   -7.72 KCAL/MOL
REMARK 924 INTRA-LIGAND FREE ENERGY PREDICTED BY IDOCK:   -1.73 KCAL/MOL
REMARK 927      BINDING AFFINITY PREDICTED BY RF-SCORE:    0.00 PKD
ROOT
HETATM    1  C   UNL     1     -11.705  15.643  64.751  1.00  0.00    -0.134 C  
HETATM    2  C   UNL     1     -12.428  14.314  64.902  1.00  0.00    -0.403 C  
ENDROOT
BRANCH   2   3
HETATM    3  C   UNL     1     -11.513  13.131  64.571  1.00  0.00    -0.390 C  
BRANCH   3   4
HETATM    4  C   UNL     1     -11.601  11.977  65.577  1.00  0.00    -0.352 C  
BRANCH   4   5
HETATM    5  C   UNL     1     -10.330  11.194  65.697  1.00  0.00    -0.254 A  
HETATM    6  N   UNL     1      -9.993  10.249  64.840  1.00  0.00    -0.334 NA 
HETATM    7  C   UNL     1      -8.787   9.768  65.246  1.00  0.00    -0.175 A  
HETATM    8 CL   UNL     1      -7.987   8.520  64.410  1.00  0.00    -0.140 Cl 
HETATM    9  C   UNL     1      -8.366  10.400  66.399  1.00  0.00    -0.139 A  
HETATM   10  N   UNL     1      -9.377  11.304  66.699  1.00  0.00    -0.176 NA 
BRANCH   9  11
HETATM   11  C   UNL     1      -7.142  10.166  67.192  1.00  0.00    -0.089 C  
HETATM   12  H   UNL     1      -5.267  10.555  66.972  1.00  0.00     0.000 HD 
HETATM   13  O   UNL     1      -6.054  10.705  66.462  1.00  0.00    -0.070 OA 
ENDBRANCH   9  11
BRANCH  10  14
HETATM   14  C   UNL     1      -9.531  12.035  67.955  1.00  0.00    -0.199 C  
BRANCH  14  15
HETATM   15  C   UNL     1      -9.522  13.536  67.818  1.00  0.00    -0.216 A  
HETATM   16  C   UNL     1      -8.666  14.165  66.911  1.00  0.00    -0.187 A  
HETATM   17  C   UNL     1      -8.684  15.558  66.748  1.00  0.00    -0.302 A  
HETATM   18  C   UNL     1      -9.505  16.386  67.531  1.00  0.00    -0.224 A  
HETATM   19  C   UNL     1     -10.388  15.735  68.411  1.00  0.00    -0.233 A  
HETATM   20  C   UNL     1     -10.407  14.339  68.544  1.00  0.00    -0.244 A  
BRANCH  18  21
HETATM   21  C   UNL     1      -9.456  17.875  67.450  1.00  0.00    -0.258 A  
HETATM   22  C   UNL     1     -10.562  18.558  66.885  1.00  0.00    -0.406 A  
HETATM   23  C   UNL     1     -10.613  19.952  66.781  1.00  0.00    -0.536 A  
HETATM   24  C   UNL     1      -9.544  20.715  67.217  1.00  0.00    -0.558 A  
HETATM   25  C   UNL     1      -8.429  20.077  67.758  1.00  0.00    -0.338 A  
HETATM   26  C   UNL     1      -8.372  18.671  67.902  1.00  0.00    -0.293 A  
BRANCH  26  27
HETATM   27  C   UNL     1      -7.177  18.140  68.548  1.00  0.00    -0.268 A  
HETATM   28  N   UNL     1      -5.983  18.764  68.546  1.00  0.00    -0.207 NA 
HETATM   29  N   UNL     1      -5.255  17.889  69.250  1.00  0.00    -0.179 NA 
HETATM   30  N   UNL     1      -5.895  16.797  69.672  1.00  0.00    -0.195 NA 
HETATM   31  H   UNL     1      -4.268  18.049  69.453  1.00  0.00     0.000 HD 
HETATM   32  N   UNL     1      -7.142  16.958  69.251  1.00  0.00    -0.225 NA 
ENDBRANCH  26  27
ENDBRANCH  18  21
ENDBRANCH  14  15
ENDBRANCH  10  14
ENDBRANCH   4   5
ENDBRANCH   3   4
ENDBRANCH   2   3
TORSDOF 8
ENDMDL
MODEL       87
REMARK 921   NORMALIZED FREE ENERGY PREDICTED BY IDOCK:   -5.72 KCAL/MOL
REMARK 922        TOTAL FREE ENERGY PREDICTED BY IDOCK:   -9.43 KCAL/MOL
REMARK 923 INTER-LIGAND FREE ENERGY PREDICTED BY IDOCK:   -7.80 KCAL/MOL
REMARK 924 INTRA-LIGAND FREE ENERGY PREDICTED BY IDOCK:   -1.63 KCAL/MOL
REMARK 927      BINDING AFFINITY PREDICTED BY RF-SCORE:    0.00 PKD
ROOT
HETATM    1  C   UNL     1      -6.407  14.219  68.596  1.00  0.00    -0.088 C  
HETATM    2  C   UNL     1      -7.903  14.135  68.851  1.00  0.00    -0.076 C  
ENDROOT
BRANCH   2   3
HETATM    3  C   UNL     1      -8.407  15.331  69.665  1.00  0.00    -0.108 C  
BRANCH   3   4
HETATM    4  C   UNL     1      -9.928  15.516  69.621  1.00  0.00    -0.287 C  
BRANCH   4   5
HETATM    5  C   UNL     1     -10.538  15.113  68.314  1.00  0.00    -0.243 A  
HETATM    6  N   UNL     1     -10.290  15.751  67.186  1.00  0.00    -0.285 NA 
HETATM    7  C   UNL     1     -10.995  15.109  66.214  1.00  0.00    -0.335 A  
HETATM    8 CL   UNL     1     -10.959  15.619  64.590  1.00  0.00    -0.415 Cl 
HETATM    9  C   UNL     1     -11.725  14.064  66.742  1.00  0.00    -0.407 A  
HETATM   10  N   UNL     1     -11.445  14.084  68.102  1.00  0.00    -0.290 NA 
BRANCH   9  11
HETATM   11  C   UNL     1     -12.645  13.134  66.055  1.00  0.00    -0.122 C  
HETATM   12  H   UNL     1     -12.534  11.326  65.397  1.00  0.00     0.000 HD 
HETATM   13  O   UNL     1     -11.941  11.924  65.839  1.00  0.00    -0.480 OA 
ENDBRANCH   9  11
BRANCH  10  14
HETATM   14  C   UNL     1     -12.161  13.342  69.139  1.00  0.00    -0.261 C  
BRANCH  14  15
HETATM   15  C   UNL     1     -11.481  12.076  69.592  1.00  0.00    -0.322 A  
HETATM   16  C   UNL     1     -12.048  11.277  70.588  1.00  0.00    -0.480 A  
HETATM   17  C   UNL     1     -11.442  10.076  70.983  1.00  0.00    -0.463 A  
HETATM   18  C   UNL     1     -10.211   9.658  70.453  1.00  0.00    -0.348 A  
HETATM   19  C   UNL     1      -9.673  10.451  69.424  1.00  0.00    -0.222 A  
HETATM   20  C   UNL     1     -10.299  11.630  68.993  1.00  0.00    -0.119 A  
BRANCH  18  21
HETATM   21  C   UNL     1      -9.497   8.441  70.941  1.00  0.00    -0.205 A  
HETATM   22  C   UNL     1      -8.849   8.497  72.200  1.00  0.00    -0.286 A  
HETATM   23  C   UNL     1      -8.169   7.403  72.746  1.00  0.00    -0.134 A  
HETATM   24  C   UNL     1      -8.091   6.217  72.037  1.00  0.00    -0.109 A  
HETATM   25  C   UNL     1      -8.698   6.132  70.785  1.00  0.00    -0.136 A  
HETATM   26  C   UNL     1      -9.418   7.215  70.231  1.00  0.00    -0.162 A  
BRANCH  26  27
HETATM   27  C   UNL     1     -10.063   6.967  68.946  1.00  0.00    -0.173 A  
HETATM   28  N   UNL     1     -11.365   6.648  68.810  1.00  0.00    -0.173 NA 
HETATM   29  N   UNL     1     -11.444   6.532  67.479  1.00  0.00    -0.714 NA 
HETATM   30  N   UNL     1     -10.314   6.746  66.802  1.00  0.00    -0.230 NA 
HETATM   31  H   UNL     1     -12.318   6.294  67.009  1.00  0.00     0.000 HD 
HETATM   32  N   UNL     1      -9.422   7.054  67.733  1.00  0.00    -0.124 NA 
ENDBRANCH  26  27
ENDBRANCH  18  21
ENDBRANCH  14  15
ENDBRANCH  10  14
ENDBRANCH   4   5
ENDBRANCH   3   4
ENDBRANCH   2   3
TORSDOF 8
ENDMDL
MODEL       88
REMARK 921   NORMALIZED FREE ENERGY PREDICTED BY IDOCK:   -5.70 KCAL/MOL
REMARK 922        TOTAL FREE ENERGY PREDICTED BY IDOCK:   -9.40 KCAL/MOL
REMARK 923 INTER-LIGAND FREE ENERGY PREDICTED BY IDOCK:   -7.37 KCAL/MOL
REMARK 924 INTRA-LIGAND FREE ENERGY PREDICTED BY IDOCK:   -2.03 KCAL/MOL
REMARK 927      BINDING AFFINITY PREDICTED BY RF-SCORE:    0.00 PKD
ROOT
HETATM    1  C   UNL     1      -6.691  11.058  67.885  1.00  0.00    -0.063 C  
HETATM    2  C   UNL     1      -7.702  11.913  68.630  1.00  0.00    -0.113 C  
ENDROOT
BRANCH   2   3
HETATM    3  C   UNL     1      -7.782  13.330  68.051  1.00  0.00    -0.147 C  
BRANCH   3   4
HETATM    4  C   UNL     1      -8.995  14.132  68.538  1.00  0.00    -0.174 C  
BRANCH   4   5
HETATM    5  C   UNL     1      -9.991  14.418  67.457  1.00  0.00    -0.224 A  
HETATM    6  N   UNL     1      -9.778  15.312  66.511  1.00  0.00    -0.252 NA 
HETATM    7  C   UNL     1     -10.875  15.296  65.706  1.00  0.00    -0.358 A  
HETATM    8 CL   UNL     1     -11.013  16.314  64.349  1.00  0.00    -0.153 Cl 
HETATM    9  C   UNL     1     -11.813  14.395  66.168  1.00  0.00    -0.382 A  
HETATM   10  N   UNL     1     -11.247  13.847  67.312  1.00  0.00    -0.302 NA 
BRANCH   9  11
HETATM   11  C   UNL     1     -13.150  14.084  65.622  1.00  0.00    -0.147 C  
HETATM   12  H   UNL     1     -13.867  12.770  64.408  1.00  0.00     0.000 HD 
HETATM   13  O   UNL     1     -13.007  12.970  64.759  1.00  0.00    -0.735 OA 
ENDBRANCH   9  11
BRANCH  10  14
HETATM   14  C   UNL     1     -11.940  13.030  68.307  1.00  0.00    -0.267 C  
BRANCH  14  15
HETATM   15  C   UNL     1     -11.455  11.607  68.404  1.00  0.00    -0.360 A  
HETATM   16  C   UNL     1     -11.077  10.901  67.259  1.00  0.00    -0.350 A  
HETATM   17  C   UNL     1     -10.585   9.591  67.349  1.00  0.00    -0.337 A  
HETATM   18  C   UNL     1     -10.515   8.906  68.572  1.00  0.00    -0.218 A  
HETATM   19  C   UNL     1     -10.862   9.643  69.719  1.00  0.00    -0.274 A  
HETATM   20  C   UNL     1     -11.311  10.969  69.640  1.00  0.00    -0.363 A  
BRANCH  18  21
HETATM   21  C   UNL     1     -10.100   7.476  68.672  1.00  0.00    -0.194 A  
HETATM   22  C   UNL     1     -10.628   6.553  67.735  1.00  0.00    -0.321 A  
HETATM   23  C   UNL     1     -10.283   5.196  67.740  1.00  0.00    -0.190 A  
HETATM   24  C   UNL     1      -9.417   4.709  68.703  1.00  0.00    -0.213 A  
HETATM   25  C   UNL     1      -8.895   5.584  69.654  1.00  0.00    -0.120 A  
HETATM   26  C   UNL     1      -9.204   6.964  69.645  1.00  0.00    -0.146 A  
BRANCH  26  27
HETATM   27  C   UNL     1      -8.534   7.778  70.653  1.00  0.00    -0.126 A  
HETATM   28  N   UNL     1      -8.894   7.809  71.952  1.00  0.00    -0.116 NA 
HETATM   29  N   UNL     1      -7.994   8.678  72.428  1.00  0.00    -0.361 NA 
HETATM   30  N   UNL     1      -7.131   9.176  71.540  1.00  0.00    -0.297 NA 
HETATM   31  H   UNL     1      -7.969   8.944  73.412  1.00  0.00     0.000 HD 
HETATM   32  N   UNL     1      -7.450   8.584  70.398  1.00  0.00    -0.065 NA 
ENDBRANCH  26  27
ENDBRANCH  18  21
ENDBRANCH  14  15
ENDBRANCH  10  14
ENDBRANCH   4   5
ENDBRANCH   3   4
ENDBRANCH   2   3
TORSDOF 8
ENDMDL
MODEL       89
REMARK 921   NORMALIZED FREE ENERGY PREDICTED BY IDOCK:   -5.70 KCAL/MOL
REMARK 922        TOTAL FREE ENERGY PREDICTED BY IDOCK:   -9.40 KCAL/MOL
REMARK 923 INTER-LIGAND FREE ENERGY PREDICTED BY IDOCK:   -8.09 KCAL/MOL
REMARK 924 INTRA-LIGAND FREE ENERGY PREDICTED BY IDOCK:   -1.31 KCAL/MOL
REMARK 927      BINDING AFFINITY PREDICTED BY RF-SCORE:    0.00 PKD
ROOT
HETATM    1  C   UNL     1      -7.051   6.138  73.299  1.00  0.00    -0.084 C  
HETATM    2  C   UNL     1      -6.803   7.615  73.560  1.00  0.00    -0.093 C  
ENDROOT
BRANCH   2   3
HETATM    3  C   UNL     1      -6.888   8.440  72.272  1.00  0.00    -0.100 C  
BRANCH   3   4
HETATM    4  C   UNL     1      -8.322   8.705  71.797  1.00  0.00    -0.203 C  
BRANCH   4   5
HETATM    5  C   UNL     1      -8.637   8.071  70.477  1.00  0.00    -0.134 A  
HETATM    6  N   UNL     1      -7.763   7.339  69.813  1.00  0.00    -0.105 NA 
HETATM    7  C   UNL     1      -8.389   6.921  68.678  1.00  0.00    -0.121 A  
HETATM    8 CL   UNL     1      -7.607   5.943  67.526  1.00  0.00    -0.091 Cl 
HETATM    9  C   UNL     1      -9.673   7.423  68.610  1.00  0.00    -0.152 A  
HETATM   10  N   UNL     1      -9.820   8.184  69.762  1.00  0.00    -0.184 NA 
BRANCH   9  11
HETATM   11  C   UNL     1     -10.682   7.249  67.545  1.00  0.00    -0.256 C  
HETATM   12  H   UNL     1     -10.886   7.865  65.730  1.00  0.00     0.000 HD 
HETATM   13  O   UNL     1     -10.237   7.977  66.415  1.00  0.00    -0.220 OA 
ENDBRANCH   9  11
BRANCH  10  14
HETATM   14  C   UNL     1     -10.905   9.124  70.038  1.00  0.00    -0.234 C  
BRANCH  14  15
HETATM   15  C   UNL     1     -10.823  10.423  69.279  1.00  0.00    -0.280 A  
HETATM   16  C   UNL     1      -9.603  10.879  68.772  1.00  0.00    -0.195 A  
HETATM   17  C   UNL     1      -9.529  12.066  68.029  1.00  0.00    -0.199 A  
HETATM   18  C   UNL     1     -10.652  12.882  67.820  1.00  0.00    -0.231 A  
HETATM   19  C   UNL     1     -11.878  12.390  68.302  1.00  0.00    -0.364 A  
HETATM   20  C   UNL     1     -11.966  11.181  69.006  1.00  0.00    -0.389 A  
BRANCH  18  21
HETATM   21  C   UNL     1     -10.570  14.202  67.127  1.00  0.00    -0.278 A  
HETATM   22  C   UNL     1      -9.912  15.270  67.785  1.00  0.00    -0.224 A  
HETATM   23  C   UNL     1      -9.772  16.537  67.208  1.00  0.00    -0.247 A  
HETATM   24  C   UNL     1     -10.311  16.788  65.958  1.00  0.00    -0.346 A  
HETATM   25  C   UNL     1     -10.984  15.767  65.290  1.00  0.00    -0.354 A  
HETATM   26  C   UNL     1     -11.107  14.470  65.842  1.00  0.00    -0.327 A  
BRANCH  26  27
HETATM   27  C   UNL     1     -11.774  13.479  65.006  1.00  0.00    -0.334 A  
HETATM   28  N   UNL     1     -13.089  13.193  65.086  1.00  0.00    -0.706 NA 
HETATM   29  N   UNL     1     -13.186  12.252  64.139  1.00  0.00    -0.738 NA 
HETATM   30  N   UNL     1     -12.056  11.940  63.502  1.00  0.00    -0.511 NA 
HETATM   31  H   UNL     1     -14.073  11.799  63.918  1.00  0.00     0.000 HD 
HETATM   32  N   UNL     1     -11.143  12.742  64.031  1.00  0.00    -0.387 NA 
ENDBRANCH  26  27
ENDBRANCH  18  21
ENDBRANCH  14  15
ENDBRANCH  10  14
ENDBRANCH   4   5
ENDBRANCH   3   4
ENDBRANCH   2   3
TORSDOF 8
ENDMDL
MODEL       90
REMARK 921   NORMALIZED FREE ENERGY PREDICTED BY IDOCK:   -5.70 KCAL/MOL
REMARK 922        TOTAL FREE ENERGY PREDICTED BY IDOCK:   -9.39 KCAL/MOL
REMARK 923 INTER-LIGAND FREE ENERGY PREDICTED BY IDOCK:   -7.99 KCAL/MOL
REMARK 924 INTRA-LIGAND FREE ENERGY PREDICTED BY IDOCK:   -1.40 KCAL/MOL
REMARK 927      BINDING AFFINITY PREDICTED BY RF-SCORE:    0.00 PKD
ROOT
HETATM    1  C   UNL     1     -10.446   7.113  73.665  1.00  0.00    -0.412 C  
HETATM    2  C   UNL     1     -11.378   7.739  72.640  1.00  0.00    -0.449 C  
ENDROOT
BRANCH   2   3
HETATM    3  C   UNL     1     -11.906   6.699  71.646  1.00  0.00    -0.383 C  
BRANCH   3   4
HETATM    4  C   UNL     1     -11.339   6.850  70.229  1.00  0.00    -0.373 C  
BRANCH   4   5
HETATM    5  C   UNL     1      -9.844   6.788  70.178  1.00  0.00    -0.177 A  
HETATM    6  N   UNL     1      -9.180   5.649  70.147  1.00  0.00    -0.140 NA 
HETATM    7  C   UNL     1      -7.858   5.971  70.092  1.00  0.00    -0.101 A  
HETATM    8 CL   UNL     1      -6.642   4.781  70.041  1.00  0.00    -0.035 Cl 
HETATM    9  C   UNL     1      -7.682   7.339  70.120  1.00  0.00    -0.091 A  
HETATM   10  N   UNL     1      -8.967   7.863  70.199  1.00  0.00    -0.150 NA 
BRANCH   9  11
HETATM   11  C   UNL     1      -6.424   8.114  70.113  1.00  0.00    -0.036 C  
HETATM   12  H   UNL     1      -5.092   8.585  71.424  1.00  0.00     0.000 HD 
HETATM   13  O   UNL     1      -5.901   8.087  71.429  1.00  0.00    -0.034 OA 
ENDBRANCH   9  11
BRANCH  10  14
HETATM   14  C   UNL     1      -9.312   9.249  70.507  1.00  0.00    -0.264 C  
BRANCH  14  15
HETATM   15  C   UNL     1      -9.817  10.049  69.334  1.00  0.00    -0.240 A  
HETATM   16  C   UNL     1     -11.156  10.442  69.259  1.00  0.00    -0.303 A  
HETATM   17  C   UNL     1     -11.621  11.223  68.191  1.00  0.00    -0.359 A  
HETATM   18  C   UNL     1     -10.790  11.583  67.119  1.00  0.00    -0.314 A  
HETATM   19  C   UNL     1      -9.437  11.214  67.227  1.00  0.00    -0.178 A  
HETATM   20  C   UNL     1      -8.956  10.473  68.317  1.00  0.00    -0.139 A  
BRANCH  18  21
HETATM   21  C   UNL     1     -11.295  12.318  65.922  1.00  0.00    -0.406 A  
HETATM   22  C   UNL     1     -11.651  11.571  64.772  1.00  0.00    -0.086 A  
HETATM   23  C   UNL     1     -12.148  12.171  63.609  1.00  0.00    -0.648 A  
HETATM   24  C   UNL     1     -12.282  13.546  63.547  1.00  0.00    -0.410 A  
HETATM   25  C   UNL     1     -11.920  14.315  64.651  1.00  0.00    -0.468 A  
HETATM   26  C   UNL     1     -11.448  13.726  65.847  1.00  0.00    -0.330 A  
BRANCH  26  27
HETATM   27  C   UNL     1     -11.173  14.642  66.949  1.00  0.00    -0.343 A  
HETATM   28  N   UNL     1     -10.098  15.453  67.000  1.00  0.00    -0.246 NA 
HETATM   29  N   UNL     1     -10.313  16.061  68.173  1.00  0.00    -0.253 NA 
HETATM   30  N   UNL     1     -11.412  15.691  68.834  1.00  0.00    -0.340 NA 
HETATM   31  H   UNL     1      -9.675  16.767  68.539  1.00  0.00     0.000 HD 
HETATM   32  N   UNL     1     -11.990  14.797  68.044  1.00  0.00    -0.284 NA 
ENDBRANCH  26  27
ENDBRANCH  18  21
ENDBRANCH  14  15
ENDBRANCH  10  14
ENDBRANCH   4   5
ENDBRANCH   3   4
ENDBRANCH   2   3
TORSDOF 8
ENDMDL
MODEL       91
REMARK 921   NORMALIZED FREE ENERGY PREDICTED BY IDOCK:   -5.67 KCAL/MOL
REMARK 922        TOTAL FREE ENERGY PREDICTED BY IDOCK:   -9.35 KCAL/MOL
REMARK 923 INTER-LIGAND FREE ENERGY PREDICTED BY IDOCK:   -7.84 KCAL/MOL
REMARK 924 INTRA-LIGAND FREE ENERGY PREDICTED BY IDOCK:   -1.52 KCAL/MOL
REMARK 927      BINDING AFFINITY PREDICTED BY RF-SCORE:    0.00 PKD
ROOT
HETATM    1  C   UNL     1      -9.441   9.884  64.650  1.00  0.00    -0.343 C  
HETATM    2  C   UNL     1     -10.440  10.963  64.265  1.00  0.00    -0.405 C  
ENDROOT
BRANCH   2   3
HETATM    3  C   UNL     1      -9.833  12.365  64.382  1.00  0.00    -0.116 C  
BRANCH   3   4
HETATM    4  C   UNL     1     -10.847  13.451  64.762  1.00  0.00    -0.387 C  
BRANCH   4   5
HETATM    5  C   UNL     1     -10.454  14.232  65.978  1.00  0.00    -0.301 A  
HETATM    6  N   UNL     1      -9.451  15.089  65.979  1.00  0.00    -0.310 NA 
HETATM    7  C   UNL     1      -9.391  15.615  67.233  1.00  0.00    -0.215 A  
HETATM    8 CL   UNL     1      -8.223  16.774  67.669  1.00  0.00    -0.185 Cl 
HETATM    9  C   UNL     1     -10.356  15.059  68.049  1.00  0.00    -0.236 A  
HETATM   10  N   UNL     1     -11.025  14.148  67.240  1.00  0.00    -0.292 NA 
BRANCH   9  11
HETATM   11  C   UNL     1     -10.623  15.314  69.479  1.00  0.00    -0.267 C  
HETATM   12  H   UNL     1     -10.612  16.865  70.624  1.00  0.00     0.000 HD 
HETATM   13  O   UNL     1     -10.440  16.701  69.703  1.00  0.00    -0.296 OA 
ENDBRANCH   9  11
BRANCH  10  14
HETATM   14  C   UNL     1     -11.964  13.124  67.693  1.00  0.00    -0.315 C  
BRANCH  14  15
HETATM   15  C   UNL     1     -11.330  11.959  68.408  1.00  0.00    -0.331 A  
HETATM   16  C   UNL     1     -10.065  11.495  68.037  1.00  0.00    -0.197 A  
HETATM   17  C   UNL     1      -9.453  10.439  68.728  1.00  0.00    -0.175 A  
HETATM   18  C   UNL     1     -10.103   9.756  69.767  1.00  0.00    -0.268 A  
HETATM   19  C   UNL     1     -11.358  10.259  70.154  1.00  0.00    -0.388 A  
HETATM   20  C   UNL     1     -11.955  11.345  69.498  1.00  0.00    -0.409 A  
BRANCH  18  21
HETATM   21  C   UNL     1      -9.513   8.560  70.437  1.00  0.00    -0.181 A  
HETATM   22  C   UNL     1      -9.065   8.687  71.775  1.00  0.00    -0.317 A  
HETATM   23  C   UNL     1      -8.513   7.618  72.489  1.00  0.00    -0.157 A  
HETATM   24  C   UNL     1      -8.365   6.385  71.878  1.00  0.00    -0.116 A  
HETATM   25  C   UNL     1      -8.774   6.228  70.555  1.00  0.00    -0.143 A  
HETATM   26  C   UNL     1      -9.365   7.287  69.827  1.00  0.00    -0.150 A  
BRANCH  26  27
HETATM   27  C   UNL     1      -9.812   6.967  68.477  1.00  0.00    -0.147 A  
HETATM   28  N   UNL     1      -9.100   7.243  67.366  1.00  0.00    -0.121 NA 
HETATM   29  N   UNL     1      -9.925   6.762  66.428  1.00  0.00    -0.401 NA 
HETATM   30  N   UNL     1     -11.067   6.229  66.867  1.00  0.00    -0.341 NA 
HETATM   31  H   UNL     1      -9.695   6.801  65.436  1.00  0.00     0.000 HD 
HETATM   32  N   UNL     1     -10.995   6.329  68.187  1.00  0.00    -0.326 NA 
ENDBRANCH  26  27
ENDBRANCH  18  21
ENDBRANCH  14  15
ENDBRANCH  10  14
ENDBRANCH   4   5
ENDBRANCH   3   4
ENDBRANCH   2   3
TORSDOF 8
ENDMDL
MODEL       92
REMARK 921   NORMALIZED FREE ENERGY PREDICTED BY IDOCK:   -5.66 KCAL/MOL
REMARK 922        TOTAL FREE ENERGY PREDICTED BY IDOCK:   -9.34 KCAL/MOL
REMARK 923 INTER-LIGAND FREE ENERGY PREDICTED BY IDOCK:   -7.75 KCAL/MOL
REMARK 924 INTRA-LIGAND FREE ENERGY PREDICTED BY IDOCK:   -1.59 KCAL/MOL
REMARK 927      BINDING AFFINITY PREDICTED BY RF-SCORE:    0.00 PKD
ROOT
HETATM    1  C   UNL     1     -13.921   8.043  71.652  1.00  0.00    -0.474 C  
HETATM    2  C   UNL     1     -12.679   8.594  72.333  1.00  0.00    -0.423 C  
ENDROOT
BRANCH   2   3
HETATM    3  C   UNL     1     -12.032   9.713  71.511  1.00  0.00    -0.485 C  
BRANCH   3   4
HETATM    4  C   UNL     1     -13.036  10.578  70.740  1.00  0.00    -0.413 C  
BRANCH   4   5
HETATM    5  C   UNL     1     -12.854  12.047  70.970  1.00  0.00    -0.187 A  
HETATM    6  N   UNL     1     -13.280  12.655  72.060  1.00  0.00    -0.460 NA 
HETATM    7  C   UNL     1     -12.936  13.966  71.933  1.00  0.00    -0.354 A  
HETATM    8 CL   UNL     1     -13.307  15.115  73.133  1.00  0.00    -0.565 Cl 
HETATM    9  C   UNL     1     -12.307  14.197  70.726  1.00  0.00    -0.369 A  
HETATM   10  N   UNL     1     -12.277  12.958  70.097  1.00  0.00    -0.303 NA 
BRANCH   9  11
HETATM   11  C   UNL     1     -11.802  15.469  70.171  1.00  0.00    -0.356 C  
HETATM   12  H   UNL     1     -10.072  16.301  69.992  1.00  0.00     0.000 HD 
HETATM   13  O   UNL     1     -10.397  15.482  70.350  1.00  0.00    -0.293 OA 
ENDBRANCH   9  11
BRANCH  10  14
HETATM   14  C   UNL     1     -11.943  12.715  68.695  1.00  0.00    -0.223 C  
BRANCH  14  15
HETATM   15  C   UNL     1     -10.982  11.578  68.463  1.00  0.00    -0.268 A  
HETATM   16  C   UNL     1     -11.222  10.630  67.465  1.00  0.00    -0.326 A  
HETATM   17  C   UNL     1     -10.309   9.596  67.217  1.00  0.00    -0.310 A  
HETATM   18  C   UNL     1      -9.156   9.421  67.999  1.00  0.00    -0.131 A  
HETATM   19  C   UNL     1      -8.908  10.404  68.973  1.00  0.00    -0.176 A  
HETATM   20  C   UNL     1      -9.794  11.468  69.194  1.00  0.00     0.085 A  
BRANCH  18  21
HETATM   21  C   UNL     1      -8.232   8.262  67.821  1.00  0.00    -0.127 A  
HETATM   22  C   UNL     1      -7.066   8.441  67.035  1.00  0.00    -0.079 A  
HETATM   23  C   UNL     1      -6.135   7.417  66.827  1.00  0.00    -0.043 A  
HETATM   24  C   UNL     1      -6.352   6.166  67.376  1.00  0.00    -0.037 A  
HETATM   25  C   UNL     1      -7.499   5.947  68.137  1.00  0.00    -0.081 A  
HETATM   26  C   UNL     1      -8.435   6.977  68.388  1.00  0.00    -0.123 A  
BRANCH  26  27
HETATM   27  C   UNL     1      -9.553   6.630  69.257  1.00  0.00    -0.143 A  
HETATM   28  N   UNL     1      -9.424   6.341  70.567  1.00  0.00    -0.161 NA 
HETATM   29  N   UNL     1     -10.701   6.103  70.886  1.00  0.00    -0.244 NA 
HETATM   30  N   UNL     1     -11.587   6.217  69.894  1.00  0.00    -0.402 NA 
HETATM   31  H   UNL     1     -10.982   5.850  71.834  1.00  0.00     0.000 HD 
HETATM   32  N   UNL     1     -10.865   6.583  68.844  1.00  0.00    -0.277 NA 
ENDBRANCH  26  27
ENDBRANCH  18  21
ENDBRANCH  14  15
ENDBRANCH  10  14
ENDBRANCH   4   5
ENDBRANCH   3   4
ENDBRANCH   2   3
TORSDOF 8
ENDMDL
MODEL       93
REMARK 921   NORMALIZED FREE ENERGY PREDICTED BY IDOCK:   -5.65 KCAL/MOL
REMARK 922        TOTAL FREE ENERGY PREDICTED BY IDOCK:   -9.32 KCAL/MOL
REMARK 923 INTER-LIGAND FREE ENERGY PREDICTED BY IDOCK:   -8.00 KCAL/MOL
REMARK 924 INTRA-LIGAND FREE ENERGY PREDICTED BY IDOCK:   -1.32 KCAL/MOL
REMARK 927      BINDING AFFINITY PREDICTED BY RF-SCORE:    0.00 PKD
ROOT
HETATM    1  C   UNL     1      -9.046  19.596  68.243  1.00  0.00    -0.395 C  
HETATM    2  C   UNL     1      -7.770  18.827  68.545  1.00  0.00    -0.357 C  
ENDROOT
BRANCH   2   3
HETATM    3  C   UNL     1      -7.696  17.518  67.752  1.00  0.00    -0.209 C  
BRANCH   3   4
HETATM    4  C   UNL     1      -8.568  16.395  68.324  1.00  0.00    -0.200 C  
BRANCH   4   5
HETATM    5  C   UNL     1      -9.642  15.940  67.385  1.00  0.00    -0.221 A  
HETATM    6  N   UNL     1      -9.857  16.515  66.218  1.00  0.00    -0.297 NA 
HETATM    7  C   UNL     1     -10.887  15.841  65.636  1.00  0.00    -0.307 A  
HETATM    8 CL   UNL     1     -11.491  16.268  64.103  1.00  0.00    -0.156 Cl 
HETATM    9  C   UNL     1     -11.351  14.839  66.464  1.00  0.00    -0.344 A  
HETATM   10  N   UNL     1     -10.559  14.922  67.602  1.00  0.00    -0.260 NA 
BRANCH   9  11
HETATM   11  C   UNL     1     -12.467  13.896  66.244  1.00  0.00    -0.409 C  
HETATM   12  H   UNL     1     -12.696  12.234  65.295  1.00  0.00     0.000 HD 
HETATM   13  O   UNL     1     -11.978  12.841  65.436  1.00  0.00    -0.385 OA 
ENDBRANCH   9  11
BRANCH  10  14
HETATM   14  C   UNL     1     -10.811  14.248  68.875  1.00  0.00    -0.257 C  
BRANCH  14  15
HETATM   15  C   UNL     1     -10.725  12.745  68.821  1.00  0.00    -0.246 A  
HETATM   16  C   UNL     1      -9.590  12.111  68.307  1.00  0.00    -0.210 A  
HETATM   17  C   UNL     1      -9.488  10.713  68.295  1.00  0.00    -0.161 A  
HETATM   18  C   UNL     1     -10.539   9.888  68.727  1.00  0.00    -0.246 A  
HETATM   19  C   UNL     1     -11.657  10.540  69.277  1.00  0.00    -0.308 A  
HETATM   20  C   UNL     1     -11.745  11.938  69.335  1.00  0.00    -0.401 A  
BRANCH  18  21
HETATM   21  C   UNL     1     -10.491   8.400  68.617  1.00  0.00    -0.197 A  
HETATM   22  C   UNL     1     -10.904   7.799  67.402  1.00  0.00    -0.207 A  
HETATM   23  C   UNL     1     -10.878   6.414  67.202  1.00  0.00    -0.467 A  
HETATM   24  C   UNL     1     -10.463   5.578  68.222  1.00  0.00    -0.225 A  
HETATM   25  C   UNL     1     -10.070   6.132  69.439  1.00  0.00    -0.230 A  
HETATM   26  C   UNL     1     -10.056   7.531  69.651  1.00  0.00    -0.189 A  
BRANCH  26  27
HETATM   27  C   UNL     1      -9.556   7.979  70.945  1.00  0.00    -0.161 A  
HETATM   28  N   UNL     1     -10.284   7.958  72.079  1.00  0.00    -0.199 NA 
HETATM   29  N   UNL     1      -9.393   8.455  72.944  1.00  0.00    -0.248 NA 
HETATM   30  N   UNL     1      -8.200   8.777  72.440  1.00  0.00    -0.390 NA 
HETATM   31  H   UNL     1      -9.612   8.579  73.933  1.00  0.00     0.000 HD 
HETATM   32  N   UNL     1      -8.281   8.450  71.158  1.00  0.00    -0.118 NA 
ENDBRANCH  26  27
ENDBRANCH  18  21
ENDBRANCH  14  15
ENDBRANCH  10  14
ENDBRANCH   4   5
ENDBRANCH   3   4
ENDBRANCH   2   3
TORSDOF 8
ENDMDL
MODEL       94
REMARK 921   NORMALIZED FREE ENERGY PREDICTED BY IDOCK:   -5.63 KCAL/MOL
REMARK 922        TOTAL FREE ENERGY PREDICTED BY IDOCK:   -9.28 KCAL/MOL
REMARK 923 INTER-LIGAND FREE ENERGY PREDICTED BY IDOCK:   -7.74 KCAL/MOL
REMARK 924 INTRA-LIGAND FREE ENERGY PREDICTED BY IDOCK:   -1.54 KCAL/MOL
REMARK 927      BINDING AFFINITY PREDICTED BY RF-SCORE:    0.00 PKD
ROOT
HETATM    1  C   UNL     1      -9.099   5.643  66.870  1.00  0.00    -0.116 C  
HETATM    2  C   UNL     1     -10.442   5.494  67.564  1.00  0.00    -0.269 C  
ENDROOT
BRANCH   2   3
HETATM    3  C   UNL     1     -10.744   6.687  68.478  1.00  0.00    -0.308 C  
BRANCH   3   4
HETATM    4  C   UNL     1     -11.400   6.299  69.808  1.00  0.00    -0.506 C  
BRANCH   4   5
HETATM    5  C   UNL     1     -10.457   6.349  70.971  1.00  0.00    -0.223 A  
HETATM    6  N   UNL     1      -9.657   5.348  71.282  1.00  0.00    -0.153 NA 
HETATM    7  C   UNL     1      -8.944   5.743  72.372  1.00  0.00    -0.141 A  
HETATM    8 CL   UNL     1      -7.786   4.735  73.106  1.00  0.00    -0.095 Cl 
HETATM    9  C   UNL     1      -9.323   7.008  72.777  1.00  0.00    -0.135 A  
HETATM   10  N   UNL     1     -10.316   7.386  71.883  1.00  0.00    -0.191 NA 
BRANCH   9  11
HETATM   11  C   UNL     1      -8.835   7.800  73.925  1.00  0.00    -0.272 C  
HETATM   12  H   UNL     1      -7.772   9.393  74.143  1.00  0.00     0.000 HD 
HETATM   13  O   UNL     1      -8.085   8.883  73.404  1.00  0.00    -0.353 OA 
ENDBRANCH   9  11
BRANCH  10  14
HETATM   14  C   UNL     1     -11.214   8.530  72.029  1.00  0.00    -0.348 C  
BRANCH  14  15
HETATM   15  C   UNL     1     -11.126   9.547  70.921  1.00  0.00    -0.406 A  
HETATM   16  C   UNL     1      -9.904   9.830  70.306  1.00  0.00    -0.296 A  
HETATM   17  C   UNL     1      -9.824  10.744  69.245  1.00  0.00    -0.160 A  
HETATM   18  C   UNL     1     -10.944  11.465  68.801  1.00  0.00    -0.272 A  
HETATM   19  C   UNL     1     -12.173  11.141  69.404  1.00  0.00    -0.329 A  
HETATM   20  C   UNL     1     -12.266  10.193  70.433  1.00  0.00    -0.300 A  
BRANCH  18  21
HETATM   21  C   UNL     1     -10.856  12.521  67.750  1.00  0.00    -0.254 A  
HETATM   22  C   UNL     1     -11.382  13.806  68.038  1.00  0.00    -0.318 A  
HETATM   23  C   UNL     1     -11.330  14.862  67.121  1.00  0.00    -0.348 A  
HETATM   24  C   UNL     1     -10.772  14.662  65.871  1.00  0.00    -0.312 A  
HETATM   25  C   UNL     1     -10.265  13.406  65.545  1.00  0.00    -0.300 A  
HETATM   26  C   UNL     1     -10.277  12.335  66.468  1.00  0.00    -0.235 A  
BRANCH  26  27
HETATM   27  C   UNL     1      -9.651  11.096  66.023  1.00  0.00    -0.217 A  
HETATM   28  N   UNL     1     -10.305  10.121  65.359  1.00  0.00    -0.201 NA 
HETATM   29  N   UNL     1      -9.312   9.240  65.191  1.00  0.00    -0.417 NA 
HETATM   30  N   UNL     1      -8.125   9.587  65.693  1.00  0.00    -0.110 NA 
HETATM   31  H   UNL     1      -9.454   8.354  64.706  1.00  0.00     0.000 HD 
HETATM   32  N   UNL     1      -8.323  10.793  66.209  1.00  0.00    -0.155 NA 
ENDBRANCH  26  27
ENDBRANCH  18  21
ENDBRANCH  14  15
ENDBRANCH  10  14
ENDBRANCH   4   5
ENDBRANCH   3   4
ENDBRANCH   2   3
TORSDOF 8
ENDMDL
MODEL       95
REMARK 921   NORMALIZED FREE ENERGY PREDICTED BY IDOCK:   -5.62 KCAL/MOL
REMARK 922        TOTAL FREE ENERGY PREDICTED BY IDOCK:   -9.28 KCAL/MOL
REMARK 923 INTER-LIGAND FREE ENERGY PREDICTED BY IDOCK:   -6.81 KCAL/MOL
REMARK 924 INTRA-LIGAND FREE ENERGY PREDICTED BY IDOCK:   -2.47 KCAL/MOL
REMARK 927      BINDING AFFINITY PREDICTED BY RF-SCORE:    0.00 PKD
ROOT
HETATM    1  C   UNL     1      -9.972  10.561  66.008  1.00  0.00    -0.295 C  
HETATM    2  C   UNL     1      -8.664   9.787  66.017  1.00  0.00    -0.156 C  
ENDROOT
BRANCH   2   3
HETATM    3  C   UNL     1      -8.615   8.744  64.895  1.00  0.00    -0.177 C  
BRANCH   3   4
HETATM    4  C   UNL     1      -7.432   7.775  65.000  1.00  0.00    -0.089 C  
BRANCH   4   5
HETATM    5  C   UNL     1      -7.848   6.342  65.129  1.00  0.00    -0.109 A  
HETATM    6  N   UNL     1      -8.470   5.692  64.164  1.00  0.00    -0.073 NA 
HETATM    7  C   UNL     1      -8.679   4.426  64.619  1.00  0.00    -0.142 A  
HETATM    8 CL   UNL     1      -9.465   3.248  63.676  1.00  0.00    -0.111 Cl 
HETATM    9  C   UNL     1      -8.207   4.282  65.908  1.00  0.00    -0.109 A  
HETATM   10  N   UNL     1      -7.692   5.528  66.242  1.00  0.00    -0.098 NA 
BRANCH   9  11
HETATM   11  C   UNL     1      -8.258   3.096  66.788  1.00  0.00    -0.089 C  
HETATM   12  H   UNL     1      -9.540   2.352  68.021  1.00  0.00     0.000 HD 
HETATM   13  O   UNL     1      -9.507   3.115  67.455  1.00  0.00    -0.206 OA 
ENDBRANCH   9  11
BRANCH  10  14
HETATM   14  C   UNL     1      -7.304   5.968  67.580  1.00  0.00    -0.077 C  
BRANCH  14  15
HETATM   15  C   UNL     1      -8.272   6.915  68.240  1.00  0.00    -0.123 A  
HETATM   16  C   UNL     1      -7.815   7.949  69.060  1.00  0.00    -0.110 A  
HETATM   17  C   UNL     1      -8.710   8.859  69.641  1.00  0.00    -0.140 A  
HETATM   18  C   UNL     1     -10.099   8.735  69.486  1.00  0.00    -0.202 A  
HETATM   19  C   UNL     1     -10.542   7.714  68.627  1.00  0.00    -0.161 A  
HETATM   20  C   UNL     1      -9.648   6.829  68.006  1.00  0.00    -0.117 A  
BRANCH  18  21
HETATM   21  C   UNL     1     -11.070   9.627  70.187  1.00  0.00    -0.314 A  
HETATM   22  C   UNL     1     -11.298  10.923  69.662  1.00  0.00    -0.362 A  
HETATM   23  C   UNL     1     -12.200  11.821  70.241  1.00  0.00    -0.381 A  
HETATM   24  C   UNL     1     -12.889  11.464  71.387  1.00  0.00    -0.502 A  
HETATM   25  C   UNL     1     -12.673  10.205  71.945  1.00  0.00    -0.493 A  
HETATM   26  C   UNL     1     -11.791   9.270  71.356  1.00  0.00    -0.428 A  
BRANCH  26  27
HETATM   27  C   UNL     1     -11.713   7.965  72.003  1.00  0.00    -0.311 A  
HETATM   28  N   UNL     1     -10.937   7.705  73.074  1.00  0.00    -0.400 NA 
HETATM   29  N   UNL     1     -11.223   6.411  73.266  1.00  0.00    -0.472 NA 
HETATM   30  N   UNL     1     -12.092   5.867  72.412  1.00  0.00    -0.193 NA 
HETATM   31  H   UNL     1     -10.802   5.873  74.023  1.00  0.00     0.000 HD 
HETATM   32  N   UNL     1     -12.436   6.864  71.608  1.00  0.00    -0.367 NA 
ENDBRANCH  26  27
ENDBRANCH  18  21
ENDBRANCH  14  15
ENDBRANCH  10  14
ENDBRANCH   4   5
ENDBRANCH   3   4
ENDBRANCH   2   3
TORSDOF 8
ENDMDL
MODEL       96
REMARK 921   NORMALIZED FREE ENERGY PREDICTED BY IDOCK:   -5.56 KCAL/MOL
REMARK 922        TOTAL FREE ENERGY PREDICTED BY IDOCK:   -9.18 KCAL/MOL
REMARK 923 INTER-LIGAND FREE ENERGY PREDICTED BY IDOCK:   -7.38 KCAL/MOL
REMARK 924 INTRA-LIGAND FREE ENERGY PREDICTED BY IDOCK:   -1.81 KCAL/MOL
REMARK 927      BINDING AFFINITY PREDICTED BY RF-SCORE:    0.00 PKD
ROOT
HETATM    1  C   UNL     1      -8.074   5.194  67.594  1.00  0.00    -0.099 C  
HETATM    2  C   UNL     1      -7.105   6.357  67.726  1.00  0.00    -0.085 C  
ENDROOT
BRANCH   2   3
HETATM    3  C   UNL     1      -6.837   6.707  69.194  1.00  0.00    -0.069 C  
BRANCH   3   4
HETATM    4  C   UNL     1      -7.519   7.999  69.659  1.00  0.00    -0.091 C  
BRANCH   4   5
HETATM    5  C   UNL     1      -8.757   7.759  70.468  1.00  0.00    -0.140 A  
HETATM    6  N   UNL     1      -8.724   7.522  71.765  1.00  0.00    -0.114 NA 
HETATM    7  C   UNL     1     -10.016   7.366  72.165  1.00  0.00    -0.170 A  
HETATM    8 CL   UNL     1     -10.425   7.038  73.784  1.00  0.00    -0.414 Cl 
HETATM    9  C   UNL     1     -10.880   7.477  71.094  1.00  0.00    -0.238 A  
HETATM   10  N   UNL     1     -10.061   7.708  69.996  1.00  0.00    -0.201 NA 
BRANCH   9  11
HETATM   11  C   UNL     1     -12.352   7.344  71.071  1.00  0.00    -0.268 C  
HETATM   12  H   UNL     1     -13.839   8.433  71.634  1.00  0.00     0.000 HD 
HETATM   13  O   UNL     1     -12.892   8.519  71.649  1.00  0.00    -0.320 OA 
ENDBRANCH   9  11
BRANCH  10  14
HETATM   14  C   UNL     1     -10.466   7.647  68.593  1.00  0.00    -0.177 C  
BRANCH  14  15
HETATM   15  C   UNL     1     -10.607   8.987  67.919  1.00  0.00    -0.256 A  
HETATM   16  C   UNL     1     -10.091   9.201  66.638  1.00  0.00    -0.343 A  
HETATM   17  C   UNL     1     -10.257  10.433  65.989  1.00  0.00    -0.295 A  
HETATM   18  C   UNL     1     -10.882  11.523  66.615  1.00  0.00    -0.335 A  
HETATM   19  C   UNL     1     -11.430  11.281  67.887  1.00  0.00    -0.360 A  
HETATM   20  C   UNL     1     -11.307  10.036  68.522  1.00  0.00    -0.115 A  
BRANCH  18  21
HETATM   21  C   UNL     1     -10.968  12.872  65.983  1.00  0.00    -0.301 A  
HETATM   22  C   UNL     1     -11.941  13.085  64.975  1.00  0.00    -0.438 A  
HETATM   23  C   UNL     1     -12.106  14.320  64.338  1.00  0.00    -0.490 A  
HETATM   24  C   UNL     1     -11.283  15.382  64.668  1.00  0.00    -0.374 A  
HETATM   25  C   UNL     1     -10.300  15.203  65.640  1.00  0.00    -0.379 A  
HETATM   26  C   UNL     1     -10.139  13.973  66.319  1.00  0.00    -0.307 A  
BRANCH  26  27
HETATM   27  C   UNL     1      -9.119  13.944  67.361  1.00  0.00    -0.217 A  
HETATM   28  N   UNL     1      -9.290  14.465  68.593  1.00  0.00    -0.202 NA 
HETATM   29  N   UNL     1      -8.100  14.184  69.138  1.00  0.00    -0.341 NA 
HETATM   30  N   UNL     1      -7.228  13.550  68.351  1.00  0.00    -0.100 NA 
HETATM   31  H   UNL     1      -7.873  14.441  70.099  1.00  0.00     0.000 HD 
HETATM   32  N   UNL     1      -7.881  13.365  67.212  1.00  0.00    -0.136 NA 
ENDBRANCH  26  27
ENDBRANCH  18  21
ENDBRANCH  14  15
ENDBRANCH  10  14
ENDBRANCH   4   5
ENDBRANCH   3   4
ENDBRANCH   2   3
TORSDOF 8
ENDMDL
MODEL       97
REMARK 921   NORMALIZED FREE ENERGY PREDICTED BY IDOCK:   -5.55 KCAL/MOL
REMARK 922        TOTAL FREE ENERGY PREDICTED BY IDOCK:   -9.18 KCAL/MOL
REMARK 923 INTER-LIGAND FREE ENERGY PREDICTED BY IDOCK:   -8.10 KCAL/MOL
REMARK 924 INTRA-LIGAND FREE ENERGY PREDICTED BY IDOCK:   -1.08 KCAL/MOL
REMARK 927      BINDING AFFINITY PREDICTED BY RF-SCORE:    0.00 PKD
ROOT
HETATM    1  C   UNL     1      -8.795   9.188  66.352  1.00  0.00    -0.165 C  
HETATM    2  C   UNL     1      -9.911   8.422  67.043  1.00  0.00    -0.323 C  
ENDROOT
BRANCH   2   3
HETATM    3  C   UNL     1     -10.786   9.344  67.899  1.00  0.00    -0.269 C  
BRANCH   3   4
HETATM    4  C   UNL     1     -11.166  10.658  67.207  1.00  0.00    -0.237 C  
BRANCH   4   5
HETATM    5  C   UNL     1     -11.534  11.749  68.165  1.00  0.00    -0.316 A  
HETATM    6  N   UNL     1     -11.965  11.507  69.388  1.00  0.00    -0.326 NA 
HETATM    7  C   UNL     1     -12.188  12.717  69.969  1.00  0.00    -0.209 A  
HETATM    8 CL   UNL     1     -12.761  12.859  71.565  1.00  0.00    -0.390 Cl 
HETATM    9  C   UNL     1     -11.921  13.744  69.087  1.00  0.00    -0.361 A  
HETATM   10  N   UNL     1     -11.521  13.114  67.915  1.00  0.00    -0.288 NA 
BRANCH   9  11
HETATM   11  C   UNL     1     -12.059  15.202  69.289  1.00  0.00    -0.244 C  
HETATM   12  H   UNL     1     -11.080  16.554  70.253  1.00  0.00     0.000 HD 
HETATM   13  O   UNL     1     -10.992  15.616  70.123  1.00  0.00    -0.283 OA 
ENDBRANCH   9  11
BRANCH  10  14
HETATM   14  C   UNL     1     -11.371  13.747  66.606  1.00  0.00    -0.328 C  
BRANCH  14  15
HETATM   15  C   UNL     1     -10.339  14.844  66.551  1.00  0.00    -0.295 A  
HETATM   16  C   UNL     1      -9.093  14.685  67.163  1.00  0.00    -0.236 A  
HETATM   17  C   UNL     1      -8.114  15.686  67.077  1.00  0.00    -0.276 A  
HETATM   18  C   UNL     1      -8.361  16.912  66.440  1.00  0.00    -0.333 A  
HETATM   19  C   UNL     1      -9.604  17.041  65.796  1.00  0.00    -0.043 A  
HETATM   20  C   UNL     1     -10.569  16.025  65.839  1.00  0.00    -0.338 A  
BRANCH  18  21
HETATM   21  C   UNL     1      -7.371  18.030  66.437  1.00  0.00    -0.292 A  
HETATM   22  C   UNL     1      -6.145  17.844  65.751  1.00  0.00    -0.233 A  
HETATM   23  C   UNL     1      -5.165  18.840  65.679  1.00  0.00    -0.184 A  
HETATM   24  C   UNL     1      -5.366  20.052  66.317  1.00  0.00    -0.175 A  
HETATM   25  C   UNL     1      -6.551  20.262  67.020  1.00  0.00    -0.263 A  
HETATM   26  C   UNL     1      -7.568  19.281  67.076  1.00  0.00    -0.252 A  
BRANCH  26  27
HETATM   27  C   UNL     1      -8.785  19.658  67.786  1.00  0.00    -0.323 A  
HETATM   28  N   UNL     1      -9.097  19.221  69.023  1.00  0.00    -0.310 NA 
HETATM   29  N   UNL     1     -10.270  19.840  69.204  1.00  0.00    -0.623 NA 
HETATM   30  N   UNL     1     -10.696  20.602  68.195  1.00  0.00     0.279 NA 
HETATM   31  H   UNL     1     -10.808  19.735  70.065  1.00  0.00     0.000 HD 
HETATM   32  N   UNL     1      -9.735  20.516  67.285  1.00  0.00    -0.464 NA 
ENDBRANCH  26  27
ENDBRANCH  18  21
ENDBRANCH  14  15
ENDBRANCH  10  14
ENDBRANCH   4   5
ENDBRANCH   3   4
ENDBRANCH   2   3
TORSDOF 8
ENDMDL
MODEL       98
REMARK 921   NORMALIZED FREE ENERGY PREDICTED BY IDOCK:   -5.54 KCAL/MOL
REMARK 922        TOTAL FREE ENERGY PREDICTED BY IDOCK:   -9.16 KCAL/MOL
REMARK 923 INTER-LIGAND FREE ENERGY PREDICTED BY IDOCK:   -7.37 KCAL/MOL
REMARK 924 INTRA-LIGAND FREE ENERGY PREDICTED BY IDOCK:   -1.79 KCAL/MOL
REMARK 927      BINDING AFFINITY PREDICTED BY RF-SCORE:    0.00 PKD
ROOT
HETATM    1  C   UNL     1      -5.614  10.168  69.002  1.00  0.00    -0.034 C  
HETATM    2  C   UNL     1      -6.658   9.152  69.437  1.00  0.00    -0.044 C  
ENDROOT
BRANCH   2   3
HETATM    3  C   UNL     1      -7.517   8.683  68.258  1.00  0.00    -0.095 C  
BRANCH   3   4
HETATM    4  C   UNL     1      -8.522   7.583  68.621  1.00  0.00    -0.129 C  
BRANCH   4   5
HETATM    5  C   UNL     1      -9.617   8.055  69.527  1.00  0.00    -0.164 A  
HETATM    6  N   UNL     1      -9.797   7.568  70.739  1.00  0.00    -0.178 NA 
HETATM    7  C   UNL     1     -10.862   8.230  71.270  1.00  0.00    -0.237 A  
HETATM    8 CL   UNL     1     -11.437   7.900  72.837  1.00  0.00    -0.436 Cl 
HETATM    9  C   UNL     1     -11.384   9.131  70.365  1.00  0.00    -0.224 A  
HETATM   10  N   UNL     1     -10.591   8.998  69.231  1.00  0.00    -0.227 NA 
BRANCH   9  11
HETATM   11  C   UNL     1     -12.551  10.025  70.512  1.00  0.00    -0.150 C  
HETATM   12  H   UNL     1     -12.816  11.869  71.010  1.00  0.00     0.000 HD 
HETATM   13  O   UNL     1     -12.065  11.293  70.915  1.00  0.00    -0.348 OA 
ENDBRANCH   9  11
BRANCH  10  14
HETATM   14  C   UNL     1     -10.884   9.548  67.909  1.00  0.00    -0.180 C  
BRANCH  14  15
HETATM   15  C   UNL     1     -10.705  11.039  67.791  1.00  0.00    -0.270 A  
HETATM   16  C   UNL     1      -9.555  11.662  68.284  1.00  0.00    -0.198 A  
HETATM   17  C   UNL     1      -9.365  13.044  68.138  1.00  0.00    -0.217 A  
HETATM   18  C   UNL     1     -10.342  13.871  67.561  1.00  0.00    -0.245 A  
HETATM   19  C   UNL     1     -11.475  13.224  67.036  1.00  0.00    -0.378 A  
HETATM   20  C   UNL     1     -11.649  11.836  67.137  1.00  0.00    -0.342 A  
BRANCH  18  21
HETATM   21  C   UNL     1     -10.204  15.356  67.499  1.00  0.00    -0.244 A  
HETATM   22  C   UNL     1      -9.510  15.925  66.403  1.00  0.00    -0.324 A  
HETATM   23  C   UNL     1      -9.345  17.307  66.252  1.00  0.00    -0.248 A  
HETATM   24  C   UNL     1      -9.848  18.169  67.210  1.00  0.00    -0.316 A  
HETATM   25  C   UNL     1     -10.517  17.644  68.314  1.00  0.00    -0.376 A  
HETATM   26  C   UNL     1     -10.724  16.253  68.468  1.00  0.00    -0.307 A  
BRANCH  26  27
HETATM   27  C   UNL     1     -11.501  15.844  69.632  1.00  0.00    -0.346 A  
HETATM   28  N   UNL     1     -12.848  15.800  69.657  1.00  0.00     0.112 NA 
HETATM   29  N   UNL     1     -13.049  15.376  70.910  1.00  0.00    -0.558 NA 
HETATM   30  N   UNL     1     -11.954  15.166  71.644  1.00  0.00    -0.340 NA 
HETATM   31  H   UNL     1     -13.986  15.222  71.284  1.00  0.00     0.000 HD 
HETATM   32  N   UNL     1     -10.948  15.437  70.824  1.00  0.00    -0.331 NA 
ENDBRANCH  26  27
ENDBRANCH  18  21
ENDBRANCH  14  15
ENDBRANCH  10  14
ENDBRANCH   4   5
ENDBRANCH   3   4
ENDBRANCH   2   3
TORSDOF 8
ENDMDL
MODEL       99
REMARK 921   NORMALIZED FREE ENERGY PREDICTED BY IDOCK:   -5.52 KCAL/MOL
REMARK 922        TOTAL FREE ENERGY PREDICTED BY IDOCK:   -9.13 KCAL/MOL
REMARK 923 INTER-LIGAND FREE ENERGY PREDICTED BY IDOCK:   -7.88 KCAL/MOL
REMARK 924 INTRA-LIGAND FREE ENERGY PREDICTED BY IDOCK:   -1.24 KCAL/MOL
REMARK 927      BINDING AFFINITY PREDICTED BY RF-SCORE:    0.00 PKD
ROOT
HETATM    1  C   UNL     1     -12.656  10.616  70.419  1.00  0.00    -0.395 C  
HETATM    2  C   UNL     1     -11.692   9.998  71.418  1.00  0.00    -0.414 C  
ENDROOT
BRANCH   2   3
HETATM    3  C   UNL     1     -12.161   8.613  71.876  1.00  0.00    -0.422 C  
BRANCH   3   4
HETATM    4  C   UNL     1     -11.256   7.466  71.410  1.00  0.00    -0.272 C  
BRANCH   4   5
HETATM    5  C   UNL     1      -9.837   7.606  71.866  1.00  0.00    -0.165 A  
HETATM    6  N   UNL     1      -9.516   7.989  73.087  1.00  0.00    -0.280 NA 
HETATM    7  C   UNL     1      -8.156   7.992  73.149  1.00  0.00    -0.176 A  
HETATM    8 CL   UNL     1      -7.320   8.434  74.564  1.00  0.00    -0.252 Cl 
HETATM    9  C   UNL     1      -7.606   7.634  71.935  1.00  0.00    -0.083 A  
HETATM   10  N   UNL     1      -8.696   7.408  71.103  1.00  0.00    -0.136 NA 
BRANCH   9  11
HETATM   11  C   UNL     1      -6.182   7.540  71.552  1.00  0.00    -0.036 C  
HETATM   12  H   UNL     1      -4.676   8.743  71.558  1.00  0.00     0.000 HD 
HETATM   13  O   UNL     1      -5.592   8.803  71.804  1.00  0.00    -0.041 OA 
ENDBRANCH   9  11
BRANCH  10  14
HETATM   14  C   UNL     1      -8.649   7.250  69.650  1.00  0.00    -0.137 C  
BRANCH  14  15
HETATM   15  C   UNL     1      -9.270   8.381  68.872  1.00  0.00    -0.147 A  
HETATM   16  C   UNL     1     -10.380   8.161  68.053  1.00  0.00    -0.267 A  
HETATM   17  C   UNL     1     -10.987   9.218  67.361  1.00  0.00    -0.022 A  
HETATM   18  C   UNL     1     -10.472  10.523  67.400  1.00  0.00    -0.291 A  
HETATM   19  C   UNL     1      -9.379  10.737  68.258  1.00  0.00    -0.161 A  
HETATM   20  C   UNL     1      -8.796   9.692  68.990  1.00  0.00    -0.147 A  
BRANCH  18  21
HETATM   21  C   UNL     1     -11.038  11.637  66.582  1.00  0.00    -0.364 A  
HETATM   22  C   UNL     1     -11.769  12.656  67.242  1.00  0.00    -0.435 A  
HETATM   23  C   UNL     1     -12.322  13.746  66.561  1.00  0.00    -0.432 A  
HETATM   24  C   UNL     1     -12.187  13.841  65.187  1.00  0.00    -0.453 A  
HETATM   25  C   UNL     1     -11.493  12.845  64.502  1.00  0.00    -0.389 A  
HETATM   26  C   UNL     1     -10.897  11.754  65.175  1.00  0.00    -0.351 A  
BRANCH  26  27
HETATM   27  C   UNL     1     -10.141  10.823  64.345  1.00  0.00    -0.353 A  
HETATM   28  N   UNL     1      -9.452   9.772  64.834  1.00  0.00    -0.277 NA 
HETATM   29  N   UNL     1      -8.960   9.261  63.698  1.00  0.00    -0.419 NA 
HETATM   30  N   UNL     1      -9.283   9.906  62.575  1.00  0.00    -0.291 NA 
HETATM   31  H   UNL     1      -8.373   8.428  63.692  1.00  0.00     0.000 HD 
HETATM   32  N   UNL     1     -10.067  10.898  62.974  1.00  0.00    -0.272 NA 
ENDBRANCH  26  27
ENDBRANCH  18  21
ENDBRANCH  14  15
ENDBRANCH  10  14
ENDBRANCH   4   5
ENDBRANCH   3   4
ENDBRANCH   2   3
TORSDOF 8
ENDMDL
MODEL      100
REMARK 921   NORMALIZED FREE ENERGY PREDICTED BY IDOCK:   -5.52 KCAL/MOL
REMARK 922        TOTAL FREE ENERGY PREDICTED BY IDOCK:   -9.13 KCAL/MOL
REMARK 923 INTER-LIGAND FREE ENERGY PREDICTED BY IDOCK:   -8.32 KCAL/MOL
REMARK 924 INTRA-LIGAND FREE ENERGY PREDICTED BY IDOCK:   -0.80 KCAL/MOL
REMARK 927      BINDING AFFINITY PREDICTED BY RF-SCORE:    0.00 PKD
ROOT
HETATM    1  C   UNL     1      -5.755  10.437  68.219  1.00  0.00    -0.040 C  
HETATM    2  C   UNL     1      -7.200  10.517  68.685  1.00  0.00    -0.087 C  
ENDROOT
BRANCH   2   3
HETATM    3  C   UNL     1      -7.472   9.565  69.854  1.00  0.00    -0.113 C  
BRANCH   3   4
HETATM    4  C   UNL     1      -7.844   8.142  69.423  1.00  0.00    -0.105 C  
BRANCH   4   5
HETATM    5  C   UNL     1      -8.359   7.296  70.547  1.00  0.00    -0.133 A  
HETATM    6  N   UNL     1      -7.564   6.588  71.326  1.00  0.00    -0.092 NA 
HETATM    7  C   UNL     1      -8.364   5.963  72.233  1.00  0.00    -0.118 A  
HETATM    8 CL   UNL     1      -7.734   4.935  73.434  1.00  0.00    -0.095 Cl 
HETATM    9  C   UNL     1      -9.693   6.258  72.003  1.00  0.00    -0.151 A  
HETATM   10  N   UNL     1      -9.686   7.101  70.899  1.00  0.00    -0.171 NA 
BRANCH   9  11
HETATM   11  C   UNL     1     -10.890   5.771  72.721  1.00  0.00    -0.255 C  
HETATM   12  H   UNL     1     -11.675   4.047  73.073  1.00  0.00     0.000 HD 
HETATM   13  O   UNL     1     -10.906   4.359  72.611  1.00  0.00    -0.172 OA 
ENDBRANCH   9  11
BRANCH  10  14
HETATM   14  C   UNL     1     -10.852   7.491  70.108  1.00  0.00    -0.249 C  
BRANCH  14  15
HETATM   15  C   UNL     1     -11.332   8.900  70.344  1.00  0.00    -0.229 A  
HETATM   16  C   UNL     1     -11.058   9.912  69.421  1.00  0.00    -0.237 A  
HETATM   17  C   UNL     1     -11.539  11.215  69.615  1.00  0.00    -0.398 A  
HETATM   18  C   UNL     1     -12.250  11.579  70.769  1.00  0.00    -0.463 A  
HETATM   19  C   UNL     1     -12.551  10.542  71.669  1.00  0.00    -0.498 A  
HETATM   20  C   UNL     1     -12.112   9.227  71.457  1.00  0.00    -0.435 A  
BRANCH  18  21
HETATM   21  C   UNL     1     -12.672  12.985  71.044  1.00  0.00    -0.347 A  
HETATM   22  C   UNL     1     -13.423  13.247  72.217  1.00  0.00    -0.679 A  
HETATM   23  C   UNL     1     -13.848  14.534  72.565  1.00  0.00    -0.555 A  
HETATM   24  C   UNL     1     -13.559  15.604  71.736  1.00  0.00    -0.510 A  
HETATM   25  C   UNL     1     -12.842  15.379  70.562  1.00  0.00    -0.425 A  
HETATM   26  C   UNL     1     -12.373  14.092  70.209  1.00  0.00    -0.421 A  
BRANCH  26  27
HETATM   27  C   UNL     1     -11.575  14.011  68.992  1.00  0.00    -0.306 A  
HETATM   28  N   UNL     1     -12.099  13.845  67.761  1.00  0.00    -0.349 NA 
HETATM   29  N   UNL     1     -10.981  13.837  67.025  1.00  0.00    -0.287 NA 
HETATM   30  N   UNL     1      -9.835  13.977  67.695  1.00  0.00    -0.229 NA 
HETATM   31  H   UNL     1     -11.004  13.730  66.011  1.00  0.00     0.000 HD 
HETATM   32  N   UNL     1     -10.204  14.118  68.960  1.00  0.00    -0.175 NA 
ENDBRANCH  26  27
ENDBRANCH  18  21
ENDBRANCH  14  15
ENDBRANCH  10  14
ENDBRANCH   4   5
ENDBRANCH   3   4
ENDBRANCH   2   3
TORSDOF 8
ENDMDL
MODEL      101
REMARK 921   NORMALIZED FREE ENERGY PREDICTED BY IDOCK:   -5.51 KCAL/MOL
REMARK 922        TOTAL FREE ENERGY PREDICTED BY IDOCK:   -9.12 KCAL/MOL
REMARK 923 INTER-LIGAND FREE ENERGY PREDICTED BY IDOCK:   -8.10 KCAL/MOL
REMARK 924 INTRA-LIGAND FREE ENERGY PREDICTED BY IDOCK:   -1.02 KCAL/MOL
REMARK 927      BINDING AFFINITY PREDICTED BY RF-SCORE:    0.00 PKD
ROOT
HETATM    1  C   UNL     1     -14.130   7.379  71.513  1.00  0.00    -0.541 C  
HETATM    2  C   UNL     1     -12.642   7.463  71.814  1.00  0.00    -0.367 C  
ENDROOT
BRANCH   2   3
HETATM    3  C   UNL     1     -11.798   7.341  70.541  1.00  0.00    -0.237 C  
BRANCH   3   4
HETATM    4  C   UNL     1     -11.034   8.619  70.178  1.00  0.00    -0.234 C  
BRANCH   4   5
HETATM    5  C   UNL     1      -9.918   8.388  69.206  1.00  0.00    -0.195 A  
HETATM    6  N   UNL     1      -8.763   7.860  69.562  1.00  0.00    -0.134 NA 
HETATM    7  C   UNL     1      -8.004   7.789  68.434  1.00  0.00    -0.122 A  
HETATM    8 CL   UNL     1      -6.421   7.164  68.451  1.00  0.00    -0.039 Cl 
HETATM    9  C   UNL     1      -8.682   8.309  67.350  1.00  0.00    -0.124 A  
HETATM   10  N   UNL     1      -9.909   8.717  67.858  1.00  0.00    -0.166 NA 
BRANCH   9  11
HETATM   11  C   UNL     1      -8.224   8.458  65.953  1.00  0.00    -0.123 C  
HETATM   12  H   UNL     1      -7.811   7.254  64.506  1.00  0.00     0.000 HD 
HETATM   13  O   UNL     1      -8.105   7.158  65.405  1.00  0.00    -0.125 OA 
ENDBRANCH   9  11
BRANCH  10  14
HETATM   14  C   UNL     1     -10.887   9.558  67.171  1.00  0.00    -0.086 C  
BRANCH  14  15
HETATM   15  C   UNL     1     -10.666  11.040  67.327  1.00  0.00    -0.312 A  
HETATM   16  C   UNL     1     -11.387  11.774  68.273  1.00  0.00    -0.343 A  
HETATM   17  C   UNL     1     -11.153  13.146  68.451  1.00  0.00    -0.298 A  
HETATM   18  C   UNL     1     -10.246  13.855  67.648  1.00  0.00    -0.242 A  
HETATM   19  C   UNL     1      -9.501  13.095  66.729  1.00  0.00    -0.252 A  
HETATM   20  C   UNL     1      -9.697  11.714  66.578  1.00  0.00    -0.227 A  
BRANCH  18  21
HETATM   21  C   UNL     1     -10.067  15.333  67.750  1.00  0.00    -0.230 A  
HETATM   22  C   UNL     1      -9.313  15.850  68.832  1.00  0.00    -0.233 A  
HETATM   23  C   UNL     1      -9.079  17.220  68.999  1.00  0.00    -0.096 A  
HETATM   24  C   UNL     1      -9.617  18.126  68.102  1.00  0.00    -0.312 A  
HETATM   25  C   UNL     1     -10.384  17.655  67.038  1.00  0.00    -0.330 A  
HETATM   26  C   UNL     1     -10.603  16.273  66.831  1.00  0.00    -0.270 A  
BRANCH  26  27
HETATM   27  C   UNL     1     -11.363  15.915  65.640  1.00  0.00     0.128 A  
HETATM   28  N   UNL     1     -11.191  16.498  64.437  1.00  0.00    -0.980 NA 
HETATM   29  N   UNL     1     -12.100  15.830  63.716  1.00  0.00    -1.173 NA 
HETATM   30  N   UNL     1     -12.805  14.905  64.370  1.00  0.00    -0.450 NA 
HETATM   31  H   UNL     1     -12.244  16.017  62.723  1.00  0.00     0.000 HD 
HETATM   32  N   UNL     1     -12.322  14.929  65.604  1.00  0.00     0.015 NA 
ENDBRANCH  26  27
ENDBRANCH  18  21
ENDBRANCH  14  15
ENDBRANCH  10  14
ENDBRANCH   4   5
ENDBRANCH   3   4
ENDBRANCH   2   3
TORSDOF 8
ENDMDL
MODEL      102
REMARK 921   NORMALIZED FREE ENERGY PREDICTED BY IDOCK:   -5.47 KCAL/MOL
REMARK 922        TOTAL FREE ENERGY PREDICTED BY IDOCK:   -9.06 KCAL/MOL
REMARK 923 INTER-LIGAND FREE ENERGY PREDICTED BY IDOCK:   -6.87 KCAL/MOL
REMARK 924 INTRA-LIGAND FREE ENERGY PREDICTED BY IDOCK:   -2.19 KCAL/MOL
REMARK 927      BINDING AFFINITY PREDICTED BY RF-SCORE:    0.00 PKD
ROOT
HETATM    1  C   UNL     1      -7.494   9.060  63.219  1.00  0.00    -0.099 C  
HETATM    2  C   UNL     1      -7.828   7.607  62.928  1.00  0.00    -0.129 C  
ENDROOT
BRANCH   2   3
HETATM    3  C   UNL     1      -6.653   6.679  63.253  1.00  0.00    -0.042 C  
BRANCH   3   4
HETATM    4  C   UNL     1      -6.129   6.819  64.687  1.00  0.00    -0.036 C  
BRANCH   4   5
HETATM    5  C   UNL     1      -6.826   5.923  65.664  1.00  0.00    -0.056 A  
HETATM    6  N   UNL     1      -7.291   4.734  65.332  1.00  0.00    -0.071 NA 
HETATM    7  C   UNL     1      -7.843   4.204  66.458  1.00  0.00    -0.094 A  
HETATM    8 CL   UNL     1      -8.568   2.665  66.468  1.00  0.00    -0.106 Cl 
HETATM    9  C   UNL     1      -7.752   5.088  67.514  1.00  0.00    -0.091 A  
HETATM   10  N   UNL     1      -7.115   6.206  66.991  1.00  0.00    -0.071 NA 
BRANCH   9  11
HETATM   11  C   UNL     1      -8.248   4.935  68.898  1.00  0.00    -0.083 C  
HETATM   12  H   UNL     1      -9.956   5.112  69.774  1.00  0.00     0.000 HD 
HETATM   13  O   UNL     1      -9.637   5.210  68.884  1.00  0.00    -0.125 OA 
ENDBRANCH   9  11
BRANCH  10  14
HETATM   14  C   UNL     1      -7.007   7.514  67.634  1.00  0.00    -0.080 C  
BRANCH  14  15
HETATM   15  C   UNL     1      -7.933   8.567  67.083  1.00  0.00    -0.101 A  
HETATM   16  C   UNL     1      -7.481   9.870  66.860  1.00  0.00    -0.092 A  
HETATM   17  C   UNL     1      -8.327  10.842  66.307  1.00  0.00    -0.164 A  
HETATM   18  C   UNL     1      -9.675  10.576  66.020  1.00  0.00    -0.257 A  
HETATM   19  C   UNL     1     -10.104   9.251  66.214  1.00  0.00    -0.322 A  
HETATM   20  C   UNL     1      -9.249   8.263  66.722  1.00  0.00    -0.212 A  
BRANCH  18  21
HETATM   21  C   UNL     1     -10.617  11.628  65.536  1.00  0.00    -0.329 A  
HETATM   22  C   UNL     1     -10.719  11.855  64.141  1.00  0.00    -0.402 A  
HETATM   23  C   UNL     1     -11.586  12.808  63.595  1.00  0.00    -0.572 A  
HETATM   24  C   UNL     1     -12.365  13.589  64.430  1.00  0.00    -0.391 A  
HETATM   25  C   UNL     1     -12.275  13.410  65.809  1.00  0.00    -0.507 A  
HETATM   26  C   UNL     1     -11.430  12.429  66.380  1.00  0.00    -0.427 A  
BRANCH  26  27
HETATM   27  C   UNL     1     -11.486  12.300  67.831  1.00  0.00    -0.330 A  
HETATM   28  N   UNL     1     -11.021  13.233  68.685  1.00  0.00    -0.256 NA 
HETATM   29  N   UNL     1     -11.304  12.648  69.855  1.00  0.00    -0.505 NA 
HETATM   30  N   UNL     1     -11.889  11.450  69.787  1.00  0.00    -0.332 NA 
HETATM   31  H   UNL     1     -11.085  13.091  70.747  1.00  0.00     0.000 HD 
HETATM   32  N   UNL     1     -12.037  11.226  68.489  1.00  0.00    -0.591 NA 
ENDBRANCH  26  27
ENDBRANCH  18  21
ENDBRANCH  14  15
ENDBRANCH  10  14
ENDBRANCH   4   5
ENDBRANCH   3   4
ENDBRANCH   2   3
TORSDOF 8
ENDMDL
MODEL      103
REMARK 921   NORMALIZED FREE ENERGY PREDICTED BY IDOCK:   -5.46 KCAL/MOL
REMARK 922        TOTAL FREE ENERGY PREDICTED BY IDOCK:   -9.04 KCAL/MOL
REMARK 923 INTER-LIGAND FREE ENERGY PREDICTED BY IDOCK:   -7.69 KCAL/MOL
REMARK 924 INTRA-LIGAND FREE ENERGY PREDICTED BY IDOCK:   -1.35 KCAL/MOL
REMARK 927      BINDING AFFINITY PREDICTED BY RF-SCORE:    0.00 PKD
ROOT
HETATM    1  C   UNL     1      -7.240   9.769  70.174  1.00  0.00    -0.146 C  
HETATM    2  C   UNL     1      -6.203   9.550  69.084  1.00  0.00    -0.041 C  
ENDROOT
BRANCH   2   3
HETATM    3  C   UNL     1      -6.719   9.999  67.712  1.00  0.00    -0.071 C  
BRANCH   3   4
HETATM    4  C   UNL     1      -6.464   8.986  66.590  1.00  0.00    -0.067 C  
BRANCH   4   5
HETATM    5  C   UNL     1      -7.295   7.746  66.709  1.00  0.00    -0.089 A  
HETATM    6  N   UNL     1      -6.771   6.556  66.933  1.00  0.00    -0.058 NA 
HETATM    7  C   UNL     1      -7.810   5.678  66.992  1.00  0.00    -0.101 A  
HETATM    8 CL   UNL     1      -7.570   4.016  67.264  1.00  0.00    -0.072 Cl 
HETATM    9  C   UNL     1      -9.012   6.321  66.772  1.00  0.00    -0.125 A  
HETATM   10  N   UNL     1      -8.672   7.652  66.567  1.00  0.00    -0.142 NA 
BRANCH   9  11
HETATM   11  C   UNL     1     -10.373   5.749  66.716  1.00  0.00    -0.256 C  
HETATM   12  H   UNL     1     -11.734   5.310  68.009  1.00  0.00     0.000 HD 
HETATM   13  O   UNL     1     -10.858   5.677  68.045  1.00  0.00    -0.204 OA 
ENDBRANCH   9  11
BRANCH  10  14
HETATM   14  C   UNL     1      -9.556   8.694  66.047  1.00  0.00    -0.195 C  
BRANCH  14  15
HETATM   15  C   UNL     1     -10.236   9.529  67.101  1.00  0.00    -0.305 A  
HETATM   16  C   UNL     1     -10.856  10.736  66.767  1.00  0.00    -0.256 A  
HETATM   17  C   UNL     1     -11.527  11.494  67.737  1.00  0.00    -0.357 A  
HETATM   18  C   UNL     1     -11.546  11.119  69.090  1.00  0.00    -0.393 A  
HETATM   19  C   UNL     1     -10.951   9.884  69.403  1.00  0.00    -0.263 A  
HETATM   20  C   UNL     1     -10.320   9.098  68.429  1.00  0.00    -0.242 A  
BRANCH  18  21
HETATM   21  C   UNL     1     -12.159  11.971  70.152  1.00  0.00    -0.377 A  
HETATM   22  C   UNL     1     -12.114  13.379  69.999  1.00  0.00    -0.404 A  
HETATM   23  C   UNL     1     -12.675  14.256  70.934  1.00  0.00    -0.427 A  
HETATM   24  C   UNL     1     -13.279  13.755  72.073  1.00  0.00    -0.520 A  
HETATM   25  C   UNL     1     -13.322  12.375  72.268  1.00  0.00    -0.427 A  
HETATM   26  C   UNL     1     -12.792  11.471  71.319  1.00  0.00    -0.463 A  
BRANCH  26  27
HETATM   27  C   UNL     1     -12.967  10.054  71.615  1.00  0.00    -0.449 A  
HETATM   28  N   UNL     1     -12.112   9.333  72.368  1.00  0.00    -0.184 NA 
HETATM   29  N   UNL     1     -12.711   8.137  72.330  1.00  0.00    -0.552 NA 
HETATM   30  N   UNL     1     -13.841   8.067  71.624  1.00  0.00    -0.379 NA 
HETATM   31  H   UNL     1     -12.326   7.326  72.814  1.00  0.00     0.000 HD 
HETATM   32  N   UNL     1     -14.033   9.302  71.180  1.00  0.00    -0.127 NA 
ENDBRANCH  26  27
ENDBRANCH  18  21
ENDBRANCH  14  15
ENDBRANCH  10  14
ENDBRANCH   4   5
ENDBRANCH   3   4
ENDBRANCH   2   3
TORSDOF 8
ENDMDL
MODEL      104
REMARK 921   NORMALIZED FREE ENERGY PREDICTED BY IDOCK:   -5.45 KCAL/MOL
REMARK 922        TOTAL FREE ENERGY PREDICTED BY IDOCK:   -9.03 KCAL/MOL
REMARK 923 INTER-LIGAND FREE ENERGY PREDICTED BY IDOCK:   -7.75 KCAL/MOL
REMARK 924 INTRA-LIGAND FREE ENERGY PREDICTED BY IDOCK:   -1.28 KCAL/MOL
REMARK 927      BINDING AFFINITY PREDICTED BY RF-SCORE:    0.00 PKD
ROOT
HETATM    1  C   UNL     1     -13.188   8.331  71.702  1.00  0.00    -0.349 C  
HETATM    2  C   UNL     1     -11.949   7.912  72.478  1.00  0.00    -0.349 C  
ENDROOT
BRANCH   2   3
HETATM    3  C   UNL     1     -11.373   6.592  71.955  1.00  0.00    -0.327 C  
BRANCH   3   4
HETATM    4  C   UNL     1     -10.869   6.664  70.508  1.00  0.00    -0.310 C  
BRANCH   4   5
HETATM    5  C   UNL     1      -9.382   6.808  70.404  1.00  0.00    -0.163 A  
HETATM    6  N   UNL     1      -8.568   5.770  70.362  1.00  0.00    -0.131 NA 
HETATM    7  C   UNL     1      -7.306   6.270  70.256  1.00  0.00    -0.089 A  
HETATM    8 CL   UNL     1      -5.940   5.258  70.175  1.00  0.00    -0.017 Cl 
HETATM    9  C   UNL     1      -7.320   7.650  70.261  1.00  0.00    -0.071 A  
HETATM   10  N   UNL     1      -8.661   7.993  70.380  1.00  0.00    -0.135 NA 
BRANCH   9  11
HETATM   11  C   UNL     1      -6.182   8.590  70.199  1.00  0.00    -0.034 C  
HETATM   12  H   UNL     1      -4.901   9.283  71.461  1.00  0.00     0.000 HD 
HETATM   13  O   UNL     1      -5.633   8.678  71.501  1.00  0.00    -0.035 OA 
ENDBRANCH   9  11
BRANCH  10  14
HETATM   14  C   UNL     1      -9.184   9.324  70.683  1.00  0.00    -0.264 C  
BRANCH  14  15
HETATM   15  C   UNL     1      -9.697  10.088  69.490  1.00  0.00    -0.253 A  
HETATM   16  C   UNL     1     -11.030   9.977  69.088  1.00  0.00    -0.256 A  
HETATM   17  C   UNL     1     -11.522  10.719  68.005  1.00  0.00    -0.333 A  
HETATM   18  C   UNL     1     -10.690  11.545  67.233  1.00  0.00    -0.286 A  
HETATM   19  C   UNL     1      -9.361  11.676  67.673  1.00  0.00    -0.178 A  
HETATM   20  C   UNL     1      -8.875  10.973  68.785  1.00  0.00    -0.149 A  
BRANCH  18  21
HETATM   21  C   UNL     1     -11.171  12.254  66.011  1.00  0.00    -0.375 A  
HETATM   22  C   UNL     1     -11.986  13.402  66.172  1.00  0.00    -0.460 A  
HETATM   23  C   UNL     1     -12.470  14.139  65.085  1.00  0.00    -0.453 A  
HETATM   24  C   UNL     1     -12.177  13.738  63.794  1.00  0.00    -0.364 A  
HETATM   25  C   UNL     1     -11.396  12.600  63.597  1.00  0.00    -0.544 A  
HETATM   26  C   UNL     1     -10.869  11.861  64.681  1.00  0.00    -0.363 A  
BRANCH  26  27
HETATM   27  C   UNL     1     -10.010  10.735  64.334  1.00  0.00    -0.338 A  
HETATM   28  N   UNL     1      -9.897   9.619  65.081  1.00  0.00    -0.243 NA 
HETATM   29  N   UNL     1      -9.018   8.927  64.346  1.00  0.00    -0.422 NA 
HETATM   30  N   UNL     1      -8.588   9.521  63.231  1.00  0.00    -0.201 NA 
HETATM   31  H   UNL     1      -8.696   7.999  64.622  1.00  0.00     0.000 HD 
HETATM   32  N   UNL     1      -9.240  10.675  63.196  1.00  0.00    -0.260 NA 
ENDBRANCH  26  27
ENDBRANCH  18  21
ENDBRANCH  14  15
ENDBRANCH  10  14
ENDBRANCH   4   5
ENDBRANCH   3   4
ENDBRANCH   2   3
TORSDOF 8
ENDMDL
MODEL      105
REMARK 921   NORMALIZED FREE ENERGY PREDICTED BY IDOCK:   -5.45 KCAL/MOL
REMARK 922        TOTAL FREE ENERGY PREDICTED BY IDOCK:   -9.02 KCAL/MOL
REMARK 923 INTER-LIGAND FREE ENERGY PREDICTED BY IDOCK:   -7.54 KCAL/MOL
REMARK 924 INTRA-LIGAND FREE ENERGY PREDICTED BY IDOCK:   -1.48 KCAL/MOL
REMARK 927      BINDING AFFINITY PREDICTED BY RF-SCORE:    0.00 PKD
ROOT
HETATM    1  C   UNL     1      -9.834   6.887  73.983  1.00  0.00    -0.354 C  
HETATM    2  C   UNL     1     -10.030   6.213  72.635  1.00  0.00    -0.189 C  
ENDROOT
BRANCH   2   3
HETATM    3  C   UNL     1     -11.484   6.304  72.162  1.00  0.00    -0.354 C  
BRANCH   3   4
HETATM    4  C   UNL     1     -11.640   6.830  70.730  1.00  0.00    -0.418 C  
BRANCH   4   5
HETATM    5  C   UNL     1     -10.642   6.253  69.774  1.00  0.00    -0.264 A  
HETATM    6  N   UNL     1     -10.641   4.980  69.430  1.00  0.00    -0.059 NA 
HETATM    7  C   UNL     1      -9.617   4.816  68.548  1.00  0.00    -0.156 A  
HETATM    8 CL   UNL     1      -9.259   3.305  67.852  1.00  0.00    -0.222 Cl 
HETATM    9  C   UNL     1      -8.939   6.003  68.354  1.00  0.00    -0.114 A  
HETATM   10  N   UNL     1      -9.590   6.923  69.166  1.00  0.00    -0.145 NA 
BRANCH   9  11
HETATM   11  C   UNL     1      -7.754   6.268  67.512  1.00  0.00    -0.101 C  
HETATM   12  H   UNL     1      -5.848   6.062  67.717  1.00  0.00     0.000 HD 
HETATM   13  O   UNL     1      -6.610   5.891  68.259  1.00  0.00    -0.048 OA 
ENDBRANCH   9  11
BRANCH  10  14
HETATM   14  C   UNL     1      -9.107   8.258  69.511  1.00  0.00    -0.154 C  
BRANCH  14  15
HETATM   15  C   UNL     1      -9.626   9.365  68.629  1.00  0.00    -0.152 A  
HETATM   16  C   UNL     1      -8.848   9.871  67.585  1.00  0.00    -0.126 A  
HETATM   17  C   UNL     1      -9.343  10.871  66.735  1.00  0.00    -0.185 A  
HETATM   18  C   UNL     1     -10.604  11.455  66.934  1.00  0.00    -0.292 A  
HETATM   19  C   UNL     1     -11.390  10.908  67.964  1.00  0.00    -0.382 A  
HETATM   20  C   UNL     1     -10.917   9.876  68.787  1.00  0.00    -0.217 A  
BRANCH  18  21
HETATM   21  C   UNL     1     -11.100  12.596  66.108  1.00  0.00    -0.327 A  
HETATM   22  C   UNL     1     -11.711  12.312  64.862  1.00  0.00    -0.409 A  
HETATM   23  C   UNL     1     -12.220  13.314  64.028  1.00  0.00    -0.475 A  
HETATM   24  C   UNL     1     -12.112  14.642  64.401  1.00  0.00    -0.481 A  
HETATM   25  C   UNL     1     -11.497  14.960  65.611  1.00  0.00    -0.290 A  
HETATM   26  C   UNL     1     -11.007  13.961  66.483  1.00  0.00    -0.300 A  
BRANCH  26  27
HETATM   27  C   UNL     1     -10.451  14.429  67.748  1.00  0.00    -0.245 A  
HETATM   28  N   UNL     1     -11.155  14.503  68.895  1.00  0.00    -0.245 NA 
HETATM   29  N   UNL     1     -10.215  14.975  69.722  1.00  0.00    -0.433 NA 
HETATM   30  N   UNL     1      -9.014  15.197  69.182  1.00  0.00    -0.220 NA 
HETATM   31  H   UNL     1     -10.404  15.155  70.708  1.00  0.00     0.000 HD 
HETATM   32  N   UNL     1      -9.144  14.824  67.917  1.00  0.00    -0.180 NA 
ENDBRANCH  26  27
ENDBRANCH  18  21
ENDBRANCH  14  15
ENDBRANCH  10  14
ENDBRANCH   4   5
ENDBRANCH   3   4
ENDBRANCH   2   3
TORSDOF 8
ENDMDL
MODEL      106
REMARK 921   NORMALIZED FREE ENERGY PREDICTED BY IDOCK:   -5.44 KCAL/MOL
REMARK 922        TOTAL FREE ENERGY PREDICTED BY IDOCK:   -9.01 KCAL/MOL
REMARK 923 INTER-LIGAND FREE ENERGY PREDICTED BY IDOCK:   -7.54 KCAL/MOL
REMARK 924 INTRA-LIGAND FREE ENERGY PREDICTED BY IDOCK:   -1.47 KCAL/MOL
REMARK 927      BINDING AFFINITY PREDICTED BY RF-SCORE:    0.00 PKD
ROOT
HETATM    1  C   UNL     1      -7.646  18.058  68.414  1.00  0.00    -0.288 C  
HETATM    2  C   UNL     1      -7.669  16.612  68.881  1.00  0.00    -0.239 C  
ENDROOT
BRANCH   2   3
HETATM    3  C   UNL     1      -9.057  16.201  69.383  1.00  0.00    -0.147 C  
BRANCH   3   4
HETATM    4  C   UNL     1      -9.471  14.783  68.971  1.00  0.00    -0.167 C  
BRANCH   4   5
HETATM    5  C   UNL     1     -10.320  14.747  67.738  1.00  0.00    -0.244 A  
HETATM    6  N   UNL     1     -10.059  15.480  66.673  1.00  0.00    -0.259 NA 
HETATM    7  C   UNL     1     -11.019  15.185  65.753  1.00  0.00    -0.349 A  
HETATM    8 CL   UNL     1     -11.054  15.923  64.220  1.00  0.00    -0.181 Cl 
HETATM    9  C   UNL     1     -11.921  14.271  66.257  1.00  0.00    -0.412 A  
HETATM   10  N   UNL     1     -11.479  14.008  67.548  1.00  0.00    -0.324 NA 
BRANCH   9  11
HETATM   11  C   UNL     1     -13.126  13.705  65.616  1.00  0.00    -0.064 C  
HETATM   12  H   UNL     1     -13.487  12.231  64.428  1.00  0.00     0.000 HD 
HETATM   13  O   UNL     1     -12.712  12.595  64.840  1.00  0.00    -0.648 OA 
ENDBRANCH   9  11
BRANCH  10  14
HETATM   14  C   UNL     1     -12.228  13.301  68.585  1.00  0.00    -0.080 C  
BRANCH  14  15
HETATM   15  C   UNL     1     -11.717  11.918  68.900  1.00  0.00    -0.381 A  
HETATM   16  C   UNL     1     -11.069  11.156  67.925  1.00  0.00    -0.331 A  
HETATM   17  C   UNL     1     -10.554   9.887  68.226  1.00  0.00    -0.269 A  
HETATM   18  C   UNL     1     -10.726   9.296  69.487  1.00  0.00    -0.236 A  
HETATM   19  C   UNL     1     -11.345  10.091  70.468  1.00  0.00    -0.409 A  
HETATM   20  C   UNL     1     -11.820  11.379  70.186  1.00  0.00    -0.440 A  
BRANCH  18  21
HETATM   21  C   UNL     1     -10.283   7.903  69.790  1.00  0.00    -0.212 A  
HETATM   22  C   UNL     1     -11.246   6.865  69.752  1.00  0.00    -0.315 A  
HETATM   23  C   UNL     1     -10.921   5.527  70.006  1.00  0.00    -0.205 A  
HETATM   24  C   UNL     1      -9.622   5.185  70.334  1.00  0.00    -0.252 A  
HETATM   25  C   UNL     1      -8.652   6.183  70.404  1.00  0.00    -0.134 A  
HETATM   26  C   UNL     1      -8.952   7.535  70.118  1.00  0.00    -0.147 A  
BRANCH  26  27
HETATM   27  C   UNL     1      -7.830   8.465  70.159  1.00  0.00    -0.102 A  
HETATM   28  N   UNL     1      -6.872   8.528  69.212  1.00  0.00    -0.049 NA 
HETATM   29  N   UNL     1      -6.110   9.509  69.708  1.00  0.00    -0.038 NA 
HETATM   30  N   UNL     1      -6.513  10.040  70.865  1.00  0.00    -0.293 NA 
HETATM   31  H   UNL     1      -5.269   9.833  69.230  1.00  0.00     0.000 HD 
HETATM   32  N   UNL     1      -7.635   9.395  71.153  1.00  0.00    -0.329 NA 
ENDBRANCH  26  27
ENDBRANCH  18  21
ENDBRANCH  14  15
ENDBRANCH  10  14
ENDBRANCH   4   5
ENDBRANCH   3   4
ENDBRANCH   2   3
TORSDOF 8
ENDMDL
MODEL      107
REMARK 921   NORMALIZED FREE ENERGY PREDICTED BY IDOCK:   -5.43 KCAL/MOL
REMARK 922        TOTAL FREE ENERGY PREDICTED BY IDOCK:   -9.00 KCAL/MOL
REMARK 923 INTER-LIGAND FREE ENERGY PREDICTED BY IDOCK:   -7.46 KCAL/MOL
REMARK 924 INTRA-LIGAND FREE ENERGY PREDICTED BY IDOCK:   -1.54 KCAL/MOL
REMARK 927      BINDING AFFINITY PREDICTED BY RF-SCORE:    0.00 PKD
ROOT
HETATM    1  C   UNL     1      -9.309  15.269  69.293  1.00  0.00    -0.239 C  
HETATM    2  C   UNL     1     -10.783  15.621  69.171  1.00  0.00    -0.243 C  
ENDROOT
BRANCH   2   3
HETATM    3  C   UNL     1     -11.380  15.112  67.855  1.00  0.00    -0.346 C  
BRANCH   3   4
HETATM    4  C   UNL     1     -11.746  13.624  67.873  1.00  0.00    -0.395 C  
BRANCH   4   5
HETATM    5  C   UNL     1     -11.582  12.955  66.543  1.00  0.00    -0.371 A  
HETATM    6  N   UNL     1     -12.539  12.932  65.636  1.00  0.00    -0.553 NA 
HETATM    7  C   UNL     1     -12.041  12.259  64.563  1.00  0.00    -0.383 A  
HETATM    8 CL   UNL     1     -12.964  11.996  63.157  1.00  0.00    -0.324 Cl 
HETATM    9  C   UNL     1     -10.755  11.823  64.807  1.00  0.00    -0.302 A  
HETATM   10  N   UNL     1     -10.471  12.255  66.097  1.00  0.00    -0.235 NA 
BRANCH   9  11
HETATM   11  C   UNL     1      -9.860  11.033  63.935  1.00  0.00    -0.317 C  
HETATM   12  H   UNL     1      -8.856  11.375  62.326  1.00  0.00     0.000 HD 
HETATM   13  O   UNL     1      -9.431  11.883  62.887  1.00  0.00    -0.358 OA 
ENDBRANCH   9  11
BRANCH  10  14
HETATM   14  C   UNL     1      -9.335  11.833  66.914  1.00  0.00    -0.192 C  
BRANCH  14  15
HETATM   15  C   UNL     1      -9.625  10.696  67.859  1.00  0.00    -0.174 A  
HETATM   16  C   UNL     1     -10.081   9.466  67.379  1.00  0.00    -0.271 A  
HETATM   17  C   UNL     1     -10.311   8.392  68.251  1.00  0.00    -0.244 A  
HETATM   18  C   UNL     1     -10.165   8.520  69.641  1.00  0.00    -0.209 A  
HETATM   19  C   UNL     1      -9.668   9.751  70.105  1.00  0.00    -0.299 A  
HETATM   20  C   UNL     1      -9.391  10.814  69.233  1.00  0.00    -0.087 A  
BRANCH  18  21
HETATM   21  C   UNL     1     -10.512   7.422  70.591  1.00  0.00    -0.224 A  
HETATM   22  C   UNL     1     -11.817   7.394  71.143  1.00  0.00    -0.330 A  
HETATM   23  C   UNL     1     -12.238   6.396  72.029  1.00  0.00    -0.320 A  
HETATM   24  C   UNL     1     -11.357   5.402  72.416  1.00  0.00    -0.242 A  
HETATM   25  C   UNL     1     -10.058   5.410  71.910  1.00  0.00    -0.246 A  
HETATM   26  C   UNL     1      -9.623   6.390  70.988  1.00  0.00    -0.188 A  
BRANCH  26  27
HETATM   27  C   UNL     1      -8.263   6.239  70.484  1.00  0.00    -0.118 A  
HETATM   28  N   UNL     1      -7.953   5.601  69.338  1.00  0.00    -0.098 NA 
HETATM   29  N   UNL     1      -6.623   5.743  69.338  1.00  0.00    -0.052 NA 
HETATM   30  N   UNL     1      -6.101   6.401  70.376  1.00  0.00    -0.030 NA 
HETATM   31  H   UNL     1      -6.041   5.370  68.588  1.00  0.00     0.000 HD 
HETATM   32  N   UNL     1      -7.149   6.751  71.108  1.00  0.00    -0.074 NA 
ENDBRANCH  26  27
ENDBRANCH  18  21
ENDBRANCH  14  15
ENDBRANCH  10  14
ENDBRANCH   4   5
ENDBRANCH   3   4
ENDBRANCH   2   3
TORSDOF 8
ENDMDL
MODEL      108
REMARK 921   NORMALIZED FREE ENERGY PREDICTED BY IDOCK:   -5.43 KCAL/MOL
REMARK 922        TOTAL FREE ENERGY PREDICTED BY IDOCK:   -8.99 KCAL/MOL
REMARK 923 INTER-LIGAND FREE ENERGY PREDICTED BY IDOCK:   -7.93 KCAL/MOL
REMARK 924 INTRA-LIGAND FREE ENERGY PREDICTED BY IDOCK:   -1.06 KCAL/MOL
REMARK 927      BINDING AFFINITY PREDICTED BY RF-SCORE:    0.00 PKD
ROOT
HETATM    1  C   UNL     1     -12.638  13.047  63.128  1.00  0.00    -0.016 C  
HETATM    2  C   UNL     1     -11.840  11.872  63.669  1.00  0.00    -0.573 C  
ENDROOT
BRANCH   2   3
HETATM    3  C   UNL     1     -10.984  12.275  64.874  1.00  0.00    -0.344 C  
BRANCH   3   4
HETATM    4  C   UNL     1     -10.085  13.491  64.619  1.00  0.00    -0.246 C  
BRANCH   4   5
HETATM    5  C   UNL     1     -10.041  14.449  65.769  1.00  0.00    -0.340 A  
HETATM    6  N   UNL     1     -10.420  15.708  65.661  1.00  0.00    -0.357 NA 
HETATM    7  C   UNL     1     -10.259  16.270  66.890  1.00  0.00    -0.288 A  
HETATM    8 CL   UNL     1     -10.632  17.903  67.190  1.00  0.00    -0.348 Cl 
HETATM    9  C   UNL     1      -9.739  15.357  67.785  1.00  0.00    -0.211 A  
HETATM   10  N   UNL     1      -9.579  14.189  67.051  1.00  0.00    -0.252 NA 
BRANCH   9  11
HETATM   11  C   UNL     1      -9.380  15.550  69.205  1.00  0.00    -0.266 C  
HETATM   12  H   UNL     1     -10.324  15.481  70.884  1.00  0.00     0.000 HD 
HETATM   13  O   UNL     1     -10.556  15.357  69.971  1.00  0.00    -0.282 OA 
ENDBRANCH   9  11
BRANCH  10  14
HETATM   14  C   UNL     1      -8.832  13.005  67.471  1.00  0.00    -0.195 C  
BRANCH  14  15
HETATM   15  C   UNL     1      -9.621  12.020  68.296  1.00  0.00    -0.204 A  
HETATM   16  C   UNL     1     -11.017  12.059  68.312  1.00  0.00    -0.275 A  
HETATM   17  C   UNL     1     -11.757  11.118  69.043  1.00  0.00    -0.408 A  
HETATM   18  C   UNL     1     -11.135  10.146  69.843  1.00  0.00    -0.346 A  
HETATM   19  C   UNL     1      -9.731  10.096  69.786  1.00  0.00    -0.232 A  
HETATM   20  C   UNL     1      -8.988  11.005  69.019  1.00  0.00    -0.071 A  
BRANCH  18  21
HETATM   21  C   UNL     1     -11.905   9.210  70.715  1.00  0.00    -0.280 A  
HETATM   22  C   UNL     1     -12.878   9.749  71.592  1.00  0.00    -0.519 A  
HETATM   23  C   UNL     1     -13.658   8.948  72.434  1.00  0.00    -0.500 A  
HETATM   24  C   UNL     1     -13.474   7.577  72.446  1.00  0.00     0.213 A  
HETATM   25  C   UNL     1     -12.510   7.013  71.612  1.00  0.00    -0.413 A  
HETATM   26  C   UNL     1     -11.735   7.801  70.730  1.00  0.00    -0.242 A  
BRANCH  26  27
HETATM   27  C   UNL     1     -10.814   7.076  69.863  1.00  0.00    -0.251 A  
HETATM   28  N   UNL     1      -9.556   6.743  70.215  1.00  0.00    -0.165 NA 
HETATM   29  N   UNL     1      -9.155   6.113  69.105  1.00  0.00    -0.128 NA 
HETATM   30  N   UNL     1     -10.049   6.039  68.116  1.00  0.00    -0.147 NA 
HETATM   31  H   UNL     1      -8.221   5.713  69.019  1.00  0.00     0.000 HD 
HETATM   32  N   UNL     1     -11.131   6.632  68.600  1.00  0.00    -0.243 NA 
ENDBRANCH  26  27
ENDBRANCH  18  21
ENDBRANCH  14  15
ENDBRANCH  10  14
ENDBRANCH   4   5
ENDBRANCH   3   4
ENDBRANCH   2   3
TORSDOF 8
ENDMDL
MODEL      109
REMARK 921   NORMALIZED FREE ENERGY PREDICTED BY IDOCK:   -5.43 KCAL/MOL
REMARK 922        TOTAL FREE ENERGY PREDICTED BY IDOCK:   -8.99 KCAL/MOL
REMARK 923 INTER-LIGAND FREE ENERGY PREDICTED BY IDOCK:   -7.40 KCAL/MOL
REMARK 924 INTRA-LIGAND FREE ENERGY PREDICTED BY IDOCK:   -1.59 KCAL/MOL
REMARK 927      BINDING AFFINITY PREDICTED BY RF-SCORE:    0.00 PKD
ROOT
HETATM    1  C   UNL     1     -11.528   8.382  70.913  1.00  0.00    -0.295 C  
HETATM    2  C   UNL     1     -12.479   8.579  72.081  1.00  0.00    -0.437 C  
ENDROOT
BRANCH   2   3
HETATM    3  C   UNL     1     -13.098   9.981  72.078  1.00  0.00    -0.541 C  
BRANCH   3   4
HETATM    4  C   UNL     1     -12.895  10.747  70.766  1.00  0.00    -0.408 C  
BRANCH   4   5
HETATM    5  C   UNL     1     -12.746  12.225  70.957  1.00  0.00    -0.225 A  
HETATM    6  N   UNL     1     -13.150  12.845  72.049  1.00  0.00    -0.400 NA 
HETATM    7  C   UNL     1     -12.848  14.162  71.883  1.00  0.00    -0.341 A  
HETATM    8 CL   UNL     1     -13.209  15.326  73.071  1.00  0.00    -0.572 Cl 
HETATM    9  C   UNL     1     -12.269  14.383  70.650  1.00  0.00    -0.344 A  
HETATM   10  N   UNL     1     -12.226  13.133  70.046  1.00  0.00    -0.288 NA 
BRANCH   9  11
HETATM   11  C   UNL     1     -11.820  15.657  70.050  1.00  0.00    -0.367 C  
HETATM   12  H   UNL     1     -10.126  16.548  69.825  1.00  0.00     0.000 HD 
HETATM   13  O   UNL     1     -10.414  15.729  70.211  1.00  0.00    -0.308 OA 
ENDBRANCH   9  11
BRANCH  10  14
HETATM   14  C   UNL     1     -11.936  12.867  68.638  1.00  0.00    -0.247 C  
BRANCH  14  15
HETATM   15  C   UNL     1     -10.997  11.714  68.394  1.00  0.00    -0.265 A  
HETATM   16  C   UNL     1      -9.715  11.706  68.949  1.00  0.00    -0.029 A  
HETATM   17  C   UNL     1      -8.854  10.615  68.760  1.00  0.00    -0.161 A  
HETATM   18  C   UNL     1      -9.207   9.522  67.953  1.00  0.00    -0.134 A  
HETATM   19  C   UNL     1     -10.514   9.527  67.434  1.00  0.00    -0.336 A  
HETATM   20  C   UNL     1     -11.396  10.594  67.659  1.00  0.00    -0.284 A  
BRANCH  18  21
HETATM   21  C   UNL     1      -8.262   8.407  67.650  1.00  0.00    -0.126 A  
HETATM   22  C   UNL     1      -8.017   7.438  68.655  1.00  0.00    -0.123 A  
HETATM   23  C   UNL     1      -7.160   6.350  68.456  1.00  0.00    -0.083 A  
HETATM   24  C   UNL     1      -6.494   6.207  67.252  1.00  0.00    -0.046 A  
HETATM   25  C   UNL     1      -6.693   7.154  66.249  1.00  0.00    -0.053 A  
HETATM   26  C   UNL     1      -7.581   8.242  66.416  1.00  0.00    -0.091 A  
BRANCH  26  27
HETATM   27  C   UNL     1      -7.749   9.117  65.262  1.00  0.00    -0.099 A  
HETATM   28  N   UNL     1      -6.964  10.183  65.009  1.00  0.00    -0.135 NA 
HETATM   29  N   UNL     1      -7.521  10.625  63.875  1.00  0.00    -0.352 NA 
HETATM   30  N   UNL     1      -8.568   9.931  63.424  1.00  0.00    -0.185 NA 
HETATM   31  H   UNL     1      -7.166  11.445  63.383  1.00  0.00     0.000 HD 
HETATM   32  N   UNL     1      -8.709   8.940  64.294  1.00  0.00    -0.123 NA 
ENDBRANCH  26  27
ENDBRANCH  18  21
ENDBRANCH  14  15
ENDBRANCH  10  14
ENDBRANCH   4   5
ENDBRANCH   3   4
ENDBRANCH   2   3
TORSDOF 8
ENDMDL
MODEL      110
REMARK 921   NORMALIZED FREE ENERGY PREDICTED BY IDOCK:   -5.42 KCAL/MOL
REMARK 922        TOTAL FREE ENERGY PREDICTED BY IDOCK:   -8.98 KCAL/MOL
REMARK 923 INTER-LIGAND FREE ENERGY PREDICTED BY IDOCK:   -7.98 KCAL/MOL
REMARK 924 INTRA-LIGAND FREE ENERGY PREDICTED BY IDOCK:   -1.00 KCAL/MOL
REMARK 927      BINDING AFFINITY PREDICTED BY RF-SCORE:    0.00 PKD
ROOT
HETATM    1  C   UNL     1     -11.292   6.167  69.475  1.00  0.00    -0.426 C  
HETATM    2  C   UNL     1     -10.633   5.926  68.128  1.00  0.00    -0.312 C  
ENDROOT
BRANCH   2   3
HETATM    3  C   UNL     1     -11.132   6.913  67.067  1.00  0.00    -0.315 C  
BRANCH   3   4
HETATM    4  C   UNL     1     -10.515   8.312  67.181  1.00  0.00    -0.386 C  
BRANCH   4   5
HETATM    5  C   UNL     1      -9.311   8.502  66.310  1.00  0.00    -0.224 A  
HETATM    6  N   UNL     1      -8.191   7.830  66.487  1.00  0.00    -0.120 NA 
HETATM    7  C   UNL     1      -7.330   8.246  65.519  1.00  0.00    -0.072 A  
HETATM    8 CL   UNL     1      -5.751   7.624  65.389  1.00  0.00    -0.037 Cl 
HETATM    9  C   UNL     1      -7.907   9.222  64.732  1.00  0.00    -0.118 A  
HETATM   10  N   UNL     1      -9.179   9.401  65.261  1.00  0.00    -0.237 NA 
BRANCH   9  11
HETATM   11  C   UNL     1      -7.322   9.967  63.598  1.00  0.00    -0.126 C  
HETATM   12  H   UNL     1      -5.758  11.062  63.332  1.00  0.00     0.000 HD 
HETATM   13  O   UNL     1      -6.134  10.583  64.062  1.00  0.00    -0.111 OA 
ENDBRANCH   9  11
BRANCH  10  14
HETATM   14  C   UNL     1     -10.095  10.495  64.945  1.00  0.00    -0.333 C  
BRANCH  14  15
HETATM   15  C   UNL     1     -10.437  11.388  66.110  1.00  0.00    -0.303 A  
HETATM   16  C   UNL     1      -9.458  11.769  67.031  1.00  0.00    -0.191 A  
HETATM   17  C   UNL     1      -9.763  12.634  68.092  1.00  0.00    -0.219 A  
HETATM   18  C   UNL     1     -11.068  13.098  68.320  1.00  0.00    -0.295 A  
HETATM   19  C   UNL     1     -12.034  12.737  67.363  1.00  0.00    -0.335 A  
HETATM   20  C   UNL     1     -11.724  11.910  66.274  1.00  0.00    -0.223 A  
BRANCH  18  21
HETATM   21  C   UNL     1     -11.432  13.927  69.506  1.00  0.00    -0.332 A  
HETATM   22  C   UNL     1     -12.202  13.332  70.536  1.00  0.00    -0.416 A  
HETATM   23  C   UNL     1     -12.576  14.027  71.692  1.00  0.00    -0.403 A  
HETATM   24  C   UNL     1     -12.214  15.353  71.847  1.00  0.00    -0.453 A  
HETATM   25  C   UNL     1     -11.476  15.978  70.844  1.00  0.00    -0.451 A  
HETATM   26  C   UNL     1     -11.058  15.285  69.684  1.00  0.00    -0.284 A  
BRANCH  26  27
HETATM   27  C   UNL     1     -10.231  16.038  68.748  1.00  0.00    -0.225 A  
HETATM   28  N   UNL     1      -8.895  16.171  68.868  1.00  0.00    -0.236 NA 
HETATM   29  N   UNL     1      -8.634  16.925  67.793  1.00  0.00    -0.205 NA 
HETATM   30  N   UNL     1      -9.684  17.263  67.042  1.00  0.00    -0.258 NA 
HETATM   31  H   UNL     1      -7.687  17.225  67.562  1.00  0.00     0.000 HD 
HETATM   32  N   UNL     1     -10.717  16.675  67.630  1.00  0.00    -0.328 NA 
ENDBRANCH  26  27
ENDBRANCH  18  21
ENDBRANCH  14  15
ENDBRANCH  10  14
ENDBRANCH   4   5
ENDBRANCH   3   4
ENDBRANCH   2   3
TORSDOF 8
ENDMDL
MODEL      111
REMARK 921   NORMALIZED FREE ENERGY PREDICTED BY IDOCK:   -5.39 KCAL/MOL
REMARK 922        TOTAL FREE ENERGY PREDICTED BY IDOCK:   -8.94 KCAL/MOL
REMARK 923 INTER-LIGAND FREE ENERGY PREDICTED BY IDOCK:   -7.67 KCAL/MOL
REMARK 924 INTRA-LIGAND FREE ENERGY PREDICTED BY IDOCK:   -1.28 KCAL/MOL
REMARK 927      BINDING AFFINITY PREDICTED BY RF-SCORE:    0.00 PKD
ROOT
HETATM    1  C   UNL     1     -10.615  19.669  65.878  1.00  0.00    -0.566 C  
HETATM    2  C   UNL     1     -10.386  18.215  66.257  1.00  0.00    -0.407 C  
ENDROOT
BRANCH   2   3
HETATM    3  C   UNL     1     -10.585  17.983  67.758  1.00  0.00    -0.409 C  
BRANCH   3   4
HETATM    4  C   UNL     1     -10.185  16.579  68.228  1.00  0.00    -0.268 C  
BRANCH   4   5
HETATM    5  C   UNL     1     -11.029  16.067  69.355  1.00  0.00    -0.321 A  
HETATM    6  N   UNL     1     -10.947  16.548  70.580  1.00  0.00    -0.194 NA 
HETATM    7  C   UNL     1     -11.856  15.864  71.328  1.00  0.00    -0.449 A  
HETATM    8 CL   UNL     1     -12.074  16.175  72.987  1.00  0.00    -0.613 Cl 
HETATM    9  C   UNL     1     -12.503  14.912  70.567  1.00  0.00    -0.363 A  
HETATM   10  N   UNL     1     -11.949  15.031  69.299  1.00  0.00    -0.305 NA 
BRANCH   9  11
HETATM   11  C   UNL     1     -13.532  13.935  70.981  1.00  0.00    -0.069 C  
HETATM   12  H   UNL     1     -13.561  12.356  72.086  1.00  0.00     0.000 HD 
HETATM   13  O   UNL     1     -12.900  12.984  71.820  1.00  0.00    -0.314 OA 
ENDBRANCH   9  11
BRANCH  10  14
HETATM   14  C   UNL     1     -12.113  14.084  68.197  1.00  0.00    -0.272 C  
BRANCH  14  15
HETATM   15  C   UNL     1     -11.316  12.813  68.333  1.00  0.00    -0.331 A  
HETATM   16  C   UNL     1      -9.921  12.833  68.256  1.00  0.00    -0.230 A  
HETATM   17  C   UNL     1      -9.172  11.659  68.425  1.00  0.00    -0.182 A  
HETATM   18  C   UNL     1      -9.784  10.409  68.607  1.00  0.00    -0.178 A  
HETATM   19  C   UNL     1     -11.185  10.411  68.721  1.00  0.00    -0.295 A  
HETATM   20  C   UNL     1     -11.936  11.589  68.600  1.00  0.00    -0.312 A  
BRANCH  18  21
HETATM   21  C   UNL     1      -9.007   9.136  68.677  1.00  0.00    -0.136 A  
HETATM   22  C   UNL     1      -9.102   8.350  69.852  1.00  0.00    -0.146 A  
HETATM   23  C   UNL     1      -8.424   7.135  70.001  1.00  0.00    -0.140 A  
HETATM   24  C   UNL     1      -7.602   6.675  68.987  1.00  0.00    -0.101 A  
HETATM   25  C   UNL     1      -7.467   7.433  67.825  1.00  0.00    -0.101 A  
HETATM   26  C   UNL     1      -8.170   8.646  67.641  1.00  0.00    -0.110 A  
BRANCH  26  27
HETATM   27  C   UNL     1      -7.992   9.302  66.351  1.00  0.00    -0.107 A  
HETATM   28  N   UNL     1      -6.901  10.020  66.018  1.00  0.00    -0.098 NA 
HETATM   29  N   UNL     1      -7.227  10.389  64.774  1.00  0.00    -0.304 NA 
HETATM   30  N   UNL     1      -8.412   9.966  64.327  1.00  0.00    -0.159 NA 
HETATM   31  H   UNL     1      -6.607  10.960  64.200  1.00  0.00     0.000 HD 
HETATM   32  N   UNL     1      -8.903   9.241  65.323  1.00  0.00    -0.186 NA 
ENDBRANCH  26  27
ENDBRANCH  18  21
ENDBRANCH  14  15
ENDBRANCH  10  14
ENDBRANCH   4   5
ENDBRANCH   3   4
ENDBRANCH   2   3
TORSDOF 8
ENDMDL
MODEL      112
REMARK 921   NORMALIZED FREE ENERGY PREDICTED BY IDOCK:   -5.39 KCAL/MOL
REMARK 922        TOTAL FREE ENERGY PREDICTED BY IDOCK:   -8.94 KCAL/MOL
REMARK 923 INTER-LIGAND FREE ENERGY PREDICTED BY IDOCK:   -7.95 KCAL/MOL
REMARK 924 INTRA-LIGAND FREE ENERGY PREDICTED BY IDOCK:   -0.99 KCAL/MOL
REMARK 927      BINDING AFFINITY PREDICTED BY RF-SCORE:    0.00 PKD
ROOT
HETATM    1  C   UNL     1      -7.839  16.095  69.198  1.00  0.00    -0.232 C  
HETATM    2  C   UNL     1      -6.931  15.748  68.029  1.00  0.00    -0.137 C  
ENDROOT
BRANCH   2   3
HETATM    3  C   UNL     1      -7.212  14.341  67.491  1.00  0.00    -0.197 C  
BRANCH   3   4
HETATM    4  C   UNL     1      -8.468  13.689  68.082  1.00  0.00    -0.175 C  
BRANCH   4   5
HETATM    5  C   UNL     1      -9.518  13.387  67.058  1.00  0.00    -0.247 A  
HETATM    6  N   UNL     1     -10.576  14.153  66.877  1.00  0.00    -0.279 NA 
HETATM    7  C   UNL     1     -11.298  13.588  65.871  1.00  0.00    -0.308 A  
HETATM    8 CL   UNL     1     -12.758  14.266  65.318  1.00  0.00    -0.424 Cl 
HETATM    9  C   UNL     1     -10.700  12.426  65.428  1.00  0.00    -0.282 A  
HETATM   10  N   UNL     1      -9.563  12.287  66.214  1.00  0.00    -0.240 NA 
BRANCH   9  11
HETATM   11  C   UNL     1     -11.158  11.486  64.383  1.00  0.00    -0.291 C  
HETATM   12  H   UNL     1     -11.287  11.525  62.461  1.00  0.00     0.000 HD 
HETATM   13  O   UNL     1     -10.993  12.130  63.132  1.00  0.00    -0.363 OA 
ENDBRANCH   9  11
BRANCH  10  14
HETATM   14  C   UNL     1      -8.726  11.093  66.311  1.00  0.00    -0.182 C  
BRANCH  14  15
HETATM   15  C   UNL     1      -9.142  10.116  67.381  1.00  0.00    -0.149 A  
HETATM   16  C   UNL     1     -10.145   9.175  67.138  1.00  0.00    -0.301 A  
HETATM   17  C   UNL     1     -10.505   8.236  68.115  1.00  0.00    -0.226 A  
HETATM   18  C   UNL     1      -9.932   8.242  69.397  1.00  0.00    -0.188 A  
HETATM   19  C   UNL     1      -8.897   9.169  69.612  1.00  0.00    -0.152 A  
HETATM   20  C   UNL     1      -8.500  10.080  68.623  1.00  0.00    -0.118 A  
BRANCH  18  21
HETATM   21  C   UNL     1     -10.382   7.323  70.484  1.00  0.00    -0.215 A  
HETATM   22  C   UNL     1      -9.817   6.025  70.549  1.00  0.00    -0.222 A  
HETATM   23  C   UNL     1     -10.166   5.102  71.541  1.00  0.00    -0.274 A  
HETATM   24  C   UNL     1     -11.115   5.436  72.490  1.00  0.00    -0.310 A  
HETATM   25  C   UNL     1     -11.709   6.696  72.444  1.00  0.00    -0.260 A  
HETATM   26  C   UNL     1     -11.346   7.656  71.470  1.00  0.00    -0.286 A  
BRANCH  26  27
HETATM   27  C   UNL     1     -11.993   8.958  71.580  1.00  0.00    -0.333 A  
HETATM   28  N   UNL     1     -13.203   9.149  72.143  1.00  0.00    -0.423 NA 
HETATM   29  N   UNL     1     -13.329  10.473  71.994  1.00  0.00    -0.504 NA 
HETATM   30  N   UNL     1     -12.314  11.096  71.392  1.00  0.00    -0.283 NA 
HETATM   31  H   UNL     1     -14.153  10.977  72.322  1.00  0.00     0.000 HD 
HETATM   32  N   UNL     1     -11.434  10.136  71.144  1.00  0.00    -0.350 NA 
ENDBRANCH  26  27
ENDBRANCH  18  21
ENDBRANCH  14  15
ENDBRANCH  10  14
ENDBRANCH   4   5
ENDBRANCH   3   4
ENDBRANCH   2   3
TORSDOF 8
ENDMDL
MODEL      113
REMARK 921   NORMALIZED FREE ENERGY PREDICTED BY IDOCK:   -5.38 KCAL/MOL
REMARK 922        TOTAL FREE ENERGY PREDICTED BY IDOCK:   -8.93 KCAL/MOL
REMARK 923 INTER-LIGAND FREE ENERGY PREDICTED BY IDOCK:   -7.48 KCAL/MOL
REMARK 924 INTRA-LIGAND FREE ENERGY PREDICTED BY IDOCK:   -1.45 KCAL/MOL
REMARK 927      BINDING AFFINITY PREDICTED BY RF-SCORE:    0.00 PKD
ROOT
HETATM    1  C   UNL     1      -6.410   9.627  70.328  1.00  0.00    -0.076 C  
HETATM    2  C   UNL     1      -5.759   9.788  68.964  1.00  0.00    -0.035 C  
ENDROOT
BRANCH   2   3
HETATM    3  C   UNL     1      -6.801  10.009  67.862  1.00  0.00    -0.075 C  
BRANCH   3   4
HETATM    4  C   UNL     1      -6.744   8.969  66.736  1.00  0.00    -0.076 C  
BRANCH   4   5
HETATM    5  C   UNL     1      -7.571   7.751  67.011  1.00  0.00    -0.100 A  
HETATM    6  N   UNL     1      -7.039   6.585  67.324  1.00  0.00    -0.074 NA 
HETATM    7  C   UNL     1      -8.075   5.723  67.514  1.00  0.00    -0.102 A  
HETATM    8 CL   UNL     1      -7.825   4.093  67.933  1.00  0.00    -0.078 Cl 
HETATM    9  C   UNL     1      -9.284   6.348  67.289  1.00  0.00    -0.119 A  
HETATM   10  N   UNL     1      -8.953   7.652  66.941  1.00  0.00    -0.132 NA 
BRANCH   9  11
HETATM   11  C   UNL     1     -10.648   5.782  67.350  1.00  0.00    -0.265 C  
HETATM   12  H   UNL     1     -11.718   4.649  66.216  1.00  0.00     0.000 HD 
HETATM   13  O   UNL     1     -10.841   5.013  66.176  1.00  0.00    -0.294 OA 
ENDBRANCH   9  11
BRANCH  10  14
HETATM   14  C   UNL     1      -9.858   8.644  66.365  1.00  0.00    -0.270 C  
BRANCH  14  15
HETATM   15  C   UNL     1     -10.436   9.622  67.356  1.00  0.00    -0.319 A  
HETATM   16  C   UNL     1     -10.308   9.407  68.731  1.00  0.00    -0.230 A  
HETATM   17  C   UNL     1     -10.807  10.335  69.656  1.00  0.00    -0.311 A  
HETATM   18  C   UNL     1     -11.514  11.478  69.252  1.00  0.00    -0.370 A  
HETATM   19  C   UNL     1     -11.601  11.701  67.866  1.00  0.00    -0.369 A  
HETATM   20  C   UNL     1     -11.063  10.799  66.936  1.00  0.00    -0.204 A  
BRANCH  18  21
HETATM   21  C   UNL     1     -12.147  12.418  70.224  1.00  0.00    -0.377 A  
HETATM   22  C   UNL     1     -12.901  11.875  71.295  1.00  0.00    -0.391 A  
HETATM   23  C   UNL     1     -13.517  12.676  72.263  1.00  0.00    -0.541 A  
HETATM   24  C   UNL     1     -13.423  14.054  72.179  1.00  0.00    -0.567 A  
HETATM   25  C   UNL     1     -12.708  14.624  71.126  1.00  0.00    -0.409 A  
HETATM   26  C   UNL     1     -12.050  13.831  70.157  1.00  0.00    -0.429 A  
BRANCH  26  27
HETATM   27  C   UNL     1     -11.280  14.555  69.152  1.00  0.00    -0.269 A  
HETATM   28  N   UNL     1      -9.936  14.658  69.167  1.00  0.00    -0.185 NA 
HETATM   29  N   UNL     1      -9.740  15.394  68.067  1.00  0.00    -0.207 NA 
HETATM   30  N   UNL     1     -10.837  15.748  67.394  1.00  0.00    -0.317 NA 
HETATM   31  H   UNL     1      -8.807  15.668  67.761  1.00  0.00     0.000 HD 
HETATM   32  N   UNL     1     -11.835  15.191  68.066  1.00  0.00    -0.283 NA 
ENDBRANCH  26  27
ENDBRANCH  18  21
ENDBRANCH  14  15
ENDBRANCH  10  14
ENDBRANCH   4   5
ENDBRANCH   3   4
ENDBRANCH   2   3
TORSDOF 8
ENDMDL
MODEL      114
REMARK 921   NORMALIZED FREE ENERGY PREDICTED BY IDOCK:   -5.38 KCAL/MOL
REMARK 922        TOTAL FREE ENERGY PREDICTED BY IDOCK:   -8.93 KCAL/MOL
REMARK 923 INTER-LIGAND FREE ENERGY PREDICTED BY IDOCK:   -6.89 KCAL/MOL
REMARK 924 INTRA-LIGAND FREE ENERGY PREDICTED BY IDOCK:   -2.04 KCAL/MOL
REMARK 927      BINDING AFFINITY PREDICTED BY RF-SCORE:    0.00 PKD
ROOT
HETATM    1  C   UNL     1     -10.416  11.760  65.960  1.00  0.00    -0.286 C  
HETATM    2  C   UNL     1     -10.323  12.166  67.422  1.00  0.00    -0.220 C  
ENDROOT
BRANCH   2   3
HETATM    3  C   UNL     1     -11.675  12.042  68.132  1.00  0.00    -0.398 C  
BRANCH   3   4
HETATM    4  C   UNL     1     -11.594  12.205  69.654  1.00  0.00    -0.361 C  
BRANCH   4   5
HETATM    5  C   UNL     1     -11.937  10.956  70.405  1.00  0.00    -0.362 A  
HETATM    6  N   UNL     1     -13.071  10.809  71.061  1.00  0.00    -0.315 NA 
HETATM    7  C   UNL     1     -13.048   9.561  71.605  1.00  0.00    -0.401 A  
HETATM    8 CL   UNL     1     -14.334   8.963  72.546  1.00  0.00    -0.436 Cl 
HETATM    9  C   UNL     1     -11.862   8.918  71.312  1.00  0.00    -0.310 A  
HETATM   10  N   UNL     1     -11.138   9.831  70.556  1.00  0.00    -0.296 NA 
BRANCH   9  11
HETATM   11  C   UNL     1     -11.407   7.574  71.726  1.00  0.00    -0.254 C  
HETATM   12  H   UNL     1     -10.753   6.788  73.360  1.00  0.00     0.000 HD 
HETATM   13  O   UNL     1     -11.046   7.652  73.094  1.00  0.00    -0.404 OA 
ENDBRANCH   9  11
BRANCH  10  14
HETATM   14  C   UNL     1      -9.721   9.731  70.212  1.00  0.00    -0.223 C  
BRANCH  14  15
HETATM   15  C   UNL     1      -9.424   8.886  69.000  1.00  0.00    -0.156 A  
HETATM   16  C   UNL     1      -8.163   8.311  68.821  1.00  0.00    -0.117 A  
HETATM   17  C   UNL     1      -7.895   7.489  67.717  1.00  0.00    -0.117 A  
HETATM   18  C   UNL     1      -8.848   7.263  66.712  1.00  0.00    -0.143 A  
HETATM   19  C   UNL     1     -10.123   7.815  66.926  1.00  0.00    -0.356 A  
HETATM   20  C   UNL     1     -10.411   8.600  68.052  1.00  0.00    -0.277 A  
BRANCH  18  21
HETATM   21  C   UNL     1      -8.544   6.482  65.476  1.00  0.00    -0.109 A  
HETATM   22  C   UNL     1      -8.783   5.086  65.483  1.00  0.00    -0.143 A  
HETATM   23  C   UNL     1      -8.543   4.276  64.367  1.00  0.00    -0.120 A  
HETATM   24  C   UNL     1      -8.029   4.833  63.209  1.00  0.00    -0.086 A  
HETATM   25  C   UNL     1      -7.761   6.200  63.173  1.00  0.00    -0.097 A  
HETATM   26  C   UNL     1      -8.028   7.041  64.278  1.00  0.00    -0.091 A  
BRANCH  26  27
HETATM   27  C   UNL     1      -7.767   8.462  64.081  1.00  0.00    -0.137 A  
HETATM   28  N   UNL     1      -6.568   9.041  64.292  1.00  0.00    -0.082 NA 
HETATM   29  N   UNL     1      -6.857  10.309  63.976  1.00  0.00    -0.270 NA 
HETATM   30  N   UNL     1      -8.115  10.550  63.600  1.00  0.00    -0.104 NA 
HETATM   31  H   UNL     1      -6.156  11.049  64.020  1.00  0.00     0.000 HD 
HETATM   32  N   UNL     1      -8.706   9.364  63.637  1.00  0.00    -0.217 NA 
ENDBRANCH  26  27
ENDBRANCH  18  21
ENDBRANCH  14  15
ENDBRANCH  10  14
ENDBRANCH   4   5
ENDBRANCH   3   4
ENDBRANCH   2   3
TORSDOF 8
ENDMDL
MODEL      115
REMARK 921   NORMALIZED FREE ENERGY PREDICTED BY IDOCK:   -5.37 KCAL/MOL
REMARK 922        TOTAL FREE ENERGY PREDICTED BY IDOCK:   -8.91 KCAL/MOL
REMARK 923 INTER-LIGAND FREE ENERGY PREDICTED BY IDOCK:   -8.10 KCAL/MOL
REMARK 924 INTRA-LIGAND FREE ENERGY PREDICTED BY IDOCK:   -0.81 KCAL/MOL
REMARK 927      BINDING AFFINITY PREDICTED BY RF-SCORE:    0.00 PKD
ROOT
HETATM    1  C   UNL     1      -9.887   4.408  66.793  1.00  0.00    -0.241 C  
HETATM    2  C   UNL     1      -8.978   4.155  67.984  1.00  0.00    -0.150 C  
ENDROOT
BRANCH   2   3
HETATM    3  C   UNL     1      -9.738   4.265  69.310  1.00  0.00    -0.240 C  
BRANCH   3   4
HETATM    4  C   UNL     1     -10.066   5.705  69.720  1.00  0.00    -0.286 C  
BRANCH   4   5
HETATM    5  C   UNL     1      -8.982   6.681  69.382  1.00  0.00    -0.133 A  
HETATM    6  N   UNL     1      -7.787   6.637  69.937  1.00  0.00    -0.112 NA 
HETATM    7  C   UNL     1      -7.066   7.654  69.390  1.00  0.00    -0.075 A  
HETATM    8 CL   UNL     1      -5.452   7.958  69.837  1.00  0.00    -0.023 Cl 
HETATM    9  C   UNL     1      -7.830   8.374  68.494  1.00  0.00    -0.120 A  
HETATM   10  N   UNL     1      -9.074   7.756  68.509  1.00  0.00    -0.133 NA 
BRANCH   9  11
HETATM   11  C   UNL     1      -7.459   9.567  67.705  1.00  0.00    -0.084 C  
HETATM   12  H   UNL     1      -6.847   9.891  65.907  1.00  0.00     0.000 HD 
HETATM   13  O   UNL     1      -7.085   9.123  66.414  1.00  0.00    -0.082 OA 
ENDBRANCH   9  11
BRANCH  10  14
HETATM   14  C   UNL     1     -10.305   8.287  67.925  1.00  0.00    -0.219 C  
BRANCH  14  15
HETATM   15  C   UNL     1     -10.849   9.515  68.608  1.00  0.00    -0.177 A  
HETATM   16  C   UNL     1     -10.999   9.553  69.997  1.00  0.00    -0.284 A  
HETATM   17  C   UNL     1     -11.464  10.709  70.640  1.00  0.00    -0.374 A  
HETATM   18  C   UNL     1     -11.865  11.847  69.923  1.00  0.00    -0.418 A  
HETATM   19  C   UNL     1     -11.671  11.807  68.531  1.00  0.00    -0.390 A  
HETATM   20  C   UNL     1     -11.162  10.671  67.886  1.00  0.00    -0.376 A  
BRANCH  18  21
HETATM   21  C   UNL     1     -12.467  13.044  70.583  1.00  0.00    -0.347 A  
HETATM   22  C   UNL     1     -13.331  12.843  71.687  1.00  0.00    -0.358 A  
HETATM   23  C   UNL     1     -13.928  13.903  72.378  1.00  0.00    -0.633 A  
HETATM   24  C   UNL     1     -13.702  15.206  71.971  1.00  0.00    -0.576 A  
HETATM   25  C   UNL     1     -12.874  15.441  70.874  1.00  0.00    -0.536 A  
HETATM   26  C   UNL     1     -12.235  14.385  70.183  1.00  0.00    -0.401 A  
BRANCH  26  27
HETATM   27  C   UNL     1     -11.341  14.776  69.099  1.00  0.00    -0.282 A  
HETATM   28  N   UNL     1     -10.009  14.930  69.244  1.00  0.00    -0.205 NA 
HETATM   29  N   UNL     1      -9.673  15.281  67.997  1.00  0.00    -0.210 NA 
HETATM   30  N   UNL     1     -10.674  15.357  67.117  1.00  0.00    -0.310 NA 
HETATM   31  H   UNL     1      -8.707  15.478  67.734  1.00  0.00     0.000 HD 
HETATM   32  N   UNL     1     -11.751  15.007  67.807  1.00  0.00    -0.324 NA 
ENDBRANCH  26  27
ENDBRANCH  18  21
ENDBRANCH  14  15
ENDBRANCH  10  14
ENDBRANCH   4   5
ENDBRANCH   3   4
ENDBRANCH   2   3
TORSDOF 8
ENDMDL
MODEL      116
REMARK 921   NORMALIZED FREE ENERGY PREDICTED BY IDOCK:   -5.37 KCAL/MOL
REMARK 922        TOTAL FREE ENERGY PREDICTED BY IDOCK:   -8.91 KCAL/MOL
REMARK 923 INTER-LIGAND FREE ENERGY PREDICTED BY IDOCK:   -7.25 KCAL/MOL
REMARK 924 INTRA-LIGAND FREE ENERGY PREDICTED BY IDOCK:   -1.66 KCAL/MOL
REMARK 927      BINDING AFFINITY PREDICTED BY RF-SCORE:    0.00 PKD
ROOT
HETATM    1  C   UNL     1     -10.360   5.220  70.456  1.00  0.00    -0.336 C  
HETATM    2  C   UNL     1     -10.733   6.440  69.629  1.00  0.00    -0.339 C  
ENDROOT
BRANCH   2   3
HETATM    3  C   UNL     1     -11.176   6.052  68.214  1.00  0.00    -0.089 C  
BRANCH   3   4
HETATM    4  C   UNL     1     -10.793   7.076  67.140  1.00  0.00    -0.427 C  
BRANCH   4   5
HETATM    5  C   UNL     1      -9.377   6.942  66.670  1.00  0.00    -0.163 A  
HETATM    6  N   UNL     1      -8.984   5.976  65.863  1.00  0.00    -0.153 NA 
HETATM    7  C   UNL     1      -7.655   6.172  65.640  1.00  0.00    -0.085 A  
HETATM    8 CL   UNL     1      -6.746   5.134  64.645  1.00  0.00    -0.046 Cl 
HETATM    9  C   UNL     1      -7.193   7.266  66.344  1.00  0.00    -0.079 A  
HETATM   10  N   UNL     1      -8.304   7.747  67.026  1.00  0.00    -0.116 NA 
BRANCH   9  11
HETATM   11  C   UNL     1      -5.822   7.812  66.416  1.00  0.00    -0.040 C  
HETATM   12  H   UNL     1      -4.293   7.539  67.557  1.00  0.00     0.000 HD 
HETATM   13  O   UNL     1      -5.175   7.188  67.511  1.00  0.00    -0.017 OA 
ENDBRANCH   9  11
BRANCH  10  14
HETATM   14  C   UNL     1      -8.290   8.736  68.101  1.00  0.00    -0.122 C  
BRANCH  14  15
HETATM   15  C   UNL     1      -8.687  10.129  67.683  1.00  0.00    -0.121 A  
HETATM   16  C   UNL     1      -9.873  10.704  68.147  1.00  0.00    -0.170 A  
HETATM   17  C   UNL     1     -10.224  12.015  67.795  1.00  0.00    -0.211 A  
HETATM   18  C   UNL     1      -9.446  12.780  66.912  1.00  0.00    -0.235 A  
HETATM   19  C   UNL     1      -8.237  12.202  66.485  1.00  0.00     0.061 A  
HETATM   20  C   UNL     1      -7.858  10.909  66.872  1.00  0.00    -0.135 A  
BRANCH  18  21
HETATM   21  C   UNL     1      -9.862  14.134  66.440  1.00  0.00    -0.308 A  
HETATM   22  C   UNL     1      -9.219  15.269  66.991  1.00  0.00    -0.235 A  
HETATM   23  C   UNL     1      -9.531  16.576  66.599  1.00  0.00    -0.278 A  
HETATM   24  C   UNL     1     -10.520  16.794  65.656  1.00  0.00    -0.284 A  
HETATM   25  C   UNL     1     -11.190  15.702  65.108  1.00  0.00    -0.286 A  
HETATM   26  C   UNL     1     -10.867  14.373  65.466  1.00  0.00    -0.335 A  
BRANCH  26  27
HETATM   27  C   UNL     1     -11.596  13.323  64.765  1.00  0.00    -0.332 A  
HETATM   28  N   UNL     1     -12.854  12.949  65.073  1.00  0.00    -0.798 NA 
HETATM   29  N   UNL     1     -13.047  11.987  64.163  1.00  0.00    -0.685 NA 
HETATM   30  N   UNL     1     -12.025  11.743  63.339  1.00  0.00    -0.431 NA 
HETATM   31  H   UNL     1     -13.924  11.470  64.101  1.00  0.00     0.000 HD 
HETATM   32  N   UNL     1     -11.093  12.615  63.698  1.00  0.00    -0.451 NA 
ENDBRANCH  26  27
ENDBRANCH  18  21
ENDBRANCH  14  15
ENDBRANCH  10  14
ENDBRANCH   4   5
ENDBRANCH   3   4
ENDBRANCH   2   3
TORSDOF 8
ENDMDL
MODEL      117
REMARK 921   NORMALIZED FREE ENERGY PREDICTED BY IDOCK:   -5.33 KCAL/MOL
REMARK 922        TOTAL FREE ENERGY PREDICTED BY IDOCK:   -8.85 KCAL/MOL
REMARK 923 INTER-LIGAND FREE ENERGY PREDICTED BY IDOCK:   -7.34 KCAL/MOL
REMARK 924 INTRA-LIGAND FREE ENERGY PREDICTED BY IDOCK:   -1.50 KCAL/MOL
REMARK 927      BINDING AFFINITY PREDICTED BY RF-SCORE:    0.00 PKD
ROOT
HETATM    1  C   UNL     1      -8.071   7.757  74.515  1.00  0.00    -0.269 C  
HETATM    2  C   UNL     1      -7.468   8.303  73.231  1.00  0.00    -0.160 C  
ENDROOT
BRANCH   2   3
HETATM    3  C   UNL     1      -8.516   8.427  72.121  1.00  0.00    -0.245 C  
BRANCH   3   4
HETATM    4  C   UNL     1      -7.957   8.199  70.711  1.00  0.00    -0.097 C  
BRANCH   4   5
HETATM    5  C   UNL     1      -8.396   6.903  70.101  1.00  0.00    -0.135 A  
HETATM    6  N   UNL     1      -8.820   5.884  70.823  1.00  0.00    -0.137 NA 
HETATM    7  C   UNL     1      -9.142   4.894  69.946  1.00  0.00    -0.117 A  
HETATM    8 CL   UNL     1      -9.734   3.386  70.468  1.00  0.00    -0.223 Cl 
HETATM    9  C   UNL     1      -8.889   5.284  68.647  1.00  0.00    -0.096 A  
HETATM   10  N   UNL     1      -8.386   6.574  68.753  1.00  0.00    -0.121 NA 
BRANCH   9  11
HETATM   11  C   UNL     1      -9.062   4.516  67.396  1.00  0.00    -0.128 C  
HETATM   12  H   UNL     1     -10.411   4.407  66.024  1.00  0.00     0.000 HD 
HETATM   13  O   UNL     1     -10.301   4.901  66.829  1.00  0.00    -0.237 OA 
ENDBRANCH   9  11
BRANCH  10  14
HETATM   14  C   UNL     1      -7.733   7.333  67.688  1.00  0.00    -0.112 C  
BRANCH  14  15
HETATM   15  C   UNL     1      -8.559   8.456  67.115  1.00  0.00    -0.123 A  
HETATM   16  C   UNL     1      -9.950   8.460  67.247  1.00  0.00    -0.291 A  
HETATM   17  C   UNL     1     -10.718   9.524  66.754  1.00  0.00    -0.136 A  
HETATM   18  C   UNL     1     -10.141  10.592  66.048  1.00  0.00    -0.317 A  
HETATM   19  C   UNL     1      -8.738  10.593  65.958  1.00  0.00    -0.186 A  
HETATM   20  C   UNL     1      -7.960   9.555  66.491  1.00  0.00    -0.112 A  
BRANCH  18  21
HETATM   21  C   UNL     1     -10.955  11.675  65.421  1.00  0.00    -0.328 A  
HETATM   22  C   UNL     1     -11.224  11.599  64.032  1.00  0.00    -0.448 A  
HETATM   23  C   UNL     1     -11.990  12.558  63.360  1.00  0.00    -0.602 A  
HETATM   24  C   UNL     1     -12.494  13.645  64.052  1.00  0.00    -0.285 A  
HETATM   25  C   UNL     1     -12.230  13.765  65.415  1.00  0.00    -0.465 A  
HETATM   26  C   UNL     1     -11.487  12.789  66.119  1.00  0.00    -0.399 A  
BRANCH  26  27
HETATM   27  C   UNL     1     -11.347  13.001  67.555  1.00  0.00    -0.305 A  
HETATM   28  N   UNL     1     -10.495  13.891  68.102  1.00  0.00    -0.239 NA 
HETATM   29  N   UNL     1     -10.749  13.698  69.402  1.00  0.00    -0.446 NA 
HETATM   30  N   UNL     1     -11.668  12.774  69.690  1.00  0.00    -0.312 NA 
HETATM   31  H   UNL     1     -10.269  14.226  70.130  1.00  0.00     0.000 HD 
HETATM   32  N   UNL     1     -12.081  12.336  68.508  1.00  0.00    -0.272 NA 
ENDBRANCH  26  27
ENDBRANCH  18  21
ENDBRANCH  14  15
ENDBRANCH  10  14
ENDBRANCH   4   5
ENDBRANCH   3   4
ENDBRANCH   2   3
TORSDOF 8
ENDMDL
MODEL      118
REMARK 921   NORMALIZED FREE ENERGY PREDICTED BY IDOCK:   -5.30 KCAL/MOL
REMARK 922        TOTAL FREE ENERGY PREDICTED BY IDOCK:   -8.81 KCAL/MOL
REMARK 923 INTER-LIGAND FREE ENERGY PREDICTED BY IDOCK:   -7.59 KCAL/MOL
REMARK 924 INTRA-LIGAND FREE ENERGY PREDICTED BY IDOCK:   -1.22 KCAL/MOL
REMARK 927      BINDING AFFINITY PREDICTED BY RF-SCORE:    0.00 PKD
ROOT
HETATM    1  C   UNL     1     -12.884  10.716  71.233  1.00  0.00    -0.535 C  
HETATM    2  C   UNL     1     -13.014  12.224  71.092  1.00  0.00    -0.229 C  
ENDROOT
BRANCH   2   3
HETATM    3  C   UNL     1     -11.813  12.830  70.358  1.00  0.00    -0.238 C  
BRANCH   3   4
HETATM    4  C   UNL     1     -11.985  12.899  68.836  1.00  0.00    -0.291 C  
BRANCH   4   5
HETATM    5  C   UNL     1     -10.981  12.077  68.088  1.00  0.00    -0.230 A  
HETATM    6  N   UNL     1     -11.307  10.983  67.428  1.00  0.00    -0.462 NA 
HETATM    7  C   UNL     1     -10.160  10.511  66.866  1.00  0.00    -0.216 A  
HETATM    8 CL   UNL     1     -10.135   9.096  65.921  1.00  0.00    -0.258 Cl 
HETATM    9  C   UNL     1      -9.083  11.306  67.203  1.00  0.00    -0.157 A  
HETATM   10  N   UNL     1      -9.615  12.303  68.011  1.00  0.00    -0.200 NA 
BRANCH   9  11
HETATM   11  C   UNL     1      -7.660  11.143  66.841  1.00  0.00    -0.145 C  
HETATM   12  H   UNL     1      -6.147  10.219  67.597  1.00  0.00     0.000 HD 
HETATM   13  O   UNL     1      -7.062  10.324  67.831  1.00  0.00    -0.082 OA 
ENDBRANCH   9  11
BRANCH  10  14
HETATM   14  C   UNL     1      -8.851  13.245  68.828  1.00  0.00     0.150 C  
BRANCH  14  15
HETATM   15  C   UNL     1      -8.381  14.477  68.097  1.00  0.00    -0.147 A  
HETATM   16  C   UNL     1      -7.210  15.134  68.484  1.00  0.00    -0.118 A  
HETATM   17  C   UNL     1      -6.745  16.254  67.780  1.00  0.00    -0.162 A  
HETATM   18  C   UNL     1      -7.464  16.808  66.709  1.00  0.00    -0.279 A  
HETATM   19  C   UNL     1      -8.618  16.113  66.307  1.00  0.00    -0.373 A  
HETATM   20  C   UNL     1      -9.063  14.964  66.978  1.00  0.00    -0.255 A  
BRANCH  18  21
HETATM   21  C   UNL     1      -7.042  18.064  66.021  1.00  0.00    -0.330 A  
HETATM   22  C   UNL     1      -5.879  18.033  65.212  1.00  0.00    -0.083 A  
HETATM   23  C   UNL     1      -5.417  19.156  64.517  1.00  0.00    -0.279 A  
HETATM   24  C   UNL     1      -6.088  20.361  64.629  1.00  0.00    -0.325 A  
HETATM   25  C   UNL     1      -7.223  20.434  65.435  1.00  0.00    -0.147 A  
HETATM   26  C   UNL     1      -7.727  19.303  66.118  1.00  0.00    -0.304 A  
BRANCH  26  27
HETATM   27  C   UNL     1      -8.961  19.502  66.869  1.00  0.00    -0.325 A  
HETATM   28  N   UNL     1     -10.189  19.464  66.316  1.00  0.00    -0.440 NA 
HETATM   29  N   UNL     1     -10.944  19.699  67.396  1.00  0.00    -0.384 NA 
HETATM   30  N   UNL     1     -10.289  19.879  68.544  1.00  0.00    -0.424 NA 
HETATM   31  H   UNL     1     -11.962  19.737  67.344  1.00  0.00     0.000 HD 
HETATM   32  N   UNL     1      -9.011  19.728  68.224  1.00  0.00    -0.318 NA 
ENDBRANCH  26  27
ENDBRANCH  18  21
ENDBRANCH  14  15
ENDBRANCH  10  14
ENDBRANCH   4   5
ENDBRANCH   3   4
ENDBRANCH   2   3
TORSDOF 8
ENDMDL
MODEL      119
REMARK 921   NORMALIZED FREE ENERGY PREDICTED BY IDOCK:   -5.29 KCAL/MOL
REMARK 922        TOTAL FREE ENERGY PREDICTED BY IDOCK:   -8.79 KCAL/MOL
REMARK 923 INTER-LIGAND FREE ENERGY PREDICTED BY IDOCK:   -7.88 KCAL/MOL
REMARK 924 INTRA-LIGAND FREE ENERGY PREDICTED BY IDOCK:   -0.91 KCAL/MOL
REMARK 927      BINDING AFFINITY PREDICTED BY RF-SCORE:    0.00 PKD
ROOT
HETATM    1  C   UNL     1     -10.388  19.931  66.448  1.00  0.00    -0.611 C  
HETATM    2  C   UNL     1     -10.167  18.435  66.598  1.00  0.00    -0.416 C  
ENDROOT
BRANCH   2   3
HETATM    3  C   UNL     1     -10.260  17.992  68.062  1.00  0.00    -0.390 C  
BRANCH   3   4
HETATM    4  C   UNL     1     -10.182  16.474  68.258  1.00  0.00    -0.268 C  
BRANCH   4   5
HETATM    5  C   UNL     1     -11.042  15.974  69.377  1.00  0.00    -0.331 A  
HETATM    6  N   UNL     1     -10.922  16.410  70.616  1.00  0.00    -0.198 NA 
HETATM    7  C   UNL     1     -11.860  15.755  71.353  1.00  0.00    -0.442 A  
HETATM    8 CL   UNL     1     -12.045  16.024  73.023  1.00  0.00    -0.597 Cl 
HETATM    9  C   UNL     1     -12.567  14.864  70.570  1.00  0.00    -0.360 A  
HETATM   10  N   UNL     1     -12.019  14.993  69.300  1.00  0.00    -0.305 NA 
BRANCH   9  11
HETATM   11  C   UNL     1     -13.644  13.933  70.965  1.00  0.00    -0.007 C  
HETATM   12  H   UNL     1     -13.915  12.673  72.398  1.00  0.00     0.000 HD 
HETATM   13  O   UNL     1     -13.222  13.272  72.144  1.00  0.00    -0.441 OA 
ENDBRANCH   9  11
BRANCH  10  14
HETATM   14  C   UNL     1     -12.246  14.092  68.171  1.00  0.00    -0.156 C  
BRANCH  14  15
HETATM   15  C   UNL     1     -11.463  12.805  68.223  1.00  0.00    -0.354 A  
HETATM   16  C   UNL     1     -10.170  12.734  67.700  1.00  0.00    -0.219 A  
HETATM   17  C   UNL     1      -9.421  11.551  67.785  1.00  0.00    -0.168 A  
HETATM   18  C   UNL     1      -9.955  10.373  68.329  1.00  0.00    -0.168 A  
HETATM   19  C   UNL     1     -11.243  10.471  68.885  1.00  0.00    -0.323 A  
HETATM   20  C   UNL     1     -11.978  11.664  68.845  1.00  0.00    -0.355 A  
BRANCH  18  21
HETATM   21  C   UNL     1      -9.214   9.077  68.325  1.00  0.00    -0.139 A  
HETATM   22  C   UNL     1      -9.817   7.955  67.706  1.00  0.00    -0.204 A  
HETATM   23  C   UNL     1      -9.192   6.705  67.640  1.00  0.00    -0.110 A  
HETATM   24  C   UNL     1      -7.947   6.526  68.216  1.00  0.00    -0.110 A  
HETATM   25  C   UNL     1      -7.332   7.602  68.854  1.00  0.00    -0.090 A  
HETATM   26  C   UNL     1      -7.932   8.882  68.903  1.00  0.00    -0.104 A  
BRANCH  26  27
HETATM   27  C   UNL     1      -7.149   9.935  69.539  1.00  0.00    -0.082 A  
HETATM   28  N   UNL     1      -6.982  10.044  70.872  1.00  0.00    -0.336 NA 
HETATM   29  N   UNL     1      -6.210  11.136  70.926  1.00  0.00    -0.451 NA 
HETATM   30  N   UNL     1      -5.901  11.697  69.756  1.00  0.00    -0.096 NA 
HETATM   31  H   UNL     1      -5.877  11.517  71.812  1.00  0.00     0.000 HD 
HETATM   32  N   UNL     1      -6.477  10.918  68.851  1.00  0.00    -0.046 NA 
ENDBRANCH  26  27
ENDBRANCH  18  21
ENDBRANCH  14  15
ENDBRANCH  10  14
ENDBRANCH   4   5
ENDBRANCH   3   4
ENDBRANCH   2   3
TORSDOF 8
ENDMDL
MODEL      120
REMARK 921   NORMALIZED FREE ENERGY PREDICTED BY IDOCK:   -5.25 KCAL/MOL
REMARK 922        TOTAL FREE ENERGY PREDICTED BY IDOCK:   -8.74 KCAL/MOL
REMARK 923 INTER-LIGAND FREE ENERGY PREDICTED BY IDOCK:   -6.63 KCAL/MOL
REMARK 924 INTRA-LIGAND FREE ENERGY PREDICTED BY IDOCK:   -2.11 KCAL/MOL
REMARK 927      BINDING AFFINITY PREDICTED BY RF-SCORE:    0.00 PKD
ROOT
HETATM    1  C   UNL     1      -6.688  11.103  66.298  1.00  0.00    -0.064 C  
HETATM    2  C   UNL     1      -7.291  10.169  65.263  1.00  0.00    -0.141 C  
ENDROOT
BRANCH   2   3
HETATM    3  C   UNL     1      -6.314   9.058  64.864  1.00  0.00    -0.066 C  
BRANCH   3   4
HETATM    4  C   UNL     1      -6.328   7.850  65.809  1.00  0.00    -0.042 C  
BRANCH   4   5
HETATM    5  C   UNL     1      -7.286   6.779  65.390  1.00  0.00    -0.080 A  
HETATM    6  N   UNL     1      -7.341   6.316  64.156  1.00  0.00    -0.065 NA 
HETATM    7  C   UNL     1      -8.305   5.355  64.143  1.00  0.00    -0.118 A  
HETATM    8 CL   UNL     1      -8.703   4.497  62.728  1.00  0.00    -0.112 Cl 
HETATM    9  C   UNL     1      -8.893   5.230  65.385  1.00  0.00    -0.152 A  
HETATM   10  N   UNL     1      -8.247   6.168  66.182  1.00  0.00    -0.114 NA 
BRANCH   9  11
HETATM   11  C   UNL     1      -9.995   4.340  65.806  1.00  0.00    -0.222 C  
HETATM   12  H   UNL     1     -11.828   4.076  65.274  1.00  0.00     0.000 HD 
HETATM   13  O   UNL     1     -11.120   4.649  65.003  1.00  0.00    -0.132 OA 
ENDBRANCH   9  11
BRANCH  10  14
HETATM   14  C   UNL     1      -8.672   6.605  67.511  1.00  0.00    -0.118 C  
BRANCH  14  15
HETATM   15  C   UNL     1      -9.260   7.991  67.561  1.00  0.00    -0.153 A  
HETATM   16  C   UNL     1     -10.307   8.355  66.710  1.00  0.00    -0.357 A  
HETATM   17  C   UNL     1     -10.887   9.629  66.784  1.00  0.00    -0.051 A  
HETATM   18  C   UNL     1     -10.402  10.616  67.656  1.00  0.00    -0.246 A  
HETATM   19  C   UNL     1      -9.374  10.223  68.532  1.00  0.00    -0.155 A  
HETATM   20  C   UNL     1      -8.822   8.934  68.496  1.00  0.00    -0.134 A  
BRANCH  18  21
HETATM   21  C   UNL     1     -10.933  12.011  67.668  1.00  0.00    -0.287 A  
HETATM   22  C   UNL     1     -11.097  12.661  68.916  1.00  0.00    -0.307 A  
HETATM   23  C   UNL     1     -11.573  13.972  69.025  1.00  0.00    -0.345 A  
HETATM   24  C   UNL     1     -11.927  14.673  67.886  1.00  0.00    -0.299 A  
HETATM   25  C   UNL     1     -11.800  14.058  66.642  1.00  0.00    -0.443 A  
HETATM   26  C   UNL     1     -11.290  12.746  66.508  1.00  0.00    -0.369 A  
BRANCH  26  27
HETATM   27  C   UNL     1     -11.143  12.250  65.145  1.00  0.00    -0.317 A  
HETATM   28  N   UNL     1     -12.177  11.862  64.372  1.00  0.00    -0.239 NA 
HETATM   29  N   UNL     1     -11.524  11.509  63.258  1.00  0.00    -0.852 NA 
HETATM   30  N   UNL     1     -10.196  11.643  63.288  1.00  0.00    -0.406 NA 
HETATM   31  H   UNL     1     -12.013  11.159  62.435  1.00  0.00     0.000 HD 
HETATM   32  N   UNL     1      -9.939  12.146  64.488  1.00  0.00    -0.240 NA 
ENDBRANCH  26  27
ENDBRANCH  18  21
ENDBRANCH  14  15
ENDBRANCH  10  14
ENDBRANCH   4   5
ENDBRANCH   3   4
ENDBRANCH   2   3
TORSDOF 8
ENDMDL
MODEL      121
REMARK 921   NORMALIZED FREE ENERGY PREDICTED BY IDOCK:   -5.25 KCAL/MOL
REMARK 922        TOTAL FREE ENERGY PREDICTED BY IDOCK:   -8.74 KCAL/MOL
REMARK 923 INTER-LIGAND FREE ENERGY PREDICTED BY IDOCK:   -7.03 KCAL/MOL
REMARK 924 INTRA-LIGAND FREE ENERGY PREDICTED BY IDOCK:   -1.70 KCAL/MOL
REMARK 927      BINDING AFFINITY PREDICTED BY RF-SCORE:    0.00 PKD
ROOT
HETATM    1  C   UNL     1      -7.679   9.941  63.947  1.00  0.00    -0.140 C  
HETATM    2  C   UNL     1      -7.059  10.326  65.280  1.00  0.00    -0.130 C  
ENDROOT
BRANCH   2   3
HETATM    3  C   UNL     1      -8.128  10.632  66.335  1.00  0.00    -0.148 C  
BRANCH   3   4
HETATM    4  C   UNL     1      -9.118  11.726  65.917  1.00  0.00    -0.128 C  
BRANCH   4   5
HETATM    5  C   UNL     1      -9.337  12.763  66.975  1.00  0.00    -0.229 A  
HETATM    6  N   UNL     1      -8.403  13.623  67.334  1.00  0.00    -0.184 NA 
HETATM    7  C   UNL     1      -8.951  14.413  68.297  1.00  0.00    -0.187 A  
HETATM    8 CL   UNL     1      -8.072  15.665  69.043  1.00  0.00    -0.204 Cl 
HETATM    9  C   UNL     1     -10.246  14.026  68.575  1.00  0.00    -0.237 A  
HETATM   10  N   UNL     1     -10.484  12.946  67.734  1.00  0.00    -0.217 NA 
BRANCH   9  11
HETATM   11  C   UNL     1     -11.190  14.584  69.566  1.00  0.00    -0.264 C  
HETATM   12  H   UNL     1     -12.670  15.816  69.514  1.00  0.00     0.000 HD 
HETATM   13  O   UNL     1     -12.064  15.458  68.876  1.00  0.00    -0.300 OA 
ENDBRANCH   9  11
BRANCH  10  14
HETATM   14  C   UNL     1     -11.616  12.025  67.818  1.00  0.00    -0.330 C  
BRANCH  14  15
HETATM   15  C   UNL     1     -11.422  10.872  68.770  1.00  0.00    -0.376 A  
HETATM   16  C   UNL     1     -10.864   9.669  68.331  1.00  0.00    -0.212 A  
HETATM   17  C   UNL     1     -10.643   8.609  69.223  1.00  0.00    -0.204 A  
HETATM   18  C   UNL     1     -11.032   8.679  70.569  1.00  0.00    -0.266 A  
HETATM   19  C   UNL     1     -11.556   9.909  71.004  1.00  0.00    -0.470 A  
HETATM   20  C   UNL     1     -11.737  10.988  70.127  1.00  0.00    -0.442 A  
BRANCH  18  21
HETATM   21  C   UNL     1     -10.906   7.521  71.504  1.00  0.00    -0.253 A  
HETATM   22  C   UNL     1     -12.054   6.731  71.760  1.00  0.00    -0.393 A  
HETATM   23  C   UNL     1     -12.028   5.619  72.608  1.00  0.00    -0.120 A  
HETATM   24  C   UNL     1     -10.854   5.272  73.254  1.00  0.00    -0.349 A  
HETATM   25  C   UNL     1      -9.710   6.040  73.044  1.00  0.00    -0.163 A  
HETATM   26  C   UNL     1      -9.707   7.147  72.164  1.00  0.00    -0.163 A  
BRANCH  26  27
HETATM   27  C   UNL     1      -8.426   7.819  71.982  1.00  0.00    -0.116 A  
HETATM   28  N   UNL     1      -7.620   7.623  70.920  1.00  0.00    -0.078 NA 
HETATM   29  N   UNL     1      -6.612   8.447  71.229  1.00  0.00    -0.048 NA 
HETATM   30  N   UNL     1      -6.731   9.117  72.377  1.00  0.00    -0.303 NA 
HETATM   31  H   UNL     1      -5.800   8.558  70.622  1.00  0.00     0.000 HD 
HETATM   32  N   UNL     1      -7.908   8.743  72.860  1.00  0.00    -0.377 NA 
ENDBRANCH  26  27
ENDBRANCH  18  21
ENDBRANCH  14  15
ENDBRANCH  10  14
ENDBRANCH   4   5
ENDBRANCH   3   4
ENDBRANCH   2   3
TORSDOF 8
ENDMDL
MODEL      122
REMARK 921   NORMALIZED FREE ENERGY PREDICTED BY IDOCK:   -5.24 KCAL/MOL
REMARK 922        TOTAL FREE ENERGY PREDICTED BY IDOCK:   -8.73 KCAL/MOL
REMARK 923 INTER-LIGAND FREE ENERGY PREDICTED BY IDOCK:   -6.66 KCAL/MOL
REMARK 924 INTRA-LIGAND FREE ENERGY PREDICTED BY IDOCK:   -2.06 KCAL/MOL
REMARK 927      BINDING AFFINITY PREDICTED BY RF-SCORE:    0.00 PKD
ROOT
HETATM    1  C   UNL     1     -11.049  10.564  67.822  1.00  0.00    -0.382 C  
HETATM    2  C   UNL     1     -11.501  10.683  69.268  1.00  0.00    -0.351 C  
ENDROOT
BRANCH   2   3
HETATM    3  C   UNL     1     -10.548   9.954  70.222  1.00  0.00    -0.359 C  
BRANCH   3   4
HETATM    4  C   UNL     1     -11.225   9.422  71.490  1.00  0.00    -0.457 C  
BRANCH   4   5
HETATM    5  C   UNL     1     -10.372   8.462  72.261  1.00  0.00    -0.333 A  
HETATM    6  N   UNL     1      -9.292   8.839  72.916  1.00  0.00    -0.180 NA 
HETATM    7  C   UNL     1      -8.782   7.721  73.502  1.00  0.00    -0.241 A  
HETATM    8 CL   UNL     1      -7.369   7.764  74.450  1.00  0.00    -0.160 Cl 
HETATM    9  C   UNL     1      -9.539   6.610  73.186  1.00  0.00    -0.152 A  
HETATM   10  N   UNL     1     -10.551   7.091  72.365  1.00  0.00    -0.215 NA 
BRANCH   9  11
HETATM   11  C   UNL     1      -9.328   5.201  73.578  1.00  0.00    -0.133 C  
HETATM   12  H   UNL     1     -10.161   3.978  74.813  1.00  0.00     0.000 HD 
HETATM   13  O   UNL     1     -10.297   4.885  74.561  1.00  0.00    -0.253 OA 
ENDBRANCH   9  11
BRANCH  10  14
HETATM   14  C   UNL     1     -11.465   6.279  71.563  1.00  0.00    -0.293 C  
BRANCH  14  15
HETATM   15  C   UNL     1     -10.991   5.996  70.161  1.00  0.00    -0.429 A  
HETATM   16  C   UNL     1     -10.086   4.962  69.907  1.00  0.00    -0.332 A  
HETATM   17  C   UNL     1      -9.676   4.667  68.599  1.00  0.00    -0.217 A  
HETATM   18  C   UNL     1     -10.094   5.433  67.499  1.00  0.00    -0.220 A  
HETATM   19  C   UNL     1     -11.035   6.444  67.766  1.00  0.00    -0.425 A  
HETATM   20  C   UNL     1     -11.485   6.713  69.067  1.00  0.00    -0.153 A  
BRANCH  18  21
HETATM   21  C   UNL     1      -9.581   5.204  66.117  1.00  0.00    -0.177 A  
HETATM   22  C   UNL     1     -10.217   4.225  65.313  1.00  0.00    -0.234 A  
HETATM   23  C   UNL     1      -9.816   3.952  64.001  1.00  0.00    -0.177 A  
HETATM   24  C   UNL     1      -8.743   4.632  63.453  1.00  0.00    -0.132 A  
HETATM   25  C   UNL     1      -8.078   5.586  64.221  1.00  0.00    -0.124 A  
HETATM   26  C   UNL     1      -8.489   5.901  65.538  1.00  0.00    -0.154 A  
BRANCH  26  27
HETATM   27  C   UNL     1      -7.751   6.968  66.203  1.00  0.00    -0.095 A  
HETATM   28  N   UNL     1      -6.636   6.766  66.933  1.00  0.00    -0.043 NA 
HETATM   29  N   UNL     1      -6.365   8.023  67.307  1.00  0.00    -0.055 NA 
HETATM   30  N   UNL     1      -7.212   8.960  66.876  1.00  0.00    -0.082 NA 
HETATM   31  H   UNL     1      -5.558   8.250  67.887  1.00  0.00     0.000 HD 
HETATM   32  N   UNL     1      -8.095   8.298  66.141  1.00  0.00    -0.106 NA 
ENDBRANCH  26  27
ENDBRANCH  18  21
ENDBRANCH  14  15
ENDBRANCH  10  14
ENDBRANCH   4   5
ENDBRANCH   3   4
ENDBRANCH   2   3
TORSDOF 8
ENDMDL
MODEL      123
REMARK 921   NORMALIZED FREE ENERGY PREDICTED BY IDOCK:   -5.24 KCAL/MOL
REMARK 922        TOTAL FREE ENERGY PREDICTED BY IDOCK:   -8.72 KCAL/MOL
REMARK 923 INTER-LIGAND FREE ENERGY PREDICTED BY IDOCK:   -7.18 KCAL/MOL
REMARK 924 INTRA-LIGAND FREE ENERGY PREDICTED BY IDOCK:   -1.54 KCAL/MOL
REMARK 927      BINDING AFFINITY PREDICTED BY RF-SCORE:    0.00 PKD
ROOT
HETATM    1  C   UNL     1      -6.522  18.305  67.908  1.00  0.00    -0.195 C  
HETATM    2  C   UNL     1      -8.028  18.488  67.825  1.00  0.00    -0.263 C  
ENDROOT
BRANCH   2   3
HETATM    3  C   UNL     1      -8.728  17.214  67.338  1.00  0.00    -0.211 C  
BRANCH   3   4
HETATM    4  C   UNL     1     -10.258  17.310  67.332  1.00  0.00    -0.325 C  
BRANCH   4   5
HETATM    5  C   UNL     1     -10.904  16.562  68.457  1.00  0.00    -0.349 A  
HETATM    6  N   UNL     1     -10.777  16.926  69.718  1.00  0.00    -0.212 NA 
HETATM    7  C   UNL     1     -11.499  16.037  70.454  1.00  0.00    -0.377 A  
HETATM    8 CL   UNL     1     -11.600  16.142  72.150  1.00  0.00    -0.516 Cl 
HETATM    9  C   UNL     1     -12.069  15.075  69.645  1.00  0.00    -0.300 A  
HETATM   10  N   UNL     1     -11.664  15.405  68.358  1.00  0.00    -0.351 NA 
BRANCH   9  11
HETATM   11  C   UNL     1     -12.898  13.913  70.027  1.00  0.00     0.098 C  
HETATM   12  H   UNL     1     -12.562  12.179  70.799  1.00  0.00     0.000 HD 
HETATM   13  O   UNL     1     -12.028  12.927  70.553  1.00  0.00    -0.319 OA 
ENDBRANCH   9  11
BRANCH  10  14
HETATM   14  C   UNL     1     -11.792  14.559  67.173  1.00  0.00    -0.387 C  
BRANCH  14  15
HETATM   15  C   UNL     1     -10.982  13.289  67.214  1.00  0.00    -0.284 A  
HETATM   16  C   UNL     1     -11.517  12.085  66.750  1.00  0.00    -0.410 A  
HETATM   17  C   UNL     1     -10.752  10.910  66.746  1.00  0.00    -0.309 A  
HETATM   18  C   UNL     1      -9.450  10.870  67.268  1.00  0.00    -0.176 A  
HETATM   19  C   UNL     1      -8.912  12.097  67.695  1.00  0.00    -0.178 A  
HETATM   20  C   UNL     1      -9.656  13.285  67.657  1.00  0.00    -0.213 A  
BRANCH  18  21
HETATM   21  C   UNL     1      -8.664   9.605  67.374  1.00  0.00    -0.130 A  
HETATM   22  C   UNL     1      -7.658   9.352  66.408  1.00  0.00    -0.097 A  
HETATM   23  C   UNL     1      -6.861   8.203  66.436  1.00  0.00    -0.066 A  
HETATM   24  C   UNL     1      -7.060   7.249  67.419  1.00  0.00    -0.088 A  
HETATM   25  C   UNL     1      -8.056   7.454  68.373  1.00  0.00    -0.125 A  
HETATM   26  C   UNL     1      -8.850   8.625  68.382  1.00  0.00    -0.142 A  
BRANCH  26  27
HETATM   27  C   UNL     1      -9.805   8.744  69.477  1.00  0.00    -0.180 A  
HETATM   28  N   UNL     1     -10.807   7.868  69.697  1.00  0.00    -0.218 NA 
HETATM   29  N   UNL     1     -11.367   8.415  70.782  1.00  0.00    -0.268 NA 
HETATM   30  N   UNL     1     -10.803   9.537  71.234  1.00  0.00    -0.353 NA 
HETATM   31  H   UNL     1     -12.179   7.998  71.238  1.00  0.00     0.000 HD 
HETATM   32  N   UNL     1      -9.778   9.745  70.419  1.00  0.00    -0.238 NA 
ENDBRANCH  26  27
ENDBRANCH  18  21
ENDBRANCH  14  15
ENDBRANCH  10  14
ENDBRANCH   4   5
ENDBRANCH   3   4
ENDBRANCH   2   3
TORSDOF 8
ENDMDL
MODEL      124
REMARK 921   NORMALIZED FREE ENERGY PREDICTED BY IDOCK:   -5.24 KCAL/MOL
REMARK 922        TOTAL FREE ENERGY PREDICTED BY IDOCK:   -8.71 KCAL/MOL
REMARK 923 INTER-LIGAND FREE ENERGY PREDICTED BY IDOCK:   -7.34 KCAL/MOL
REMARK 924 INTRA-LIGAND FREE ENERGY PREDICTED BY IDOCK:   -1.37 KCAL/MOL
REMARK 927      BINDING AFFINITY PREDICTED BY RF-SCORE:    0.00 PKD
ROOT
HETATM    1  C   UNL     1     -12.168  10.320  71.150  1.00  0.00    -0.500 C  
HETATM    2  C   UNL     1     -12.037  11.578  70.307  1.00  0.00    -0.444 C  
ENDROOT
BRANCH   2   3
HETATM    3  C   UNL     1     -11.906  11.250  68.816  1.00  0.00    -0.396 C  
BRANCH   3   4
HETATM    4  C   UNL     1     -10.678  11.879  68.147  1.00  0.00    -0.246 C  
BRANCH   4   5
HETATM    5  C   UNL     1     -10.752  11.880  66.651  1.00  0.00    -0.256 A  
HETATM    6  N   UNL     1     -11.844  12.218  65.993  1.00  0.00    -0.562 NA 
HETATM    7  C   UNL     1     -11.547  12.117  64.668  1.00  0.00    -0.328 A  
HETATM    8 CL   UNL     1     -12.692  12.465  63.459  1.00  0.00    -0.507 Cl 
HETATM    9  C   UNL     1     -10.251  11.678  64.486  1.00  0.00    -0.291 A  
HETATM   10  N   UNL     1      -9.749  11.504  65.769  1.00  0.00    -0.228 NA 
BRANCH   9  11
HETATM   11  C   UNL     1      -9.534  11.401  63.224  1.00  0.00    -0.314 C  
HETATM   12  H   UNL     1      -9.321   9.871  62.071  1.00  0.00     0.000 HD 
HETATM   13  O   UNL     1      -9.783  10.048  62.883  1.00  0.00    -0.194 OA 
ENDBRANCH   9  11
BRANCH  10  14
HETATM   14  C   UNL     1      -8.508  10.816  66.121  1.00  0.00    -0.167 C  
BRANCH  14  15
HETATM   15  C   UNL     1      -8.695   9.453  66.737  1.00  0.00    -0.138 A  
HETATM   16  C   UNL     1      -7.831   8.995  67.735  1.00  0.00    -0.101 A  
HETATM   17  C   UNL     1      -8.027   7.746  68.341  1.00  0.00    -0.122 A  
HETATM   18  C   UNL     1      -9.047   6.873  67.930  1.00  0.00    -0.122 A  
HETATM   19  C   UNL     1      -9.931   7.364  66.953  1.00  0.00    -0.307 A  
HETATM   20  C   UNL     1      -9.768   8.632  66.376  1.00  0.00    -0.333 A  
BRANCH  18  21
HETATM   21  C   UNL     1      -9.200   5.497  68.487  1.00  0.00    -0.133 A  
HETATM   22  C   UNL     1      -9.510   5.354  69.862  1.00  0.00    -0.210 A  
HETATM   23  C   UNL     1      -9.688   4.106  70.468  1.00  0.00    -0.270 A  
HETATM   24  C   UNL     1      -9.536   2.950  69.722  1.00  0.00    -0.167 A  
HETATM   25  C   UNL     1      -9.209   3.051  68.371  1.00  0.00    -0.242 A  
HETATM   26  C   UNL     1      -9.058   4.303  67.732  1.00  0.00    -0.157 A  
BRANCH  26  27
HETATM   27  C   UNL     1      -8.786   4.265  66.300  1.00  0.00    -0.114 A  
HETATM   28  N   UNL     1      -9.735   4.082  65.361  1.00  0.00    -0.186 NA 
HETATM   29  N   UNL     1      -8.986   4.128  64.253  1.00  0.00    -0.138 NA 
HETATM   30  N   UNL     1      -7.677   4.316  64.434  1.00  0.00    -0.082 NA 
HETATM   31  H   UNL     1      -9.392   4.026  63.322  1.00  0.00     0.000 HD 
HETATM   32  N   UNL     1      -7.537   4.433  65.748  1.00  0.00    -0.085 NA 
ENDBRANCH  26  27
ENDBRANCH  18  21
ENDBRANCH  14  15
ENDBRANCH  10  14
ENDBRANCH   4   5
ENDBRANCH   3   4
ENDBRANCH   2   3
TORSDOF 8
ENDMDL
MODEL      125
REMARK 921   NORMALIZED FREE ENERGY PREDICTED BY IDOCK:   -5.22 KCAL/MOL
REMARK 922        TOTAL FREE ENERGY PREDICTED BY IDOCK:   -8.69 KCAL/MOL
REMARK 923 INTER-LIGAND FREE ENERGY PREDICTED BY IDOCK:   -8.14 KCAL/MOL
REMARK 924 INTRA-LIGAND FREE ENERGY PREDICTED BY IDOCK:   -0.55 KCAL/MOL
REMARK 927      BINDING AFFINITY PREDICTED BY RF-SCORE:    0.00 PKD
ROOT
HETATM    1  C   UNL     1      -7.988  10.301  69.800  1.00  0.00    -0.139 C  
HETATM    2  C   UNL     1      -7.155  11.096  68.807  1.00  0.00    -0.093 C  
ENDROOT
BRANCH   2   3
HETATM    3  C   UNL     1      -6.428  10.181  67.817  1.00  0.00    -0.062 C  
BRANCH   3   4
HETATM    4  C   UNL     1      -7.315   9.670  66.676  1.00  0.00    -0.090 C  
BRANCH   4   5
HETATM    5  C   UNL     1      -8.018   8.388  66.998  1.00  0.00    -0.100 A  
HETATM    6  N   UNL     1      -7.379   7.309  67.406  1.00  0.00    -0.089 NA 
HETATM    7  C   UNL     1      -8.325   6.352  67.613  1.00  0.00    -0.117 A  
HETATM    8 CL   UNL     1      -7.921   4.787  68.147  1.00  0.00    -0.085 Cl 
HETATM    9  C   UNL     1      -9.583   6.826  67.302  1.00  0.00    -0.137 A  
HETATM   10  N   UNL     1      -9.378   8.134  66.883  1.00  0.00    -0.162 NA 
BRANCH   9  11
HETATM   11  C   UNL     1     -10.880   6.119  67.349  1.00  0.00    -0.343 C  
HETATM   12  H   UNL     1     -12.347   6.020  68.594  1.00  0.00     0.000 HD 
HETATM   13  O   UNL     1     -11.513   6.475  68.564  1.00  0.00    -0.193 OA 
ENDBRANCH   9  11
BRANCH  10  14
HETATM   14  C   UNL     1     -10.357   8.985  66.209  1.00  0.00    -0.060 C  
BRANCH  14  15
HETATM   15  C   UNL     1     -10.284  10.444  66.576  1.00  0.00    -0.289 A  
HETATM   16  C   UNL     1      -9.570  11.346  65.782  1.00  0.00    -0.260 A  
HETATM   17  C   UNL     1      -9.535  12.713  66.096  1.00  0.00    -0.177 A  
HETATM   18  C   UNL     1     -10.150  13.225  67.250  1.00  0.00    -0.234 A  
HETATM   19  C   UNL     1     -10.896  12.312  68.016  1.00  0.00    -0.253 A  
HETATM   20  C   UNL     1     -10.973  10.953  67.681  1.00  0.00    -0.350 A  
BRANCH  18  21
HETATM   21  C   UNL     1     -10.028  14.656  67.657  1.00  0.00    -0.227 A  
HETATM   22  C   UNL     1      -9.362  14.958  68.871  1.00  0.00    -0.197 A  
HETATM   23  C   UNL     1      -9.186  16.270  69.326  1.00  0.00    -0.192 A  
HETATM   24  C   UNL     1      -9.696  17.327  68.594  1.00  0.00    -0.301 A  
HETATM   25  C   UNL     1     -10.378  17.066  67.406  1.00  0.00    -0.319 A  
HETATM   26  C   UNL     1     -10.536  15.751  66.912  1.00  0.00    -0.317 A  
BRANCH  26  27
HETATM   27  C   UNL     1     -11.207  15.626  65.623  1.00  0.00    -0.106 A  
HETATM   28  N   UNL     1     -11.142  16.556  64.650  1.00  0.00    -0.765 NA 
HETATM   29  N   UNL     1     -11.901  15.976  63.713  1.00  0.00    -1.306 NA 
HETATM   30  N   UNL     1     -12.422  14.789  64.031  1.00  0.00    -0.809 NA 
HETATM   31  H   UNL     1     -12.073  16.416  62.809  1.00  0.00     0.000 HD 
HETATM   32  N   UNL     1     -11.960  14.538  65.248  1.00  0.00    -0.367 NA 
ENDBRANCH  26  27
ENDBRANCH  18  21
ENDBRANCH  14  15
ENDBRANCH  10  14
ENDBRANCH   4   5
ENDBRANCH   3   4
ENDBRANCH   2   3
TORSDOF 8
ENDMDL
MODEL      126
REMARK 921   NORMALIZED FREE ENERGY PREDICTED BY IDOCK:   -5.21 KCAL/MOL
REMARK 922        TOTAL FREE ENERGY PREDICTED BY IDOCK:   -8.68 KCAL/MOL
REMARK 923 INTER-LIGAND FREE ENERGY PREDICTED BY IDOCK:   -7.50 KCAL/MOL
REMARK 924 INTRA-LIGAND FREE ENERGY PREDICTED BY IDOCK:   -1.18 KCAL/MOL
REMARK 927      BINDING AFFINITY PREDICTED BY RF-SCORE:    0.00 PKD
ROOT
HETATM    1  C   UNL     1      -8.280   5.086  65.190  1.00  0.00    -0.131 C  
HETATM    2  C   UNL     1      -8.897   4.752  66.538  1.00  0.00    -0.111 C  
ENDROOT
BRANCH   2   3
HETATM    3  C   UNL     1     -10.421   4.918  66.521  1.00  0.00    -0.299 C  
BRANCH   3   4
HETATM    4  C   UNL     1     -10.898   6.313  66.942  1.00  0.00    -0.428 C  
BRANCH   4   5
HETATM    5  C   UNL     1     -10.672   6.605  68.393  1.00  0.00    -0.258 A  
HETATM    6  N   UNL     1     -11.529   6.253  69.332  1.00  0.00    -0.394 NA 
HETATM    7  C   UNL     1     -10.999   6.664  70.517  1.00  0.00    -0.286 A  
HETATM    8 CL   UNL     1     -11.797   6.408  71.998  1.00  0.00    -0.374 Cl 
HETATM    9  C   UNL     1      -9.798   7.315  70.320  1.00  0.00    -0.179 A  
HETATM   10  N   UNL     1      -9.602   7.295  68.945  1.00  0.00    -0.143 NA 
BRANCH   9  11
HETATM   11  C   UNL     1      -8.909   7.945  71.318  1.00  0.00    -0.135 C  
HETATM   12  H   UNL     1      -8.957   9.552  72.382  1.00  0.00     0.000 HD 
HETATM   13  O   UNL     1      -9.529   9.147  71.740  1.00  0.00    -0.312 OA 
ENDBRANCH   9  11
BRANCH  10  14
HETATM   14  C   UNL     1      -8.606   8.070  68.207  1.00  0.00    -0.130 C  
BRANCH  14  15
HETATM   15  C   UNL     1      -8.961   9.520  68.002  1.00  0.00    -0.123 A  
HETATM   16  C   UNL     1     -10.003   9.887  67.146  1.00  0.00    -0.252 A  
HETATM   17  C   UNL     1     -10.364  11.233  66.985  1.00  0.00    -0.263 A  
HETATM   18  C   UNL     1      -9.659  12.271  67.613  1.00  0.00    -0.191 A  
HETATM   19  C   UNL     1      -8.639  11.884  68.501  1.00  0.00    -0.110 A  
HETATM   20  C   UNL     1      -8.304  10.537  68.702  1.00  0.00    -0.132 A  
BRANCH  18  21
HETATM   21  C   UNL     1      -9.959  13.712  67.366  1.00  0.00    -0.234 A  
HETATM   22  C   UNL     1      -9.402  14.331  66.219  1.00  0.00    -0.236 A  
HETATM   23  C   UNL     1      -9.640  15.671  65.897  1.00  0.00    -0.385 A  
HETATM   24  C   UNL     1     -10.425  16.451  66.728  1.00  0.00    -0.273 A  
HETATM   25  C   UNL     1     -10.972  15.882  67.877  1.00  0.00    -0.327 A  
HETATM   26  C   UNL     1     -10.771  14.520  68.203  1.00  0.00    -0.240 A  
BRANCH  26  27
HETATM   27  C   UNL     1     -11.458  14.037  69.395  1.00  0.00    -0.290 A  
HETATM   28  N   UNL     1     -11.915  12.777  69.538  1.00  0.00    -0.301 NA 
HETATM   29  N   UNL     1     -12.443  12.853  70.766  1.00  0.00    -0.330 NA 
HETATM   30  N   UNL     1     -12.351  14.038  71.373  1.00  0.00    -0.349 NA 
HETATM   31  H   UNL     1     -12.889  12.052  71.212  1.00  0.00     0.000 HD 
HETATM   32  N   UNL     1     -11.694  14.803  70.512  1.00  0.00    -0.280 NA 
ENDBRANCH  26  27
ENDBRANCH  18  21
ENDBRANCH  14  15
ENDBRANCH  10  14
ENDBRANCH   4   5
ENDBRANCH   3   4
ENDBRANCH   2   3
TORSDOF 8
ENDMDL
MODEL      127
REMARK 921   NORMALIZED FREE ENERGY PREDICTED BY IDOCK:   -5.19 KCAL/MOL
REMARK 922        TOTAL FREE ENERGY PREDICTED BY IDOCK:   -8.65 KCAL/MOL
REMARK 923 INTER-LIGAND FREE ENERGY PREDICTED BY IDOCK:   -6.78 KCAL/MOL
REMARK 924 INTRA-LIGAND FREE ENERGY PREDICTED BY IDOCK:   -1.86 KCAL/MOL
REMARK 927      BINDING AFFINITY PREDICTED BY RF-SCORE:    0.00 PKD
ROOT
HETATM    1  C   UNL     1     -13.782   7.939  71.571  1.00  0.00    -0.384 C  
HETATM    2  C   UNL     1     -13.590   9.220  72.366  1.00  0.00    -0.527 C  
ENDROOT
BRANCH   2   3
HETATM    3  C   UNL     1     -12.596  10.166  71.684  1.00  0.00    -0.533 C  
BRANCH   3   4
HETATM    4  C   UNL     1     -12.846  10.353  70.183  1.00  0.00    -0.086 C  
BRANCH   4   5
HETATM    5  C   UNL     1     -11.921  11.344  69.546  1.00  0.00    -0.341 A  
HETATM    6  N   UNL     1     -12.021  12.644  69.750  1.00  0.00    -0.317 NA 
HETATM    7  C   UNL     1     -11.023  13.228  69.032  1.00  0.00    -0.206 A  
HETATM    8 CL   UNL     1     -10.794  14.914  69.014  1.00  0.00    -0.236 Cl 
HETATM    9  C   UNL     1     -10.296  12.282  68.337  1.00  0.00    -0.224 A  
HETATM   10  N   UNL     1     -10.895  11.069  68.654  1.00  0.00    -0.198 NA 
BRANCH   9  11
HETATM   11  C   UNL     1      -9.157  12.478  67.417  1.00  0.00    -0.185 C  
HETATM   12  H   UNL     1      -7.311  13.000  67.607  1.00  0.00     0.000 HD 
HETATM   13  O   UNL     1      -8.044  12.875  68.199  1.00  0.00    -0.141 OA 
ENDBRANCH   9  11
BRANCH  10  14
HETATM   14  C   UNL     1     -10.659   9.793  67.982  1.00  0.00    -0.243 C  
BRANCH  14  15
HETATM   15  C   UNL     1     -10.597   8.598  68.898  1.00  0.00    -0.166 A  
HETATM   16  C   UNL     1     -11.280   7.421  68.584  1.00  0.00     0.243 A  
HETATM   17  C   UNL     1     -11.191   6.292  69.412  1.00  0.00    -0.489 A  
HETATM   18  C   UNL     1     -10.476   6.313  70.620  1.00  0.00    -0.276 A  
HETATM   19  C   UNL     1      -9.763   7.492  70.902  1.00  0.00    -0.173 A  
HETATM   20  C   UNL     1      -9.811   8.607  70.054  1.00  0.00    -0.185 A  
BRANCH  18  21
HETATM   21  C   UNL     1     -10.463   5.159  71.567  1.00  0.00    -0.256 A  
HETATM   22  C   UNL     1     -11.216   5.257  72.763  1.00  0.00    -0.347 A  
HETATM   23  C   UNL     1     -11.277   4.220  73.701  1.00  0.00    -0.325 A  
HETATM   24  C   UNL     1     -10.561   3.056  73.488  1.00  0.00    -0.270 A  
HETATM   25  C   UNL     1      -9.791   2.932  72.333  1.00  0.00    -0.228 A  
HETATM   26  C   UNL     1      -9.743   3.954  71.356  1.00  0.00    -0.246 A  
BRANCH  26  27
HETATM   27  C   UNL     1      -8.955   3.666  70.164  1.00  0.00    -0.111 A  
HETATM   28  N   UNL     1      -7.667   4.032  70.009  1.00  0.00    -0.052 NA 
HETATM   29  N   UNL     1      -7.425   3.543  68.787  1.00  0.00    -0.053 NA 
HETATM   30  N   UNL     1      -8.445   2.924  68.189  1.00  0.00    -0.078 NA 
HETATM   31  H   UNL     1      -6.514   3.639  68.339  1.00  0.00     0.000 HD 
HETATM   32  N   UNL     1      -9.429   2.971  69.075  1.00  0.00    -0.151 NA 
ENDBRANCH  26  27
ENDBRANCH  18  21
ENDBRANCH  14  15
ENDBRANCH  10  14
ENDBRANCH   4   5
ENDBRANCH   3   4
ENDBRANCH   2   3
TORSDOF 8
ENDMDL
MODEL      128
REMARK 921   NORMALIZED FREE ENERGY PREDICTED BY IDOCK:   -5.17 KCAL/MOL
REMARK 922        TOTAL FREE ENERGY PREDICTED BY IDOCK:   -8.62 KCAL/MOL
REMARK 923 INTER-LIGAND FREE ENERGY PREDICTED BY IDOCK:   -7.43 KCAL/MOL
REMARK 924 INTRA-LIGAND FREE ENERGY PREDICTED BY IDOCK:   -1.18 KCAL/MOL
REMARK 927      BINDING AFFINITY PREDICTED BY RF-SCORE:    0.00 PKD
ROOT
HETATM    1  C   UNL     1     -12.533  11.996  63.368  1.00  0.00    -0.625 C  
HETATM    2  C   UNL     1     -11.724  12.201  64.638  1.00  0.00    -0.400 C  
ENDROOT
BRANCH   2   3
HETATM    3  C   UNL     1     -12.177  13.450  65.402  1.00  0.00    -0.492 C  
BRANCH   3   4
HETATM    4  C   UNL     1     -11.189  13.910  66.481  1.00  0.00    -0.327 C  
BRANCH   4   5
HETATM    5  C   UNL     1     -11.306  13.140  67.760  1.00  0.00    -0.290 A  
HETATM    6  N   UNL     1     -12.095  13.517  68.748  1.00  0.00    -0.326 NA 
HETATM    7  C   UNL     1     -11.958  12.586  69.731  1.00  0.00    -0.289 A  
HETATM    8 CL   UNL     1     -12.809  12.697  71.201  1.00  0.00    -0.374 Cl 
HETATM    9  C   UNL     1     -11.042  11.619  69.371  1.00  0.00    -0.206 A  
HETATM   10  N   UNL     1     -10.606  11.993  68.106  1.00  0.00    -0.202 NA 
BRANCH   9  11
HETATM   11  C   UNL     1     -10.570  10.452  70.146  1.00  0.00    -0.188 C  
HETATM   12  H   UNL     1     -11.325   8.761  70.681  1.00  0.00     0.000 HD 
HETATM   13  O   UNL     1     -11.629   9.512  70.183  1.00  0.00    -0.215 OA 
ENDBRANCH   9  11
BRANCH  10  14
HETATM   14  C   UNL     1      -9.455  11.441  67.395  1.00  0.00    -0.167 C  
BRANCH  14  15
HETATM   15  C   UNL     1      -9.395   9.935  67.365  1.00  0.00    -0.158 A  
HETATM   16  C   UNL     1     -10.470   9.187  66.877  1.00  0.00    -0.287 A  
HETATM   17  C   UNL     1     -10.401   7.788  66.807  1.00  0.00    -0.348 A  
HETATM   18  C   UNL     1      -9.291   7.074  67.284  1.00  0.00    -0.153 A  
HETATM   19  C   UNL     1      -8.203   7.843  67.735  1.00  0.00    -0.129 A  
HETATM   20  C   UNL     1      -8.247   9.244  67.764  1.00  0.00    -0.115 A  
BRANCH  18  21
HETATM   21  C   UNL     1      -9.248   5.583  67.320  1.00  0.00    -0.110 A  
HETATM   22  C   UNL     1      -8.866   4.889  66.144  1.00  0.00    -0.122 A  
HETATM   23  C   UNL     1      -8.782   3.494  66.088  1.00  0.00    -0.123 A  
HETATM   24  C   UNL     1      -9.104   2.738  67.201  1.00  0.00    -0.192 A  
HETATM   25  C   UNL     1      -9.505   3.385  68.369  1.00  0.00    -0.209 A  
HETATM   26  C   UNL     1      -9.564   4.796  68.457  1.00  0.00    -0.218 A  
BRANCH  26  27
HETATM   27  C   UNL     1      -9.931   5.343  69.758  1.00  0.00    -0.224 A  
HETATM   28  N   UNL     1      -9.096   5.389  70.815  1.00  0.00    -0.139 NA 
HETATM   29  N   UNL     1      -9.893   5.963  71.724  1.00  0.00    -0.163 NA 
HETATM   30  N   UNL     1     -11.129   6.261  71.318  1.00  0.00    -0.278 NA 
HETATM   31  H   UNL     1      -9.575   6.160  72.673  1.00  0.00     0.000 HD 
HETATM   32  N   UNL     1     -11.159   5.892  70.044  1.00  0.00    -0.364 NA 
ENDBRANCH  26  27
ENDBRANCH  18  21
ENDBRANCH  14  15
ENDBRANCH  10  14
ENDBRANCH   4   5
ENDBRANCH   3   4
ENDBRANCH   2   3
TORSDOF 8
ENDMDL
MODEL      129
REMARK 921   NORMALIZED FREE ENERGY PREDICTED BY IDOCK:   -5.17 KCAL/MOL
REMARK 922        TOTAL FREE ENERGY PREDICTED BY IDOCK:   -8.61 KCAL/MOL
REMARK 923 INTER-LIGAND FREE ENERGY PREDICTED BY IDOCK:   -7.64 KCAL/MOL
REMARK 924 INTRA-LIGAND FREE ENERGY PREDICTED BY IDOCK:   -0.97 KCAL/MOL
REMARK 927      BINDING AFFINITY PREDICTED BY RF-SCORE:    0.00 PKD
ROOT
HETATM    1  C   UNL     1      -9.924   6.502  74.406  1.00  0.00    -0.374 C  
HETATM    2  C   UNL     1      -9.952   6.652  72.894  1.00  0.00    -0.187 C  
ENDROOT
BRANCH   2   3
HETATM    3  C   UNL     1     -11.332   6.317  72.317  1.00  0.00    -0.337 C  
BRANCH   3   4
HETATM    4  C   UNL     1     -11.868   7.367  71.337  1.00  0.00    -0.329 C  
BRANCH   4   5
HETATM    5  C   UNL     1     -11.274   7.258  69.967  1.00  0.00    -0.209 A  
HETATM    6  N   UNL     1     -11.526   6.246  69.160  1.00  0.00    -0.315 NA 
HETATM    7  C   UNL     1     -10.836   6.482  68.011  1.00  0.00    -0.295 A  
HETATM    8 CL   UNL     1     -10.883   5.406  66.694  1.00  0.00    -0.300 Cl 
HETATM    9  C   UNL     1     -10.109   7.652  68.104  1.00  0.00    -0.186 A  
HETATM   10  N   UNL     1     -10.377   8.138  69.378  1.00  0.00    -0.215 NA 
BRANCH   9  11
HETATM   11  C   UNL     1      -9.203   8.264  67.110  1.00  0.00    -0.144 C  
HETATM   12  H   UNL     1      -7.366   8.011  66.586  1.00  0.00     0.000 HD 
HETATM   13  O   UNL     1      -7.948   7.617  67.225  1.00  0.00    -0.114 OA 
ENDBRANCH   9  11
BRANCH  10  14
HETATM   14  C   UNL     1      -9.657   9.215  70.055  1.00  0.00    -0.197 C  
BRANCH  14  15
HETATM   15  C   UNL     1      -9.820  10.575  69.428  1.00  0.00    -0.205 A  
HETATM   16  C   UNL     1      -8.719  11.256  68.903  1.00  0.00    -0.053 A  
HETATM   17  C   UNL     1      -8.872  12.503  68.280  1.00  0.00    -0.171 A  
HETATM   18  C   UNL     1     -10.115  13.153  68.217  1.00  0.00    -0.247 A  
HETATM   19  C   UNL     1     -11.218  12.438  68.714  1.00  0.00    -0.318 A  
HETATM   20  C   UNL     1     -11.078  11.170  69.297  1.00  0.00    -0.318 A  
BRANCH  18  21
HETATM   21  C   UNL     1     -10.276  14.528  67.658  1.00  0.00    -0.225 A  
HETATM   22  C   UNL     1      -9.849  14.771  66.328  1.00  0.00    -0.316 A  
HETATM   23  C   UNL     1      -9.975  16.022  65.715  1.00  0.00    -0.382 A  
HETATM   24  C   UNL     1     -10.509  17.086  66.421  1.00  0.00    -0.252 A  
HETATM   25  C   UNL     1     -10.918  16.890  67.739  1.00  0.00    -0.212 A  
HETATM   26  C   UNL     1     -10.831  15.625  68.366  1.00  0.00    -0.290 A  
BRANCH  26  27
HETATM   27  C   UNL     1     -11.361  15.543  69.722  1.00  0.00    -0.319 A  
HETATM   28  N   UNL     1     -12.672  15.633  70.022  1.00  0.00    -0.185 NA 
HETATM   29  N   UNL     1     -12.621  15.500  71.353  1.00  0.00    -0.398 NA 
HETATM   30  N   UNL     1     -11.407  15.344  71.883  1.00  0.00    -0.419 NA 
HETATM   31  H   UNL     1     -13.463  15.517  71.929  1.00  0.00     0.000 HD 
HETATM   32  N   UNL     1     -10.587  15.343  70.841  1.00  0.00    -0.131 NA 
ENDBRANCH  26  27
ENDBRANCH  18  21
ENDBRANCH  14  15
ENDBRANCH  10  14
ENDBRANCH   4   5
ENDBRANCH   3   4
ENDBRANCH   2   3
TORSDOF 8
ENDMDL
MODEL      130
REMARK 921   NORMALIZED FREE ENERGY PREDICTED BY IDOCK:   -5.15 KCAL/MOL
REMARK 922        TOTAL FREE ENERGY PREDICTED BY IDOCK:   -8.59 KCAL/MOL
REMARK 923 INTER-LIGAND FREE ENERGY PREDICTED BY IDOCK:   -6.42 KCAL/MOL
REMARK 924 INTRA-LIGAND FREE ENERGY PREDICTED BY IDOCK:   -2.17 KCAL/MOL
REMARK 927      BINDING AFFINITY PREDICTED BY RF-SCORE:    0.00 PKD
ROOT
HETATM    1  C   UNL     1      -7.145  11.054  66.850  1.00  0.00    -0.125 C  
HETATM    2  C   UNL     1      -7.535   9.832  66.033  1.00  0.00    -0.102 C  
ENDROOT
BRANCH   2   3
HETATM    3  C   UNL     1      -6.309   9.140  65.429  1.00  0.00    -0.064 C  
BRANCH   3   4
HETATM    4  C   UNL     1      -6.077   7.718  65.954  1.00  0.00    -0.038 C  
BRANCH   4   5
HETATM    5  C   UNL     1      -7.111   6.738  65.493  1.00  0.00    -0.068 A  
HETATM    6  N   UNL     1      -7.397   6.551  64.219  1.00  0.00    -0.066 NA 
HETATM    7  C   UNL     1      -8.362   5.592  64.174  1.00  0.00    -0.102 A  
HETATM    8 CL   UNL     1      -9.024   5.049  62.704  1.00  0.00    -0.093 Cl 
HETATM    9  C   UNL     1      -8.714   5.187  65.445  1.00  0.00    -0.149 A  
HETATM   10  N   UNL     1      -7.920   5.947  66.295  1.00  0.00    -0.101 NA 
BRANCH   9  11
HETATM   11  C   UNL     1      -9.734   4.199  65.856  1.00  0.00    -0.204 C  
HETATM   12  H   UNL     1      -9.790   2.283  66.054  1.00  0.00     0.000 HD 
HETATM   13  O   UNL     1      -9.134   2.917  65.789  1.00  0.00    -0.144 OA 
ENDBRANCH   9  11
BRANCH  10  14
HETATM   14  C   UNL     1      -8.089   6.076  67.742  1.00  0.00    -0.109 C  
BRANCH  14  15
HETATM   15  C   UNL     1      -8.809   7.323  68.184  1.00  0.00    -0.126 A  
HETATM   16  C   UNL     1     -10.049   7.664  67.638  1.00  0.00    -0.249 A  
HETATM   17  C   UNL     1     -10.744   8.800  68.078  1.00  0.00    -0.151 A  
HETATM   18  C   UNL     1     -10.200   9.681  69.027  1.00  0.00    -0.209 A  
HETATM   19  C   UNL     1      -8.971   9.303  69.595  1.00  0.00    -0.164 A  
HETATM   20  C   UNL     1      -8.294   8.143  69.193  1.00  0.00    -0.131 A  
BRANCH  18  21
HETATM   21  C   UNL     1     -10.875  10.952  69.423  1.00  0.00    -0.286 A  
HETATM   22  C   UNL     1     -10.616  12.120  68.664  1.00  0.00    -0.248 A  
HETATM   23  C   UNL     1     -11.214  13.352  68.951  1.00  0.00    -0.320 A  
HETATM   24  C   UNL     1     -12.075  13.466  70.028  1.00  0.00    -0.404 A  
HETATM   25  C   UNL     1     -12.336  12.343  70.811  1.00  0.00    -0.377 A  
HETATM   26  C   UNL     1     -11.769  11.081  70.518  1.00  0.00    -0.416 A  
BRANCH  26  27
HETATM   27  C   UNL     1     -12.181   9.976  71.376  1.00  0.00    -0.416 A  
HETATM   28  N   UNL     1     -13.465   9.607  71.557  1.00  0.00    -0.371 NA 
HETATM   29  N   UNL     1     -13.301   8.582  72.402  1.00  0.00    -0.574 NA 
HETATM   30  N   UNL     1     -12.043   8.302  72.750  1.00  0.00    -0.275 NA 
HETATM   31  H   UNL     1     -14.092   8.045  72.759  1.00  0.00     0.000 HD 
HETATM   32  N   UNL     1     -11.309   9.175  72.075  1.00  0.00    -0.340 NA 
ENDBRANCH  26  27
ENDBRANCH  18  21
ENDBRANCH  14  15
ENDBRANCH  10  14
ENDBRANCH   4   5
ENDBRANCH   3   4
ENDBRANCH   2   3
TORSDOF 8
ENDMDL
MODEL      131
REMARK 921   NORMALIZED FREE ENERGY PREDICTED BY IDOCK:   -5.15 KCAL/MOL
REMARK 922        TOTAL FREE ENERGY PREDICTED BY IDOCK:   -8.58 KCAL/MOL
REMARK 923 INTER-LIGAND FREE ENERGY PREDICTED BY IDOCK:   -6.81 KCAL/MOL
REMARK 924 INTRA-LIGAND FREE ENERGY PREDICTED BY IDOCK:   -1.77 KCAL/MOL
REMARK 927      BINDING AFFINITY PREDICTED BY RF-SCORE:    0.00 PKD
ROOT
HETATM    1  C   UNL     1     -10.604   8.088  69.997  1.00  0.00    -0.242 C  
HETATM    2  C   UNL     1      -9.194   8.604  69.764  1.00  0.00    -0.154 C  
ENDROOT
BRANCH   2   3
HETATM    3  C   UNL     1      -8.138   7.564  70.150  1.00  0.00    -0.119 C  
BRANCH   3   4
HETATM    4  C   UNL     1      -7.245   7.122  68.985  1.00  0.00    -0.086 C  
BRANCH   4   5
HETATM    5  C   UNL     1      -7.843   6.022  68.163  1.00  0.00    -0.106 A  
HETATM    6  N   UNL     1      -8.271   4.891  68.691  1.00  0.00    -0.084 NA 
HETATM    7  C   UNL     1      -8.756   4.141  67.664  1.00  0.00    -0.107 A  
HETATM    8 CL   UNL     1      -9.410   2.589  67.911  1.00  0.00    -0.252 Cl 
HETATM    9  C   UNL     1      -8.605   4.798  66.459  1.00  0.00    -0.109 A  
HETATM   10  N   UNL     1      -7.993   6.002  66.784  1.00  0.00    -0.101 NA 
BRANCH   9  11
HETATM   11  C   UNL     1      -8.960   4.339  65.100  1.00  0.00    -0.139 C  
HETATM   12  H   UNL     1     -10.598   3.905  64.181  1.00  0.00     0.000 HD 
HETATM   13  O   UNL     1     -10.369   4.200  65.055  1.00  0.00    -0.235 OA 
ENDBRANCH   9  11
BRANCH  10  14
HETATM   14  C   UNL     1      -7.393   6.943  65.840  1.00  0.00    -0.079 C  
BRANCH  14  15
HETATM   15  C   UNL     1      -8.195   8.196  65.601  1.00  0.00    -0.133 A  
HETATM   16  C   UNL     1      -9.423   8.391  66.237  1.00  0.00    -0.292 A  
HETATM   17  C   UNL     1     -10.153   9.574  66.050  1.00  0.00    -0.319 A  
HETATM   18  C   UNL     1      -9.723  10.579  65.170  1.00  0.00    -0.341 A  
HETATM   19  C   UNL     1      -8.467  10.386  64.568  1.00  0.00    -0.172 A  
HETATM   20  C   UNL     1      -7.712   9.225  64.787  1.00  0.00    -0.111 A  
BRANCH  18  21
HETATM   21  C   UNL     1     -10.541  11.793  64.875  1.00  0.00    -0.344 A  
HETATM   22  C   UNL     1     -11.426  11.759  63.769  1.00  0.00    -0.510 A  
HETATM   23  C   UNL     1     -12.243  12.842  63.426  1.00  0.00    -0.574 A  
HETATM   24  C   UNL     1     -12.183  14.011  64.163  1.00  0.00    -0.433 A  
HETATM   25  C   UNL     1     -11.307  14.089  65.245  1.00  0.00    -0.321 A  
HETATM   26  C   UNL     1     -10.498  12.994  65.629  1.00  0.00    -0.291 A  
BRANCH  26  27
HETATM   27  C   UNL     1      -9.680  13.187  66.820  1.00  0.00    -0.246 A  
HETATM   28  N   UNL     1      -9.932  12.599  68.006  1.00  0.00    -0.214 NA 
HETATM   29  N   UNL     1      -8.922  13.089  68.735  1.00  0.00    -0.384 NA 
HETATM   30  N   UNL     1      -8.090  13.920  68.104  1.00  0.00    -0.139 NA 
HETATM   31  H   UNL     1      -8.796  12.842  69.717  1.00  0.00     0.000 HD 
HETATM   32  N   UNL     1      -8.550  13.971  66.861  1.00  0.00    -0.174 NA 
ENDBRANCH  26  27
ENDBRANCH  18  21
ENDBRANCH  14  15
ENDBRANCH  10  14
ENDBRANCH   4   5
ENDBRANCH   3   4
ENDBRANCH   2   3
TORSDOF 8
ENDMDL
MODEL      132
REMARK 921   NORMALIZED FREE ENERGY PREDICTED BY IDOCK:   -5.14 KCAL/MOL
REMARK 922        TOTAL FREE ENERGY PREDICTED BY IDOCK:   -8.57 KCAL/MOL
REMARK 923 INTER-LIGAND FREE ENERGY PREDICTED BY IDOCK:   -7.49 KCAL/MOL
REMARK 924 INTRA-LIGAND FREE ENERGY PREDICTED BY IDOCK:   -1.08 KCAL/MOL
REMARK 927      BINDING AFFINITY PREDICTED BY RF-SCORE:    0.00 PKD
ROOT
HETATM    1  C   UNL     1      -5.150  13.871  68.259  1.00  0.00    -0.109 C  
HETATM    2  C   UNL     1      -5.561  12.493  67.767  1.00  0.00    -0.113 C  
ENDROOT
BRANCH   2   3
HETATM    3  C   UNL     1      -7.022  12.468  67.306  1.00  0.00    -0.114 C  
BRANCH   3   4
HETATM    4  C   UNL     1      -7.627  11.061  67.233  1.00  0.00    -0.111 C  
BRANCH   4   5
HETATM    5  C   UNL     1      -8.738  10.841  68.212  1.00  0.00    -0.136 A  
HETATM    6  N   UNL     1      -8.616  10.051  69.262  1.00  0.00    -0.155 NA 
HETATM    7  C   UNL     1      -9.803  10.100  69.926  1.00  0.00    -0.177 A  
HETATM    8 CL   UNL     1     -10.074   9.213  71.353  1.00  0.00    -0.395 Cl 
HETATM    9  C   UNL     1     -10.703  10.913  69.268  1.00  0.00    -0.231 A  
HETATM   10  N   UNL     1     -10.019  11.371  68.149  1.00  0.00    -0.182 NA 
BRANCH   9  11
HETATM   11  C   UNL     1     -12.106  11.220  69.618  1.00  0.00    -0.322 C  
HETATM   12  H   UNL     1     -12.991  12.512  70.742  1.00  0.00     0.000 HD 
HETATM   13  O   UNL     1     -12.089  12.314  70.517  1.00  0.00    -0.364 OA 
ENDBRANCH   9  11
BRANCH  10  14
HETATM   14  C   UNL     1     -10.610  12.058  67.002  1.00  0.00    -0.227 C  
BRANCH  14  15
HETATM   15  C   UNL     1     -10.431  13.554  67.002  1.00  0.00    -0.265 A  
HETATM   16  C   UNL     1      -9.570  14.172  66.091  1.00  0.00    -0.278 A  
HETATM   17  C   UNL     1      -9.434  15.567  66.059  1.00  0.00    -0.387 A  
HETATM   18  C   UNL     1     -10.094  16.398  66.978  1.00  0.00    -0.272 A  
HETATM   19  C   UNL     1     -10.986  15.765  67.862  1.00  0.00    -0.324 A  
HETATM   20  C   UNL     1     -11.162  14.374  67.867  1.00  0.00    -0.304 A  
BRANCH  18  21
HETATM   21  C   UNL     1      -9.874  17.874  67.030  1.00  0.00    -0.314 A  
HETATM   22  C   UNL     1     -10.782  18.717  66.342  1.00  0.00    -0.279 A  
HETATM   23  C   UNL     1     -10.665  20.111  66.348  1.00  0.00    -0.234 A  
HETATM   24  C   UNL     1      -9.617  20.712  67.022  1.00  0.00    -0.484 A  
HETATM   25  C   UNL     1      -8.692  19.913  67.691  1.00  0.00    -0.395 A  
HETATM   26  C   UNL     1      -8.811  18.504  67.726  1.00  0.00    -0.290 A  
BRANCH  26  27
HETATM   27  C   UNL     1      -7.815  17.796  68.521  1.00  0.00    -0.290 A  
HETATM   28  N   UNL     1      -6.564  18.249  68.735  1.00  0.00    -0.229 NA 
HETATM   29  N   UNL     1      -6.079  17.263  69.498  1.00  0.00    -0.237 NA 
HETATM   30  N   UNL     1      -6.916  16.256  69.760  1.00  0.00    -0.082 NA 
HETATM   31  H   UNL     1      -5.125  17.278  69.858  1.00  0.00     0.000 HD 
HETATM   32  N   UNL     1      -8.047  16.600  69.160  1.00  0.00    -0.193 NA 
ENDBRANCH  26  27
ENDBRANCH  18  21
ENDBRANCH  14  15
ENDBRANCH  10  14
ENDBRANCH   4   5
ENDBRANCH   3   4
ENDBRANCH   2   3
TORSDOF 8
ENDMDL
MODEL      133
REMARK 921   NORMALIZED FREE ENERGY PREDICTED BY IDOCK:   -5.12 KCAL/MOL
REMARK 922        TOTAL FREE ENERGY PREDICTED BY IDOCK:   -8.54 KCAL/MOL
REMARK 923 INTER-LIGAND FREE ENERGY PREDICTED BY IDOCK:   -7.47 KCAL/MOL
REMARK 924 INTRA-LIGAND FREE ENERGY PREDICTED BY IDOCK:   -1.07 KCAL/MOL
REMARK 927      BINDING AFFINITY PREDICTED BY RF-SCORE:    0.00 PKD
ROOT
HETATM    1  C   UNL     1     -11.948   6.645  70.858  1.00  0.00    -0.413 C  
HETATM    2  C   UNL     1     -10.674   6.365  70.079  1.00  0.00    -0.316 C  
ENDROOT
BRANCH   2   3
HETATM    3  C   UNL     1     -10.698   7.025  68.696  1.00  0.00    -0.225 C  
BRANCH   3   4
HETATM    4  C   UNL     1     -10.351   8.518  68.714  1.00  0.00    -0.233 C  
BRANCH   4   5
HETATM    5  C   UNL     1      -9.107   8.848  67.949  1.00  0.00    -0.139 A  
HETATM    6  N   UNL     1      -7.899   8.572  68.401  1.00  0.00    -0.104 NA 
HETATM    7  C   UNL     1      -7.022   8.996  67.450  1.00  0.00    -0.078 A  
HETATM    8 CL   UNL     1      -5.339   8.831  67.639  1.00  0.00    -0.034 Cl 
HETATM    9  C   UNL     1      -7.687   9.578  66.390  1.00  0.00    -0.097 A  
HETATM   10  N   UNL     1      -9.032   9.501  66.727  1.00  0.00    -0.136 NA 
BRANCH   9  11
HETATM   11  C   UNL     1      -7.128  10.196  65.169  1.00  0.00    -0.137 C  
HETATM   12  H   UNL     1      -6.750   9.599  63.376  1.00  0.00     0.000 HD 
HETATM   13  O   UNL     1      -7.110   9.201  64.161  1.00  0.00    -0.093 OA 
ENDBRANCH   9  11
BRANCH  10  14
HETATM   14  C   UNL     1     -10.128  10.199  66.056  1.00  0.00    -0.248 C  
BRANCH  14  15
HETATM   15  C   UNL     1     -10.215  11.673  66.358  1.00  0.00    -0.256 A  
HETATM   16  C   UNL     1     -11.343  12.412  65.991  1.00  0.00    -0.397 A  
HETATM   17  C   UNL     1     -11.447  13.774  66.308  1.00  0.00    -0.349 A  
HETATM   18  C   UNL     1     -10.405  14.471  66.938  1.00  0.00    -0.264 A  
HETATM   19  C   UNL     1      -9.294  13.706  67.335  1.00  0.00    -0.227 A  
HETATM   20  C   UNL     1      -9.205  12.333  67.063  1.00  0.00    -0.205 A  
BRANCH  18  21
HETATM   21  C   UNL     1     -10.454  15.943  67.182  1.00  0.00    -0.313 A  
HETATM   22  C   UNL     1     -10.155  16.816  66.107  1.00  0.00    -0.360 A  
HETATM   23  C   UNL     1     -10.191  18.209  66.236  1.00  0.00    -0.401 A  
HETATM   24  C   UNL     1     -10.501  18.780  67.458  1.00  0.00    -0.495 A  
HETATM   25  C   UNL     1     -10.778  17.951  68.545  1.00  0.00    -0.103 A  
HETATM   26  C   UNL     1     -10.781  16.542  68.426  1.00  0.00    -0.339 A  
BRANCH  26  27
HETATM   27  C   UNL     1     -11.157  15.798  69.622  1.00  0.00    -0.307 A  
HETATM   28  N   UNL     1     -10.316  15.550  70.646  1.00  0.00    -0.065 NA 
HETATM   29  N   UNL     1     -11.127  14.860  71.458  1.00  0.00    -0.539 NA 
HETATM   30  N   UNL     1     -12.372  14.665  71.019  1.00  0.00    -0.309 NA 
HETATM   31  H   UNL     1     -10.811  14.504  72.360  1.00  0.00     0.000 HD 
HETATM   32  N   UNL     1     -12.414  15.288  69.849  1.00  0.00    -0.281 NA 
ENDBRANCH  26  27
ENDBRANCH  18  21
ENDBRANCH  14  15
ENDBRANCH  10  14
ENDBRANCH   4   5
ENDBRANCH   3   4
ENDBRANCH   2   3
TORSDOF 8
ENDMDL
MODEL      134
REMARK 921   NORMALIZED FREE ENERGY PREDICTED BY IDOCK:   -5.12 KCAL/MOL
REMARK 922        TOTAL FREE ENERGY PREDICTED BY IDOCK:   -8.54 KCAL/MOL
REMARK 923 INTER-LIGAND FREE ENERGY PREDICTED BY IDOCK:   -6.31 KCAL/MOL
REMARK 924 INTRA-LIGAND FREE ENERGY PREDICTED BY IDOCK:   -2.23 KCAL/MOL
REMARK 927      BINDING AFFINITY PREDICTED BY RF-SCORE:    0.00 PKD
ROOT
HETATM    1  C   UNL     1      -7.152  12.261  67.298  1.00  0.00    -0.138 C  
HETATM    2  C   UNL     1      -7.482  13.063  68.546  1.00  0.00    -0.123 C  
ENDROOT
BRANCH   2   3
HETATM    3  C   UNL     1      -8.014  14.458  68.200  1.00  0.00    -0.136 C  
BRANCH   3   4
HETATM    4  C   UNL     1      -9.501  14.652  68.519  1.00  0.00    -0.216 C  
BRANCH   4   5
HETATM    5  C   UNL     1     -10.380  14.607  67.308  1.00  0.00    -0.256 A  
HETATM    6  N   UNL     1     -10.411  15.578  66.415  1.00  0.00    -0.285 NA 
HETATM    7  C   UNL     1     -11.300  15.197  65.457  1.00  0.00    -0.274 A  
HETATM    8 CL   UNL     1     -11.646  16.175  64.108  1.00  0.00    -0.210 Cl 
HETATM    9  C   UNL     1     -11.865  13.976  65.766  1.00  0.00    -0.383 A  
HETATM   10  N   UNL     1     -11.284  13.609  66.974  1.00  0.00    -0.304 NA 
BRANCH   9  11
HETATM   11  C   UNL     1     -12.892  13.214  65.026  1.00  0.00    -0.302 C  
HETATM   12  H   UNL     1     -13.059  12.507  63.240  1.00  0.00     0.000 HD 
HETATM   13  O   UNL     1     -12.398  12.998  63.716  1.00  0.00    -0.584 OA 
ENDBRANCH   9  11
BRANCH  10  14
HETATM   14  C   UNL     1     -11.727  12.524  67.846  1.00  0.00    -0.359 C  
BRANCH  14  15
HETATM   15  C   UNL     1     -10.756  11.378  67.972  1.00  0.00    -0.240 A  
HETATM   16  C   UNL     1     -10.213  11.034  69.212  1.00  0.00    -0.153 A  
HETATM   17  C   UNL     1      -9.342   9.942  69.341  1.00  0.00    -0.226 A  
HETATM   18  C   UNL     1      -8.922   9.194  68.230  1.00  0.00    -0.129 A  
HETATM   19  C   UNL     1      -9.507   9.528  66.996  1.00  0.00    -0.197 A  
HETATM   20  C   UNL     1     -10.414  10.589  66.869  1.00  0.00    -0.303 A  
BRANCH  18  21
HETATM   21  C   UNL     1      -7.910   8.101  68.333  1.00  0.00    -0.118 A  
HETATM   22  C   UNL     1      -6.618   8.323  67.796  1.00  0.00    -0.061 A  
HETATM   23  C   UNL     1      -5.602   7.364  67.861  1.00  0.00    -0.026 A  
HETATM   24  C   UNL     1      -5.850   6.134  68.443  1.00  0.00    -0.013 A  
HETATM   25  C   UNL     1      -7.117   5.871  68.962  1.00  0.00    -0.069 A  
HETATM   26  C   UNL     1      -8.148   6.839  68.937  1.00  0.00    -0.120 A  
BRANCH  26  27
HETATM   27  C   UNL     1      -9.401   6.458  69.578  1.00  0.00    -0.143 A  
HETATM   28  N   UNL     1     -10.514   6.109  68.901  1.00  0.00    -0.210 NA 
HETATM   29  N   UNL     1     -11.345   5.861  69.921  1.00  0.00    -0.285 NA 
HETATM   30  N   UNL     1     -10.841   6.032  71.145  1.00  0.00    -0.266 NA 
HETATM   31  H   UNL     1     -12.307   5.559  69.771  1.00  0.00     0.000 HD 
HETATM   32  N   UNL     1      -9.582   6.390  70.940  1.00  0.00    -0.175 NA 
ENDBRANCH  26  27
ENDBRANCH  18  21
ENDBRANCH  14  15
ENDBRANCH  10  14
ENDBRANCH   4   5
ENDBRANCH   3   4
ENDBRANCH   2   3
TORSDOF 8
ENDMDL
MODEL      135
REMARK 921   NORMALIZED FREE ENERGY PREDICTED BY IDOCK:   -5.12 KCAL/MOL
REMARK 922        TOTAL FREE ENERGY PREDICTED BY IDOCK:   -8.54 KCAL/MOL
REMARK 923 INTER-LIGAND FREE ENERGY PREDICTED BY IDOCK:   -7.44 KCAL/MOL
REMARK 924 INTRA-LIGAND FREE ENERGY PREDICTED BY IDOCK:   -1.09 KCAL/MOL
REMARK 927      BINDING AFFINITY PREDICTED BY RF-SCORE:    0.00 PKD
ROOT
HETATM    1  C   UNL     1      -9.038   9.894  64.737  1.00  0.00    -0.283 C  
HETATM    2  C   UNL     1     -10.141  10.736  64.116  1.00  0.00    -0.418 C  
ENDROOT
BRANCH   2   3
HETATM    3  C   UNL     1      -9.924  12.231  64.372  1.00  0.00    -0.231 C  
BRANCH   3   4
HETATM    4  C   UNL     1     -11.207  12.993  64.726  1.00  0.00    -0.344 C  
BRANCH   4   5
HETATM    5  C   UNL     1     -11.088  13.807  65.977  1.00  0.00    -0.291 A  
HETATM    6  N   UNL     1     -10.438  14.953  66.022  1.00  0.00    -0.301 NA 
HETATM    7  C   UNL     1     -10.546  15.413  67.298  1.00  0.00    -0.294 A  
HETATM    8 CL   UNL     1      -9.837  16.880  67.791  1.00  0.00    -0.247 Cl 
HETATM    9  C   UNL     1     -11.253  14.525  68.084  1.00  0.00    -0.284 A  
HETATM   10  N   UNL     1     -11.581  13.478  67.232  1.00  0.00    -0.341 NA 
BRANCH   9  11
HETATM   11  C   UNL     1     -11.574  14.611  69.524  1.00  0.00    -0.310 C  
HETATM   12  H   UNL     1     -12.846  15.588  70.593  1.00  0.00     0.000 HD 
HETATM   13  O   UNL     1     -12.640  15.533  69.666  1.00  0.00    -0.206 OA 
ENDBRANCH   9  11
BRANCH  10  14
HETATM   14  C   UNL     1     -12.110  12.176  67.634  1.00  0.00     0.087 C  
BRANCH  14  15
HETATM   15  C   UNL     1     -11.179  11.354  68.487  1.00  0.00    -0.309 A  
HETATM   16  C   UNL     1      -9.885  11.055  68.051  1.00  0.00    -0.183 A  
HETATM   17  C   UNL     1      -9.001  10.327  68.860  1.00  0.00    -0.164 A  
HETATM   18  C   UNL     1      -9.391   9.806  70.103  1.00  0.00    -0.261 A  
HETATM   19  C   UNL     1     -10.681  10.147  70.545  1.00  0.00    -0.295 A  
HETATM   20  C   UNL     1     -11.554  10.915  69.761  1.00  0.00    -0.399 A  
BRANCH  18  21
HETATM   21  C   UNL     1      -8.500   8.935  70.926  1.00  0.00    -0.226 A  
HETATM   22  C   UNL     1      -7.108   9.204  70.929  1.00  0.00    -0.108 A  
HETATM   23  C   UNL     1      -6.199   8.452  71.681  1.00  0.00    -0.052 A  
HETATM   24  C   UNL     1      -6.648   7.385  72.439  1.00  0.00    -0.055 A  
HETATM   25  C   UNL     1      -8.007   7.077  72.442  1.00  0.00    -0.097 A  
HETATM   26  C   UNL     1      -8.947   7.845  71.716  1.00  0.00    -0.172 A  
BRANCH  26  27
HETATM   27  C   UNL     1     -10.344   7.456  71.863  1.00  0.00    -0.192 A  
HETATM   28  N   UNL     1     -11.111   7.800  72.918  1.00  0.00    -0.396 NA 
HETATM   29  N   UNL     1     -12.264   7.214  72.575  1.00  0.00    -0.502 NA 
HETATM   30  N   UNL     1     -12.265   6.548  71.418  1.00  0.00    -0.309 NA 
HETATM   31  H   UNL     1     -13.095   7.274  73.164  1.00  0.00     0.000 HD 
HETATM   32  N   UNL     1     -11.042   6.719  70.936  1.00  0.00    -0.262 NA 
ENDBRANCH  26  27
ENDBRANCH  18  21
ENDBRANCH  14  15
ENDBRANCH  10  14
ENDBRANCH   4   5
ENDBRANCH   3   4
ENDBRANCH   2   3
TORSDOF 8
ENDMDL
MODEL      136
REMARK 921   NORMALIZED FREE ENERGY PREDICTED BY IDOCK:   -5.11 KCAL/MOL
REMARK 922        TOTAL FREE ENERGY PREDICTED BY IDOCK:   -8.53 KCAL/MOL
REMARK 923 INTER-LIGAND FREE ENERGY PREDICTED BY IDOCK:   -7.19 KCAL/MOL
REMARK 924 INTRA-LIGAND FREE ENERGY PREDICTED BY IDOCK:   -1.34 KCAL/MOL
REMARK 927      BINDING AFFINITY PREDICTED BY RF-SCORE:    0.00 PKD
ROOT
HETATM    1  C   UNL     1     -11.898   8.162  71.288  1.00  0.00    -0.317 C  
HETATM    2  C   UNL     1     -12.797   8.676  72.400  1.00  0.00    -0.413 C  
ENDROOT
BRANCH   2   3
HETATM    3  C   UNL     1     -13.237  10.122  72.151  1.00  0.00    -0.463 C  
BRANCH   3   4
HETATM    4  C   UNL     1     -12.501  10.805  70.992  1.00  0.00    -0.522 C  
BRANCH   4   5
HETATM    5  C   UNL     1     -12.513  12.300  71.079  1.00  0.00    -0.263 A  
HETATM    6  N   UNL     1     -12.930  12.947  72.150  1.00  0.00    -0.289 NA 
HETATM    7  C   UNL     1     -12.790  14.274  71.882  1.00  0.00    -0.348 A  
HETATM    8 CL   UNL     1     -13.221  15.472  73.011  1.00  0.00    -0.592 Cl 
HETATM    9  C   UNL     1     -12.304  14.471  70.605  1.00  0.00    -0.339 A  
HETATM   10  N   UNL     1     -12.148  13.193  70.082  1.00  0.00    -0.345 NA 
BRANCH   9  11
HETATM   11  C   UNL     1     -12.035  15.740  69.899  1.00  0.00    -0.332 C  
HETATM   12  H   UNL     1     -10.465  16.783  69.495  1.00  0.00     0.000 HD 
HETATM   13  O   UNL     1     -10.638  15.966  69.949  1.00  0.00    -0.286 OA 
ENDBRANCH   9  11
BRANCH  10  14
HETATM   14  C   UNL     1     -11.901  12.863  68.680  1.00  0.00    -0.312 C  
BRANCH  14  15
HETATM   15  C   UNL     1     -10.793  11.868  68.451  1.00  0.00    -0.263 A  
HETATM   16  C   UNL     1     -11.068  10.592  67.952  1.00  0.00    -0.371 A  
HETATM   17  C   UNL     1     -10.035   9.679  67.697  1.00  0.00    -0.218 A  
HETATM   18  C   UNL     1      -8.695   9.972  67.995  1.00  0.00    -0.125 A  
HETATM   19  C   UNL     1      -8.430  11.273  68.460  1.00  0.00    -0.156 A  
HETATM   20  C   UNL     1      -9.454  12.207  68.672  1.00  0.00    -0.052 A  
BRANCH  18  21
HETATM   21  C   UNL     1      -7.598   8.972  67.835  1.00  0.00    -0.093 A  
HETATM   22  C   UNL     1      -7.146   8.668  66.527  1.00  0.00    -0.080 A  
HETATM   23  C   UNL     1      -6.113   7.757  66.281  1.00  0.00    -0.045 A  
HETATM   24  C   UNL     1      -5.512   7.095  67.336  1.00  0.00    -0.024 A  
HETATM   25  C   UNL     1      -5.945   7.352  68.636  1.00  0.00    -0.027 A  
HETATM   26  C   UNL     1      -6.964   8.295  68.909  1.00  0.00    -0.066 A  
BRANCH  26  27
HETATM   27  C   UNL     1      -7.271   8.518  70.317  1.00  0.00    -0.048 A  
HETATM   28  N   UNL     1      -6.439   9.139  71.177  1.00  0.00    -0.078 NA 
HETATM   29  N   UNL     1      -7.171   9.086  72.296  1.00  0.00    -0.325 NA 
HETATM   30  N   UNL     1      -8.360   8.490  72.194  1.00  0.00    -0.276 NA 
HETATM   31  H   UNL     1      -6.838   9.480  73.177  1.00  0.00     0.000 HD 
HETATM   32  N   UNL     1      -8.450   8.143  70.918  1.00  0.00    -0.124 NA 
ENDBRANCH  26  27
ENDBRANCH  18  21
ENDBRANCH  14  15
ENDBRANCH  10  14
ENDBRANCH   4   5
ENDBRANCH   3   4
ENDBRANCH   2   3
TORSDOF 8
ENDMDL
MODEL      137
REMARK 921   NORMALIZED FREE ENERGY PREDICTED BY IDOCK:   -5.11 KCAL/MOL
REMARK 922        TOTAL FREE ENERGY PREDICTED BY IDOCK:   -8.53 KCAL/MOL
REMARK 923 INTER-LIGAND FREE ENERGY PREDICTED BY IDOCK:   -7.03 KCAL/MOL
REMARK 924 INTRA-LIGAND FREE ENERGY PREDICTED BY IDOCK:   -1.49 KCAL/MOL
REMARK 927      BINDING AFFINITY PREDICTED BY RF-SCORE:    0.00 PKD
ROOT
HETATM    1  C   UNL     1      -7.859  17.539  68.779  1.00  0.00    -0.242 C  
HETATM    2  C   UNL     1      -6.826  16.424  68.793  1.00  0.00    -0.163 C  
ENDROOT
BRANCH   2   3
HETATM    3  C   UNL     1      -6.900  15.566  67.526  1.00  0.00    -0.225 C  
BRANCH   3   4
HETATM    4  C   UNL     1      -7.798  14.331  67.664  1.00  0.00    -0.191 C  
BRANCH   4   5
HETATM    5  C   UNL     1      -9.115  14.472  66.966  1.00  0.00    -0.239 A  
HETATM    6  N   UNL     1      -9.316  15.342  65.995  1.00  0.00    -0.324 NA 
HETATM    7  C   UNL     1     -10.607  15.186  65.593  1.00  0.00    -0.356 A  
HETATM    8 CL   UNL     1     -11.284  16.127  64.348  1.00  0.00    -0.358 Cl 
HETATM    9  C   UNL     1     -11.244  14.220  66.346  1.00  0.00    -0.337 A  
HETATM   10  N   UNL     1     -10.283  13.778  67.247  1.00  0.00    -0.251 NA 
BRANCH   9  11
HETATM   11  C   UNL     1     -12.646  13.759  66.271  1.00  0.00    -0.321 C  
HETATM   12  H   UNL     1     -13.598  12.410  65.276  1.00  0.00     0.000 HD 
HETATM   13  O   UNL     1     -12.696  12.707  65.324  1.00  0.00    -0.652 OA 
ENDBRANCH   9  11
BRANCH  10  14
HETATM   14  C   UNL     1     -10.526  12.943  68.422  1.00  0.00    -0.251 C  
BRANCH  14  15
HETATM   15  C   UNL     1     -10.194  11.484  68.238  1.00  0.00    -0.205 A  
HETATM   16  C   UNL     1      -9.012  10.949  68.756  1.00  0.00    -0.166 A  
HETATM   17  C   UNL     1      -8.720   9.584  68.626  1.00  0.00    -0.127 A  
HETATM   18  C   UNL     1      -9.557   8.711  67.913  1.00  0.00    -0.173 A  
HETATM   19  C   UNL     1     -10.761   9.256  67.432  1.00  0.00    -0.263 A  
HETATM   20  C   UNL     1     -11.080  10.611  67.600  1.00  0.00    -0.385 A  
BRANCH  18  21
HETATM   21  C   UNL     1      -9.206   7.280  67.669  1.00  0.00    -0.130 A  
HETATM   22  C   UNL     1      -8.667   6.923  66.409  1.00  0.00    -0.147 A  
HETATM   23  C   UNL     1      -8.294   5.611  66.095  1.00  0.00    -0.120 A  
HETATM   24  C   UNL     1      -8.473   4.602  67.025  1.00  0.00    -0.105 A  
HETATM   25  C   UNL     1      -9.022   4.913  68.268  1.00  0.00    -0.126 A  
HETATM   26  C   UNL     1      -9.374   6.238  68.617  1.00  0.00    -0.122 A  
BRANCH  26  27
HETATM   27  C   UNL     1      -9.871   6.434  69.973  1.00  0.00    -0.168 A  
HETATM   28  N   UNL     1      -9.082   6.455  71.066  1.00  0.00    -0.153 NA 
HETATM   29  N   UNL     1      -9.999   6.658  72.019  1.00  0.00    -0.166 NA 
HETATM   30  N   UNL     1     -11.265   6.757  71.606  1.00  0.00    -0.245 NA 
HETATM   31  H   UNL     1      -9.746   6.734  73.004  1.00  0.00     0.000 HD 
HETATM   32  N   UNL     1     -11.194   6.641  70.287  1.00  0.00    -0.324 NA 
ENDBRANCH  26  27
ENDBRANCH  18  21
ENDBRANCH  14  15
ENDBRANCH  10  14
ENDBRANCH   4   5
ENDBRANCH   3   4
ENDBRANCH   2   3
TORSDOF 8
ENDMDL
MODEL      138
REMARK 921   NORMALIZED FREE ENERGY PREDICTED BY IDOCK:   -5.10 KCAL/MOL
REMARK 922        TOTAL FREE ENERGY PREDICTED BY IDOCK:   -8.52 KCAL/MOL
REMARK 923 INTER-LIGAND FREE ENERGY PREDICTED BY IDOCK:   -6.83 KCAL/MOL
REMARK 924 INTRA-LIGAND FREE ENERGY PREDICTED BY IDOCK:   -1.68 KCAL/MOL
REMARK 927      BINDING AFFINITY PREDICTED BY RF-SCORE:    0.00 PKD
ROOT
HETATM    1  C   UNL     1      -9.960   8.872  71.053  1.00  0.00    -0.324 C  
HETATM    2  C   UNL     1      -9.756   8.556  72.525  1.00  0.00    -0.326 C  
ENDROOT
BRANCH   2   3
HETATM    3  C   UNL     1     -10.730   7.479  73.014  1.00  0.00    -0.438 C  
BRANCH   3   4
HETATM    4  C   UNL     1     -10.798   6.245  72.107  1.00  0.00    -0.281 C  
BRANCH   4   5
HETATM    5  C   UNL     1      -9.475   5.567  71.926  1.00  0.00    -0.148 A  
HETATM    6  N   UNL     1      -8.480   5.709  72.780  1.00  0.00    -0.120 NA 
HETATM    7  C   UNL     1      -7.453   4.949  72.310  1.00  0.00    -0.089 A  
HETATM    8 CL   UNL     1      -5.960   4.852  73.122  1.00  0.00    -0.024 Cl 
HETATM    9  C   UNL     1      -7.794   4.339  71.120  1.00  0.00    -0.071 A  
HETATM   10  N   UNL     1      -9.094   4.759  70.864  1.00  0.00    -0.130 NA 
BRANCH   9  11
HETATM   11  C   UNL     1      -6.976   3.462  70.258  1.00  0.00    -0.034 C  
HETATM   12  H   UNL     1      -5.721   3.731  68.820  1.00  0.00     0.000 HD 
HETATM   13  O   UNL     1      -6.248   4.296  69.374  1.00  0.00    -0.026 OA 
ENDBRANCH   9  11
BRANCH  10  14
HETATM   14  C   UNL     1      -9.817   4.596  69.604  1.00  0.00    -0.223 C  
BRANCH  14  15
HETATM   15  C   UNL     1      -9.772   5.794  68.691  1.00  0.00    -0.165 A  
HETATM   16  C   UNL     1     -10.895   6.171  67.950  1.00  0.00    -0.406 A  
HETATM   17  C   UNL     1     -10.870   7.310  67.132  1.00  0.00    -0.378 A  
HETATM   18  C   UNL     1      -9.707   8.078  66.964  1.00  0.00    -0.275 A  
HETATM   19  C   UNL     1      -8.598   7.709  67.745  1.00  0.00    -0.121 A  
HETATM   20  C   UNL     1      -8.631   6.599  68.601  1.00  0.00    -0.125 A  
BRANCH  18  21
HETATM   21  C   UNL     1      -9.632   9.226  66.012  1.00  0.00    -0.338 A  
HETATM   22  C   UNL     1      -9.157   8.985  64.700  1.00  0.00    -0.032 A  
HETATM   23  C   UNL     1      -9.066   9.995  63.735  1.00  0.00    -0.302 A  
HETATM   24  C   UNL     1      -9.425  11.292  64.059  1.00  0.00    -0.202 A  
HETATM   25  C   UNL     1      -9.876  11.570  65.348  1.00  0.00    -0.271 A  
HETATM   26  C   UNL     1     -10.007  10.558  66.327  1.00  0.00    -0.276 A  
BRANCH  26  27
HETATM   27  C   UNL     1     -10.557  10.974  67.612  1.00  0.00    -0.217 A  
HETATM   28  N   UNL     1      -9.838  11.589  68.572  1.00  0.00    -0.196 NA 
HETATM   29  N   UNL     1     -10.780  11.748  69.510  1.00  0.00    -0.447 NA 
HETATM   30  N   UNL     1     -11.995  11.285  69.208  1.00  0.00    -0.339 NA 
HETATM   31  H   UNL     1     -10.581  12.198  70.403  1.00  0.00     0.000 HD 
HETATM   32  N   UNL     1     -11.873  10.808  67.977  1.00  0.00    -0.509 NA 
ENDBRANCH  26  27
ENDBRANCH  18  21
ENDBRANCH  14  15
ENDBRANCH  10  14
ENDBRANCH   4   5
ENDBRANCH   3   4
ENDBRANCH   2   3
TORSDOF 8
ENDMDL
MODEL      139
REMARK 921   NORMALIZED FREE ENERGY PREDICTED BY IDOCK:   -5.09 KCAL/MOL
REMARK 922        TOTAL FREE ENERGY PREDICTED BY IDOCK:   -8.50 KCAL/MOL
REMARK 923 INTER-LIGAND FREE ENERGY PREDICTED BY IDOCK:   -8.26 KCAL/MOL
REMARK 924 INTRA-LIGAND FREE ENERGY PREDICTED BY IDOCK:   -0.24 KCAL/MOL
REMARK 927      BINDING AFFINITY PREDICTED BY RF-SCORE:    0.00 PKD
ROOT
HETATM    1  C   UNL     1     -10.911   6.815  69.511  1.00  0.00    -0.315 C  
HETATM    2  C   UNL     1     -10.185   6.284  68.286  1.00  0.00    -0.198 C  
ENDROOT
BRANCH   2   3
HETATM    3  C   UNL     1     -10.762   6.862  66.990  1.00  0.00    -0.432 C  
BRANCH   3   4
HETATM    4  C   UNL     1     -10.453   8.349  66.782  1.00  0.00    -0.315 C  
BRANCH   4   5
HETATM    5  C   UNL     1      -9.106   8.597  66.175  1.00  0.00    -0.201 A  
HETATM    6  N   UNL     1      -8.052   7.855  66.455  1.00  0.00    -0.105 NA 
HETATM    7  C   UNL     1      -7.019   8.355  65.723  1.00  0.00    -0.067 A  
HETATM    8 CL   UNL     1      -5.457   7.682  65.792  1.00  0.00    -0.028 Cl 
HETATM    9  C   UNL     1      -7.421   9.452  64.988  1.00  0.00    -0.106 A  
HETATM   10  N   UNL     1      -8.764   9.619  65.301  1.00  0.00    -0.149 NA 
BRANCH   9  11
HETATM   11  C   UNL     1      -6.622  10.312  64.090  1.00  0.00    -0.072 C  
HETATM   12  H   UNL     1      -5.658  10.056  62.441  1.00  0.00     0.000 HD 
HETATM   13  O   UNL     1      -6.172   9.503  63.018  1.00  0.00    -0.097 OA 
ENDBRANCH   9  11
BRANCH  10  14
HETATM   14  C   UNL     1      -9.582  10.787  64.981  1.00  0.00    -0.254 C  
BRANCH  14  15
HETATM   15  C   UNL     1     -10.087  11.551  66.178  1.00  0.00    -0.266 A  
HETATM   16  C   UNL     1     -11.404  12.014  66.227  1.00  0.00    -0.415 A  
HETATM   17  C   UNL     1     -11.890  12.688  67.356  1.00  0.00    -0.393 A  
HETATM   18  C   UNL     1     -11.066  12.991  68.452  1.00  0.00    -0.292 A  
HETATM   19  C   UNL     1      -9.755  12.485  68.404  1.00  0.00    -0.189 A  
HETATM   20  C   UNL     1      -9.277  11.769  67.297  1.00  0.00    -0.173 A  
BRANCH  18  21
HETATM   21  C   UNL     1     -11.537  13.804  69.612  1.00  0.00    -0.343 A  
HETATM   22  C   UNL     1     -11.280  15.197  69.609  1.00  0.00    -0.288 A  
HETATM   23  C   UNL     1     -11.696  16.041  70.644  1.00  0.00    -0.376 A  
HETATM   24  C   UNL     1     -12.364  15.515  71.736  1.00  0.00    -0.475 A  
HETATM   25  C   UNL     1     -12.614  14.145  71.784  1.00  0.00    -0.400 A  
HETATM   26  C   UNL     1     -12.232  13.280  70.732  1.00  0.00    -0.390 A  
BRANCH  26  27
HETATM   27  C   UNL     1     -12.618  11.881  70.879  1.00  0.00    -0.266 A  
HETATM   28  N   UNL     1     -12.333  10.926  69.972  1.00  0.00    -0.330 NA 
HETATM   29  N   UNL     1     -12.889   9.862  70.564  1.00  0.00    -0.558 NA 
HETATM   30  N   UNL     1     -13.485  10.086  71.737  1.00  0.00    -0.357 NA 
HETATM   31  H   UNL     1     -12.858   8.933  70.143  1.00  0.00     0.000 HD 
HETATM   32  N   UNL     1     -13.294  11.378  71.965  1.00  0.00    -0.413 NA 
ENDBRANCH  26  27
ENDBRANCH  18  21
ENDBRANCH  14  15
ENDBRANCH  10  14
ENDBRANCH   4   5
ENDBRANCH   3   4
ENDBRANCH   2   3
TORSDOF 8
ENDMDL
MODEL      140
REMARK 921   NORMALIZED FREE ENERGY PREDICTED BY IDOCK:   -5.09 KCAL/MOL
REMARK 922        TOTAL FREE ENERGY PREDICTED BY IDOCK:   -8.50 KCAL/MOL
REMARK 923 INTER-LIGAND FREE ENERGY PREDICTED BY IDOCK:   -7.92 KCAL/MOL
REMARK 924 INTRA-LIGAND FREE ENERGY PREDICTED BY IDOCK:   -0.58 KCAL/MOL
REMARK 927      BINDING AFFINITY PREDICTED BY RF-SCORE:    0.00 PKD
ROOT
HETATM    1  C   UNL     1     -12.459  16.214  72.888  1.00  0.00    -0.570 C  
HETATM    2  C   UNL     1     -13.114  14.902  73.288  1.00  0.00    -0.585 C  
ENDROOT
BRANCH   2   3
HETATM    3  C   UNL     1     -14.000  14.346  72.168  1.00  0.00    -0.607 C  
BRANCH   3   4
HETATM    4  C   UNL     1     -13.384  13.157  71.421  1.00  0.00    -0.216 C  
BRANCH   4   5
HETATM    5  C   UNL     1     -12.582  13.561  70.222  1.00  0.00    -0.152 A  
HETATM    6  N   UNL     1     -12.320  14.820  69.933  1.00  0.00    -0.306 NA 
HETATM    7  C   UNL     1     -11.568  14.811  68.798  1.00  0.00    -0.320 A  
HETATM    8 CL   UNL     1     -11.012  16.246  68.073  1.00  0.00    -0.340 Cl 
HETATM    9  C   UNL     1     -11.376  13.521  68.345  1.00  0.00    -0.292 A  
HETATM   10  N   UNL     1     -12.052  12.719  69.255  1.00  0.00    -0.227 NA 
BRANCH   9  11
HETATM   11  C   UNL     1     -10.655  13.058  67.141  1.00  0.00    -0.246 C  
HETATM   12  H   UNL     1     -10.984  13.096  65.242  1.00  0.00     0.000 HD 
HETATM   13  O   UNL     1     -11.448  13.394  66.016  1.00  0.00    -0.312 OA 
ENDBRANCH   9  11
BRANCH  10  14
HETATM   14  C   UNL     1     -12.364  11.301  69.085  1.00  0.00    -0.048 C  
BRANCH  14  15
HETATM   15  C   UNL     1     -11.534  10.366  69.926  1.00  0.00    -0.368 A  
HETATM   16  C   UNL     1     -12.138   9.508  70.849  1.00  0.00    -0.357 A  
HETATM   17  C   UNL     1     -11.373   8.606  71.603  1.00  0.00    -0.377 A  
HETATM   18  C   UNL     1      -9.972   8.572  71.521  1.00  0.00    -0.314 A  
HETATM   19  C   UNL     1      -9.383   9.414  70.561  1.00  0.00    -0.319 A  
HETATM   20  C   UNL     1     -10.147  10.285  69.771  1.00  0.00    -0.244 A  
BRANCH  18  21
HETATM   21  C   UNL     1      -9.136   7.698  72.396  1.00  0.00    -0.191 A  
HETATM   22  C   UNL     1      -8.736   8.194  73.662  1.00  0.00    -0.309 A  
HETATM   23  C   UNL     1      -7.967   7.441  74.556  1.00  0.00    -0.205 A  
HETATM   24  C   UNL     1      -7.545   6.172  74.203  1.00  0.00    -0.086 A  
HETATM   25  C   UNL     1      -7.901   5.659  72.957  1.00  0.00    -0.101 A  
HETATM   26  C   UNL     1      -8.706   6.390  72.053  1.00  0.00    -0.133 A  
BRANCH  26  27
HETATM   27  C   UNL     1      -9.062   5.708  70.814  1.00  0.00    -0.147 A  
HETATM   28  N   UNL     1      -9.409   6.347  69.679  1.00  0.00    -0.145 NA 
HETATM   29  N   UNL     1      -9.629   5.301  68.874  1.00  0.00    -0.128 NA 
HETATM   30  N   UNL     1      -9.453   4.094  69.416  1.00  0.00    -0.176 NA 
HETATM   31  H   UNL     1      -9.915   5.419  67.902  1.00  0.00     0.000 HD 
HETATM   32  N   UNL     1      -9.061   4.342  70.658  1.00  0.00    -0.104 NA 
ENDBRANCH  26  27
ENDBRANCH  18  21
ENDBRANCH  14  15
ENDBRANCH  10  14
ENDBRANCH   4   5
ENDBRANCH   3   4
ENDBRANCH   2   3
TORSDOF 8
ENDMDL
MODEL      141
REMARK 921   NORMALIZED FREE ENERGY PREDICTED BY IDOCK:   -5.08 KCAL/MOL
REMARK 922        TOTAL FREE ENERGY PREDICTED BY IDOCK:   -8.49 KCAL/MOL
REMARK 923 INTER-LIGAND FREE ENERGY PREDICTED BY IDOCK:   -6.94 KCAL/MOL
REMARK 924 INTRA-LIGAND FREE ENERGY PREDICTED BY IDOCK:   -1.55 KCAL/MOL
REMARK 927      BINDING AFFINITY PREDICTED BY RF-SCORE:    0.00 PKD
ROOT
HETATM    1  C   UNL     1      -7.028   9.339  68.794  1.00  0.00    -0.061 C  
HETATM    2  C   UNL     1      -7.422  10.773  69.105  1.00  0.00    -0.123 C  
ENDROOT
BRANCH   2   3
HETATM    3  C   UNL     1      -8.631  11.221  68.277  1.00  0.00    -0.153 C  
BRANCH   3   4
HETATM    4  C   UNL     1      -8.264  12.033  67.030  1.00  0.00    -0.169 C  
BRANCH   4   5
HETATM    5  C   UNL     1      -9.450  12.418  66.200  1.00  0.00    -0.199 A  
HETATM    6  N   UNL     1     -10.303  13.354  66.570  1.00  0.00    -0.279 NA 
HETATM    7  C   UNL     1     -11.234  13.444  65.581  1.00  0.00    -0.292 A  
HETATM    8 CL   UNL     1     -12.533  14.541  65.663  1.00  0.00    -0.295 Cl 
HETATM    9  C   UNL     1     -10.982  12.526  64.581  1.00  0.00    -0.310 A  
HETATM   10  N   UNL     1      -9.842  11.850  64.997  1.00  0.00    -0.237 NA 
BRANCH   9  11
HETATM   11  C   UNL     1     -11.753  12.261  63.349  1.00  0.00    -0.457 C  
HETATM   12  H   UNL     1     -13.590  11.848  62.938  1.00  0.00     0.000 HD 
HETATM   13  O   UNL     1     -13.095  12.019  63.731  1.00  0.00    -0.730 OA 
ENDBRANCH   9  11
BRANCH  10  14
HETATM   14  C   UNL     1      -9.314  10.618  64.415  1.00  0.00    -0.251 C  
BRANCH  14  15
HETATM   15  C   UNL     1      -9.364   9.418  65.325  1.00  0.00    -0.303 A  
HETATM   16  C   UNL     1     -10.409   9.258  66.239  1.00  0.00    -0.192 A  
HETATM   17  C   UNL     1     -10.483   8.122  67.058  1.00  0.00    -0.396 A  
HETATM   18  C   UNL     1      -9.485   7.135  67.050  1.00  0.00    -0.192 A  
HETATM   19  C   UNL     1      -8.461   7.291  66.098  1.00  0.00    -0.144 A  
HETATM   20  C   UNL     1      -8.407   8.402  65.244  1.00  0.00    -0.169 A  
BRANCH  18  21
HETATM   21  C   UNL     1      -9.490   5.977  67.993  1.00  0.00    -0.113 A  
HETATM   22  C   UNL     1      -9.477   6.240  69.385  1.00  0.00    -0.148 A  
HETATM   23  C   UNL     1      -9.498   5.220  70.343  1.00  0.00    -0.222 A  
HETATM   24  C   UNL     1      -9.505   3.896  69.941  1.00  0.00    -0.267 A  
HETATM   25  C   UNL     1      -9.495   3.600  68.579  1.00  0.00    -0.212 A  
HETATM   26  C   UNL     1      -9.509   4.616  67.595  1.00  0.00    -0.186 A  
BRANCH  26  27
HETATM   27  C   UNL     1      -9.569   4.166  66.209  1.00  0.00    -0.199 A  
HETATM   28  N   UNL     1      -8.539   3.583  65.564  1.00  0.00    -0.111 NA 
HETATM   29  N   UNL     1      -9.097   3.372  64.365  1.00  0.00    -0.122 NA 
HETATM   30  N   UNL     1     -10.361   3.776  64.226  1.00  0.00    -0.241 NA 
HETATM   31  H   UNL     1      -8.585   2.928  63.603  1.00  0.00     0.000 HD 
HETATM   32  N   UNL     1     -10.687   4.265  65.414  1.00  0.00    -0.165 NA 
ENDBRANCH  26  27
ENDBRANCH  18  21
ENDBRANCH  14  15
ENDBRANCH  10  14
ENDBRANCH   4   5
ENDBRANCH   3   4
ENDBRANCH   2   3
TORSDOF 8
ENDMDL
MODEL      142
REMARK 921   NORMALIZED FREE ENERGY PREDICTED BY IDOCK:   -5.07 KCAL/MOL
REMARK 922        TOTAL FREE ENERGY PREDICTED BY IDOCK:   -8.47 KCAL/MOL
REMARK 923 INTER-LIGAND FREE ENERGY PREDICTED BY IDOCK:   -7.64 KCAL/MOL
REMARK 924 INTRA-LIGAND FREE ENERGY PREDICTED BY IDOCK:   -0.82 KCAL/MOL
REMARK 927      BINDING AFFINITY PREDICTED BY RF-SCORE:    0.00 PKD
ROOT
HETATM    1  C   UNL     1     -11.060  10.597  69.984  1.00  0.00    -0.359 C  
HETATM    2  C   UNL     1     -12.011  11.687  70.452  1.00  0.00    -0.448 C  
ENDROOT
BRANCH   2   3
HETATM    3  C   UNL     1     -12.009  12.888  69.500  1.00  0.00    -0.346 C  
BRANCH   3   4
HETATM    4  C   UNL     1     -10.671  13.113  68.787  1.00  0.00    -0.253 C  
BRANCH   4   5
HETATM    5  C   UNL     1     -10.736  14.163  67.721  1.00  0.00    -0.247 A  
HETATM    6  N   UNL     1     -10.442  15.428  67.949  1.00  0.00    -0.251 NA 
HETATM    7  C   UNL     1     -10.596  16.083  66.765  1.00  0.00    -0.297 A  
HETATM    8 CL   UNL     1     -10.318  17.755  66.617  1.00  0.00    -0.352 Cl 
HETATM    9  C   UNL     1     -11.025  15.220  65.777  1.00  0.00    -0.338 A  
HETATM   10  N   UNL     1     -11.136  13.985  66.404  1.00  0.00    -0.312 NA 
BRANCH   9  11
HETATM   11  C   UNL     1     -11.347  15.512  64.364  1.00  0.00    -0.252 C  
HETATM   12  H   UNL     1     -11.556  17.108  63.304  1.00  0.00     0.000 HD 
HETATM   13  O   UNL     1     -11.349  16.920  64.213  1.00  0.00    -1.202 OA 
ENDBRANCH   9  11
BRANCH  10  14
HETATM   14  C   UNL     1     -11.790  12.799  65.856  1.00  0.00    -0.437 C  
BRANCH  14  15
HETATM   15  C   UNL     1     -10.883  11.613  65.656  1.00  0.00    -0.330 A  
HETATM   16  C   UNL     1     -10.993  10.482  66.470  1.00  0.00    -0.054 A  
HETATM   17  C   UNL     1     -10.180   9.359  66.260  1.00  0.00    -0.284 A  
HETATM   18  C   UNL     1      -9.177   9.343  65.278  1.00  0.00    -0.299 A  
HETATM   19  C   UNL     1      -9.104  10.472  64.443  1.00  0.00    -0.254 A  
HETATM   20  C   UNL     1      -9.947  11.579  64.618  1.00  0.00    -0.305 A  
BRANCH  18  21
HETATM   21  C   UNL     1      -8.230   8.201  65.114  1.00  0.00    -0.156 A  
HETATM   22  C   UNL     1      -7.918   7.764  63.803  1.00  0.00    -0.101 A  
HETATM   23  C   UNL     1      -7.029   6.713  63.552  1.00  0.00    -0.052 A  
HETATM   24  C   UNL     1      -6.439   6.042  64.608  1.00  0.00    -0.037 A  
HETATM   25  C   UNL     1      -6.740   6.429  65.913  1.00  0.00    -0.048 A  
HETATM   26  C   UNL     1      -7.609   7.511  66.188  1.00  0.00    -0.088 A  
BRANCH  26  27
HETATM   27  C   UNL     1      -7.781   7.855  67.594  1.00  0.00    -0.117 A  
HETATM   28  N   UNL     1      -7.185   8.909  68.187  1.00  0.00    -0.079 NA 
HETATM   29  N   UNL     1      -7.657   8.780  69.432  1.00  0.00    -0.086 NA 
HETATM   30  N   UNL     1      -8.475   7.749  69.648  1.00  0.00    -0.132 NA 
HETATM   31  H   UNL     1      -7.405   9.434  70.174  1.00  0.00     0.000 HD 
HETATM   32  N   UNL     1      -8.586   7.159  68.465  1.00  0.00    -0.124 NA 
ENDBRANCH  26  27
ENDBRANCH  18  21
ENDBRANCH  14  15
ENDBRANCH  10  14
ENDBRANCH   4   5
ENDBRANCH   3   4
ENDBRANCH   2   3
TORSDOF 8
ENDMDL
MODEL      143
REMARK 921   NORMALIZED FREE ENERGY PREDICTED BY IDOCK:   -5.07 KCAL/MOL
REMARK 922        TOTAL FREE ENERGY PREDICTED BY IDOCK:   -8.46 KCAL/MOL
REMARK 923 INTER-LIGAND FREE ENERGY PREDICTED BY IDOCK:   -7.89 KCAL/MOL
REMARK 924 INTRA-LIGAND FREE ENERGY PREDICTED BY IDOCK:   -0.58 KCAL/MOL
REMARK 927      BINDING AFFINITY PREDICTED BY RF-SCORE:    0.00 PKD
ROOT
HETATM    1  C   UNL     1      -7.326  17.495  68.312  1.00  0.00    -0.223 C  
HETATM    2  C   UNL     1      -6.338  16.555  67.642  1.00  0.00    -0.172 C  
ENDROOT
BRANCH   2   3
HETATM    3  C   UNL     1      -6.884  15.126  67.555  1.00  0.00    -0.203 C  
BRANCH   3   4
HETATM    4  C   UNL     1      -8.378  15.011  67.881  1.00  0.00    -0.151 C  
BRANCH   4   5
HETATM    5  C   UNL     1      -9.231  14.762  66.675  1.00  0.00    -0.275 A  
HETATM    6  N   UNL     1      -9.980  15.699  66.127  1.00  0.00    -0.288 NA 
HETATM    7  C   UNL     1     -10.599  15.127  65.059  1.00  0.00    -0.413 A  
HETATM    8 CL   UNL     1     -11.671  15.999  64.065  1.00  0.00    -0.080 Cl 
HETATM    9  C   UNL     1     -10.259  13.794  64.947  1.00  0.00    -0.348 A  
HETATM   10  N   UNL     1      -9.393  13.557  66.007  1.00  0.00    -0.080 NA 
BRANCH   9  11
HETATM   11  C   UNL     1     -10.723  12.796  63.961  1.00  0.00    -0.426 C  
HETATM   12  H   UNL     1     -12.330  11.764  63.702  1.00  0.00     0.000 HD 
HETATM   13  O   UNL     1     -12.031  12.405  64.337  1.00  0.00    -0.368 OA 
ENDBRANCH   9  11
BRANCH  10  14
HETATM   14  C   UNL     1      -8.950  12.246  66.478  1.00  0.00    -0.161 C  
BRANCH  14  15
HETATM   15  C   UNL     1      -9.803  11.644  67.565  1.00  0.00    -0.199 A  
HETATM   16  C   UNL     1      -9.220  11.100  68.713  1.00  0.00    -0.151 A  
HETATM   17  C   UNL     1     -10.012  10.579  69.746  1.00  0.00    -0.090 A  
HETATM   18  C   UNL     1     -11.410  10.512  69.648  1.00  0.00    -0.345 A  
HETATM   19  C   UNL     1     -11.984  11.098  68.505  1.00  0.00    -0.250 A  
HETATM   20  C   UNL     1     -11.199  11.664  67.490  1.00  0.00    -0.355 A  
BRANCH  18  21
HETATM   21  C   UNL     1     -12.260   9.859  70.687  1.00  0.00    -0.325 A  
HETATM   22  C   UNL     1     -12.285   8.444  70.748  1.00  0.00    -0.006 A  
HETATM   23  C   UNL     1     -13.038   7.745  71.698  1.00  0.00    -0.378 A  
HETATM   24  C   UNL     1     -13.816   8.439  72.607  1.00  0.00    -0.119 A  
HETATM   25  C   UNL     1     -13.834   9.833  72.563  1.00  0.00    -0.106 A  
HETATM   26  C   UNL     1     -13.054  10.558  71.633  1.00  0.00    -0.551 A  
BRANCH  26  27
HETATM   27  C   UNL     1     -13.112  12.011  71.742  1.00  0.00    -0.355 A  
HETATM   28  N   UNL     1     -13.720  12.664  72.753  1.00  0.00    -0.261 NA 
HETATM   29  N   UNL     1     -13.491  13.932  72.390  1.00  0.00    -0.515 NA 
HETATM   30  N   UNL     1     -12.809  14.105  71.256  1.00  0.00    -0.340 NA 
HETATM   31  H   UNL     1     -13.820  14.720  72.947  1.00  0.00     0.000 HD 
HETATM   32  N   UNL     1     -12.534  12.876  70.842  1.00  0.00    -0.351 NA 
ENDBRANCH  26  27
ENDBRANCH  18  21
ENDBRANCH  14  15
ENDBRANCH  10  14
ENDBRANCH   4   5
ENDBRANCH   3   4
ENDBRANCH   2   3
TORSDOF 8
ENDMDL
MODEL      144
REMARK 921   NORMALIZED FREE ENERGY PREDICTED BY IDOCK:   -5.05 KCAL/MOL
REMARK 922        TOTAL FREE ENERGY PREDICTED BY IDOCK:   -8.45 KCAL/MOL
REMARK 923 INTER-LIGAND FREE ENERGY PREDICTED BY IDOCK:   -7.39 KCAL/MOL
REMARK 924 INTRA-LIGAND FREE ENERGY PREDICTED BY IDOCK:   -1.06 KCAL/MOL
REMARK 927      BINDING AFFINITY PREDICTED BY RF-SCORE:    0.00 PKD
ROOT
HETATM    1  C   UNL     1     -12.019  15.457  64.384  1.00  0.00    -0.235 C  
HETATM    2  C   UNL     1     -12.502  14.098  64.863  1.00  0.00    -0.419 C  
ENDROOT
BRANCH   2   3
HETATM    3  C   UNL     1     -11.503  12.988  64.520  1.00  0.00    -0.389 C  
BRANCH   3   4
HETATM    4  C   UNL     1     -11.198  12.043  65.688  1.00  0.00    -0.377 C  
BRANCH   4   5
HETATM    5  C   UNL     1      -9.992  11.186  65.459  1.00  0.00    -0.249 A  
HETATM    6  N   UNL     1      -9.810  10.495  64.351  1.00  0.00    -0.322 NA 
HETATM    7  C   UNL     1      -8.618   9.851  64.484  1.00  0.00    -0.186 A  
HETATM    8 CL   UNL     1      -8.000   8.837  63.266  1.00  0.00    -0.152 Cl 
HETATM    9  C   UNL     1      -8.049  10.117  65.714  1.00  0.00    -0.142 A  
HETATM   10  N   UNL     1      -8.951  10.961  66.349  1.00  0.00    -0.169 NA 
BRANCH   9  11
HETATM   11  C   UNL     1      -6.785   9.604  66.283  1.00  0.00    -0.076 C  
HETATM   12  H   UNL     1      -5.058  10.354  66.691  1.00  0.00     0.000 HD 
HETATM   13  O   UNL     1      -5.870  10.685  66.325  1.00  0.00    -0.079 OA 
ENDBRANCH   9  11
BRANCH  10  14
HETATM   14  C   UNL     1      -8.936  11.326  67.765  1.00  0.00    -0.141 C  
BRANCH  14  15
HETATM   15  C   UNL     1      -9.249  10.197  68.711  1.00  0.00    -0.164 A  
HETATM   16  C   UNL     1      -8.418   9.926  69.801  1.00  0.00    -0.206 A  
HETATM   17  C   UNL     1      -8.729   8.904  70.710  1.00  0.00    -0.245 A  
HETATM   18  C   UNL     1      -9.840   8.065  70.530  1.00  0.00    -0.184 A  
HETATM   19  C   UNL     1     -10.687   8.374  69.452  1.00  0.00    -0.162 A  
HETATM   20  C   UNL     1     -10.407   9.426  68.567  1.00  0.00    -0.236 A  
BRANCH  18  21
HETATM   21  C   UNL     1     -10.123   6.903  71.424  1.00  0.00    -0.197 A  
HETATM   22  C   UNL     1      -9.111   5.928  71.606  1.00  0.00    -0.149 A  
HETATM   23  C   UNL     1      -9.279   4.815  72.436  1.00  0.00    -0.149 A  
HETATM   24  C   UNL     1     -10.480   4.622  73.095  1.00  0.00    -0.253 A  
HETATM   25  C   UNL     1     -11.507   5.548  72.922  1.00  0.00    -0.327 A  
HETATM   26  C   UNL     1     -11.345   6.698  72.115  1.00  0.00    -0.309 A  
BRANCH  26  27
HETATM   27  C   UNL     1     -12.474   7.621  72.078  1.00  0.00    -0.270 A  
HETATM   28  N   UNL     1     -12.519   8.778  72.768  1.00  0.00    -0.240 NA 
HETATM   29  N   UNL     1     -13.724   9.229  72.398  1.00  0.00    -0.601 NA 
HETATM   30  N   UNL     1     -14.410   8.453  71.557  1.00  0.00    -0.436 NA 
HETATM   31  H   UNL     1     -14.096  10.115  72.740  1.00  0.00     0.000 HD 
HETATM   32  N   UNL     1     -13.605   7.426  71.321  1.00  0.00    -0.320 NA 
ENDBRANCH  26  27
ENDBRANCH  18  21
ENDBRANCH  14  15
ENDBRANCH  10  14
ENDBRANCH   4   5
ENDBRANCH   3   4
ENDBRANCH   2   3
TORSDOF 8
ENDMDL
MODEL      145
REMARK 921   NORMALIZED FREE ENERGY PREDICTED BY IDOCK:   -5.05 KCAL/MOL
REMARK 922        TOTAL FREE ENERGY PREDICTED BY IDOCK:   -8.44 KCAL/MOL
REMARK 923 INTER-LIGAND FREE ENERGY PREDICTED BY IDOCK:   -7.16 KCAL/MOL
REMARK 924 INTRA-LIGAND FREE ENERGY PREDICTED BY IDOCK:   -1.28 KCAL/MOL
REMARK 927      BINDING AFFINITY PREDICTED BY RF-SCORE:    0.00 PKD
ROOT
HETATM    1  C   UNL     1      -6.840   9.548  68.906  1.00  0.00    -0.055 C  
HETATM    2  C   UNL     1      -7.265  10.959  69.280  1.00  0.00    -0.128 C  
ENDROOT
BRANCH   2   3
HETATM    3  C   UNL     1      -8.527  11.389  68.526  1.00  0.00    -0.152 C  
BRANCH   3   4
HETATM    4  C   UNL     1      -8.247  12.217  67.266  1.00  0.00    -0.182 C  
BRANCH   4   5
HETATM    5  C   UNL     1      -9.470  12.480  66.443  1.00  0.00    -0.233 A  
HETATM    6  N   UNL     1     -10.418  13.314  66.824  1.00  0.00    -0.268 NA 
HETATM    7  C   UNL     1     -11.357  13.312  65.838  1.00  0.00    -0.311 A  
HETATM    8 CL   UNL     1     -12.766  14.261  65.934  1.00  0.00    -0.415 Cl 
HETATM    9  C   UNL     1     -11.009  12.438  64.828  1.00  0.00    -0.301 A  
HETATM   10  N   UNL     1      -9.801  11.886  65.234  1.00  0.00    -0.245 NA 
BRANCH   9  11
HETATM   11  C   UNL     1     -11.750  12.104  63.594  1.00  0.00    -0.498 C  
HETATM   12  H   UNL     1     -13.458  12.586  62.842  1.00  0.00     0.000 HD 
HETATM   13  O   UNL     1     -12.982  12.801  63.637  1.00  0.00    -0.663 OA 
ENDBRANCH   9  11
BRANCH  10  14
HETATM   14  C   UNL     1      -9.144  10.724  64.638  1.00  0.00    -0.201 C  
BRANCH  14  15
HETATM   15  C   UNL     1      -9.192   9.473  65.477  1.00  0.00    -0.292 A  
HETATM   16  C   UNL     1      -8.123   8.573  65.482  1.00  0.00    -0.126 A  
HETATM   17  C   UNL     1      -8.145   7.430  66.293  1.00  0.00    -0.117 A  
HETATM   18  C   UNL     1      -9.261   7.099  67.077  1.00  0.00    -0.167 A  
HETATM   19  C   UNL     1     -10.313   8.032  67.092  1.00  0.00    -0.395 A  
HETATM   20  C   UNL     1     -10.276   9.201  66.318  1.00  0.00    -0.257 A  
BRANCH  18  21
HETATM   21  C   UNL     1      -9.347   5.830  67.859  1.00  0.00    -0.107 A  
HETATM   22  C   UNL     1      -9.068   4.608  67.198  1.00  0.00    -0.129 A  
HETATM   23  C   UNL     1      -9.108   3.372  67.852  1.00  0.00    -0.207 A  
HETATM   24  C   UNL     1      -9.454   3.312  69.190  1.00  0.00    -0.189 A  
HETATM   25  C   UNL     1      -9.757   4.491  69.868  1.00  0.00    -0.288 A  
HETATM   26  C   UNL     1      -9.690   5.754  69.234  1.00  0.00    -0.188 A  
BRANCH  26  27
HETATM   27  C   UNL     1      -9.962   6.911  70.078  1.00  0.00    -0.180 A  
HETATM   28  N   UNL     1      -9.011   7.589  70.751  1.00  0.00    -0.149 NA 
HETATM   29  N   UNL     1      -9.761   8.524  71.346  1.00  0.00    -0.198 NA 
HETATM   30  N   UNL     1     -11.071   8.472  71.100  1.00  0.00    -0.249 NA 
HETATM   31  H   UNL     1      -9.354   9.236  71.953  1.00  0.00     0.000 HD 
HETATM   32  N   UNL     1     -11.212   7.454  70.262  1.00  0.00    -0.267 NA 
ENDBRANCH  26  27
ENDBRANCH  18  21
ENDBRANCH  14  15
ENDBRANCH  10  14
ENDBRANCH   4   5
ENDBRANCH   3   4
ENDBRANCH   2   3
TORSDOF 8
ENDMDL
MODEL      146
REMARK 921   NORMALIZED FREE ENERGY PREDICTED BY IDOCK:   -5.02 KCAL/MOL
REMARK 922        TOTAL FREE ENERGY PREDICTED BY IDOCK:   -8.40 KCAL/MOL
REMARK 923 INTER-LIGAND FREE ENERGY PREDICTED BY IDOCK:   -6.89 KCAL/MOL
REMARK 924 INTRA-LIGAND FREE ENERGY PREDICTED BY IDOCK:   -1.51 KCAL/MOL
REMARK 927      BINDING AFFINITY PREDICTED BY RF-SCORE:    0.00 PKD
ROOT
HETATM    1  C   UNL     1      -7.191  18.998  68.672  1.00  0.00    -0.351 C  
HETATM    2  C   UNL     1      -8.638  18.790  68.259  1.00  0.00    -0.357 C  
ENDROOT
BRANCH   2   3
HETATM    3  C   UNL     1      -8.938  17.317  67.965  1.00  0.00    -0.242 C  
BRANCH   3   4
HETATM    4  C   UNL     1     -10.421  17.023  67.711  1.00  0.00    -0.349 C  
BRANCH   4   5
HETATM    5  C   UNL     1     -11.095  16.335  68.858  1.00  0.00    -0.345 A  
HETATM    6  N   UNL     1     -10.977  16.749  70.105  1.00  0.00    -0.140 NA 
HETATM    7  C   UNL     1     -11.724  15.904  70.867  1.00  0.00    -0.420 A  
HETATM    8 CL   UNL     1     -11.845  16.083  72.555  1.00  0.00    -0.607 Cl 
HETATM    9  C   UNL     1     -12.300  14.918  70.091  1.00  0.00    -0.327 A  
HETATM   10  N   UNL     1     -11.872  15.187  68.797  1.00  0.00    -0.324 NA 
BRANCH   9  11
HETATM   11  C   UNL     1     -13.154  13.787  70.510  1.00  0.00     0.051 C  
HETATM   12  H   UNL     1     -12.854  12.073  71.339  1.00  0.00     0.000 HD 
HETATM   13  O   UNL     1     -12.305  12.800  71.070  1.00  0.00    -0.356 OA 
ENDBRANCH   9  11
BRANCH  10  14
HETATM   14  C   UNL     1     -12.000  14.294  67.647  1.00  0.00    -0.365 C  
BRANCH  14  15
HETATM   15  C   UNL     1     -10.951  13.215  67.567  1.00  0.00    -0.282 A  
HETATM   16  C   UNL     1     -11.276  11.881  67.827  1.00  0.00    -0.330 A  
HETATM   17  C   UNL     1     -10.313  10.868  67.712  1.00  0.00    -0.218 A  
HETATM   18  C   UNL     1      -8.973  11.150  67.402  1.00  0.00    -0.139 A  
HETATM   19  C   UNL     1      -8.671  12.490  67.105  1.00  0.00    -0.200 A  
HETATM   20  C   UNL     1      -9.640  13.501  67.173  1.00  0.00    -0.241 A  
BRANCH  18  21
HETATM   21  C   UNL     1      -7.914  10.098  67.385  1.00  0.00    -0.110 A  
HETATM   22  C   UNL     1      -7.291   9.746  68.608  1.00  0.00    -0.074 A  
HETATM   23  C   UNL     1      -6.300   8.762  68.692  1.00  0.00    -0.053 A  
HETATM   24  C   UNL     1      -5.876   8.111  67.547  1.00  0.00    -0.039 A  
HETATM   25  C   UNL     1      -6.450   8.448  66.322  1.00  0.00    -0.054 A  
HETATM   26  C   UNL     1      -7.477   9.415  66.221  1.00  0.00    -0.096 A  
BRANCH  26  27
HETATM   27  C   UNL     1      -8.038   9.619  64.890  1.00  0.00    -0.133 A  
HETATM   28  N   UNL     1      -9.298   9.284  64.548  1.00  0.00    -0.021 NA 
HETATM   29  N   UNL     1      -9.306   9.666  63.266  1.00  0.00    -0.488 NA 
HETATM   30  N   UNL     1      -8.172  10.194  62.801  1.00  0.00    -0.144 NA 
HETATM   31  H   UNL     1     -10.133   9.560  62.677  1.00  0.00     0.000 HD 
HETATM   32  N   UNL     1      -7.354  10.195  63.845  1.00  0.00    -0.132 NA 
ENDBRANCH  26  27
ENDBRANCH  18  21
ENDBRANCH  14  15
ENDBRANCH  10  14
ENDBRANCH   4   5
ENDBRANCH   3   4
ENDBRANCH   2   3
TORSDOF 8
ENDMDL
MODEL      147
REMARK 921   NORMALIZED FREE ENERGY PREDICTED BY IDOCK:   -5.02 KCAL/MOL
REMARK 922        TOTAL FREE ENERGY PREDICTED BY IDOCK:   -8.40 KCAL/MOL
REMARK 923 INTER-LIGAND FREE ENERGY PREDICTED BY IDOCK:   -7.26 KCAL/MOL
REMARK 924 INTRA-LIGAND FREE ENERGY PREDICTED BY IDOCK:   -1.14 KCAL/MOL
REMARK 927      BINDING AFFINITY PREDICTED BY RF-SCORE:    0.00 PKD
ROOT
HETATM    1  C   UNL     1      -6.572  15.832  69.716  1.00  0.00    -0.154 C  
HETATM    2  C   UNL     1      -6.870  16.841  68.619  1.00  0.00    -0.175 C  
ENDROOT
BRANCH   2   3
HETATM    3  C   UNL     1      -7.615  16.197  67.444  1.00  0.00    -0.191 C  
BRANCH   3   4
HETATM    4  C   UNL     1      -8.818  15.344  67.864  1.00  0.00    -0.168 C  
BRANCH   4   5
HETATM    5  C   UNL     1      -9.578  14.778  66.704  1.00  0.00    -0.272 A  
HETATM    6  N   UNL     1     -10.638  15.371  66.190  1.00  0.00    -0.306 NA 
HETATM    7  C   UNL     1     -11.057  14.590  65.156  1.00  0.00    -0.370 A  
HETATM    8 CL   UNL     1     -12.416  14.996  64.215  1.00  0.00    -0.337 Cl 
HETATM    9  C   UNL     1     -10.265  13.467  65.033  1.00  0.00    -0.325 A  
HETATM   10  N   UNL     1      -9.324  13.581  66.050  1.00  0.00    -0.080 NA 
BRANCH   9  11
HETATM   11  C   UNL     1     -10.382  12.348  64.076  1.00  0.00    -0.409 C  
HETATM   12  H   UNL     1     -11.672  10.956  63.740  1.00  0.00     0.000 HD 
HETATM   13  O   UNL     1     -11.597  11.676  64.356  1.00  0.00    -0.287 OA 
ENDBRANCH   9  11
BRANCH  10  14
HETATM   14  C   UNL     1      -8.417  12.528  66.503  1.00  0.00     0.089 C  
BRANCH  14  15
HETATM   15  C   UNL     1      -9.051  11.488  67.390  1.00  0.00    -0.166 A  
HETATM   16  C   UNL     1     -10.402  11.570  67.736  1.00  0.00    -0.204 A  
HETATM   17  C   UNL     1     -11.007  10.581  68.525  1.00  0.00    -0.300 A  
HETATM   18  C   UNL     1     -10.275   9.509  69.060  1.00  0.00    -0.211 A  
HETATM   19  C   UNL     1      -8.927   9.419  68.672  1.00  0.00    -0.132 A  
HETATM   20  C   UNL     1      -8.329  10.380  67.844  1.00  0.00    -0.114 A  
BRANCH  18  21
HETATM   21  C   UNL     1     -10.877   8.511  69.993  1.00  0.00    -0.225 A  
HETATM   22  C   UNL     1     -11.274   8.944  71.282  1.00  0.00    -0.368 A  
HETATM   23  C   UNL     1     -11.861   8.084  72.217  1.00  0.00    -0.424 A  
HETATM   24  C   UNL     1     -12.048   6.749  71.903  1.00  0.00    -0.375 A  
HETATM   25  C   UNL     1     -11.649   6.283  70.652  1.00  0.00    -0.350 A  
HETATM   26  C   UNL     1     -11.085   7.142  69.681  1.00  0.00    -0.206 A  
BRANCH  26  27
HETATM   27  C   UNL     1     -10.778   6.539  68.390  1.00  0.00    -0.279 A  
HETATM   28  N   UNL     1     -11.496   6.757  67.270  1.00  0.00    -0.003 NA 
HETATM   29  N   UNL     1     -10.819   5.997  66.401  1.00  0.00    -0.653 NA 
HETATM   30  N   UNL     1      -9.767   5.338  66.890  1.00  0.00    -0.143 NA 
HETATM   31  H   UNL     1     -11.092   5.926  65.420  1.00  0.00     0.000 HD 
HETATM   32  N   UNL     1      -9.712   5.699  68.165  1.00  0.00    -0.121 NA 
ENDBRANCH  26  27
ENDBRANCH  18  21
ENDBRANCH  14  15
ENDBRANCH  10  14
ENDBRANCH   4   5
ENDBRANCH   3   4
ENDBRANCH   2   3
TORSDOF 8
ENDMDL
MODEL      148
REMARK 921   NORMALIZED FREE ENERGY PREDICTED BY IDOCK:   -5.02 KCAL/MOL
REMARK 922        TOTAL FREE ENERGY PREDICTED BY IDOCK:   -8.40 KCAL/MOL
REMARK 923 INTER-LIGAND FREE ENERGY PREDICTED BY IDOCK:   -7.51 KCAL/MOL
REMARK 924 INTRA-LIGAND FREE ENERGY PREDICTED BY IDOCK:   -0.88 KCAL/MOL
REMARK 927      BINDING AFFINITY PREDICTED BY RF-SCORE:    0.00 PKD
ROOT
HETATM    1  C   UNL     1     -10.384  17.820  66.191  1.00  0.00    -0.340 C  
HETATM    2  C   UNL     1     -10.641  16.454  66.805  1.00  0.00    -0.238 C  
ENDROOT
BRANCH   2   3
HETATM    3  C   UNL     1     -10.837  16.542  68.322  1.00  0.00    -0.352 C  
BRANCH   3   4
HETATM    4  C   UNL     1     -10.113  15.441  69.107  1.00  0.00    -0.235 C  
BRANCH   4   5
HETATM    5  C   UNL     1     -11.041  14.420  69.690  1.00  0.00    -0.202 A  
HETATM    6  N   UNL     1     -11.717  14.627  70.804  1.00  0.00    -0.290 NA 
HETATM    7  C   UNL     1     -12.457  13.505  71.023  1.00  0.00    -0.369 A  
HETATM    8 CL   UNL     1     -13.482  13.352  72.373  1.00  0.00    -0.671 Cl 
HETATM    9  C   UNL     1     -12.220  12.559  70.046  1.00  0.00    -0.192 A  
HETATM   10  N   UNL     1     -11.288  13.146  69.200  1.00  0.00    -0.279 NA 
BRANCH   9  11
HETATM   11  C   UNL     1     -12.781  11.199  69.916  1.00  0.00    -0.008 C  
HETATM   12  H   UNL     1     -12.743   9.589  70.976  1.00  0.00     0.000 HD 
HETATM   13  O   UNL     1     -12.382  10.464  71.060  1.00  0.00    -0.319 OA 
ENDBRANCH   9  11
BRANCH  10  14
HETATM   14  C   UNL     1     -10.525  12.463  68.156  1.00  0.00    -0.219 C  
BRANCH  14  15
HETATM   15  C   UNL     1     -10.216  11.017  68.444  1.00  0.00    -0.198 A  
HETATM   16  C   UNL     1     -10.810   9.996  67.698  1.00  0.00    -0.336 A  
HETATM   17  C   UNL     1     -10.492   8.651  67.934  1.00  0.00    -0.269 A  
HETATM   18  C   UNL     1      -9.625   8.264  68.968  1.00  0.00    -0.156 A  
HETATM   19  C   UNL     1      -9.006   9.303  69.684  1.00  0.00    -0.164 A  
HETATM   20  C   UNL     1      -9.284  10.652  69.421  1.00  0.00    -0.073 A  
BRANCH  18  21
HETATM   21  C   UNL     1      -9.363   6.833  69.305  1.00  0.00    -0.144 A  
HETATM   22  C   UNL     1      -8.315   6.161  68.629  1.00  0.00    -0.114 A  
HETATM   23  C   UNL     1      -7.986   4.826  68.889  1.00  0.00    -0.076 A  
HETATM   24  C   UNL     1      -8.714   4.106  69.819  1.00  0.00    -0.117 A  
HETATM   25  C   UNL     1      -9.768   4.728  70.488  1.00  0.00    -0.281 A  
HETATM   26  C   UNL     1     -10.094   6.086  70.264  1.00  0.00    -0.249 A  
BRANCH  26  27
HETATM   27  C   UNL     1     -11.172   6.630  71.081  1.00  0.00    -0.292 A  
HETATM   28  N   UNL     1     -10.991   7.149  72.312  1.00  0.00    -0.234 NA 
HETATM   29  N   UNL     1     -12.249   7.493  72.613  1.00  0.00    -0.550 NA 
HETATM   30  N   UNL     1     -13.170   7.227  71.684  1.00  0.00    -0.378 NA 
HETATM   31  H   UNL     1     -12.490   7.934  73.500  1.00  0.00     0.000 HD 
HETATM   32  N   UNL     1     -12.486   6.696  70.680  1.00  0.00    -0.168 NA 
ENDBRANCH  26  27
ENDBRANCH  18  21
ENDBRANCH  14  15
ENDBRANCH  10  14
ENDBRANCH   4   5
ENDBRANCH   3   4
ENDBRANCH   2   3
TORSDOF 8
ENDMDL
MODEL      149
REMARK 921   NORMALIZED FREE ENERGY PREDICTED BY IDOCK:   -5.00 KCAL/MOL
REMARK 922        TOTAL FREE ENERGY PREDICTED BY IDOCK:   -8.36 KCAL/MOL
REMARK 923 INTER-LIGAND FREE ENERGY PREDICTED BY IDOCK:   -6.13 KCAL/MOL
REMARK 924 INTRA-LIGAND FREE ENERGY PREDICTED BY IDOCK:   -2.23 KCAL/MOL
REMARK 927      BINDING AFFINITY PREDICTED BY RF-SCORE:    0.00 PKD
ROOT
HETATM    1  C   UNL     1      -9.024   3.912  69.977  1.00  0.00    -0.165 C  
HETATM    2  C   UNL     1      -8.746   4.844  71.145  1.00  0.00    -0.143 C  
ENDROOT
BRANCH   2   3
HETATM    3  C   UNL     1      -9.999   5.624  71.558  1.00  0.00    -0.230 C  
BRANCH   3   4
HETATM    4  C   UNL     1      -9.699   6.968  72.232  1.00  0.00    -0.169 C  
BRANCH   4   5
HETATM    5  C   UNL     1     -10.740   8.011  71.966  1.00  0.00    -0.258 A  
HETATM    6  N   UNL     1     -11.965   7.933  72.447  1.00  0.00    -0.335 NA 
HETATM    7  C   UNL     1     -12.623   9.045  72.019  1.00  0.00    -0.394 A  
HETATM    8 CL   UNL     1     -14.252   9.339  72.418  1.00  0.00    -0.369 Cl 
HETATM    9  C   UNL     1     -11.807   9.826  71.226  1.00  0.00    -0.399 A  
HETATM   10  N   UNL     1     -10.599   9.143  71.175  1.00  0.00    -0.281 NA 
BRANCH   9  11
HETATM   11  C   UNL     1     -12.123  11.092  70.531  1.00  0.00    -0.377 C  
HETATM   12  H   UNL     1     -12.736  11.577  68.770  1.00  0.00     0.000 HD 
HETATM   13  O   UNL     1     -12.533  10.763  69.216  1.00  0.00    -0.356 OA 
ENDBRANCH   9  11
BRANCH  10  14
HETATM   14  C   UNL     1      -9.491   9.422  70.264  1.00  0.00    -0.251 C  
BRANCH  14  15
HETATM   15  C   UNL     1      -9.381   8.478  69.095  1.00  0.00    -0.153 A  
HETATM   16  C   UNL     1     -10.434   8.339  68.187  1.00  0.00    -0.226 A  
HETATM   17  C   UNL     1     -10.320   7.494  67.073  1.00  0.00    -0.395 A  
HETATM   18  C   UNL     1      -9.182   6.701  66.858  1.00  0.00    -0.158 A  
HETATM   19  C   UNL     1      -8.117   6.880  67.758  1.00  0.00    -0.114 A  
HETATM   20  C   UNL     1      -8.208   7.759  68.847  1.00  0.00    -0.127 A  
BRANCH  18  21
HETATM   21  C   UNL     1      -9.090   5.714  65.741  1.00  0.00    -0.139 A  
HETATM   22  C   UNL     1      -9.763   4.475  65.877  1.00  0.00    -0.210 A  
HETATM   23  C   UNL     1      -9.747   3.496  64.877  1.00  0.00    -0.157 A  
HETATM   24  C   UNL     1      -9.030   3.712  63.713  1.00  0.00    -0.098 A  
HETATM   25  C   UNL     1      -8.336   4.911  63.554  1.00  0.00    -0.122 A  
HETATM   26  C   UNL     1      -8.368   5.926  64.538  1.00  0.00    -0.069 A  
BRANCH  26  27
HETATM   27  C   UNL     1      -7.657   7.157  64.213  1.00  0.00    -0.112 A  
HETATM   28  N   UNL     1      -8.240   8.235  63.652  1.00  0.00    -0.126 NA 
HETATM   29  N   UNL     1      -7.189   9.058  63.568  1.00  0.00    -0.092 NA 
HETATM   30  N   UNL     1      -6.028   8.578  64.019  1.00  0.00    -0.066 NA 
HETATM   31  H   UNL     1      -7.269   9.999  63.181  1.00  0.00     0.000 HD 
HETATM   32  N   UNL     1      -6.321   7.364  64.464  1.00  0.00    -0.040 NA 
ENDBRANCH  26  27
ENDBRANCH  18  21
ENDBRANCH  14  15
ENDBRANCH  10  14
ENDBRANCH   4   5
ENDBRANCH   3   4
ENDBRANCH   2   3
TORSDOF 8
ENDMDL
MODEL      150
REMARK 921   NORMALIZED FREE ENERGY PREDICTED BY IDOCK:   -4.99 KCAL/MOL
REMARK 922        TOTAL FREE ENERGY PREDICTED BY IDOCK:   -8.34 KCAL/MOL
REMARK 923 INTER-LIGAND FREE ENERGY PREDICTED BY IDOCK:   -6.85 KCAL/MOL
REMARK 924 INTRA-LIGAND FREE ENERGY PREDICTED BY IDOCK:   -1.49 KCAL/MOL
REMARK 927      BINDING AFFINITY PREDICTED BY RF-SCORE:    0.00 PKD
ROOT
HETATM    1  C   UNL     1     -11.106  12.516  63.458  1.00  0.00    -0.497 C  
HETATM    2  C   UNL     1     -12.146  13.225  64.309  1.00  0.00    -0.475 C  
ENDROOT
BRANCH   2   3
HETATM    3  C   UNL     1     -11.722  14.658  64.645  1.00  0.00    -0.431 C  
BRANCH   3   4
HETATM    4  C   UNL     1     -11.509  14.908  66.142  1.00  0.00    -0.272 C  
BRANCH   4   5
HETATM    5  C   UNL     1     -10.120  15.353  66.479  1.00  0.00    -0.271 A  
HETATM    6  N   UNL     1      -9.447  16.211  65.736  1.00  0.00    -0.439 NA 
HETATM    7  C   UNL     1      -8.242  16.390  66.343  1.00  0.00    -0.331 A  
HETATM    8 CL   UNL     1      -7.056  17.429  65.702  1.00  0.00     0.028 Cl 
HETATM    9  C   UNL     1      -8.139  15.607  67.475  1.00  0.00    -0.160 A  
HETATM   10  N   UNL     1      -9.345  14.921  67.546  1.00  0.00    -0.190 NA 
BRANCH   9  11
HETATM   11  C   UNL     1      -7.000  15.467  68.407  1.00  0.00    -0.115 C  
HETATM   12  H   UNL     1      -5.200  14.790  68.285  1.00  0.00     0.000 HD 
HETATM   13  O   UNL     1      -5.932  14.880  67.686  1.00  0.00    -0.263 OA 
ENDBRANCH   9  11
BRANCH  10  14
HETATM   14  C   UNL     1      -9.637  13.784  68.417  1.00  0.00    -0.206 C  
BRANCH  14  15
HETATM   15  C   UNL     1      -9.434  12.433  67.780  1.00  0.00    -0.199 A  
HETATM   16  C   UNL     1     -10.521  11.699  67.299  1.00  0.00    -0.247 A  
HETATM   17  C   UNL     1     -10.333  10.462  66.667  1.00  0.00    -0.292 A  
HETATM   18  C   UNL     1      -9.064   9.873  66.552  1.00  0.00    -0.179 A  
HETATM   19  C   UNL     1      -7.977  10.641  67.005  1.00  0.00    -0.121 A  
HETATM   20  C   UNL     1      -8.155  11.900  67.596  1.00  0.00    -0.148 A  
BRANCH  18  21
HETATM   21  C   UNL     1      -8.860   8.508  65.983  1.00  0.00    -0.208 A  
HETATM   22  C   UNL     1      -8.146   8.383  64.765  1.00  0.00    -0.155 A  
HETATM   23  C   UNL     1      -7.892   7.144  64.166  1.00  0.00    -0.113 A  
HETATM   24  C   UNL     1      -8.367   5.985  64.752  1.00  0.00    -0.086 A  
HETATM   25  C   UNL     1      -9.093   6.071  65.939  1.00  0.00    -0.117 A  
HETATM   26  C   UNL     1      -9.331   7.309  66.578  1.00  0.00    -0.216 A  
BRANCH  26  27
HETATM   27  C   UNL     1     -10.042   7.249  67.850  1.00  0.00    -0.177 A  
HETATM   28  N   UNL     1      -9.731   8.006  68.921  1.00  0.00    -0.156 NA 
HETATM   29  N   UNL     1     -10.653   7.579  69.792  1.00  0.00    -0.238 NA 
HETATM   30  N   UNL     1     -11.486   6.634  69.350  1.00  0.00    -0.273 NA 
HETATM   31  H   UNL     1     -10.715   7.954  70.738  1.00  0.00     0.000 HD 
HETATM   32  N   UNL     1     -11.122   6.431  68.092  1.00  0.00    -0.306 NA 
ENDBRANCH  26  27
ENDBRANCH  18  21
ENDBRANCH  14  15
ENDBRANCH  10  14
ENDBRANCH   4   5
ENDBRANCH   3   4
ENDBRANCH   2   3
TORSDOF 8
ENDMDL
MODEL      151
REMARK 921   NORMALIZED FREE ENERGY PREDICTED BY IDOCK:   -4.98 KCAL/MOL
REMARK 922        TOTAL FREE ENERGY PREDICTED BY IDOCK:   -8.34 KCAL/MOL
REMARK 923 INTER-LIGAND FREE ENERGY PREDICTED BY IDOCK:   -6.44 KCAL/MOL
REMARK 924 INTRA-LIGAND FREE ENERGY PREDICTED BY IDOCK:   -1.90 KCAL/MOL
REMARK 927      BINDING AFFINITY PREDICTED BY RF-SCORE:    0.00 PKD
ROOT
HETATM    1  C   UNL     1      -6.585   7.132  67.577  1.00  0.00    -0.059 C  
HETATM    2  C   UNL     1      -5.761   8.246  66.954  1.00  0.00    -0.041 C  
ENDROOT
BRANCH   2   3
HETATM    3  C   UNL     1      -6.335   9.628  67.283  1.00  0.00    -0.068 C  
BRANCH   3   4
HETATM    4  C   UNL     1      -6.964  10.342  66.081  1.00  0.00    -0.126 C  
BRANCH   4   5
HETATM    5  C   UNL     1      -8.154  11.177  66.442  1.00  0.00    -0.159 A  
HETATM    6  N   UNL     1      -8.046  12.371  66.992  1.00  0.00    -0.157 NA 
HETATM    7  C   UNL     1      -9.314  12.835  67.168  1.00  0.00    -0.216 A  
HETATM    8 CL   UNL     1      -9.628  14.357  67.860  1.00  0.00    -0.214 Cl 
HETATM    9  C   UNL     1     -10.242  11.903  66.749  1.00  0.00    -0.206 A  
HETATM   10  N   UNL     1      -9.489  10.824  66.303  1.00  0.00    -0.176 NA 
BRANCH   9  11
HETATM   11  C   UNL     1     -11.717  11.980  66.789  1.00  0.00    -0.264 C  
HETATM   12  H   UNL     1     -13.085  11.486  68.054  1.00  0.00     0.000 HD 
HETATM   13  O   UNL     1     -12.137  11.437  68.029  1.00  0.00    -0.629 OA 
ENDBRANCH   9  11
BRANCH  10  14
HETATM   14  C   UNL     1      -9.999   9.490  65.994  1.00  0.00    -0.278 C  
BRANCH  14  15
HETATM   15  C   UNL     1     -10.126   8.572  67.183  1.00  0.00    -0.331 A  
HETATM   16  C   UNL     1     -10.685   7.299  67.047  1.00  0.00    -0.406 A  
HETATM   17  C   UNL     1     -10.766   6.426  68.141  1.00  0.00    -0.359 A  
HETATM   18  C   UNL     1     -10.359   6.810  69.428  1.00  0.00    -0.221 A  
HETATM   19  C   UNL     1      -9.763   8.079  69.541  1.00  0.00    -0.170 A  
HETATM   20  C   UNL     1      -9.637   8.938  68.441  1.00  0.00    -0.157 A  
BRANCH  18  21
HETATM   21  C   UNL     1     -10.541   5.935  70.624  1.00  0.00    -0.334 A  
HETATM   22  C   UNL     1     -11.386   6.386  71.669  1.00  0.00    -0.339 A  
HETATM   23  C   UNL     1     -11.629   5.627  72.820  1.00  0.00    -0.289 A  
HETATM   24  C   UNL     1     -11.013   4.399  72.978  1.00  0.00    -0.289 A  
HETATM   25  C   UNL     1     -10.158   3.933  71.981  1.00  0.00    -0.220 A  
HETATM   26  C   UNL     1      -9.925   4.668  70.795  1.00  0.00    -0.284 A  
BRANCH  26  27
HETATM   27  C   UNL     1      -9.065   4.033  69.804  1.00  0.00    -0.115 A  
HETATM   28  N   UNL     1      -7.780   4.381  69.592  1.00  0.00    -0.054 NA 
HETATM   29  N   UNL     1      -7.459   3.524  68.616  1.00  0.00    -0.053 NA 
HETATM   30  N   UNL     1      -8.427   2.696  68.218  1.00  0.00    -0.070 NA 
HETATM   31  H   UNL     1      -6.527   3.503  68.201  1.00  0.00     0.000 HD 
HETATM   32  N   UNL     1      -9.460   2.994  68.993  1.00  0.00    -0.151 NA 
ENDBRANCH  26  27
ENDBRANCH  18  21
ENDBRANCH  14  15
ENDBRANCH  10  14
ENDBRANCH   4   5
ENDBRANCH   3   4
ENDBRANCH   2   3
TORSDOF 8
ENDMDL
MODEL      152
REMARK 921   NORMALIZED FREE ENERGY PREDICTED BY IDOCK:   -4.97 KCAL/MOL
REMARK 922        TOTAL FREE ENERGY PREDICTED BY IDOCK:   -8.32 KCAL/MOL
REMARK 923 INTER-LIGAND FREE ENERGY PREDICTED BY IDOCK:   -7.17 KCAL/MOL
REMARK 924 INTRA-LIGAND FREE ENERGY PREDICTED BY IDOCK:   -1.15 KCAL/MOL
REMARK 927      BINDING AFFINITY PREDICTED BY RF-SCORE:    0.00 PKD
ROOT
HETATM    1  C   UNL     1      -9.351   3.529  65.598  1.00  0.00    -0.158 C  
HETATM    2  C   UNL     1      -9.997   4.897  65.741  1.00  0.00    -0.191 C  
ENDROOT
BRANCH   2   3
HETATM    3  C   UNL     1     -10.444   5.166  67.181  1.00  0.00    -0.224 C  
BRANCH   3   4
HETATM    4  C   UNL     1      -9.431   4.714  68.240  1.00  0.00    -0.200 C  
BRANCH   4   5
HETATM    5  C   UNL     1      -9.637   5.364  69.574  1.00  0.00    -0.149 A  
HETATM    6  N   UNL     1     -10.546   4.950  70.434  1.00  0.00    -0.097 NA 
HETATM    7  C   UNL     1     -10.443   5.754  71.528  1.00  0.00    -0.235 A  
HETATM    8 CL   UNL     1     -11.448   5.561  72.887  1.00  0.00    -0.351 Cl 
HETATM    9  C   UNL     1      -9.469   6.715  71.343  1.00  0.00    -0.158 A  
HETATM   10  N   UNL     1      -8.967   6.473  70.070  1.00  0.00    -0.143 NA 
BRANCH   9  11
HETATM   11  C   UNL     1      -9.052   7.802  72.252  1.00  0.00    -0.149 C  
HETATM   12  H   UNL     1      -7.918   7.936  73.805  1.00  0.00     0.000 HD 
HETATM   13  O   UNL     1      -8.186   7.236  73.220  1.00  0.00    -0.105 OA 
ENDBRANCH   9  11
BRANCH  10  14
HETATM   14  C   UNL     1      -8.097   7.365  69.306  1.00  0.00    -0.123 C  
BRANCH  14  15
HETATM   15  C   UNL     1      -8.785   8.573  68.725  1.00  0.00    -0.139 A  
HETATM   16  C   UNL     1      -8.215   9.844  68.838  1.00  0.00    -0.118 A  
HETATM   17  C   UNL     1      -8.830  10.964  68.261  1.00  0.00    -0.140 A  
HETATM   18  C   UNL     1     -10.071  10.877  67.611  1.00  0.00    -0.206 A  
HETATM   19  C   UNL     1     -10.612   9.587  67.472  1.00  0.00    -0.338 A  
HETATM   20  C   UNL     1      -9.978   8.456  68.005  1.00  0.00    -0.221 A  
BRANCH  18  21
HETATM   21  C   UNL     1     -10.792  12.076  67.090  1.00  0.00    -0.297 A  
HETATM   22  C   UNL     1     -11.355  12.983  68.022  1.00  0.00    -0.327 A  
HETATM   23  C   UNL     1     -12.035  14.141  67.628  1.00  0.00    -0.405 A  
HETATM   24  C   UNL     1     -12.199  14.420  66.283  1.00  0.00    -0.366 A  
HETATM   25  C   UNL     1     -11.678  13.538  65.337  1.00  0.00    -0.351 A  
HETATM   26  C   UNL     1     -10.958  12.380  65.715  1.00  0.00    -0.333 A  
BRANCH  26  27
HETATM   27  C   UNL     1     -10.407  11.583  64.625  1.00  0.00    -0.297 A  
HETATM   28  N   UNL     1     -11.069  11.315  63.482  1.00  0.00    -0.303 NA 
HETATM   29  N   UNL     1     -10.153  10.578  62.843  1.00  0.00    -0.670 NA 
HETATM   30  N   UNL     1      -9.006  10.372  63.493  1.00  0.00    -0.211 NA 
HETATM   31  H   UNL     1     -10.323  10.195  61.913  1.00  0.00     0.000 HD 
HETATM   32  N   UNL     1      -9.145  11.037  64.631  1.00  0.00    -0.164 NA 
ENDBRANCH  26  27
ENDBRANCH  18  21
ENDBRANCH  14  15
ENDBRANCH  10  14
ENDBRANCH   4   5
ENDBRANCH   3   4
ENDBRANCH   2   3
TORSDOF 8
ENDMDL
MODEL      153
REMARK 921   NORMALIZED FREE ENERGY PREDICTED BY IDOCK:   -4.95 KCAL/MOL
REMARK 922        TOTAL FREE ENERGY PREDICTED BY IDOCK:   -8.29 KCAL/MOL
REMARK 923 INTER-LIGAND FREE ENERGY PREDICTED BY IDOCK:   -7.09 KCAL/MOL
REMARK 924 INTRA-LIGAND FREE ENERGY PREDICTED BY IDOCK:   -1.20 KCAL/MOL
REMARK 927      BINDING AFFINITY PREDICTED BY RF-SCORE:    0.00 PKD
ROOT
HETATM    1  C   UNL     1     -12.238   6.724  70.475  1.00  0.00    -0.253 C  
HETATM    2  C   UNL     1     -13.099   7.225  71.622  1.00  0.00    -0.417 C  
ENDROOT
BRANCH   2   3
HETATM    3  C   UNL     1     -12.569   8.543  72.196  1.00  0.00    -0.431 C  
BRANCH   3   4
HETATM    4  C   UNL     1     -12.140   9.557  71.129  1.00  0.00    -0.429 C  
BRANCH   4   5
HETATM    5  C   UNL     1     -10.712   9.406  70.705  1.00  0.00    -0.290 A  
HETATM    6  N   UNL     1      -9.743   9.127  71.555  1.00  0.00    -0.285 NA 
HETATM    7  C   UNL     1      -8.596   9.052  70.826  1.00  0.00    -0.217 A  
HETATM    8 CL   UNL     1      -7.092   8.711  71.546  1.00  0.00    -0.087 Cl 
HETATM    9  C   UNL     1      -8.839   9.318  69.494  1.00  0.00    -0.151 A  
HETATM   10  N   UNL     1     -10.204   9.569  69.424  1.00  0.00    -0.195 NA 
BRANCH   9  11
HETATM   11  C   UNL     1      -7.883   9.376  68.369  1.00  0.00    -0.090 C  
HETATM   12  H   UNL     1      -7.253   8.134  67.036  1.00  0.00     0.000 HD 
HETATM   13  O   UNL     1      -7.867   8.097  67.760  1.00  0.00    -0.114 OA 
ENDBRANCH   9  11
BRANCH  10  14
HETATM   14  C   UNL     1     -10.914  10.144  68.283  1.00  0.00    -0.248 C  
BRANCH  14  15
HETATM   15  C   UNL     1     -10.581  11.584  67.994  1.00  0.00    -0.222 A  
HETATM   16  C   UNL     1      -9.980  11.950  66.786  1.00  0.00    -0.215 A  
HETATM   17  C   UNL     1      -9.708  13.295  66.494  1.00  0.00    -0.273 A  
HETATM   18  C   UNL     1      -9.958  14.320  67.420  1.00  0.00    -0.242 A  
HETATM   19  C   UNL     1     -10.598  13.941  68.613  1.00  0.00    -0.265 A  
HETATM   20  C   UNL     1     -10.915  12.604  68.891  1.00  0.00    -0.273 A  
BRANCH  18  21
HETATM   21  C   UNL     1      -9.572  15.740  67.170  1.00  0.00    -0.224 A  
HETATM   22  C   UNL     1     -10.518  16.600  66.559  1.00  0.00    -0.262 A  
HETATM   23  C   UNL     1     -10.251  17.949  66.301  1.00  0.00    -0.363 A  
HETATM   24  C   UNL     1      -9.015  18.481  66.621  1.00  0.00    -0.298 A  
HETATM   25  C   UNL     1      -8.051  17.659  67.203  1.00  0.00    -0.233 A  
HETATM   26  C   UNL     1      -8.312  16.302  67.503  1.00  0.00    -0.174 A  
BRANCH  26  27
HETATM   27  C   UNL     1      -7.241  15.576  68.176  1.00  0.00    -0.117 A  
HETATM   28  N   UNL     1      -7.074  15.555  69.513  1.00  0.00    -0.191 NA 
HETATM   29  N   UNL     1      -5.990  14.775  69.606  1.00  0.00    -0.106 NA 
HETATM   30  N   UNL     1      -5.486  14.329  68.453  1.00  0.00    -0.100 NA 
HETATM   31  H   UNL     1      -5.573  14.536  70.506  1.00  0.00     0.000 HD 
HETATM   32  N   UNL     1      -6.299  14.815  67.525  1.00  0.00    -0.320 NA 
ENDBRANCH  26  27
ENDBRANCH  18  21
ENDBRANCH  14  15
ENDBRANCH  10  14
ENDBRANCH   4   5
ENDBRANCH   3   4
ENDBRANCH   2   3
TORSDOF 8
ENDMDL
MODEL      154
REMARK 921   NORMALIZED FREE ENERGY PREDICTED BY IDOCK:   -4.95 KCAL/MOL
REMARK 922        TOTAL FREE ENERGY PREDICTED BY IDOCK:   -8.29 KCAL/MOL
REMARK 923 INTER-LIGAND FREE ENERGY PREDICTED BY IDOCK:   -7.38 KCAL/MOL
REMARK 924 INTRA-LIGAND FREE ENERGY PREDICTED BY IDOCK:   -0.91 KCAL/MOL
REMARK 927      BINDING AFFINITY PREDICTED BY RF-SCORE:    0.00 PKD
ROOT
HETATM    1  C   UNL     1      -6.720   2.280  69.621  1.00  0.00    -0.033 C  
HETATM    2  C   UNL     1      -6.440   3.548  70.412  1.00  0.00    -0.032 C  
ENDROOT
BRANCH   2   3
HETATM    3  C   UNL     1      -7.736   4.243  70.844  1.00  0.00    -0.059 C  
BRANCH   3   4
HETATM    4  C   UNL     1      -8.046   5.523  70.059  1.00  0.00    -0.090 C  
BRANCH   4   5
HETATM    5  C   UNL     1      -9.210   6.288  70.608  1.00  0.00    -0.158 A  
HETATM    6  N   UNL     1     -10.314   5.701  71.028  1.00  0.00    -0.222 NA 
HETATM    7  C   UNL     1     -11.140   6.691  71.464  1.00  0.00    -0.256 A  
HETATM    8 CL   UNL     1     -12.687   6.362  72.092  1.00  0.00    -0.188 Cl 
HETATM    9  C   UNL     1     -10.559   7.931  71.289  1.00  0.00    -0.211 A  
HETATM   10  N   UNL     1      -9.322   7.667  70.714  1.00  0.00    -0.161 NA 
BRANCH   9  11
HETATM   11  C   UNL     1     -11.113   9.267  71.593  1.00  0.00    -0.368 C  
HETATM   12  H   UNL     1     -12.563  10.339  70.915  1.00  0.00     0.000 HD 
HETATM   13  O   UNL     1     -12.207   9.480  70.719  1.00  0.00    -0.273 OA 
ENDBRANCH   9  11
BRANCH  10  14
HETATM   14  C   UNL     1      -8.431   8.652  70.105  1.00  0.00    -0.135 C  
BRANCH  14  15
HETATM   15  C   UNL     1      -9.032   9.424  68.959  1.00  0.00    -0.141 A  
HETATM   16  C   UNL     1      -8.700  10.765  68.748  1.00  0.00    -0.163 A  
HETATM   17  C   UNL     1      -9.224  11.475  67.658  1.00  0.00    -0.171 A  
HETATM   18  C   UNL     1     -10.154  10.902  66.777  1.00  0.00    -0.259 A  
HETATM   19  C   UNL     1     -10.448   9.542  66.980  1.00  0.00    -0.302 A  
HETATM   20  C   UNL     1      -9.891   8.813  68.040  1.00  0.00    -0.201 A  
BRANCH  18  21
HETATM   21  C   UNL     1     -10.806  11.676  65.680  1.00  0.00    -0.330 A  
HETATM   22  C   UNL     1     -10.720  11.177  64.357  1.00  0.00    -0.388 A  
HETATM   23  C   UNL     1     -11.313  11.825  63.268  1.00  0.00    -0.347 A  
HETATM   24  C   UNL     1     -11.993  13.015  63.461  1.00  0.00    -0.615 A  
HETATM   25  C   UNL     1     -12.079  13.548  64.746  1.00  0.00    -0.442 A  
HETATM   26  C   UNL     1     -11.516  12.891  65.865  1.00  0.00    -0.387 A  
BRANCH  26  27
HETATM   27  C   UNL     1     -11.740  13.522  67.160  1.00  0.00    -0.379 A  
HETATM   28  N   UNL     1     -12.399  12.933  68.177  1.00  0.00     0.024 NA 
HETATM   29  N   UNL     1     -12.327  13.901  69.100  1.00  0.00    -0.439 NA 
HETATM   30  N   UNL     1     -11.693  15.017  68.734  1.00  0.00    -0.333 NA 
HETATM   31  H   UNL     1     -12.734  13.791  70.029  1.00  0.00     0.000 HD 
HETATM   32  N   UNL     1     -11.285  14.776  67.495  1.00  0.00    -0.320 NA 
ENDBRANCH  26  27
ENDBRANCH  18  21
ENDBRANCH  14  15
ENDBRANCH  10  14
ENDBRANCH   4   5
ENDBRANCH   3   4
ENDBRANCH   2   3
TORSDOF 8
ENDMDL
MODEL      155
REMARK 921   NORMALIZED FREE ENERGY PREDICTED BY IDOCK:   -4.94 KCAL/MOL
REMARK 922        TOTAL FREE ENERGY PREDICTED BY IDOCK:   -8.28 KCAL/MOL
REMARK 923 INTER-LIGAND FREE ENERGY PREDICTED BY IDOCK:   -6.53 KCAL/MOL
REMARK 924 INTRA-LIGAND FREE ENERGY PREDICTED BY IDOCK:   -1.75 KCAL/MOL
REMARK 927      BINDING AFFINITY PREDICTED BY RF-SCORE:    0.00 PKD
ROOT
HETATM    1  C   UNL     1     -11.615  12.777  66.028  1.00  0.00    -0.432 C  
HETATM    2  C   UNL     1     -11.056  12.683  67.439  1.00  0.00    -0.315 C  
ENDROOT
BRANCH   2   3
HETATM    3  C   UNL     1     -12.111  12.190  68.435  1.00  0.00    -0.096 C  
BRANCH   3   4
HETATM    4  C   UNL     1     -11.632  12.177  69.891  1.00  0.00    -0.297 C  
BRANCH   4   5
HETATM    5  C   UNL     1     -11.906  10.884  70.595  1.00  0.00    -0.352 A  
HETATM    6  N   UNL     1     -13.023  10.658  71.258  1.00  0.00    -0.400 NA 
HETATM    7  C   UNL     1     -12.933   9.393  71.752  1.00  0.00    -0.402 A  
HETATM    8 CL   UNL     1     -14.177   8.698  72.683  1.00  0.00    -0.365 Cl 
HETATM    9  C   UNL     1     -11.723   8.819  71.420  1.00  0.00    -0.305 A  
HETATM   10  N   UNL     1     -11.053   9.795  70.693  1.00  0.00    -0.306 NA 
BRANCH   9  11
HETATM   11  C   UNL     1     -11.199   7.484  71.776  1.00  0.00    -0.246 C  
HETATM   12  H   UNL     1     -10.350   6.707  73.322  1.00  0.00     0.000 HD 
HETATM   13  O   UNL     1     -10.686   7.566  73.094  1.00  0.00    -0.348 OA 
ENDBRANCH   9  11
BRANCH  10  14
HETATM   14  C   UNL     1      -9.637   9.775  70.330  1.00  0.00    -0.208 C  
BRANCH  14  15
HETATM   15  C   UNL     1      -9.328   9.077  69.031  1.00  0.00    -0.140 A  
HETATM   16  C   UNL     1      -8.066   8.524  68.799  1.00  0.00    -0.120 A  
HETATM   17  C   UNL     1      -7.787   7.835  67.610  1.00  0.00    -0.123 A  
HETATM   18  C   UNL     1      -8.730   7.730  66.575  1.00  0.00    -0.162 A  
HETATM   19  C   UNL     1     -10.007   8.257  66.839  1.00  0.00    -0.343 A  
HETATM   20  C   UNL     1     -10.305   8.906  68.045  1.00  0.00    -0.271 A  
BRANCH  18  21
HETATM   21  C   UNL     1      -8.414   7.098  65.260  1.00  0.00    -0.060 A  
HETATM   22  C   UNL     1      -8.139   7.941  64.154  1.00  0.00    -0.093 A  
HETATM   23  C   UNL     1      -7.817   7.440  62.888  1.00  0.00    -0.130 A  
HETATM   24  C   UNL     1      -7.785   6.073  62.676  1.00  0.00    -0.083 A  
HETATM   25  C   UNL     1      -8.072   5.213  63.735  1.00  0.00    -0.115 A  
HETATM   26  C   UNL     1      -8.366   5.699  65.030  1.00  0.00    -0.146 A  
BRANCH  26  27
HETATM   27  C   UNL     1      -8.577   4.690  66.061  1.00  0.00    -0.115 A  
HETATM   28  N   UNL     1      -7.580   3.996  66.647  1.00  0.00    -0.087 NA 
HETATM   29  N   UNL     1      -8.285   3.231  67.489  1.00  0.00    -0.081 NA 
HETATM   30  N   UNL     1      -9.610   3.394  67.463  1.00  0.00    -0.174 NA 
HETATM   31  H   UNL     1      -7.836   2.562  68.115  1.00  0.00     0.000 HD 
HETATM   32  N   UNL     1      -9.810   4.351  66.567  1.00  0.00    -0.215 NA 
ENDBRANCH  26  27
ENDBRANCH  18  21
ENDBRANCH  14  15
ENDBRANCH  10  14
ENDBRANCH   4   5
ENDBRANCH   3   4
ENDBRANCH   2   3
TORSDOF 8
ENDMDL
MODEL      156
REMARK 921   NORMALIZED FREE ENERGY PREDICTED BY IDOCK:   -4.94 KCAL/MOL
REMARK 922        TOTAL FREE ENERGY PREDICTED BY IDOCK:   -8.28 KCAL/MOL
REMARK 923 INTER-LIGAND FREE ENERGY PREDICTED BY IDOCK:   -7.72 KCAL/MOL
REMARK 924 INTRA-LIGAND FREE ENERGY PREDICTED BY IDOCK:   -0.56 KCAL/MOL
REMARK 927      BINDING AFFINITY PREDICTED BY RF-SCORE:    0.00 PKD
ROOT
HETATM    1  C   UNL     1      -8.164   4.685  65.996  1.00  0.00    -0.110 C  
HETATM    2  C   UNL     1      -8.859   5.455  67.106  1.00  0.00    -0.109 C  
ENDROOT
BRANCH   2   3
HETATM    3  C   UNL     1     -10.349   5.653  66.812  1.00  0.00    -0.316 C  
BRANCH   3   4
HETATM    4  C   UNL     1     -10.906   6.996  67.298  1.00  0.00    -0.403 C  
BRANCH   4   5
HETATM    5  C   UNL     1     -10.518   7.325  68.706  1.00  0.00    -0.200 A  
HETATM    6  N   UNL     1     -11.244   6.966  69.747  1.00  0.00    -0.281 NA 
HETATM    7  C   UNL     1     -10.591   7.417  70.852  1.00  0.00    -0.223 A  
HETATM    8 CL   UNL     1     -11.196   7.166  72.423  1.00  0.00    -0.290 Cl 
HETATM    9  C   UNL     1      -9.444   8.101  70.502  1.00  0.00    -0.163 A  
HETATM   10  N   UNL     1      -9.413   8.059  69.114  1.00  0.00    -0.155 NA 
BRANCH   9  11
HETATM   11  C   UNL     1      -8.464   8.779  71.376  1.00  0.00    -0.188 C  
HETATM   12  H   UNL     1      -8.345   9.177  73.258  1.00  0.00     0.000 HD 
HETATM   13  O   UNL     1      -8.976   8.742  72.696  1.00  0.00    -0.380 OA 
ENDBRANCH   9  11
BRANCH  10  14
HETATM   14  C   UNL     1      -8.539   8.850  68.250  1.00  0.00    -0.134 C  
BRANCH  14  15
HETATM   15  C   UNL     1      -8.891  10.313  68.166  1.00  0.00    -0.123 A  
HETATM   16  C   UNL     1     -10.224  10.731  68.195  1.00  0.00    -0.194 A  
HETATM   17  C   UNL     1     -10.553  12.094  68.161  1.00  0.00    -0.236 A  
HETATM   18  C   UNL     1      -9.575  13.091  68.024  1.00  0.00    -0.224 A  
HETATM   19  C   UNL     1      -8.237  12.657  68.035  1.00  0.00    -0.167 A  
HETATM   20  C   UNL     1      -7.900  11.298  68.117  1.00  0.00    -0.127 A  
BRANCH  18  21
HETATM   21  C   UNL     1      -9.915  14.536  67.874  1.00  0.00    -0.226 A  
HETATM   22  C   UNL     1      -9.383  15.457  68.810  1.00  0.00    -0.209 A  
HETATM   23  C   UNL     1      -9.634  16.832  68.740  1.00  0.00    -0.260 A  
HETATM   24  C   UNL     1     -10.451  17.333  67.742  1.00  0.00    -0.371 A  
HETATM   25  C   UNL     1     -11.010  16.454  66.816  1.00  0.00     0.011 A  
HETATM   26  C   UNL     1     -10.742  15.066  66.849  1.00  0.00    -0.308 A  
BRANCH  26  27
HETATM   27  C   UNL     1     -11.334  14.272  65.779  1.00  0.00    -0.326 A  
HETATM   28  N   UNL     1     -12.642  13.951  65.719  1.00  0.00    -0.504 NA 
HETATM   29  N   UNL     1     -12.661  13.241  64.584  1.00  0.00    -0.683 NA 
HETATM   30  N   UNL     1     -11.491  13.100  63.959  1.00  0.00    -0.397 NA 
HETATM   31  H   UNL     1     -13.521  12.833  64.218  1.00  0.00     0.000 HD 
HETATM   32  N   UNL     1     -10.631  13.782  64.703  1.00  0.00    -0.425 NA 
ENDBRANCH  26  27
ENDBRANCH  18  21
ENDBRANCH  14  15
ENDBRANCH  10  14
ENDBRANCH   4   5
ENDBRANCH   3   4
ENDBRANCH   2   3
TORSDOF 8
ENDMDL
MODEL      157
REMARK 921   NORMALIZED FREE ENERGY PREDICTED BY IDOCK:   -4.94 KCAL/MOL
REMARK 922        TOTAL FREE ENERGY PREDICTED BY IDOCK:   -8.28 KCAL/MOL
REMARK 923 INTER-LIGAND FREE ENERGY PREDICTED BY IDOCK:   -7.62 KCAL/MOL
REMARK 924 INTRA-LIGAND FREE ENERGY PREDICTED BY IDOCK:   -0.65 KCAL/MOL
REMARK 927      BINDING AFFINITY PREDICTED BY RF-SCORE:    0.00 PKD
ROOT
HETATM    1  C   UNL     1     -10.757  18.536  65.851  1.00  0.00    -0.237 C  
HETATM    2  C   UNL     1      -9.688  19.608  65.984  1.00  0.00    -0.421 C  
ENDROOT
BRANCH   2   3
HETATM    3  C   UNL     1      -9.406  19.949  67.451  1.00  0.00    -0.468 C  
BRANCH   3   4
HETATM    4  C   UNL     1      -8.062  20.650  67.679  1.00  0.00    -0.198 C  
BRANCH   4   5
HETATM    5  C   UNL     1      -7.191  19.955  68.679  1.00  0.00    -0.288 A  
HETATM    6  N   UNL     1      -6.749  20.547  69.772  1.00  0.00    -0.057 NA 
HETATM    7  C   UNL     1      -6.008  19.624  70.443  1.00  0.00    -0.258 A  
HETATM    8 CL   UNL     1      -5.245  19.982  71.921  1.00  0.00    -0.398 Cl 
HETATM    9  C   UNL     1      -5.955  18.433  69.746  1.00  0.00    -0.239 A  
HETATM   10  N   UNL     1      -6.702  18.659  68.596  1.00  0.00    -0.257 NA 
BRANCH   9  11
HETATM   11  C   UNL     1      -5.241  17.187  70.090  1.00  0.00    -0.208 C  
HETATM   12  H   UNL     1      -4.698  16.320  71.724  1.00  0.00     0.000 HD 
HETATM   13  O   UNL     1      -5.157  17.122  71.503  1.00  0.00    -0.413 OA 
ENDBRANCH   9  11
BRANCH  10  14
HETATM   14  C   UNL     1      -6.745  17.797  67.417  1.00  0.00    -0.164 C  
BRANCH  14  15
HETATM   15  C   UNL     1      -7.642  16.594  67.547  1.00  0.00    -0.177 A  
HETATM   16  C   UNL     1      -7.479  15.486  66.711  1.00  0.00     0.019 A  
HETATM   17  C   UNL     1      -8.283  14.347  66.857  1.00  0.00    -0.048 A  
HETATM   18  C   UNL     1      -9.328  14.291  67.793  1.00  0.00    -0.198 A  
HETATM   19  C   UNL     1      -9.455  15.397  68.652  1.00  0.00    -0.205 A  
HETATM   20  C   UNL     1      -8.622  16.520  68.542  1.00  0.00    -0.223 A  
BRANCH  18  21
HETATM   21  C   UNL     1     -10.264  13.132  67.886  1.00  0.00    -0.233 A  
HETATM   22  C   UNL     1     -10.100  12.215  68.954  1.00  0.00    -0.012 A  
HETATM   23  C   UNL     1     -10.939  11.109  69.132  1.00  0.00    -0.295 A  
HETATM   24  C   UNL     1     -11.957  10.865  68.228  1.00  0.00    -0.024 A  
HETATM   25  C   UNL     1     -12.134  11.733  67.152  1.00  0.00     0.292 A  
HETATM   26  C   UNL     1     -11.320  12.875  66.974  1.00  0.00    -0.355 A  
BRANCH  26  27
HETATM   27  C   UNL     1     -11.659  13.736  65.847  1.00  0.00    -0.333 A  
HETATM   28  N   UNL     1     -11.203  14.996  65.702  1.00  0.00    -0.341 NA 
HETATM   29  N   UNL     1     -11.789  15.330  64.546  1.00  0.00    -0.522 NA 
HETATM   30  N   UNL     1     -12.556  14.394  63.983  1.00  0.00    -0.784 NA 
HETATM   31  H   UNL     1     -11.656  16.247  64.119  1.00  0.00     0.000 HD 
HETATM   32  N   UNL     1     -12.460  13.352  64.797  1.00  0.00    -0.576 NA 
ENDBRANCH  26  27
ENDBRANCH  18  21
ENDBRANCH  14  15
ENDBRANCH  10  14
ENDBRANCH   4   5
ENDBRANCH   3   4
ENDBRANCH   2   3
TORSDOF 8
ENDMDL
MODEL      158
REMARK 921   NORMALIZED FREE ENERGY PREDICTED BY IDOCK:   -4.91 KCAL/MOL
REMARK 922        TOTAL FREE ENERGY PREDICTED BY IDOCK:   -8.23 KCAL/MOL
REMARK 923 INTER-LIGAND FREE ENERGY PREDICTED BY IDOCK:   -7.76 KCAL/MOL
REMARK 924 INTRA-LIGAND FREE ENERGY PREDICTED BY IDOCK:   -0.48 KCAL/MOL
REMARK 927      BINDING AFFINITY PREDICTED BY RF-SCORE:    0.00 PKD
ROOT
HETATM    1  C   UNL     1     -14.356  14.275  71.944  1.00  0.00    -0.597 C  
HETATM    2  C   UNL     1     -13.317  13.330  72.524  1.00  0.00    -0.569 C  
ENDROOT
BRANCH   2   3
HETATM    3  C   UNL     1     -13.541  11.887  72.061  1.00  0.00    -0.190 C  
BRANCH   3   4
HETATM    4  C   UNL     1     -12.340  11.275  71.330  1.00  0.00    -0.308 C  
BRANCH   4   5
HETATM    5  C   UNL     1     -12.381   9.779  71.269  1.00  0.00    -0.371 A  
HETATM    6  N   UNL     1     -13.224   9.061  71.985  1.00  0.00    -0.395 NA 
HETATM    7  C   UNL     1     -12.989   7.757  71.671  1.00  0.00    -0.345 A  
HETATM    8 CL   UNL     1     -13.869   6.486  72.382  1.00  0.00     0.167 Cl 
HETATM    9  C   UNL     1     -11.958   7.648  70.761  1.00  0.00    -0.169 A  
HETATM   10  N   UNL     1     -11.552   8.955  70.522  1.00  0.00    -0.213 NA 
BRANCH   9  11
HETATM   11  C   UNL     1     -11.359   6.429  70.178  1.00  0.00    -0.420 C  
HETATM   12  H   UNL     1      -9.829   5.326  70.572  1.00  0.00     0.000 HD 
HETATM   13  O   UNL     1     -10.213   6.110  70.947  1.00  0.00    -0.190 OA 
ENDBRANCH   9  11
BRANCH  10  14
HETATM   14  C   UNL     1     -10.332   9.363  69.828  1.00  0.00    -0.223 C  
BRANCH  14  15
HETATM   15  C   UNL     1     -10.507  10.509  68.865  1.00  0.00    -0.226 A  
HETATM   16  C   UNL     1      -9.433  11.344  68.545  1.00  0.00    -0.183 A  
HETATM   17  C   UNL     1      -9.580  12.384  67.616  1.00  0.00    -0.193 A  
HETATM   18  C   UNL     1     -10.818  12.680  67.023  1.00  0.00    -0.282 A  
HETATM   19  C   UNL     1     -11.878  11.808  67.326  1.00  0.00    -0.186 A  
HETATM   20  C   UNL     1     -11.725  10.737  68.218  1.00  0.00    -0.205 A  
BRANCH  18  21
HETATM   21  C   UNL     1     -11.017  13.852  66.120  1.00  0.00    -0.293 A  
HETATM   22  C   UNL     1     -11.632  13.637  64.861  1.00  0.00    -0.360 A  
HETATM   23  C   UNL     1     -11.874  14.676  63.956  1.00  0.00    -0.135 A  
HETATM   24  C   UNL     1     -11.485  15.967  64.268  1.00  0.00    -0.197 A  
HETATM   25  C   UNL     1     -10.857  16.212  65.488  1.00  0.00    -0.280 A  
HETATM   26  C   UNL     1     -10.633  15.182  66.431  1.00  0.00    -0.305 A  
BRANCH  26  27
HETATM   27  C   UNL     1     -10.032  15.589  67.695  1.00  0.00    -0.233 A  
HETATM   28  N   UNL     1     -10.690  15.597  68.871  1.00  0.00    -0.227 NA 
HETATM   29  N   UNL     1      -9.722  16.034  69.684  1.00  0.00    -0.223 NA 
HETATM   30  N   UNL     1      -8.545  16.295  69.110  1.00  0.00    -0.241 NA 
HETATM   31  H   UNL     1      -9.874  16.161  70.685  1.00  0.00     0.000 HD 
HETATM   32  N   UNL     1      -8.722  15.986  67.833  1.00  0.00    -0.165 NA 
ENDBRANCH  26  27
ENDBRANCH  18  21
ENDBRANCH  14  15
ENDBRANCH  10  14
ENDBRANCH   4   5
ENDBRANCH   3   4
ENDBRANCH   2   3
TORSDOF 8
ENDMDL
MODEL      159
REMARK 921   NORMALIZED FREE ENERGY PREDICTED BY IDOCK:   -4.91 KCAL/MOL
REMARK 922        TOTAL FREE ENERGY PREDICTED BY IDOCK:   -8.23 KCAL/MOL
REMARK 923 INTER-LIGAND FREE ENERGY PREDICTED BY IDOCK:   -7.24 KCAL/MOL
REMARK 924 INTRA-LIGAND FREE ENERGY PREDICTED BY IDOCK:   -0.99 KCAL/MOL
REMARK 927      BINDING AFFINITY PREDICTED BY RF-SCORE:    0.00 PKD
ROOT
HETATM    1  C   UNL     1      -9.393   3.093  65.373  1.00  0.00    -0.127 C  
HETATM    2  C   UNL     1      -9.420   4.604  65.538  1.00  0.00    -0.178 C  
ENDROOT
BRANCH   2   3
HETATM    3  C   UNL     1     -10.745   5.084  66.139  1.00  0.00    -0.264 C  
BRANCH   3   4
HETATM    4  C   UNL     1     -10.580   6.124  67.253  1.00  0.00    -0.362 C  
BRANCH   4   5
HETATM    5  C   UNL     1      -9.165   6.581  67.436  1.00  0.00    -0.121 A  
HETATM    6  N   UNL     1      -8.283   5.899  68.140  1.00  0.00    -0.108 NA 
HETATM    7  C   UNL     1      -7.115   6.595  68.079  1.00  0.00    -0.089 A  
HETATM    8 CL   UNL     1      -5.704   6.058  68.866  1.00  0.00    -0.011 Cl 
HETATM    9  C   UNL     1      -7.269   7.755  67.348  1.00  0.00    -0.091 A  
HETATM   10  N   UNL     1      -8.601   7.753  66.953  1.00  0.00    -0.127 NA 
BRANCH   9  11
HETATM   11  C   UNL     1      -6.276   8.811  67.061  1.00  0.00    -0.059 C  
HETATM   12  H   UNL     1      -5.470  10.248  68.061  1.00  0.00     0.000 HD 
HETATM   13  O   UNL     1      -6.109   9.569  68.246  1.00  0.00    -0.047 OA 
ENDBRANCH   9  11
BRANCH  10  14
HETATM   14  C   UNL     1      -9.327   8.881  66.373  1.00  0.00    -0.204 C  
BRANCH  14  15
HETATM   15  C   UNL     1     -10.064   9.738  67.370  1.00  0.00    -0.259 A  
HETATM   16  C   UNL     1      -9.800   9.630  68.738  1.00  0.00    -0.173 A  
HETATM   17  C   UNL     1     -10.452  10.456  69.666  1.00  0.00    -0.279 A  
HETATM   18  C   UNL     1     -11.443  11.370  69.277  1.00  0.00    -0.370 A  
HETATM   19  C   UNL     1     -11.670  11.494  67.895  1.00  0.00    -0.317 A  
HETATM   20  C   UNL     1     -10.987  10.704  66.959  1.00  0.00    -0.274 A  
BRANCH  18  21
HETATM   21  C   UNL     1     -12.225  12.175  70.262  1.00  0.00    -0.344 A  
HETATM   22  C   UNL     1     -12.271  13.582  70.099  1.00  0.00    -0.400 A  
HETATM   23  C   UNL     1     -12.991  14.416  70.962  1.00  0.00    -0.416 A  
HETATM   24  C   UNL     1     -13.671  13.872  72.038  1.00  0.00    -0.577 A  
HETATM   25  C   UNL     1     -13.630  12.494  72.242  1.00  0.00    -0.443 A  
HETATM   26  C   UNL     1     -12.936  11.631  71.362  1.00  0.00    -0.426 A  
BRANCH  26  27
HETATM   27  C   UNL     1     -13.033  10.205  71.653  1.00  0.00    -0.456 A  
HETATM   28  N   UNL     1     -13.909   9.375  71.052  1.00  0.00    -0.101 NA 
HETATM   29  N   UNL     1     -13.596   8.221  71.654  1.00  0.00    -0.404 NA 
HETATM   30  N   UNL     1     -12.620   8.278  72.563  1.00  0.00    -0.272 NA 
HETATM   31  H   UNL     1     -14.076   7.349  71.431  1.00  0.00     0.000 HD 
HETATM   32  N   UNL     1     -12.229   9.545  72.553  1.00  0.00     0.052 NA 
ENDBRANCH  26  27
ENDBRANCH  18  21
ENDBRANCH  14  15
ENDBRANCH  10  14
ENDBRANCH   4   5
ENDBRANCH   3   4
ENDBRANCH   2   3
TORSDOF 8
ENDMDL
MODEL      160
REMARK 921   NORMALIZED FREE ENERGY PREDICTED BY IDOCK:   -4.90 KCAL/MOL
REMARK 922        TOTAL FREE ENERGY PREDICTED BY IDOCK:   -8.22 KCAL/MOL
REMARK 923 INTER-LIGAND FREE ENERGY PREDICTED BY IDOCK:   -7.67 KCAL/MOL
REMARK 924 INTRA-LIGAND FREE ENERGY PREDICTED BY IDOCK:   -0.54 KCAL/MOL
REMARK 927      BINDING AFFINITY PREDICTED BY RF-SCORE:    0.00 PKD
ROOT
HETATM    1  C   UNL     1      -7.161  17.425  68.308  1.00  0.00    -0.214 C  
HETATM    2  C   UNL     1      -6.194  16.369  67.800  1.00  0.00    -0.158 C  
ENDROOT
BRANCH   2   3
HETATM    3  C   UNL     1      -6.929  15.119  67.304  1.00  0.00    -0.123 C  
BRANCH   3   4
HETATM    4  C   UNL     1      -8.392  15.039  67.754  1.00  0.00    -0.158 C  
BRANCH   4   5
HETATM    5  C   UNL     1      -9.334  14.673  66.649  1.00  0.00    -0.271 A  
HETATM    6  N   UNL     1     -10.212  15.523  66.152  1.00  0.00    -0.286 NA 
HETATM    7  C   UNL     1     -10.881  14.861  65.169  1.00  0.00    -0.414 A  
HETATM    8 CL   UNL     1     -12.118  15.601  64.264  1.00  0.00    -0.234 Cl 
HETATM    9  C   UNL     1     -10.438  13.558  65.062  1.00  0.00    -0.376 A  
HETATM   10  N   UNL     1      -9.455  13.435  66.036  1.00  0.00    -0.154 NA 
BRANCH   9  11
HETATM   11  C   UNL     1     -10.907  12.488  64.157  1.00  0.00    -0.382 C  
HETATM   12  H   UNL     1     -12.153  12.377  62.691  1.00  0.00     0.000 HD 
HETATM   13  O   UNL     1     -11.852  13.065  63.273  1.00  0.00    -0.534 OA 
ENDBRANCH   9  11
BRANCH  10  14
HETATM   14  C   UNL     1      -8.854  12.184  66.497  1.00  0.00    -0.151 C  
BRANCH  14  15
HETATM   15  C   UNL     1      -9.620  11.481  67.588  1.00  0.00    -0.176 A  
HETATM   16  C   UNL     1      -8.950  10.831  68.627  1.00  0.00    -0.162 A  
HETATM   17  C   UNL     1      -9.659  10.212  69.667  1.00  0.00    -0.237 A  
HETATM   18  C   UNL     1     -11.061  10.154  69.677  1.00  0.00    -0.308 A  
HETATM   19  C   UNL     1     -11.721  10.845  68.646  1.00  0.00    -0.334 A  
HETATM   20  C   UNL     1     -11.018  11.506  67.628  1.00  0.00    -0.296 A  
BRANCH  18  21
HETATM   21  C   UNL     1     -11.828   9.404  70.715  1.00  0.00    -0.323 A  
HETATM   22  C   UNL     1     -12.703  10.127  71.563  1.00  0.00    -0.541 A  
HETATM   23  C   UNL     1     -13.474   9.508  72.553  1.00  0.00    -0.381 A  
HETATM   24  C   UNL     1     -13.376   8.142  72.749  1.00  0.00     0.238 A  
HETATM   25  C   UNL     1     -12.508   7.401  71.949  1.00  0.00    -0.334 A  
HETATM   26  C   UNL     1     -11.746   8.003  70.921  1.00  0.00    -0.265 A  
BRANCH  26  27
HETATM   27  C   UNL     1     -10.933   7.101  70.113  1.00  0.00    -0.267 A  
HETATM   28  N   UNL     1      -9.640   6.819  70.374  1.00  0.00    -0.169 NA 
HETATM   29  N   UNL     1      -9.374   5.973  69.372  1.00  0.00    -0.131 NA 
HETATM   30  N   UNL     1     -10.379   5.722  68.531  1.00  0.00    -0.196 NA 
HETATM   31  H   UNL     1      -8.455   5.544  69.259  1.00  0.00     0.000 HD 
HETATM   32  N   UNL     1     -11.398   6.421  69.012  1.00  0.00    -0.335 NA 
ENDBRANCH  26  27
ENDBRANCH  18  21
ENDBRANCH  14  15
ENDBRANCH  10  14
ENDBRANCH   4   5
ENDBRANCH   3   4
ENDBRANCH   2   3
TORSDOF 8
ENDMDL
MODEL      161
REMARK 921   NORMALIZED FREE ENERGY PREDICTED BY IDOCK:   -4.90 KCAL/MOL
REMARK 922        TOTAL FREE ENERGY PREDICTED BY IDOCK:   -8.22 KCAL/MOL
REMARK 923 INTER-LIGAND FREE ENERGY PREDICTED BY IDOCK:   -7.39 KCAL/MOL
REMARK 924 INTRA-LIGAND FREE ENERGY PREDICTED BY IDOCK:   -0.82 KCAL/MOL
REMARK 927      BINDING AFFINITY PREDICTED BY RF-SCORE:    0.00 PKD
ROOT
HETATM    1  C   UNL     1     -12.355  12.160  70.750  1.00  0.00    -0.391 C  
HETATM    2  C   UNL     1     -12.753  13.623  70.650  1.00  0.00    -0.303 C  
ENDROOT
BRANCH   2   3
HETATM    3  C   UNL     1     -11.764  14.423  69.796  1.00  0.00    -0.361 C  
BRANCH   3   4
HETATM    4  C   UNL     1     -11.981  14.270  68.286  1.00  0.00    -0.346 C  
BRANCH   4   5
HETATM    5  C   UNL     1     -11.021  13.318  67.641  1.00  0.00    -0.262 A  
HETATM    6  N   UNL     1     -11.416  12.265  66.954  1.00  0.00    -0.339 NA 
HETATM    7  C   UNL     1     -10.289  11.645  66.509  1.00  0.00    -0.224 A  
HETATM    8 CL   UNL     1     -10.351  10.224  65.573  1.00  0.00    -0.294 Cl 
HETATM    9  C   UNL     1      -9.158  12.302  66.950  1.00  0.00    -0.208 A  
HETATM   10  N   UNL     1      -9.635  13.370  67.700  1.00  0.00    -0.213 NA 
BRANCH   9  11
HETATM   11  C   UNL     1      -7.738  11.956  66.730  1.00  0.00    -0.051 C  
HETATM   12  H   UNL     1      -6.532  10.610  67.399  1.00  0.00     0.000 HD 
HETATM   13  O   UNL     1      -7.446  10.832  67.541  1.00  0.00    -0.090 OA 
ENDBRANCH   9  11
BRANCH  10  14
HETATM   14  C   UNL     1      -8.843  14.219  68.586  1.00  0.00    -0.150 C  
BRANCH  14  15
HETATM   15  C   UNL     1      -8.205  15.409  67.916  1.00  0.00    -0.150 A  
HETATM   16  C   UNL     1      -6.815  15.523  67.835  1.00  0.00    -0.164 A  
HETATM   17  C   UNL     1      -6.217  16.606  67.174  1.00  0.00    -0.212 A  
HETATM   18  C   UNL     1      -6.977  17.655  66.631  1.00  0.00    -0.257 A  
HETATM   19  C   UNL     1      -8.374  17.506  66.687  1.00  0.00    -0.291 A  
HETATM   20  C   UNL     1      -8.977  16.401  67.305  1.00  0.00    -0.208 A  
BRANCH  18  21
HETATM   21  C   UNL     1      -6.355  18.869  66.025  1.00  0.00    -0.236 A  
HETATM   22  C   UNL     1      -6.152  18.895  64.623  1.00  0.00    -0.210 A  
HETATM   23  C   UNL     1      -5.591  19.995  63.964  1.00  0.00    -0.284 A  
HETATM   24  C   UNL     1      -5.187  21.101  64.691  1.00  0.00    -0.228 A  
HETATM   25  C   UNL     1      -5.350  21.101  66.075  1.00  0.00    -0.258 A  
HETATM   26  C   UNL     1      -5.946  20.014  66.756  1.00  0.00    -0.190 A  
BRANCH  26  27
HETATM   27  C   UNL     1      -6.120  20.175  68.195  1.00  0.00    -0.251 A  
HETATM   28  N   UNL     1      -7.235  19.813  68.860  1.00  0.00    -0.329 NA 
HETATM   29  N   UNL     1      -6.892  20.160  70.106  1.00  0.00    -0.144 NA 
HETATM   30  N   UNL     1      -5.680  20.700  70.254  1.00  0.00    -0.497 NA 
HETATM   31  H   UNL     1      -7.520  20.020  70.898  1.00  0.00     0.000 HD 
HETATM   32  N   UNL     1      -5.160  20.690  69.034  1.00  0.00    -0.250 NA 
ENDBRANCH  26  27
ENDBRANCH  18  21
ENDBRANCH  14  15
ENDBRANCH  10  14
ENDBRANCH   4   5
ENDBRANCH   3   4
ENDBRANCH   2   3
TORSDOF 8
ENDMDL
MODEL      162
REMARK 921   NORMALIZED FREE ENERGY PREDICTED BY IDOCK:   -4.89 KCAL/MOL
REMARK 922        TOTAL FREE ENERGY PREDICTED BY IDOCK:   -8.21 KCAL/MOL
REMARK 923 INTER-LIGAND FREE ENERGY PREDICTED BY IDOCK:   -6.82 KCAL/MOL
REMARK 924 INTRA-LIGAND FREE ENERGY PREDICTED BY IDOCK:   -1.39 KCAL/MOL
REMARK 927      BINDING AFFINITY PREDICTED BY RF-SCORE:    0.00 PKD
ROOT
HETATM    1  C   UNL     1     -14.076   8.845  72.404  1.00  0.00    -0.493 C  
HETATM    2  C   UNL     1     -14.133   7.610  71.519  1.00  0.00    -0.535 C  
ENDROOT
BRANCH   2   3
HETATM    3  C   UNL     1     -12.745   6.994  71.316  1.00  0.00    -0.400 C  
BRANCH   3   4
HETATM    4  C   UNL     1     -11.641   8.024  71.051  1.00  0.00    -0.303 C  
BRANCH   4   5
HETATM    5  C   UNL     1     -10.336   7.675  71.697  1.00  0.00    -0.189 A  
HETATM    6  N   UNL     1      -9.926   8.231  72.820  1.00  0.00    -0.283 NA 
HETATM    7  C   UNL     1      -8.720   7.673  73.114  1.00  0.00    -0.172 A  
HETATM    8 CL   UNL     1      -7.834   8.117  74.497  1.00  0.00    -0.286 Cl 
HETATM    9  C   UNL     1      -8.346   6.768  72.141  1.00  0.00    -0.107 A  
HETATM   10  N   UNL     1      -9.382   6.790  71.216  1.00  0.00    -0.165 NA 
BRANCH   9  11
HETATM   11  C   UNL     1      -7.108   5.966  72.046  1.00  0.00    -0.087 C  
HETATM   12  H   UNL     1      -5.281   6.312  71.540  1.00  0.00     0.000 HD 
HETATM   13  O   UNL     1      -6.077   6.829  71.601  1.00  0.00    -0.037 OA 
ENDBRANCH   9  11
BRANCH  10  14
HETATM   14  C   UNL     1      -9.353   6.199  69.879  1.00  0.00    -0.149 C  
BRANCH  14  15
HETATM   15  C   UNL     1      -9.454   7.191  68.749  1.00  0.00    -0.141 A  
HETATM   16  C   UNL     1      -8.524   8.225  68.620  1.00  0.00    -0.125 A  
HETATM   17  C   UNL     1      -8.589   9.124  67.545  1.00  0.00    -0.116 A  
HETATM   18  C   UNL     1      -9.622   9.073  66.596  1.00  0.00    -0.274 A  
HETATM   19  C   UNL     1     -10.527   8.003  66.718  1.00  0.00    -0.319 A  
HETATM   20  C   UNL     1     -10.439   7.073  67.764  1.00  0.00    -0.282 A  
BRANCH  18  21
HETATM   21  C   UNL     1      -9.769  10.088  65.512  1.00  0.00    -0.355 A  
HETATM   22  C   UNL     1     -10.577  11.226  65.758  1.00  0.00    -0.306 A  
HETATM   23  C   UNL     1     -10.761  12.237  64.808  1.00  0.00    -0.338 A  
HETATM   24  C   UNL     1     -10.163  12.132  63.565  1.00  0.00    -0.453 A  
HETATM   25  C   UNL     1      -9.379  11.015  63.280  1.00  0.00    -0.319 A  
HETATM   26  C   UNL     1      -9.153   9.999  64.237  1.00  0.00    -0.296 A  
BRANCH  26  27
HETATM   27  C   UNL     1      -8.256   8.923  63.832  1.00  0.00    -0.171 A  
HETATM   28  N   UNL     1      -6.997   8.782  64.294  1.00  0.00    -0.088 NA 
HETATM   29  N   UNL     1      -6.623   7.680  63.634  1.00  0.00    -0.057 NA 
HETATM   30  N   UNL     1      -7.533   7.147  62.816  1.00  0.00    -0.088 NA 
HETATM   31  H   UNL     1      -5.696   7.270  63.750  1.00  0.00     0.000 HD 
HETATM   32  N   UNL     1      -8.600   7.922  62.954  1.00  0.00     0.117 NA 
ENDBRANCH  26  27
ENDBRANCH  18  21
ENDBRANCH  14  15
ENDBRANCH  10  14
ENDBRANCH   4   5
ENDBRANCH   3   4
ENDBRANCH   2   3
TORSDOF 8
ENDMDL
MODEL      163
REMARK 921   NORMALIZED FREE ENERGY PREDICTED BY IDOCK:   -4.87 KCAL/MOL
REMARK 922        TOTAL FREE ENERGY PREDICTED BY IDOCK:   -8.18 KCAL/MOL
REMARK 923 INTER-LIGAND FREE ENERGY PREDICTED BY IDOCK:   -6.97 KCAL/MOL
REMARK 924 INTRA-LIGAND FREE ENERGY PREDICTED BY IDOCK:   -1.21 KCAL/MOL
REMARK 927      BINDING AFFINITY PREDICTED BY RF-SCORE:    0.00 PKD
ROOT
HETATM    1  C   UNL     1     -11.413  10.478  70.513  1.00  0.00    -0.433 C  
HETATM    2  C   UNL     1     -12.361  11.644  70.738  1.00  0.00    -0.454 C  
ENDROOT
BRANCH   2   3
HETATM    3  C   UNL     1     -12.329  12.633  69.568  1.00  0.00    -0.002 C  
BRANCH   3   4
HETATM    4  C   UNL     1     -10.925  12.885  69.004  1.00  0.00    -0.244 C  
BRANCH   4   5
HETATM    5  C   UNL     1     -10.934  13.560  67.668  1.00  0.00    -0.263 A  
HETATM    6  N   UNL     1     -10.745  14.858  67.525  1.00  0.00    -0.271 NA 
HETATM    7  C   UNL     1     -10.806  15.116  66.190  1.00  0.00    -0.330 A  
HETATM    8 CL   UNL     1     -10.614  16.687  65.566  1.00  0.00    -0.335 Cl 
HETATM    9  C   UNL     1     -11.068  13.963  65.477  1.00  0.00    -0.304 A  
HETATM   10  N   UNL     1     -11.173  12.965  66.438  1.00  0.00    -0.289 NA 
BRANCH   9  11
HETATM   11  C   UNL     1     -11.247  13.793  64.020  1.00  0.00    -0.091 C  
HETATM   12  H   UNL     1     -12.724  13.942  62.790  1.00  0.00     0.000 HD 
HETATM   13  O   UNL     1     -12.609  14.051  63.727  1.00  0.00    -0.772 OA 
ENDBRANCH   9  11
BRANCH  10  14
HETATM   14  C   UNL     1     -11.690  11.615  66.221  1.00  0.00     0.094 C  
BRANCH  14  15
HETATM   15  C   UNL     1     -10.649  10.526  66.267  1.00  0.00    -0.203 A  
HETATM   16  C   UNL     1     -10.405   9.819  67.447  1.00  0.00    -0.297 A  
HETATM   17  C   UNL     1      -9.468   8.776  67.482  1.00  0.00    -0.173 A  
HETATM   18  C   UNL     1      -8.686   8.443  66.365  1.00  0.00    -0.159 A  
HETATM   19  C   UNL     1      -8.971   9.136  65.175  1.00  0.00    -0.238 A  
HETATM   20  C   UNL     1      -9.940  10.149  65.122  1.00  0.00    -0.379 A  
BRANCH  18  21
HETATM   21  C   UNL     1      -7.608   7.412  66.417  1.00  0.00    -0.088 A  
HETATM   22  C   UNL     1      -6.301   7.819  66.784  1.00  0.00    -0.054 A  
HETATM   23  C   UNL     1      -5.231   6.922  66.875  1.00  0.00    -0.017 A  
HETATM   24  C   UNL     1      -5.425   5.585  66.575  1.00  0.00    -0.013 A  
HETATM   25  C   UNL     1      -6.692   5.152  66.188  1.00  0.00    -0.054 A  
HETATM   26  C   UNL     1      -7.794   6.037  66.123  1.00  0.00    -0.104 A  
BRANCH  26  27
HETATM   27  C   UNL     1      -9.077   5.438  65.773  1.00  0.00    -0.154 A  
HETATM   28  N   UNL     1     -10.184   5.537  66.537  1.00  0.00    -0.214 NA 
HETATM   29  N   UNL     1     -11.050   4.840  65.792  1.00  0.00    -0.876 NA 
HETATM   30  N   UNL     1     -10.571   4.328  64.656  1.00  0.00    -0.165 NA 
HETATM   31  H   UNL     1     -12.021   4.708  66.076  1.00  0.00     0.000 HD 
HETATM   32  N   UNL     1      -9.308   4.729  64.618  1.00  0.00    -0.089 NA 
ENDBRANCH  26  27
ENDBRANCH  18  21
ENDBRANCH  14  15
ENDBRANCH  10  14
ENDBRANCH   4   5
ENDBRANCH   3   4
ENDBRANCH   2   3
TORSDOF 8
ENDMDL
MODEL      164
REMARK 921   NORMALIZED FREE ENERGY PREDICTED BY IDOCK:   -4.87 KCAL/MOL
REMARK 922        TOTAL FREE ENERGY PREDICTED BY IDOCK:   -8.18 KCAL/MOL
REMARK 923 INTER-LIGAND FREE ENERGY PREDICTED BY IDOCK:   -7.57 KCAL/MOL
REMARK 924 INTRA-LIGAND FREE ENERGY PREDICTED BY IDOCK:   -0.61 KCAL/MOL
REMARK 927      BINDING AFFINITY PREDICTED BY RF-SCORE:    0.00 PKD
ROOT
HETATM    1  C   UNL     1     -12.861   8.391  71.803  1.00  0.00    -0.371 C  
HETATM    2  C   UNL     1     -13.131   9.822  71.366  1.00  0.00    -0.489 C  
ENDROOT
BRANCH   2   3
HETATM    3  C   UNL     1     -11.867  10.498  70.827  1.00  0.00    -0.465 C  
BRANCH   3   4
HETATM    4  C   UNL     1     -12.143  11.610  69.808  1.00  0.00    -0.357 C  
BRANCH   4   5
HETATM    5  C   UNL     1     -11.644  11.292  68.432  1.00  0.00    -0.308 A  
HETATM    6  N   UNL     1     -11.046  10.154  68.138  1.00  0.00    -0.258 NA 
HETATM    7  C   UNL     1     -10.743  10.205  66.812  1.00  0.00    -0.121 A  
HETATM    8 CL   UNL     1      -9.952   8.925  66.018  1.00  0.00    -0.298 Cl 
HETATM    9  C   UNL     1     -11.129  11.412  66.264  1.00  0.00    -0.221 A  
HETATM   10  N   UNL     1     -11.690  12.120  67.320  1.00  0.00    -0.521 NA 
BRANCH   9  11
HETATM   11  C   UNL     1     -10.963  11.899  64.879  1.00  0.00    -0.313 C  
HETATM   12  H   UNL     1     -10.306  11.151  63.229  1.00  0.00     0.000 HD 
HETATM   13  O   UNL     1     -10.412  10.837  64.120  1.00  0.00    -0.364 OA 
ENDBRANCH   9  11
BRANCH  10  14
HETATM   14  C   UNL     1     -12.021  13.544  67.320  1.00  0.00    -0.365 C  
BRANCH  14  15
HETATM   15  C   UNL     1     -10.881  14.457  67.687  1.00  0.00    -0.276 A  
HETATM   16  C   UNL     1     -10.442  14.558  69.010  1.00  0.00    -0.241 A  
HETATM   17  C   UNL     1      -9.353  15.374  69.349  1.00  0.00    -0.266 A  
HETATM   18  C   UNL     1      -8.703  16.176  68.398  1.00  0.00    -0.190 A  
HETATM   19  C   UNL     1      -9.130  16.034  67.066  1.00  0.00    -0.234 A  
HETATM   20  C   UNL     1     -10.188  15.184  66.714  1.00  0.00    -0.265 A  
BRANCH  18  21
HETATM   21  C   UNL     1      -7.616  17.133  68.762  1.00  0.00    -0.259 A  
HETATM   22  C   UNL     1      -7.699  18.463  68.281  1.00  0.00    -0.308 A  
HETATM   23  C   UNL     1      -6.737  19.434  68.583  1.00  0.00    -0.329 A  
HETATM   24  C   UNL     1      -5.640  19.099  69.357  1.00  0.00    -0.226 A  
HETATM   25  C   UNL     1      -5.514  17.794  69.829  1.00  0.00    -0.217 A  
HETATM   26  C   UNL     1      -6.492  16.807  69.564  1.00  0.00    -0.225 A  
BRANCH  26  27
HETATM   27  C   UNL     1      -6.271  15.503  70.177  1.00  0.00    -0.099 A  
HETATM   28  N   UNL     1      -6.400  15.263  71.497  1.00  0.00     0.831 NA 
HETATM   29  N   UNL     1      -6.099  13.959  71.533  1.00  0.00    -0.547 NA 
HETATM   30  N   UNL     1      -5.797  13.393  70.363  1.00  0.00    -0.164 NA 
HETATM   31  H   UNL     1      -6.101  13.429  72.404  1.00  0.00     0.000 HD 
HETATM   32  N   UNL     1      -5.930  14.369  69.476  1.00  0.00    -0.098 NA 
ENDBRANCH  26  27
ENDBRANCH  18  21
ENDBRANCH  14  15
ENDBRANCH  10  14
ENDBRANCH   4   5
ENDBRANCH   3   4
ENDBRANCH   2   3
TORSDOF 8
ENDMDL
MODEL      165
REMARK 921   NORMALIZED FREE ENERGY PREDICTED BY IDOCK:   -4.87 KCAL/MOL
REMARK 922        TOTAL FREE ENERGY PREDICTED BY IDOCK:   -8.17 KCAL/MOL
REMARK 923 INTER-LIGAND FREE ENERGY PREDICTED BY IDOCK:   -7.04 KCAL/MOL
REMARK 924 INTRA-LIGAND FREE ENERGY PREDICTED BY IDOCK:   -1.13 KCAL/MOL
REMARK 927      BINDING AFFINITY PREDICTED BY RF-SCORE:    0.00 PKD
ROOT
HETATM    1  C   UNL     1     -11.077   6.240  68.538  1.00  0.00    -0.397 C  
HETATM    2  C   UNL     1      -9.975   7.053  67.877  1.00  0.00    -0.183 C  
ENDROOT
BRANCH   2   3
HETATM    3  C   UNL     1     -10.390   8.515  67.679  1.00  0.00    -0.317 C  
BRANCH   3   4
HETATM    4  C   UNL     1     -10.120   9.051  66.268  1.00  0.00    -0.311 C  
BRANCH   4   5
HETATM    5  C   UNL     1      -8.664   9.089  65.916  1.00  0.00    -0.166 A  
HETATM    6  N   UNL     1      -8.150   8.369  64.938  1.00  0.00    -0.142 NA 
HETATM    7  C   UNL     1      -6.821   8.662  64.897  1.00  0.00    -0.072 A  
HETATM    8 CL   UNL     1      -5.774   7.938  63.768  1.00  0.00    -0.056 Cl 
HETATM    9  C   UNL     1      -6.483   9.561  65.888  1.00  0.00    -0.077 A  
HETATM   10  N   UNL     1      -7.673   9.817  66.558  1.00  0.00    -0.104 NA 
BRANCH   9  11
HETATM   11  C   UNL     1      -5.157  10.120  66.222  1.00  0.00    -0.040 C  
HETATM   12  H   UNL     1      -4.282  11.821  65.984  1.00  0.00     0.000 HD 
HETATM   13  O   UNL     1      -5.135  11.462  65.768  1.00  0.00    -0.294 OA 
ENDBRANCH   9  11
BRANCH  10  14
HETATM   14  C   UNL     1      -7.806  10.506  67.841  1.00  0.00    -0.105 C  
BRANCH  14  15
HETATM   15  C   UNL     1      -8.156  11.968  67.738  1.00  0.00    -0.149 A  
HETATM   16  C   UNL     1      -9.027  12.427  66.746  1.00  0.00    -0.205 A  
HETATM   17  C   UNL     1      -9.389  13.779  66.674  1.00  0.00    -0.277 A  
HETATM   18  C   UNL     1      -8.845  14.741  67.540  1.00  0.00    -0.197 A  
HETATM   19  C   UNL     1      -8.002  14.258  68.557  1.00  0.00    -0.145 A  
HETATM   20  C   UNL     1      -7.673  12.899  68.663  1.00  0.00    -0.067 A  
BRANCH  18  21
HETATM   21  C   UNL     1      -9.133  16.199  67.406  1.00  0.00    -0.203 A  
HETATM   22  C   UNL     1      -8.325  16.970  66.535  1.00  0.00    -0.313 A  
HETATM   23  C   UNL     1      -8.530  18.340  66.333  1.00  0.00    -0.266 A  
HETATM   24  C   UNL     1      -9.538  18.994  67.019  1.00  0.00    -0.364 A  
HETATM   25  C   UNL     1     -10.339  18.272  67.902  1.00  0.00    -0.417 A  
HETATM   26  C   UNL     1     -10.170  16.881  68.094  1.00  0.00    -0.311 A  
BRANCH  26  27
HETATM   27  C   UNL     1     -11.122  16.237  68.992  1.00  0.00    -0.331 A  
HETATM   28  N   UNL     1     -11.979  15.270  68.608  1.00  0.00    -0.288 NA 
HETATM   29  N   UNL     1     -12.603  15.031  69.768  1.00  0.00    -0.589 NA 
HETATM   30  N   UNL     1     -12.208  15.764  70.811  1.00  0.00    -0.408 NA 
HETATM   31  H   UNL     1     -13.339  14.329  69.849  1.00  0.00     0.000 HD 
HETATM   32  N   UNL     1     -11.234  16.526  70.332  1.00  0.00    -0.248 NA 
ENDBRANCH  26  27
ENDBRANCH  18  21
ENDBRANCH  14  15
ENDBRANCH  10  14
ENDBRANCH   4   5
ENDBRANCH   3   4
ENDBRANCH   2   3
TORSDOF 8
ENDMDL
MODEL      166
REMARK 921   NORMALIZED FREE ENERGY PREDICTED BY IDOCK:   -4.85 KCAL/MOL
REMARK 922        TOTAL FREE ENERGY PREDICTED BY IDOCK:   -8.15 KCAL/MOL
REMARK 923 INTER-LIGAND FREE ENERGY PREDICTED BY IDOCK:   -7.58 KCAL/MOL
REMARK 924 INTRA-LIGAND FREE ENERGY PREDICTED BY IDOCK:   -0.57 KCAL/MOL
REMARK 927      BINDING AFFINITY PREDICTED BY RF-SCORE:    0.00 PKD
ROOT
HETATM    1  C   UNL     1     -11.353   6.089  71.093  1.00  0.00    -0.300 C  
HETATM    2  C   UNL     1     -12.551   6.706  71.795  1.00  0.00    -0.323 C  
ENDROOT
BRANCH   2   3
HETATM    3  C   UNL     1     -12.247   8.122  72.295  1.00  0.00    -0.397 C  
BRANCH   3   4
HETATM    4  C   UNL     1     -11.468   8.981  71.293  1.00  0.00    -0.390 C  
BRANCH   4   5
HETATM    5  C   UNL     1      -9.997   8.698  71.285  1.00  0.00    -0.246 A  
HETATM    6  N   UNL     1      -9.264   8.713  72.381  1.00  0.00    -0.346 NA 
HETATM    7  C   UNL     1      -7.993   8.403  72.003  1.00  0.00    -0.135 A  
HETATM    8 CL   UNL     1      -6.716   8.316  73.124  1.00  0.00    -0.117 Cl 
HETATM    9  C   UNL     1      -7.916   8.218  70.638  1.00  0.00    -0.094 A  
HETATM   10  N   UNL     1      -9.208   8.432  70.175  1.00  0.00    -0.157 NA 
BRANCH   9  11
HETATM   11  C   UNL     1      -6.734   7.903  69.808  1.00  0.00    -0.038 C  
HETATM   12  H   UNL     1      -5.278   8.913  69.052  1.00  0.00     0.000 HD 
HETATM   13  O   UNL     1      -6.038   9.116  69.585  1.00  0.00    -0.038 OA 
ENDBRANCH   9  11
BRANCH  10  14
HETATM   14  C   UNL     1      -9.604   8.602  68.778  1.00  0.00    -0.156 C  
BRANCH  14  15
HETATM   15  C   UNL     1      -9.782  10.033  68.342  1.00  0.00    -0.157 A  
HETATM   16  C   UNL     1      -8.772  10.976  68.553  1.00  0.00    -0.159 A  
HETATM   17  C   UNL     1      -8.916  12.299  68.110  1.00  0.00    -0.192 A  
HETATM   18  C   UNL     1     -10.097  12.754  67.504  1.00  0.00    -0.213 A  
HETATM   19  C   UNL     1     -11.087  11.785  67.263  1.00  0.00    -0.342 A  
HETATM   20  C   UNL     1     -10.930  10.450  67.662  1.00  0.00    -0.374 A  
BRANCH  18  21
HETATM   21  C   UNL     1     -10.309  14.183  67.128  1.00  0.00    -0.265 A  
HETATM   22  C   UNL     1     -10.030  14.581  65.797  1.00  0.00    -0.361 A  
HETATM   23  C   UNL     1     -10.213  15.894  65.350  1.00  0.00    -0.354 A  
HETATM   24  C   UNL     1     -10.659  16.865  66.229  1.00  0.00    -0.191 A  
HETATM   25  C   UNL     1     -10.923  16.515  67.552  1.00  0.00    -0.166 A  
HETATM   26  C   UNL     1     -10.776  15.187  68.015  1.00  0.00    -0.264 A  
BRANCH  26  27
HETATM   27  C   UNL     1     -11.154  14.946  69.403  1.00  0.00    -0.280 A  
HETATM   28  N   UNL     1     -11.789  13.835  69.825  1.00  0.00    -0.313 NA 
HETATM   29  N   UNL     1     -11.896  14.103  71.132  1.00  0.00    -0.492 NA 
HETATM   30  N   UNL     1     -11.390  15.270  71.536  1.00  0.00    -0.388 NA 
HETATM   31  H   UNL     1     -12.338  13.452  71.782  1.00  0.00     0.000 HD 
HETATM   32  N   UNL     1     -10.884  15.812  70.437  1.00  0.00    -0.330 NA 
ENDBRANCH  26  27
ENDBRANCH  18  21
ENDBRANCH  14  15
ENDBRANCH  10  14
ENDBRANCH   4   5
ENDBRANCH   3   4
ENDBRANCH   2   3
TORSDOF 8
ENDMDL
MODEL      167
REMARK 921   NORMALIZED FREE ENERGY PREDICTED BY IDOCK:   -4.77 KCAL/MOL
REMARK 922        TOTAL FREE ENERGY PREDICTED BY IDOCK:   -8.03 KCAL/MOL
REMARK 923 INTER-LIGAND FREE ENERGY PREDICTED BY IDOCK:   -7.32 KCAL/MOL
REMARK 924 INTRA-LIGAND FREE ENERGY PREDICTED BY IDOCK:   -0.71 KCAL/MOL
REMARK 927      BINDING AFFINITY PREDICTED BY RF-SCORE:    0.00 PKD
ROOT
HETATM    1  C   UNL     1     -13.734   9.322  72.206  1.00  0.00    -0.527 C  
HETATM    2  C   UNL     1     -13.068   8.091  71.614  1.00  0.00    -0.354 C  
ENDROOT
BRANCH   2   3
HETATM    3  C   UNL     1     -11.565   8.304  71.405  1.00  0.00    -0.322 C  
BRANCH   3   4
HETATM    4  C   UNL     1     -11.227   9.489  70.492  1.00  0.00    -0.345 C  
BRANCH   4   5
HETATM    5  C   UNL     1     -10.218   9.155  69.436  1.00  0.00    -0.210 A  
HETATM    6  N   UNL     1      -9.284   8.240  69.608  1.00  0.00    -0.157 NA 
HETATM    7  C   UNL     1      -8.565   8.196  68.453  1.00  0.00    -0.130 A  
HETATM    8 CL   UNL     1      -7.247   7.139  68.252  1.00  0.00    -0.088 Cl 
HETATM    9  C   UNL     1      -9.036   9.122  67.544  1.00  0.00    -0.122 A  
HETATM   10  N   UNL     1     -10.089   9.755  68.192  1.00  0.00    -0.158 NA 
BRANCH   9  11
HETATM   11  C   UNL     1      -8.533   9.432  66.190  1.00  0.00    -0.120 C  
HETATM   12  H   UNL     1      -8.742   8.661  64.436  1.00  0.00     0.000 HD 
HETATM   13  O   UNL     1      -9.065   8.461  65.307  1.00  0.00    -0.080 OA 
ENDBRANCH   9  11
BRANCH  10  14
HETATM   14  C   UNL     1     -10.755  10.980  67.755  1.00  0.00    -0.227 C  
BRANCH  14  15
HETATM   15  C   UNL     1      -9.985  12.248  68.022  1.00  0.00    -0.202 A  
HETATM   16  C   UNL     1      -8.679  12.404  67.551  1.00  0.00    -0.179 A  
HETATM   17  C   UNL     1      -7.975  13.598  67.760  1.00  0.00    -0.172 A  
HETATM   18  C   UNL     1      -8.515  14.657  68.507  1.00  0.00    -0.161 A  
HETATM   19  C   UNL     1      -9.843  14.500  68.941  1.00  0.00    -0.191 A  
HETATM   20  C   UNL     1     -10.569  13.326  68.694  1.00  0.00    -0.264 A  
BRANCH  18  21
HETATM   21  C   UNL     1      -7.737  15.889  68.834  1.00  0.00    -0.194 A  
HETATM   22  C   UNL     1      -6.666  15.787  69.756  1.00  0.00    -0.140 A  
HETATM   23  C   UNL     1      -5.873  16.883  70.111  1.00  0.00    -0.177 A  
HETATM   24  C   UNL     1      -6.140  18.130  69.575  1.00  0.00    -0.248 A  
HETATM   25  C   UNL     1      -7.200  18.273  68.681  1.00  0.00    -0.293 A  
HETATM   26  C   UNL     1      -7.993  17.171  68.284  1.00  0.00    -0.236 A  
BRANCH  26  27
HETATM   27  C   UNL     1      -9.023  17.447  67.290  1.00  0.00    -0.236 A  
HETATM   28  N   UNL     1      -9.982  18.383  67.442  1.00  0.00    -0.320 NA 
HETATM   29  N   UNL     1     -10.644  18.237  66.288  1.00  0.00    -0.357 NA 
HETATM   30  N   UNL     1     -10.180  17.301  65.458  1.00  0.00    -0.620 NA 
HETATM   31  H   UNL     1     -11.456  18.809  66.057  1.00  0.00     0.000 HD 
HETATM   32  N   UNL     1      -9.119  16.802  66.079  1.00  0.00    -0.488 NA 
ENDBRANCH  26  27
ENDBRANCH  18  21
ENDBRANCH  14  15
ENDBRANCH  10  14
ENDBRANCH   4   5
ENDBRANCH   3   4
ENDBRANCH   2   3
TORSDOF 8
ENDMDL
MODEL      168
REMARK 921   NORMALIZED FREE ENERGY PREDICTED BY IDOCK:   -4.77 KCAL/MOL
REMARK 922        TOTAL FREE ENERGY PREDICTED BY IDOCK:   -8.03 KCAL/MOL
REMARK 923 INTER-LIGAND FREE ENERGY PREDICTED BY IDOCK:   -6.69 KCAL/MOL
REMARK 924 INTRA-LIGAND FREE ENERGY PREDICTED BY IDOCK:   -1.34 KCAL/MOL
REMARK 927      BINDING AFFINITY PREDICTED BY RF-SCORE:    0.00 PKD
ROOT
HETATM    1  C   UNL     1      -7.350   9.786  64.825  1.00  0.00    -0.130 C  
HETATM    2  C   UNL     1      -8.326   9.130  63.863  1.00  0.00    -0.183 C  
ENDROOT
BRANCH   2   3
HETATM    3  C   UNL     1      -7.709   7.908  63.175  1.00  0.00    -0.136 C  
BRANCH   3   4
HETATM    4  C   UNL     1      -7.023   6.932  64.139  1.00  0.00    -0.052 C  
BRANCH   4   5
HETATM    5  C   UNL     1      -7.909   5.804  64.571  1.00  0.00    -0.113 A  
HETATM    6  N   UNL     1      -8.742   5.198  63.747  1.00  0.00    -0.090 NA 
HETATM    7  C   UNL     1      -9.367   4.228  64.470  1.00  0.00    -0.160 A  
HETATM    8 CL   UNL     1     -10.537   3.203  63.780  1.00  0.00    -0.231 Cl 
HETATM    9  C   UNL     1      -8.942   4.241  65.783  1.00  0.00    -0.129 A  
HETATM   10  N   UNL     1      -8.018   5.276  65.849  1.00  0.00    -0.103 NA 
BRANCH   9  11
HETATM   11  C   UNL     1      -9.380   3.390  66.909  1.00  0.00    -0.175 C  
HETATM   12  H   UNL     1      -9.051   1.576  67.469  1.00  0.00     0.000 HD 
HETATM   13  O   UNL     1      -8.769   2.123  66.745  1.00  0.00    -0.108 OA 
ENDBRANCH   9  11
BRANCH  10  14
HETATM   14  C   UNL     1      -7.467   5.860  67.071  1.00  0.00    -0.084 C  
BRANCH  14  15
HETATM   15  C   UNL     1      -8.449   6.662  67.885  1.00  0.00    -0.119 A  
HETATM   16  C   UNL     1      -9.563   7.253  67.283  1.00  0.00    -0.191 A  
HETATM   17  C   UNL     1     -10.502   7.964  68.044  1.00  0.00    -0.245 A  
HETATM   18  C   UNL     1     -10.335   8.174  69.422  1.00  0.00    -0.219 A  
HETATM   19  C   UNL     1      -9.231   7.540  70.019  1.00  0.00    -0.151 A  
HETATM   20  C   UNL     1      -8.313   6.789  69.271  1.00  0.00    -0.125 A  
BRANCH  18  21
HETATM   21  C   UNL     1     -11.265   9.021  70.225  1.00  0.00    -0.232 A  
HETATM   22  C   UNL     1     -11.799   8.488  71.425  1.00  0.00    -0.345 A  
HETATM   23  C   UNL     1     -12.666   9.213  72.250  1.00  0.00    -0.447 A  
HETATM   24  C   UNL     1     -13.051  10.492  71.890  1.00  0.00    -0.567 A  
HETATM   25  C   UNL     1     -12.564  11.041  70.705  1.00  0.00    -0.463 A  
HETATM   26  C   UNL     1     -11.661  10.338  69.874  1.00  0.00    -0.326 A  
BRANCH  26  27
HETATM   27  C   UNL     1     -11.175  11.056  68.702  1.00  0.00    -0.263 A  
HETATM   28  N   UNL     1      -9.941  11.593  68.609  1.00  0.00    -0.206 NA 
HETATM   29  N   UNL     1     -10.001  12.117  67.379  1.00  0.00    -0.198 NA 
HETATM   30  N   UNL     1     -11.153  11.951  66.725  1.00  0.00    -0.292 NA 
HETATM   31  H   UNL     1      -9.212  12.613  66.965  1.00  0.00     0.000 HD 
HETATM   32  N   UNL     1     -11.909  11.246  67.555  1.00  0.00    -0.604 NA 
ENDBRANCH  26  27
ENDBRANCH  18  21
ENDBRANCH  14  15
ENDBRANCH  10  14
ENDBRANCH   4   5
ENDBRANCH   3   4
ENDBRANCH   2   3
TORSDOF 8
ENDMDL
MODEL      169
REMARK 921   NORMALIZED FREE ENERGY PREDICTED BY IDOCK:   -4.76 KCAL/MOL
REMARK 922        TOTAL FREE ENERGY PREDICTED BY IDOCK:   -8.02 KCAL/MOL
REMARK 923 INTER-LIGAND FREE ENERGY PREDICTED BY IDOCK:   -6.13 KCAL/MOL
REMARK 924 INTRA-LIGAND FREE ENERGY PREDICTED BY IDOCK:   -1.89 KCAL/MOL
REMARK 927      BINDING AFFINITY PREDICTED BY RF-SCORE:    0.00 PKD
ROOT
HETATM    1  C   UNL     1      -6.690  10.343  65.437  1.00  0.00    -0.113 C  
HETATM    2  C   UNL     1      -5.998   9.529  66.518  1.00  0.00    -0.059 C  
ENDROOT
BRANCH   2   3
HETATM    3  C   UNL     1      -7.005   8.918  67.499  1.00  0.00    -0.075 C  
BRANCH   3   4
HETATM    4  C   UNL     1      -7.452   7.500  67.126  1.00  0.00    -0.099 C  
BRANCH   4   5
HETATM    5  C   UNL     1      -8.390   6.892  68.123  1.00  0.00    -0.118 A  
HETATM    6  N   UNL     1      -8.012   5.963  68.980  1.00  0.00    -0.098 NA 
HETATM    7  C   UNL     1      -9.107   5.657  69.729  1.00  0.00    -0.138 A  
HETATM    8 CL   UNL     1      -9.055   4.488  70.965  1.00  0.00    -0.172 Cl 
HETATM    9  C   UNL     1     -10.205   6.385  69.318  1.00  0.00    -0.192 A  
HETATM   10  N   UNL     1      -9.743   7.164  68.265  1.00  0.00    -0.142 NA 
BRANCH   9  11
HETATM   11  C   UNL     1     -11.591   6.343  69.829  1.00  0.00    -0.327 C  
HETATM   12  H   UNL     1     -12.503   7.016  71.387  1.00  0.00     0.000 HD 
HETATM   13  O   UNL     1     -11.611   7.043  71.059  1.00  0.00    -0.287 OA 
ENDBRANCH   9  11
BRANCH  10  14
HETATM   14  C   UNL     1     -10.571   7.921  67.327  1.00  0.00    -0.295 C  
BRANCH  14  15
HETATM   15  C   UNL     1     -10.565   9.412  67.542  1.00  0.00    -0.333 A  
HETATM   16  C   UNL     1     -10.657   9.950  68.829  1.00  0.00    -0.246 A  
HETATM   17  C   UNL     1     -10.608  11.336  69.036  1.00  0.00    -0.241 A  
HETATM   18  C   UNL     1     -10.539  12.244  67.969  1.00  0.00    -0.235 A  
HETATM   19  C   UNL     1     -10.408  11.687  66.684  1.00  0.00    -0.257 A  
HETATM   20  C   UNL     1     -10.409  10.301  66.474  1.00  0.00    -0.276 A  
BRANCH  18  21
HETATM   21  C   UNL     1     -10.599  13.723  68.165  1.00  0.00    -0.260 A  
HETATM   22  C   UNL     1     -11.857  14.318  68.429  1.00  0.00    -0.373 A  
HETATM   23  C   UNL     1     -12.009  15.693  68.642  1.00  0.00    -0.201 A  
HETATM   24  C   UNL     1     -10.907  16.527  68.573  1.00  0.00    -0.349 A  
HETATM   25  C   UNL     1      -9.656  15.979  68.293  1.00  0.00    -0.210 A  
HETATM   26  C   UNL     1      -9.476  14.588  68.108  1.00  0.00    -0.208 A  
BRANCH  26  27
HETATM   27  C   UNL     1      -8.105  14.141  67.893  1.00  0.00    -0.154 A  
HETATM   28  N   UNL     1      -7.252  14.728  67.030  1.00  0.00    -0.067 NA 
HETATM   29  N   UNL     1      -6.168  13.963  67.209  1.00  0.00    -0.394 NA 
HETATM   30  N   UNL     1      -6.289  12.970  68.092  1.00  0.00    -0.088 NA 
HETATM   31  H   UNL     1      -5.300  14.129  66.699  1.00  0.00     0.000 HD 
HETATM   32  N   UNL     1      -7.523  13.090  68.561  1.00  0.00    -0.123 NA 
ENDBRANCH  26  27
ENDBRANCH  18  21
ENDBRANCH  14  15
ENDBRANCH  10  14
ENDBRANCH   4   5
ENDBRANCH   3   4
ENDBRANCH   2   3
TORSDOF 8
ENDMDL
MODEL      170
REMARK 921   NORMALIZED FREE ENERGY PREDICTED BY IDOCK:   -4.76 KCAL/MOL
REMARK 922        TOTAL FREE ENERGY PREDICTED BY IDOCK:   -8.02 KCAL/MOL
REMARK 923 INTER-LIGAND FREE ENERGY PREDICTED BY IDOCK:   -6.97 KCAL/MOL
REMARK 924 INTRA-LIGAND FREE ENERGY PREDICTED BY IDOCK:   -1.05 KCAL/MOL
REMARK 927      BINDING AFFINITY PREDICTED BY RF-SCORE:    0.00 PKD
ROOT
HETATM    1  C   UNL     1      -8.454   7.943  74.141  1.00  0.00    -0.312 C  
HETATM    2  C   UNL     1      -7.991   8.309  72.741  1.00  0.00    -0.194 C  
ENDROOT
BRANCH   2   3
HETATM    3  C   UNL     1      -8.548   7.345  71.689  1.00  0.00    -0.122 C  
BRANCH   3   4
HETATM    4  C   UNL     1      -8.476   7.882  70.254  1.00  0.00    -0.128 C  
BRANCH   4   5
HETATM    5  C   UNL     1      -8.827   6.858  69.219  1.00  0.00    -0.138 A  
HETATM    6  N   UNL     1      -8.933   5.573  69.496  1.00  0.00    -0.112 NA 
HETATM    7  C   UNL     1      -9.271   4.950  68.334  1.00  0.00    -0.124 A  
HETATM    8 CL   UNL     1      -9.506   3.267  68.248  1.00  0.00    -0.239 Cl 
HETATM    9  C   UNL     1      -9.351   5.855  67.295  1.00  0.00    -0.113 A  
HETATM   10  N   UNL     1      -9.040   7.083  67.867  1.00  0.00    -0.128 NA 
BRANCH   9  11
HETATM   11  C   UNL     1      -9.654   5.609  65.870  1.00  0.00    -0.027 C  
HETATM   12  H   UNL     1     -11.029   4.670  64.899  1.00  0.00     0.000 HD 
HETATM   13  O   UNL     1     -10.835   4.829  65.816  1.00  0.00    -0.295 OA 
ENDBRANCH   9  11
BRANCH  10  14
HETATM   14  C   UNL     1      -8.742   8.317  67.142  1.00  0.00    -0.123 C  
BRANCH  14  15
HETATM   15  C   UNL     1      -9.449   9.542  67.664  1.00  0.00    -0.153 A  
HETATM   16  C   UNL     1      -8.728  10.678  68.038  1.00  0.00    -0.126 A  
HETATM   17  C   UNL     1      -9.384  11.835  68.483  1.00  0.00    -0.158 A  
HETATM   18  C   UNL     1     -10.778  11.883  68.641  1.00  0.00    -0.266 A  
HETATM   19  C   UNL     1     -11.492  10.745  68.224  1.00  0.00    -0.353 A  
HETATM   20  C   UNL     1     -10.844   9.603  67.733  1.00  0.00    -0.278 A  
BRANCH  18  21
HETATM   21  C   UNL     1     -11.482  13.066  69.218  1.00  0.00    -0.348 A  
HETATM   22  C   UNL     1     -12.020  12.960  70.524  1.00  0.00    -0.282 A  
HETATM   23  C   UNL     1     -12.682  14.021  71.153  1.00  0.00    -0.436 A  
HETATM   24  C   UNL     1     -12.853  15.220  70.484  1.00  0.00    -0.421 A  
HETATM   25  C   UNL     1     -12.356  15.353  69.189  1.00  0.00    -0.087 A  
HETATM   26  C   UNL     1     -11.655  14.305  68.549  1.00  0.00    -0.355 A  
BRANCH  26  27
HETATM   27  C   UNL     1     -11.128  14.602  67.222  1.00  0.00    -0.328 A  
HETATM   28  N   UNL     1     -11.753  14.270  66.075  1.00  0.00    -0.368 NA 
HETATM   29  N   UNL     1     -10.882  14.752  65.180  1.00  0.00    -0.375 NA 
HETATM   30  N   UNL     1      -9.791  15.338  65.678  1.00  0.00    -0.348 NA 
HETATM   31  H   UNL     1     -11.043  14.677  64.176  1.00  0.00     0.000 HD 
HETATM   32  N   UNL     1      -9.949  15.272  66.993  1.00  0.00    -0.232 NA 
ENDBRANCH  26  27
ENDBRANCH  18  21
ENDBRANCH  14  15
ENDBRANCH  10  14
ENDBRANCH   4   5
ENDBRANCH   3   4
ENDBRANCH   2   3
TORSDOF 8
ENDMDL
MODEL      171
REMARK 921   NORMALIZED FREE ENERGY PREDICTED BY IDOCK:   -4.75 KCAL/MOL
REMARK 922        TOTAL FREE ENERGY PREDICTED BY IDOCK:   -7.99 KCAL/MOL
REMARK 923 INTER-LIGAND FREE ENERGY PREDICTED BY IDOCK:   -6.49 KCAL/MOL
REMARK 924 INTRA-LIGAND FREE ENERGY PREDICTED BY IDOCK:   -1.51 KCAL/MOL
REMARK 927      BINDING AFFINITY PREDICTED BY RF-SCORE:    0.00 PKD
ROOT
HETATM    1  C   UNL     1     -11.086  15.623  64.893  1.00  0.00    -0.414 C  
HETATM    2  C   UNL     1     -11.973  14.389  64.895  1.00  0.00    -0.430 C  
ENDROOT
BRANCH   2   3
HETATM    3  C   UNL     1     -11.270  13.185  64.259  1.00  0.00    -0.422 C  
BRANCH   3   4
HETATM    4  C   UNL     1     -11.066  12.007  65.218  1.00  0.00    -0.367 C  
BRANCH   4   5
HETATM    5  C   UNL     1      -9.952  11.093  64.808  1.00  0.00    -0.287 A  
HETATM    6  N   UNL     1     -10.008  10.345  63.724  1.00  0.00    -0.253 NA 
HETATM    7  C   UNL     1      -8.832   9.663  63.660  1.00  0.00    -0.232 A  
HETATM    8 CL   UNL     1      -8.491   8.569  62.401  1.00  0.00    -0.197 Cl 
HETATM    9  C   UNL     1      -8.028   9.964  64.741  1.00  0.00    -0.143 A  
HETATM   10  N   UNL     1      -8.766  10.871  65.492  1.00  0.00    -0.187 NA 
BRANCH   9  11
HETATM   11  C   UNL     1      -6.694   9.430  65.084  1.00  0.00    -0.080 C  
HETATM   12  H   UNL     1      -5.988   7.706  65.579  1.00  0.00     0.000 HD 
HETATM   13  O   UNL     1      -6.847   8.049  65.360  1.00  0.00    -0.060 OA 
ENDBRANCH   9  11
BRANCH  10  14
HETATM   14  C   UNL     1      -8.466  11.301  66.857  1.00  0.00    -0.152 C  
BRANCH  14  15
HETATM   15  C   UNL     1      -8.839  10.309  67.928  1.00  0.00    -0.122 A  
HETATM   16  C   UNL     1     -10.174   9.950  68.136  1.00  0.00    -0.210 A  
HETATM   17  C   UNL     1     -10.522   8.996  69.103  1.00  0.00    -0.239 A  
HETATM   18  C   UNL     1      -9.564   8.413  69.948  1.00  0.00    -0.171 A  
HETATM   19  C   UNL     1      -8.223   8.754  69.700  1.00  0.00    -0.113 A  
HETATM   20  C   UNL     1      -7.865   9.673  68.703  1.00  0.00    -0.081 A  
BRANCH  18  21
HETATM   21  C   UNL     1      -9.930   7.480  71.055  1.00  0.00    -0.189 A  
HETATM   22  C   UNL     1     -10.373   8.030  72.284  1.00  0.00    -0.336 A  
HETATM   23  C   UNL     1     -10.752   7.235  73.371  1.00  0.00    -0.415 A  
HETATM   24  C   UNL     1     -10.676   5.857  73.276  1.00  0.00    -0.290 A  
HETATM   25  C   UNL     1     -10.224   5.281  72.090  1.00  0.00    -0.252 A  
HETATM   26  C   UNL     1      -9.868   6.065  70.968  1.00  0.00    -0.220 A  
BRANCH  26  27
HETATM   27  C   UNL     1      -9.480   5.332  69.769  1.00  0.00    -0.152 A  
HETATM   28  N   UNL     1      -8.314   4.668  69.640  1.00  0.00    -0.070 NA 
HETATM   29  N   UNL     1      -8.449   4.188  68.399  1.00  0.00    -0.091 NA 
HETATM   30  N   UNL     1      -9.582   4.502  67.766  1.00  0.00    -0.159 NA 
HETATM   31  H   UNL     1      -7.729   3.614  67.961  1.00  0.00     0.000 HD 
HETATM   32  N   UNL     1     -10.268   5.217  68.648  1.00  0.00    -0.154 NA 
ENDBRANCH  26  27
ENDBRANCH  18  21
ENDBRANCH  14  15
ENDBRANCH  10  14
ENDBRANCH   4   5
ENDBRANCH   3   4
ENDBRANCH   2   3
TORSDOF 8
ENDMDL
MODEL      172
REMARK 921   NORMALIZED FREE ENERGY PREDICTED BY IDOCK:   -4.74 KCAL/MOL
REMARK 922        TOTAL FREE ENERGY PREDICTED BY IDOCK:   -7.99 KCAL/MOL
REMARK 923 INTER-LIGAND FREE ENERGY PREDICTED BY IDOCK:   -6.94 KCAL/MOL
REMARK 924 INTRA-LIGAND FREE ENERGY PREDICTED BY IDOCK:   -1.05 KCAL/MOL
REMARK 927      BINDING AFFINITY PREDICTED BY RF-SCORE:    0.00 PKD
ROOT
HETATM    1  C   UNL     1      -7.898  16.569  68.991  1.00  0.00    -0.226 C  
HETATM    2  C   UNL     1      -7.064  16.161  67.788  1.00  0.00    -0.157 C  
ENDROOT
BRANCH   2   3
HETATM    3  C   UNL     1      -7.295  14.694  67.410  1.00  0.00    -0.195 C  
BRANCH   3   4
HETATM    4  C   UNL     1      -8.549  14.080  68.042  1.00  0.00    -0.179 C  
BRANCH   4   5
HETATM    5  C   UNL     1      -9.573  13.651  67.036  1.00  0.00    -0.251 A  
HETATM    6  N   UNL     1     -10.655  14.359  66.777  1.00  0.00    -0.279 NA 
HETATM    7  C   UNL     1     -11.341  13.683  65.815  1.00  0.00    -0.306 A  
HETATM    8 CL   UNL     1     -12.816  14.256  65.190  1.00  0.00    -0.358 Cl 
HETATM    9  C   UNL     1     -10.695  12.510  65.481  1.00  0.00    -0.271 A  
HETATM   10  N   UNL     1      -9.565  12.482  66.289  1.00  0.00    -0.250 NA 
BRANCH   9  11
HETATM   11  C   UNL     1     -11.103  11.467  64.516  1.00  0.00    -0.273 C  
HETATM   12  H   UNL     1     -11.079  11.286  62.598  1.00  0.00     0.000 HD 
HETATM   13  O   UNL     1     -10.817  11.956  63.218  1.00  0.00    -0.385 OA 
ENDBRANCH   9  11
BRANCH  10  14
HETATM   14  C   UNL     1      -8.686  11.333  66.499  1.00  0.00    -0.178 C  
BRANCH  14  15
HETATM   15  C   UNL     1      -9.120  10.400  67.600  1.00  0.00    -0.143 A  
HETATM   16  C   UNL     1      -9.826   9.230  67.309  1.00  0.00    -0.236 A  
HETATM   17  C   UNL     1     -10.194   8.338  68.326  1.00  0.00    -0.246 A  
HETATM   18  C   UNL     1      -9.935   8.607  69.679  1.00  0.00    -0.191 A  
HETATM   19  C   UNL     1      -9.190   9.768  69.952  1.00  0.00    -0.263 A  
HETATM   20  C   UNL     1      -8.779  10.641  68.934  1.00  0.00    -0.163 A  
BRANCH  18  21
HETATM   21  C   UNL     1     -10.418   7.724  70.782  1.00  0.00    -0.213 A  
HETATM   22  C   UNL     1     -11.732   7.201  70.703  1.00  0.00    -0.348 A  
HETATM   23  C   UNL     1     -12.264   6.353  71.680  1.00  0.00    -0.271 A  
HETATM   24  C   UNL     1     -11.507   6.017  72.788  1.00  0.00    -0.248 A  
HETATM   25  C   UNL     1     -10.217   6.531  72.910  1.00  0.00    -0.212 A  
HETATM   26  C   UNL     1      -9.648   7.363  71.918  1.00  0.00    -0.174 A  
BRANCH  26  27
HETATM   27  C   UNL     1      -8.266   7.772  72.137  1.00  0.00    -0.113 A  
HETATM   28  N   UNL     1      -7.207   7.188  71.542  1.00  0.00    -0.076 NA 
HETATM   29  N   UNL     1      -6.210   7.912  72.064  1.00  0.00    -0.040 NA 
HETATM   30  N   UNL     1      -6.566   8.872  72.920  1.00  0.00    -0.314 NA 
HETATM   31  H   UNL     1      -5.234   7.740  71.822  1.00  0.00     0.000 HD 
HETATM   32  N   UNL     1      -7.891   8.811  72.956  1.00  0.00    -0.380 NA 
ENDBRANCH  26  27
ENDBRANCH  18  21
ENDBRANCH  14  15
ENDBRANCH  10  14
ENDBRANCH   4   5
ENDBRANCH   3   4
ENDBRANCH   2   3
TORSDOF 8
ENDMDL
MODEL      173
REMARK 921   NORMALIZED FREE ENERGY PREDICTED BY IDOCK:   -4.74 KCAL/MOL
REMARK 922        TOTAL FREE ENERGY PREDICTED BY IDOCK:   -7.98 KCAL/MOL
REMARK 923 INTER-LIGAND FREE ENERGY PREDICTED BY IDOCK:   -6.24 KCAL/MOL
REMARK 924 INTRA-LIGAND FREE ENERGY PREDICTED BY IDOCK:   -1.74 KCAL/MOL
REMARK 927      BINDING AFFINITY PREDICTED BY RF-SCORE:    0.00 PKD
ROOT
HETATM    1  C   UNL     1     -12.125  12.627  64.585  1.00  0.00    -0.484 C  
HETATM    2  C   UNL     1     -11.425  13.694  65.411  1.00  0.00    -0.322 C  
ENDROOT
BRANCH   2   3
HETATM    3  C   UNL     1     -12.268  14.120  66.618  1.00  0.00    -0.450 C  
BRANCH   3   4
HETATM    4  C   UNL     1     -11.460  14.290  67.910  1.00  0.00    -0.341 C  
BRANCH   4   5
HETATM    5  C   UNL     1     -11.466  13.069  68.778  1.00  0.00    -0.298 A  
HETATM    6  N   UNL     1     -12.394  12.846  69.688  1.00  0.00    -0.108 NA 
HETATM    7  C   UNL     1     -12.092  11.653  70.269  1.00  0.00    -0.358 A  
HETATM    8 CL   UNL     1     -13.046  10.988  71.511  1.00  0.00    -0.523 Cl 
HETATM    9  C   UNL     1     -10.933  11.125  69.736  1.00  0.00    -0.150 A  
HETATM   10  N   UNL     1     -10.519  12.054  68.790  1.00  0.00    -0.211 NA 
BRANCH   9  11
HETATM   11  C   UNL     1     -10.232   9.875  70.095  1.00  0.00    -0.273 C  
HETATM   12  H   UNL     1     -10.441   8.008  69.660  1.00  0.00     0.000 HD 
HETATM   13  O   UNL     1     -10.892   8.813  69.430  1.00  0.00    -0.205 OA 
ENDBRANCH   9  11
BRANCH  10  14
HETATM   14  C   UNL     1      -9.216  12.086  68.129  1.00  0.00    -0.195 C  
BRANCH  14  15
HETATM   15  C   UNL     1      -8.945  10.921  67.212  1.00  0.00    -0.139 A  
HETATM   16  C   UNL     1      -9.955  10.402  66.398  1.00  0.00    -0.277 A  
HETATM   17  C   UNL     1      -9.696   9.347  65.512  1.00  0.00    -0.300 A  
HETATM   18  C   UNL     1      -8.442   8.719  65.451  1.00  0.00    -0.186 A  
HETATM   19  C   UNL     1      -7.427   9.277  66.247  1.00  0.00    -0.096 A  
HETATM   20  C   UNL     1      -7.668  10.363  67.101  1.00  0.00    -0.100 A  
BRANCH  18  21
HETATM   21  C   UNL     1      -8.181   7.524  64.596  1.00  0.00    -0.052 A  
HETATM   22  C   UNL     1      -7.668   7.726  63.290  1.00  0.00    -0.135 A  
HETATM   23  C   UNL     1      -7.378   6.667  62.424  1.00  0.00    -0.055 A  
HETATM   24  C   UNL     1      -7.617   5.364  62.824  1.00  0.00    -0.062 A  
HETATM   25  C   UNL     1      -8.142   5.128  64.093  1.00  0.00    -0.119 A  
HETATM   26  C   UNL     1      -8.411   6.182  64.996  1.00  0.00    -0.112 A  
BRANCH  26  27
HETATM   27  C   UNL     1      -8.891   5.790  66.316  1.00  0.00    -0.140 A  
HETATM   28  N   UNL     1      -8.135   5.827  67.431  1.00  0.00    -0.102 NA 
HETATM   29  N   UNL     1      -9.019   5.384  68.334  1.00  0.00    -0.107 NA 
HETATM   30  N   UNL     1     -10.232   5.080  67.868  1.00  0.00    -0.121 NA 
HETATM   31  H   UNL     1      -8.779   5.285  69.320  1.00  0.00     0.000 HD 
HETATM   32  N   UNL     1     -10.173   5.363  66.574  1.00  0.00    -0.222 NA 
ENDBRANCH  26  27
ENDBRANCH  18  21
ENDBRANCH  14  15
ENDBRANCH  10  14
ENDBRANCH   4   5
ENDBRANCH   3   4
ENDBRANCH   2   3
TORSDOF 8
ENDMDL
MODEL      174
REMARK 921   NORMALIZED FREE ENERGY PREDICTED BY IDOCK:   -4.73 KCAL/MOL
REMARK 922        TOTAL FREE ENERGY PREDICTED BY IDOCK:   -7.97 KCAL/MOL
REMARK 923 INTER-LIGAND FREE ENERGY PREDICTED BY IDOCK:   -6.35 KCAL/MOL
REMARK 924 INTRA-LIGAND FREE ENERGY PREDICTED BY IDOCK:   -1.62 KCAL/MOL
REMARK 927      BINDING AFFINITY PREDICTED BY RF-SCORE:    0.00 PKD
ROOT
HETATM    1  C   UNL     1     -12.175   6.668  71.480  1.00  0.00    -0.391 C  
HETATM    2  C   UNL     1     -11.026   6.126  70.646  1.00  0.00    -0.376 C  
ENDROOT
BRANCH   2   3
HETATM    3  C   UNL     1     -11.053   6.681  69.217  1.00  0.00    -0.345 C  
BRANCH   3   4
HETATM    4  C   UNL     1     -10.397   8.059  69.073  1.00  0.00    -0.228 C  
BRANCH   4   5
HETATM    5  C   UNL     1      -9.429   8.140  67.934  1.00  0.00    -0.146 A  
HETATM    6  N   UNL     1      -8.221   7.613  67.987  1.00  0.00    -0.123 NA 
HETATM    7  C   UNL     1      -7.633   7.864  66.786  1.00  0.00    -0.098 A  
HETATM    8 CL   UNL     1      -6.049   7.352  66.433  1.00  0.00    -0.039 Cl 
HETATM    9  C   UNL     1      -8.474   8.591  65.968  1.00  0.00    -0.140 A  
HETATM   10  N   UNL     1      -9.624   8.787  66.722  1.00  0.00    -0.187 NA 
BRANCH   9  11
HETATM   11  C   UNL     1      -8.229   9.103  64.603  1.00  0.00    -0.152 C  
HETATM   12  H   UNL     1      -7.199  10.543  63.840  1.00  0.00     0.000 HD 
HETATM   13  O   UNL     1      -7.357  10.214  64.718  1.00  0.00    -0.141 OA 
ENDBRANCH   9  11
BRANCH  10  14
HETATM   14  C   UNL     1     -10.714   9.708  66.405  1.00  0.00     0.085 C  
BRANCH  14  15
HETATM   15  C   UNL     1     -10.445  11.148  66.757  1.00  0.00    -0.297 A  
HETATM   16  C   UNL     1     -10.458  11.573  68.088  1.00  0.00    -0.216 A  
HETATM   17  C   UNL     1     -10.166  12.903  68.423  1.00  0.00    -0.238 A  
HETATM   18  C   UNL     1      -9.919  13.879  67.444  1.00  0.00    -0.240 A  
HETATM   19  C   UNL     1      -9.872  13.428  66.113  1.00  0.00    -0.289 A  
HETATM   20  C   UNL     1     -10.117  12.089  65.776  1.00  0.00    -0.267 A  
BRANCH  18  21
HETATM   21  C   UNL     1      -9.718  15.320  67.777  1.00  0.00    -0.215 A  
HETATM   22  C   UNL     1     -10.846  16.177  67.780  1.00  0.00    -0.318 A  
HETATM   23  C   UNL     1     -10.756  17.537  68.095  1.00  0.00    -0.330 A  
HETATM   24  C   UNL     1      -9.526  18.096  68.394  1.00  0.00    -0.327 A  
HETATM   25  C   UNL     1      -8.391  17.288  68.380  1.00  0.00    -0.261 A  
HETATM   26  C   UNL     1      -8.465  15.904  68.097  1.00  0.00    -0.167 A  
BRANCH  26  27
HETATM   27  C   UNL     1      -7.212  15.163  68.186  1.00  0.00    -0.115 A  
HETATM   28  N   UNL     1      -6.243  15.214  67.250  1.00  0.00    -0.290 NA 
HETATM   29  N   UNL     1      -5.343  14.385  67.793  1.00  0.00    -0.305 NA 
HETATM   30  N   UNL     1      -5.680  13.836  68.963  1.00  0.00    -0.073 NA 
HETATM   31  H   UNL     1      -4.452  14.184  67.340  1.00  0.00     0.000 HD 
HETATM   32  N   UNL     1      -6.870  14.350  69.241  1.00  0.00    -0.123 NA 
ENDBRANCH  26  27
ENDBRANCH  18  21
ENDBRANCH  14  15
ENDBRANCH  10  14
ENDBRANCH   4   5
ENDBRANCH   3   4
ENDBRANCH   2   3
TORSDOF 8
ENDMDL
MODEL      175
REMARK 921   NORMALIZED FREE ENERGY PREDICTED BY IDOCK:   -4.73 KCAL/MOL
REMARK 922        TOTAL FREE ENERGY PREDICTED BY IDOCK:   -7.97 KCAL/MOL
REMARK 923 INTER-LIGAND FREE ENERGY PREDICTED BY IDOCK:   -6.49 KCAL/MOL
REMARK 924 INTRA-LIGAND FREE ENERGY PREDICTED BY IDOCK:   -1.48 KCAL/MOL
REMARK 927      BINDING AFFINITY PREDICTED BY RF-SCORE:    0.00 PKD
ROOT
HETATM    1  C   UNL     1      -9.420   4.738  67.990  1.00  0.00    -0.182 C  
HETATM    2  C   UNL     1      -8.157   5.550  67.756  1.00  0.00    -0.101 C  
ENDROOT
BRANCH   2   3
HETATM    3  C   UNL     1      -7.517   5.994  69.076  1.00  0.00    -0.086 C  
BRANCH   3   4
HETATM    4  C   UNL     1      -7.885   7.423  69.495  1.00  0.00    -0.121 C  
BRANCH   4   5
HETATM    5  C   UNL     1      -9.020   7.481  70.470  1.00  0.00    -0.152 A  
HETATM    6  N   UNL     1      -8.954   6.943  71.672  1.00  0.00    -0.136 NA 
HETATM    7  C   UNL     1     -10.146   7.197  72.279  1.00  0.00    -0.181 A  
HETATM    8 CL   UNL     1     -10.484   6.667  73.860  1.00  0.00    -0.370 Cl 
HETATM    9  C   UNL     1     -10.993   7.883  71.432  1.00  0.00    -0.232 A  
HETATM   10  N   UNL     1     -10.270   8.044  70.257  1.00  0.00    -0.197 NA 
BRANCH   9  11
HETATM   11  C   UNL     1     -12.382   8.328  71.669  1.00  0.00    -0.315 C  
HETATM   12  H   UNL     1     -13.214   9.885  72.444  1.00  0.00     0.000 HD 
HETATM   13  O   UNL     1     -12.320   9.599  72.292  1.00  0.00    -0.275 OA 
ENDBRANCH   9  11
BRANCH  10  14
HETATM   14  C   UNL     1     -10.807   8.484  68.971  1.00  0.00    -0.001 C  
BRANCH  14  15
HETATM   15  C   UNL     1     -10.690   9.964  68.710  1.00  0.00    -0.247 A  
HETATM   16  C   UNL     1     -11.628  10.626  67.914  1.00  0.00    -0.132 A  
HETATM   17  C   UNL     1     -11.548  12.010  67.705  1.00  0.00    -0.392 A  
HETATM   18  C   UNL     1     -10.492  12.778  68.220  1.00  0.00    -0.250 A  
HETATM   19  C   UNL     1      -9.579  12.105  69.050  1.00  0.00     0.270 A  
HETATM   20  C   UNL     1      -9.681  10.729  69.302  1.00  0.00    -0.142 A  
BRANCH  18  21
HETATM   21  C   UNL     1     -10.330  14.230  67.914  1.00  0.00    -0.233 A  
HETATM   22  C   UNL     1      -9.709  14.599  66.695  1.00  0.00    -0.283 A  
HETATM   23  C   UNL     1      -9.529  15.934  66.316  1.00  0.00    -0.350 A  
HETATM   24  C   UNL     1      -9.940  16.951  67.158  1.00  0.00    -0.276 A  
HETATM   25  C   UNL     1     -10.535  16.626  68.376  1.00  0.00    -0.323 A  
HETATM   26  C   UNL     1     -10.757  15.284  68.763  1.00  0.00    -0.241 A  
BRANCH  26  27
HETATM   27  C   UNL     1     -11.453  15.087  70.029  1.00  0.00    -0.276 A  
HETATM   28  N   UNL     1     -10.957  15.467  71.224  1.00  0.00    -0.288 NA 
HETATM   29  N   UNL     1     -11.950  15.073  72.030  1.00  0.00    -0.379 NA 
HETATM   30  N   UNL     1     -12.993  14.489  71.437  1.00  0.00    -0.315 NA 
HETATM   31  H   UNL     1     -11.911  15.211  73.040  1.00  0.00     0.000 HD 
HETATM   32  N   UNL     1     -12.698  14.516  70.144  1.00  0.00    -0.285 NA 
ENDBRANCH  26  27
ENDBRANCH  18  21
ENDBRANCH  14  15
ENDBRANCH  10  14
ENDBRANCH   4   5
ENDBRANCH   3   4
ENDBRANCH   2   3
TORSDOF 8
ENDMDL
MODEL      176
REMARK 921   NORMALIZED FREE ENERGY PREDICTED BY IDOCK:   -4.71 KCAL/MOL
REMARK 922        TOTAL FREE ENERGY PREDICTED BY IDOCK:   -7.95 KCAL/MOL
REMARK 923 INTER-LIGAND FREE ENERGY PREDICTED BY IDOCK:   -6.39 KCAL/MOL
REMARK 924 INTRA-LIGAND FREE ENERGY PREDICTED BY IDOCK:   -1.55 KCAL/MOL
REMARK 927      BINDING AFFINITY PREDICTED BY RF-SCORE:    0.00 PKD
ROOT
HETATM    1  C   UNL     1      -9.341  10.022  64.644  1.00  0.00    -0.338 C  
HETATM    2  C   UNL     1      -8.105   9.140  64.570  1.00  0.00    -0.139 C  
ENDROOT
BRANCH   2   3
HETATM    3  C   UNL     1      -7.164   9.383  65.755  1.00  0.00    -0.095 C  
BRANCH   3   4
HETATM    4  C   UNL     1      -6.800   8.112  66.530  1.00  0.00    -0.067 C  
BRANCH   4   5
HETATM    5  C   UNL     1      -7.991   7.284  66.906  1.00  0.00    -0.112 A  
HETATM    6  N   UNL     1      -8.535   6.407  66.084  1.00  0.00    -0.134 NA 
HETATM    7  C   UNL     1      -9.574   5.839  66.755  1.00  0.00    -0.147 A  
HETATM    8 CL   UNL     1     -10.558   4.644  66.047  1.00  0.00    -0.319 Cl 
HETATM    9  C   UNL     1      -9.708   6.388  68.014  1.00  0.00    -0.122 A  
HETATM   10  N   UNL     1      -8.697   7.337  68.099  1.00  0.00    -0.128 NA 
BRANCH   9  11
HETATM   11  C   UNL     1     -10.714   6.091  69.055  1.00  0.00    -0.324 C  
HETATM   12  H   UNL     1     -11.013   4.659  70.309  1.00  0.00     0.000 HD 
HETATM   13  O   UNL     1     -10.365   4.849  69.640  1.00  0.00    -0.243 OA 
ENDBRANCH   9  11
BRANCH  10  14
HETATM   14  C   UNL     1      -8.567   8.365  69.130  1.00  0.00    -0.134 C  
BRANCH  14  15
HETATM   15  C   UNL     1      -8.961   9.752  68.692  1.00  0.00    -0.130 A  
HETATM   16  C   UNL     1      -8.036  10.800  68.718  1.00  0.00    -0.143 A  
HETATM   17  C   UNL     1      -8.386  12.082  68.271  1.00  0.00    -0.163 A  
HETATM   18  C   UNL     1      -9.688  12.390  67.847  1.00  0.00    -0.204 A  
HETATM   19  C   UNL     1     -10.596  11.317  67.790  1.00  0.00    -0.239 A  
HETATM   20  C   UNL     1     -10.238  10.022  68.191  1.00  0.00    -0.205 A  
BRANCH  18  21
HETATM   21  C   UNL     1     -10.106  13.774  67.474  1.00  0.00    -0.241 A  
HETATM   22  C   UNL     1      -9.673  14.299  66.232  1.00  0.00    -0.321 A  
HETATM   23  C   UNL     1     -10.028  15.579  65.791  1.00  0.00    -0.391 A  
HETATM   24  C   UNL     1     -10.809  16.392  66.593  1.00  0.00    -0.086 A  
HETATM   25  C   UNL     1     -11.236  15.917  67.832  1.00  0.00    -0.297 A  
HETATM   26  C   UNL     1     -10.917  14.614  68.281  1.00  0.00    -0.261 A  
BRANCH  26  27
HETATM   27  C   UNL     1     -11.486  14.220  69.564  1.00  0.00    -0.287 A  
HETATM   28  N   UNL     1     -11.240  14.862  70.723  1.00  0.00    -0.221 NA 
HETATM   29  N   UNL     1     -11.977  14.127  71.565  1.00  0.00    -0.382 NA 
HETATM   30  N   UNL     1     -12.640  13.102  71.024  1.00  0.00    -0.353 NA 
HETATM   31  H   UNL     1     -12.030  14.339  72.561  1.00  0.00     0.000 HD 
HETATM   32  N   UNL     1     -12.354  13.166  69.731  1.00  0.00    -0.170 NA 
ENDBRANCH  26  27
ENDBRANCH  18  21
ENDBRANCH  14  15
ENDBRANCH  10  14
ENDBRANCH   4   5
ENDBRANCH   3   4
ENDBRANCH   2   3
TORSDOF 8
ENDMDL
MODEL      177
REMARK 921   NORMALIZED FREE ENERGY PREDICTED BY IDOCK:   -4.65 KCAL/MOL
REMARK 922        TOTAL FREE ENERGY PREDICTED BY IDOCK:   -7.85 KCAL/MOL
REMARK 923 INTER-LIGAND FREE ENERGY PREDICTED BY IDOCK:   -6.85 KCAL/MOL
REMARK 924 INTRA-LIGAND FREE ENERGY PREDICTED BY IDOCK:   -1.00 KCAL/MOL
REMARK 927      BINDING AFFINITY PREDICTED BY RF-SCORE:    0.00 PKD
ROOT
HETATM    1  C   UNL     1     -12.923   9.265  72.047  1.00  0.00    -0.504 C  
HETATM    2  C   UNL     1     -12.821  10.665  71.466  1.00  0.00    -0.567 C  
ENDROOT
BRANCH   2   3
HETATM    3  C   UNL     1     -12.565  10.635  69.956  1.00  0.00    -0.232 C  
BRANCH   3   4
HETATM    4  C   UNL     1     -11.188  11.171  69.548  1.00  0.00    -0.341 C  
BRANCH   4   5
HETATM    5  C   UNL     1     -11.106  11.560  68.104  1.00  0.00    -0.246 A  
HETATM    6  N   UNL     1     -12.146  12.003  67.426  1.00  0.00    -0.520 NA 
HETATM    7  C   UNL     1     -11.706  12.267  66.165  1.00  0.00    -0.376 A  
HETATM    8 CL   UNL     1     -12.743  12.861  64.954  1.00  0.00    -0.517 Cl 
HETATM    9  C   UNL     1     -10.367  11.957  66.036  1.00  0.00    -0.233 A  
HETATM   10  N   UNL     1      -9.989  11.478  67.284  1.00  0.00    -0.190 NA 
BRANCH   9  11
HETATM   11  C   UNL     1      -9.503  12.055  64.842  1.00  0.00     0.080 C  
HETATM   12  H   UNL     1      -9.502  11.279  63.077  1.00  0.00     0.000 HD 
HETATM   13  O   UNL     1     -10.058  11.215  63.845  1.00  0.00    -0.284 OA 
ENDBRANCH   9  11
BRANCH  10  14
HETATM   14  C   UNL     1      -8.741  10.785  67.597  1.00  0.00    -0.126 C  
BRANCH  14  15
HETATM   15  C   UNL     1      -8.851   9.284  67.658  1.00  0.00    -0.122 A  
HETATM   16  C   UNL     1     -10.089   8.651  67.519  1.00  0.00    -0.277 A  
HETATM   17  C   UNL     1     -10.190   7.253  67.532  1.00  0.00    -0.284 A  
HETATM   18  C   UNL     1      -9.075   6.430  67.755  1.00  0.00    -0.111 A  
HETATM   19  C   UNL     1      -7.832   7.079  67.855  1.00  0.00    -0.114 A  
HETATM   20  C   UNL     1      -7.718   8.476  67.796  1.00  0.00    -0.103 A  
BRANCH  18  21
HETATM   21  C   UNL     1      -9.183   4.947  67.884  1.00  0.00    -0.142 A  
HETATM   22  C   UNL     1      -9.185   4.165  66.702  1.00  0.00    -0.164 A  
HETATM   23  C   UNL     1      -9.266   2.768  66.725  1.00  0.00    -0.128 A  
HETATM   24  C   UNL     1      -9.375   2.103  67.933  1.00  0.00    -0.223 A  
HETATM   25  C   UNL     1      -9.398   2.841  69.116  1.00  0.00    -0.206 A  
HETATM   26  C   UNL     1      -9.283   4.251  69.116  1.00  0.00    -0.209 A  
BRANCH  26  27
HETATM   27  C   UNL     1      -9.251   4.892  70.426  1.00  0.00    -0.134 A  
HETATM   28  N   UNL     1     -10.190   5.755  70.862  1.00  0.00    -0.205 NA 
HETATM   29  N   UNL     1      -9.706   6.039  72.078  1.00  0.00    -0.156 NA 
HETATM   30  N   UNL     1      -8.565   5.434  72.413  1.00  0.00    -0.122 NA 
HETATM   31  H   UNL     1     -10.183   6.680  72.711  1.00  0.00     0.000 HD 
HETATM   32  N   UNL     1      -8.274   4.670  71.368  1.00  0.00    -0.099 NA 
ENDBRANCH  26  27
ENDBRANCH  18  21
ENDBRANCH  14  15
ENDBRANCH  10  14
ENDBRANCH   4   5
ENDBRANCH   3   4
ENDBRANCH   2   3
TORSDOF 8
ENDMDL
MODEL      178
REMARK 921   NORMALIZED FREE ENERGY PREDICTED BY IDOCK:   -4.64 KCAL/MOL
REMARK 922        TOTAL FREE ENERGY PREDICTED BY IDOCK:   -7.84 KCAL/MOL
REMARK 923 INTER-LIGAND FREE ENERGY PREDICTED BY IDOCK:   -6.26 KCAL/MOL
REMARK 924 INTRA-LIGAND FREE ENERGY PREDICTED BY IDOCK:   -1.57 KCAL/MOL
REMARK 927      BINDING AFFINITY PREDICTED BY RF-SCORE:    0.00 PKD
ROOT
HETATM    1  C   UNL     1      -5.830  14.303  68.435  1.00  0.00    -0.105 C  
HETATM    2  C   UNL     1      -5.324  13.049  67.742  1.00  0.00    -0.111 C  
ENDROOT
BRANCH   2   3
HETATM    3  C   UNL     1      -6.468  12.253  67.104  1.00  0.00    -0.118 C  
BRANCH   3   4
HETATM    4  C   UNL     1      -7.638  11.976  68.055  1.00  0.00    -0.120 C  
BRANCH   4   5
HETATM    5  C   UNL     1      -8.943  12.526  67.567  1.00  0.00    -0.185 A  
HETATM    6  N   UNL     1      -9.603  13.469  68.210  1.00  0.00    -0.218 NA 
HETATM    7  C   UNL     1     -10.723  13.727  67.481  1.00  0.00    -0.256 A  
HETATM    8 CL   UNL     1     -11.866  14.890  67.965  1.00  0.00    -0.339 Cl 
HETATM    9  C   UNL     1     -10.787  12.910  66.370  1.00  0.00    -0.274 A  
HETATM   10  N   UNL     1      -9.646  12.120  66.442  1.00  0.00    -0.230 NA 
BRANCH   9  11
HETATM   11  C   UNL     1     -11.838  12.832  65.334  1.00  0.00    -0.415 C  
HETATM   12  H   UNL     1     -12.171  13.700  63.646  1.00  0.00     0.000 HD 
HETATM   13  O   UNL     1     -11.495  13.751  64.312  1.00  0.00    -0.376 OA 
ENDBRANCH   9  11
BRANCH  10  14
HETATM   14  C   UNL     1      -9.376  10.926  65.643  1.00  0.00    -0.207 C  
BRANCH  14  15
HETATM   15  C   UNL     1      -9.345   9.638  66.423  1.00  0.00    -0.224 A  
HETATM   16  C   UNL     1     -10.492   9.162  67.063  1.00  0.00    -0.311 A  
HETATM   17  C   UNL     1     -10.479   7.942  67.754  1.00  0.00    -0.278 A  
HETATM   18  C   UNL     1      -9.307   7.181  67.895  1.00  0.00    -0.128 A  
HETATM   19  C   UNL     1      -8.172   7.653  67.213  1.00  0.00    -0.119 A  
HETATM   20  C   UNL     1      -8.191   8.849  66.481  1.00  0.00    -0.114 A  
BRANCH  18  21
HETATM   21  C   UNL     1      -9.249   5.939  68.720  1.00  0.00    -0.120 A  
HETATM   22  C   UNL     1      -9.412   4.689  68.072  1.00  0.00    -0.191 A  
HETATM   23  C   UNL     1      -9.356   3.472  68.760  1.00  0.00    -0.233 A  
HETATM   24  C   UNL     1      -9.163   3.463  70.130  1.00  0.00    -0.225 A  
HETATM   25  C   UNL     1      -9.021   4.674  70.805  1.00  0.00    -0.166 A  
HETATM   26  C   UNL     1      -9.040   5.913  70.123  1.00  0.00    -0.155 A  
BRANCH  26  27
HETATM   27  C   UNL     1      -8.809   7.099  70.941  1.00  0.00    -0.150 A  
HETATM   28  N   UNL     1      -9.758   7.684  71.698  1.00  0.00    -0.160 NA 
HETATM   29  N   UNL     1      -9.054   8.693  72.226  1.00  0.00    -0.343 NA 
HETATM   30  N   UNL     1      -7.775   8.774  71.854  1.00  0.00    -0.311 NA 
HETATM   31  H   UNL     1      -9.472   9.360  72.874  1.00  0.00     0.000 HD 
HETATM   32  N   UNL     1      -7.596   7.737  71.048  1.00  0.00    -0.080 NA 
ENDBRANCH  26  27
ENDBRANCH  18  21
ENDBRANCH  14  15
ENDBRANCH  10  14
ENDBRANCH   4   5
ENDBRANCH   3   4
ENDBRANCH   2   3
TORSDOF 8
ENDMDL
MODEL      179
REMARK 921   NORMALIZED FREE ENERGY PREDICTED BY IDOCK:   -4.63 KCAL/MOL
REMARK 922        TOTAL FREE ENERGY PREDICTED BY IDOCK:   -7.82 KCAL/MOL
REMARK 923 INTER-LIGAND FREE ENERGY PREDICTED BY IDOCK:   -6.58 KCAL/MOL
REMARK 924 INTRA-LIGAND FREE ENERGY PREDICTED BY IDOCK:   -1.24 KCAL/MOL
REMARK 927      BINDING AFFINITY PREDICTED BY RF-SCORE:    0.00 PKD
ROOT
HETATM    1  C   UNL     1      -6.277   9.376  66.628  1.00  0.00    -0.065 C  
HETATM    2  C   UNL     1      -6.901  10.098  67.811  1.00  0.00    -0.075 C  
ENDROOT
BRANCH   2   3
HETATM    3  C   UNL     1      -6.494   9.461  69.144  1.00  0.00    -0.042 C  
BRANCH   3   4
HETATM    4  C   UNL     1      -6.807   7.963  69.237  1.00  0.00    -0.048 C  
BRANCH   4   5
HETATM    5  C   UNL     1      -7.607   7.598  70.449  1.00  0.00    -0.088 A  
HETATM    6  N   UNL     1      -7.070   7.478  71.647  1.00  0.00    -0.061 NA 
HETATM    7  C   UNL     1      -8.082   7.153  72.497  1.00  0.00    -0.103 A  
HETATM    8 CL   UNL     1      -7.817   6.900  74.159  1.00  0.00    -0.117 Cl 
HETATM    9  C   UNL     1      -9.278   7.035  71.818  1.00  0.00    -0.141 A  
HETATM   10  N   UNL     1      -8.962   7.301  70.491  1.00  0.00    -0.153 NA 
BRANCH   9  11
HETATM   11  C   UNL     1     -10.610   6.669  72.340  1.00  0.00    -0.214 C  
HETATM   12  H   UNL     1     -11.803   7.374  73.680  1.00  0.00     0.000 HD 
HETATM   13  O   UNL     1     -10.946   7.610  73.344  1.00  0.00    -0.371 OA 
ENDBRANCH   9  11
BRANCH  10  14
HETATM   14  C   UNL     1      -9.826   7.060  69.337  1.00  0.00    -0.160 C  
BRANCH  14  15
HETATM   15  C   UNL     1     -10.132   8.282  68.511  1.00  0.00    -0.217 A  
HETATM   16  C   UNL     1     -10.425   9.504  69.122  1.00  0.00    -0.224 A  
HETATM   17  C   UNL     1     -10.667  10.654  68.358  1.00  0.00    -0.260 A  
HETATM   18  C   UNL     1     -10.697  10.619  66.955  1.00  0.00    -0.297 A  
HETATM   19  C   UNL     1     -10.362   9.392  66.354  1.00  0.00    -0.237 A  
HETATM   20  C   UNL     1     -10.073   8.250  67.114  1.00  0.00    -0.334 A  
BRANCH  18  21
HETATM   21  C   UNL     1     -11.063  11.807  66.128  1.00  0.00    -0.358 A  
HETATM   22  C   UNL     1     -11.909  12.791  66.697  1.00  0.00    -0.462 A  
HETATM   23  C   UNL     1     -12.292  13.945  66.005  1.00  0.00    -0.511 A  
HETATM   24  C   UNL     1     -11.863  14.143  64.705  1.00  0.00    -0.443 A  
HETATM   25  C   UNL     1     -11.048  13.185  64.104  1.00  0.00    -0.426 A  
HETATM   26  C   UNL     1     -10.622  12.029  64.798  1.00  0.00    -0.340 A  
BRANCH  26  27
HETATM   27  C   UNL     1      -9.714  11.145  64.076  1.00  0.00    -0.283 A  
HETATM   28  N   UNL     1     -10.022  10.546  62.908  1.00  0.00    -0.190 NA 
HETATM   29  N   UNL     1      -8.888   9.872  62.681  1.00  0.00    -0.216 NA 
HETATM   30  N   UNL     1      -7.930  10.003  63.601  1.00  0.00    -0.150 NA 
HETATM   31  H   UNL     1      -8.763   9.291  61.851  1.00  0.00     0.000 HD 
HETATM   32  N   UNL     1      -8.439  10.843  64.492  1.00  0.00     0.002 NA 
ENDBRANCH  26  27
ENDBRANCH  18  21
ENDBRANCH  14  15
ENDBRANCH  10  14
ENDBRANCH   4   5
ENDBRANCH   3   4
ENDBRANCH   2   3
TORSDOF 8
ENDMDL
MODEL      180
REMARK 921   NORMALIZED FREE ENERGY PREDICTED BY IDOCK:   -4.59 KCAL/MOL
REMARK 922        TOTAL FREE ENERGY PREDICTED BY IDOCK:   -7.76 KCAL/MOL
REMARK 923 INTER-LIGAND FREE ENERGY PREDICTED BY IDOCK:   -6.68 KCAL/MOL
REMARK 924 INTRA-LIGAND FREE ENERGY PREDICTED BY IDOCK:   -1.08 KCAL/MOL
REMARK 927      BINDING AFFINITY PREDICTED BY RF-SCORE:    0.00 PKD
ROOT
HETATM    1  C   UNL     1      -6.374   9.674  64.468  1.00  0.00    -0.099 C  
HETATM    2  C   UNL     1      -6.274  10.712  65.573  1.00  0.00    -0.093 C  
ENDROOT
BRANCH   2   3
HETATM    3  C   UNL     1      -7.550  10.763  66.421  1.00  0.00    -0.141 C  
BRANCH   3   4
HETATM    4  C   UNL     1      -8.620  11.715  65.876  1.00  0.00     0.065 C  
BRANCH   4   5
HETATM    5  C   UNL     1      -9.023  12.777  66.852  1.00  0.00    -0.213 A  
HETATM    6  N   UNL     1      -8.170  13.657  67.338  1.00  0.00    -0.177 NA 
HETATM    7  C   UNL     1      -8.878  14.465  68.174  1.00  0.00    -0.180 A  
HETATM    8 CL   UNL     1      -8.147  15.748  69.021  1.00  0.00    -0.207 Cl 
HETATM    9  C   UNL     1     -10.198  14.070  68.241  1.00  0.00    -0.249 A  
HETATM   10  N   UNL     1     -10.282  12.964  67.403  1.00  0.00    -0.228 NA 
BRANCH   9  11
HETATM   11  C   UNL     1     -11.299  14.640  69.044  1.00  0.00    -0.277 C  
HETATM   12  H   UNL     1     -12.345  16.259  68.990  1.00  0.00     0.000 HD 
HETATM   13  O   UNL     1     -11.636  15.892  68.473  1.00  0.00    -0.377 OA 
ENDBRANCH   9  11
BRANCH  10  14
HETATM   14  C   UNL     1     -11.404  12.031  67.322  1.00  0.00    -0.330 C  
BRANCH  14  15
HETATM   15  C   UNL     1     -11.183  10.716  68.023  1.00  0.00    -0.373 A  
HETATM   16  C   UNL     1     -10.974   9.543  67.293  1.00  0.00    -0.062 A  
HETATM   17  C   UNL     1     -10.725   8.325  67.941  1.00  0.00    -0.138 A  
HETATM   18  C   UNL     1     -10.745   8.211  69.340  1.00  0.00    -0.164 A  
HETATM   19  C   UNL     1     -10.918   9.406  70.060  1.00  0.00    -0.267 A  
HETATM   20  C   UNL     1     -11.121  10.636  69.417  1.00  0.00    -0.315 A  
BRANCH  18  21
HETATM   21  C   UNL     1     -10.593   6.903  70.043  1.00  0.00    -0.254 A  
HETATM   22  C   UNL     1      -9.625   5.986  69.563  1.00  0.00    -0.171 A  
HETATM   23  C   UNL     1      -9.401   4.744  70.167  1.00  0.00    -0.222 A  
HETATM   24  C   UNL     1     -10.158   4.362  71.260  1.00  0.00    -0.202 A  
HETATM   25  C   UNL     1     -11.136   5.229  71.746  1.00  0.00    -0.074 A  
HETATM   26  C   UNL     1     -11.355   6.502  71.171  1.00  0.00    -0.367 A  
BRANCH  26  27
HETATM   27  C   UNL     1     -12.358   7.336  71.822  1.00  0.00    -0.341 A  
HETATM   28  N   UNL     1     -13.661   7.351  71.475  1.00  0.00    -0.390 NA 
HETATM   29  N   UNL     1     -14.130   8.249  72.349  1.00  0.00    -0.611 NA 
HETATM   30  N   UNL     1     -13.236   8.780  73.185  1.00  0.00    -0.013 NA 
HETATM   31  H   UNL     1     -15.115   8.513  72.374  1.00  0.00     0.000 HD 
HETATM   32  N   UNL     1     -12.094   8.180  72.875  1.00  0.00    -0.208 NA 
ENDBRANCH  26  27
ENDBRANCH  18  21
ENDBRANCH  14  15
ENDBRANCH  10  14
ENDBRANCH   4   5
ENDBRANCH   3   4
ENDBRANCH   2   3
TORSDOF 8
ENDMDL
MODEL      181
REMARK 921   NORMALIZED FREE ENERGY PREDICTED BY IDOCK:   -4.57 KCAL/MOL
REMARK 922        TOTAL FREE ENERGY PREDICTED BY IDOCK:   -7.74 KCAL/MOL
REMARK 923 INTER-LIGAND FREE ENERGY PREDICTED BY IDOCK:   -7.84 KCAL/MOL
REMARK 924 INTRA-LIGAND FREE ENERGY PREDICTED BY IDOCK:    0.10 KCAL/MOL
REMARK 927      BINDING AFFINITY PREDICTED BY RF-SCORE:    0.00 PKD
ROOT
HETATM    1  C   UNL     1      -5.138  19.326  67.517  1.00  0.00    -0.165 C  
HETATM    2  C   UNL     1      -5.162  17.870  67.079  1.00  0.00    -0.155 C  
ENDROOT
BRANCH   2   3
HETATM    3  C   UNL     1      -5.877  17.694  65.735  1.00  0.00    -0.114 C  
BRANCH   3   4
HETATM    4  C   UNL     1      -6.867  18.818  65.407  1.00  0.00    -0.197 C  
BRANCH   4   5
HETATM    5  C   UNL     1      -8.090  18.804  66.271  1.00  0.00    -0.251 A  
HETATM    6  N   UNL     1      -8.417  19.810  67.059  1.00  0.00    -0.305 NA 
HETATM    7  C   UNL     1      -9.578  19.460  67.676  1.00  0.00    -0.324 A  
HETATM    8 CL   UNL     1     -10.351  20.486  68.792  1.00  0.00    -0.117 Cl 
HETATM    9  C   UNL     1      -9.977  18.195  67.295  1.00  0.00    -0.330 A  
HETATM   10  N   UNL     1      -9.001  17.766  66.404  1.00  0.00    -0.379 NA 
BRANCH   9  11
HETATM   11  C   UNL     1     -11.152  17.417  67.742  1.00  0.00     0.002 C  
HETATM   12  H   UNL     1     -11.703  16.587  69.392  1.00  0.00     0.000 HD 
HETATM   13  O   UNL     1     -10.947  17.087  69.104  1.00  0.00    -0.234 OA 
ENDBRANCH   9  11
BRANCH  10  14
HETATM   14  C   UNL     1      -8.828  16.401  65.911  1.00  0.00    -0.135 C  
BRANCH  14  15
HETATM   15  C   UNL     1      -9.450  15.334  66.775  1.00  0.00    -0.264 A  
HETATM   16  C   UNL     1     -10.706  14.806  66.465  1.00  0.00    -0.319 A  
HETATM   17  C   UNL     1     -11.270  13.783  67.240  1.00  0.00    -0.329 A  
HETATM   18  C   UNL     1     -10.640  13.294  68.395  1.00  0.00    -0.263 A  
HETATM   19  C   UNL     1      -9.360  13.807  68.671  1.00  0.00    -0.081 A  
HETATM   20  C   UNL     1      -8.770  14.797  67.872  1.00  0.00    -0.167 A  
BRANCH  18  21
HETATM   21  C   UNL     1     -11.276  12.286  69.293  1.00  0.00    -0.275 A  
HETATM   22  C   UNL     1     -11.004  10.913  69.069  1.00  0.00    -0.285 A  
HETATM   23  C   UNL     1     -11.542   9.899  69.869  1.00  0.00    -0.184 A  
HETATM   24  C   UNL     1     -12.396  10.221  70.908  1.00  0.00    -0.471 A  
HETATM   25  C   UNL     1     -12.704  11.560  71.145  1.00  0.00    -0.458 A  
HETATM   26  C   UNL     1     -12.144  12.602  70.370  1.00  0.00    -0.381 A  
BRANCH  26  27
HETATM   27  C   UNL     1     -12.496  13.959  70.770  1.00  0.00    -0.375 A  
HETATM   28  N   UNL     1     -13.382  14.731  70.109  1.00  0.00     0.177 NA 
HETATM   29  N   UNL     1     -13.341  15.838  70.860  1.00  0.00    -0.722 NA 
HETATM   30  N   UNL     1     -12.512  15.809  71.906  1.00  0.00    -0.427 NA 
HETATM   31  H   UNL     1     -13.911  16.656  70.646  1.00  0.00     0.000 HD 
HETATM   32  N   UNL     1     -11.981  14.595  71.876  1.00  0.00    -0.310 NA 
ENDBRANCH  26  27
ENDBRANCH  18  21
ENDBRANCH  14  15
ENDBRANCH  10  14
ENDBRANCH   4   5
ENDBRANCH   3   4
ENDBRANCH   2   3
TORSDOF 8
ENDMDL
MODEL      182
REMARK 921   NORMALIZED FREE ENERGY PREDICTED BY IDOCK:   -4.56 KCAL/MOL
REMARK 922        TOTAL FREE ENERGY PREDICTED BY IDOCK:   -7.72 KCAL/MOL
REMARK 923 INTER-LIGAND FREE ENERGY PREDICTED BY IDOCK:   -7.01 KCAL/MOL
REMARK 924 INTRA-LIGAND FREE ENERGY PREDICTED BY IDOCK:   -0.72 KCAL/MOL
REMARK 927      BINDING AFFINITY PREDICTED BY RF-SCORE:    0.00 PKD
ROOT
HETATM    1  C   UNL     1      -7.686   3.639  70.261  1.00  0.00    -0.047 C  
HETATM    2  C   UNL     1      -7.757   4.943  71.037  1.00  0.00    -0.082 C  
ENDROOT
BRANCH   2   3
HETATM    3  C   UNL     1      -9.113   5.635  70.860  1.00  0.00    -0.160 C  
BRANCH   3   4
HETATM    4  C   UNL     1      -9.275   6.909  71.697  1.00  0.00    -0.146 C  
BRANCH   4   5
HETATM    5  C   UNL     1     -10.672   7.450  71.691  1.00  0.00    -0.214 A  
HETATM    6  N   UNL     1     -11.730   6.690  71.892  1.00  0.00    -0.299 NA 
HETATM    7  C   UNL     1     -12.815   7.509  71.830  1.00  0.00    -0.327 A  
HETATM    8 CL   UNL     1     -14.400   6.924  72.035  1.00  0.00    -0.391 Cl 
HETATM    9  C   UNL     1     -12.437   8.808  71.554  1.00  0.00    -0.326 A  
HETATM   10  N   UNL     1     -11.053   8.760  71.442  1.00  0.00    -0.267 NA 
BRANCH   9  11
HETATM   11  C   UNL     1     -13.287  10.003  71.368  1.00  0.00    -0.347 C  
HETATM   12  H   UNL     1     -13.085  11.894  71.680  1.00  0.00     0.000 HD 
HETATM   13  O   UNL     1     -12.539  11.126  71.800  1.00  0.00    -0.308 OA 
ENDBRANCH   9  11
BRANCH  10  14
HETATM   14  C   UNL     1     -10.197   9.820  70.911  1.00  0.00    -0.125 C  
BRANCH  14  15
HETATM   15  C   UNL     1      -9.893   9.708  69.440  1.00  0.00    -0.203 A  
HETATM   16  C   UNL     1     -10.919   9.752  68.492  1.00  0.00    -0.195 A  
HETATM   17  C   UNL     1     -10.636   9.692  67.120  1.00  0.00    -0.298 A  
HETATM   18  C   UNL     1      -9.330   9.514  66.638  1.00  0.00    -0.207 A  
HETATM   19  C   UNL     1      -8.306   9.510  67.602  1.00  0.00    -0.125 A  
HETATM   20  C   UNL     1      -8.578   9.618  68.973  1.00  0.00    -0.133 A  
BRANCH  18  21
HETATM   21  C   UNL     1      -9.025   9.336  65.188  1.00  0.00    -0.257 A  
HETATM   22  C   UNL     1      -8.222   8.235  64.797  1.00  0.00    -0.147 A  
HETATM   23  C   UNL     1      -7.897   7.979  63.460  1.00  0.00    -0.146 A  
HETATM   24  C   UNL     1      -8.343   8.832  62.466  1.00  0.00    -0.202 A  
HETATM   25  C   UNL     1      -9.116   9.938  62.816  1.00  0.00    -0.300 A  
HETATM   26  C   UNL     1      -9.484  10.196  64.157  1.00  0.00    -0.353 A  
BRANCH  26  27
HETATM   27  C   UNL     1     -10.354  11.345  64.375  1.00  0.00    -0.320 A  
HETATM   28  N   UNL     1     -11.639  11.400  63.971  1.00  0.00    -0.183 NA 
HETATM   29  N   UNL     1     -11.972  12.624  64.401  1.00  0.00    -0.375 NA 
HETATM   30  N   UNL     1     -11.010  13.312  65.019  1.00  0.00    -0.301 NA 
HETATM   31  H   UNL     1     -12.907  13.008  64.264  1.00  0.00     0.000 HD 
HETATM   32  N   UNL     1      -9.970  12.490  65.033  1.00  0.00    -0.223 NA 
ENDBRANCH  26  27
ENDBRANCH  18  21
ENDBRANCH  14  15
ENDBRANCH  10  14
ENDBRANCH   4   5
ENDBRANCH   3   4
ENDBRANCH   2   3
TORSDOF 8
ENDMDL
MODEL      183
REMARK 921   NORMALIZED FREE ENERGY PREDICTED BY IDOCK:   -4.55 KCAL/MOL
REMARK 922        TOTAL FREE ENERGY PREDICTED BY IDOCK:   -7.71 KCAL/MOL
REMARK 923 INTER-LIGAND FREE ENERGY PREDICTED BY IDOCK:   -7.17 KCAL/MOL
REMARK 924 INTRA-LIGAND FREE ENERGY PREDICTED BY IDOCK:   -0.54 KCAL/MOL
REMARK 927      BINDING AFFINITY PREDICTED BY RF-SCORE:    0.00 PKD
ROOT
HETATM    1  C   UNL     1     -10.771   8.306  72.273  1.00  0.00    -0.399 C  
HETATM    2  C   UNL     1      -9.292   8.019  72.068  1.00  0.00    -0.237 C  
ENDROOT
BRANCH   2   3
HETATM    3  C   UNL     1      -8.736   8.756  70.845  1.00  0.00    -0.235 C  
BRANCH   3   4
HETATM    4  C   UNL     1      -9.797   9.105  69.795  1.00  0.00    -0.192 C  
BRANCH   4   5
HETATM    5  C   UNL     1      -9.713   8.258  68.562  1.00  0.00    -0.156 A  
HETATM    6  N   UNL     1     -10.422   7.158  68.405  1.00  0.00    -0.194 NA 
HETATM    7  C   UNL     1     -10.105   6.661  67.178  1.00  0.00    -0.174 A  
HETATM    8 CL   UNL     1     -10.802   5.231  66.576  1.00  0.00    -0.292 Cl 
HETATM    9  C   UNL     1      -9.153   7.447  66.560  1.00  0.00    -0.162 A  
HETATM   10  N   UNL     1      -8.886   8.465  67.467  1.00  0.00    -0.135 NA 
BRANCH   9  11
HETATM   11  C   UNL     1      -8.506   7.260  65.245  1.00  0.00    -0.057 C  
HETATM   12  H   UNL     1      -7.157   6.082  64.532  1.00  0.00     0.000 HD 
HETATM   13  O   UNL     1      -7.573   6.202  65.378  1.00  0.00    -0.080 OA 
ENDBRANCH   9  11
BRANCH  10  14
HETATM   14  C   UNL     1      -7.774   9.410  67.395  1.00  0.00    -0.095 C  
BRANCH  14  15
HETATM   15  C   UNL     1      -8.181  10.857  67.291  1.00  0.00    -0.123 A  
HETATM   16  C   UNL     1      -7.479  11.849  67.980  1.00  0.00    -0.107 A  
HETATM   17  C   UNL     1      -7.827  13.202  67.852  1.00  0.00    -0.151 A  
HETATM   18  C   UNL     1      -8.931  13.614  67.089  1.00  0.00    -0.235 A  
HETATM   19  C   UNL     1      -9.603  12.609  66.371  1.00  0.00    -0.248 A  
HETATM   20  C   UNL     1      -9.230  11.260  66.459  1.00  0.00    -0.200 A  
BRANCH  18  21
HETATM   21  C   UNL     1      -9.383  15.036  67.032  1.00  0.00    -0.237 A  
HETATM   22  C   UNL     1      -8.579  16.026  67.649  1.00  0.00    -0.175 A  
HETATM   23  C   UNL     1      -8.913  17.384  67.632  1.00  0.00    -0.233 A  
HETATM   24  C   UNL     1     -10.082  17.799  67.019  1.00  0.00    -0.337 A  
HETATM   25  C   UNL     1     -10.909  16.850  66.420  1.00  0.00     0.033 A  
HETATM   26  C   UNL     1     -10.573  15.477  66.397  1.00  0.00    -0.312 A  
BRANCH  26  27
HETATM   27  C   UNL     1     -11.491  14.603  65.676  1.00  0.00    -0.340 A  
HETATM   28  N   UNL     1     -12.472  13.893  66.270  1.00  0.00    -0.443 NA 
HETATM   29  N   UNL     1     -13.003  13.283  65.203  1.00  0.00    -0.698 NA 
HETATM   30  N   UNL     1     -12.434  13.553  64.027  1.00  0.00    -0.683 NA 
HETATM   31  H   UNL     1     -13.797  12.648  65.285  1.00  0.00     0.000 HD 
HETATM   32  N   UNL     1     -11.475  14.424  64.313  1.00  0.00    -0.272 NA 
ENDBRANCH  26  27
ENDBRANCH  18  21
ENDBRANCH  14  15
ENDBRANCH  10  14
ENDBRANCH   4   5
ENDBRANCH   3   4
ENDBRANCH   2   3
TORSDOF 8
ENDMDL
MODEL      184
REMARK 921   NORMALIZED FREE ENERGY PREDICTED BY IDOCK:   -4.54 KCAL/MOL
REMARK 922        TOTAL FREE ENERGY PREDICTED BY IDOCK:   -7.69 KCAL/MOL
REMARK 923 INTER-LIGAND FREE ENERGY PREDICTED BY IDOCK:   -6.64 KCAL/MOL
REMARK 924 INTRA-LIGAND FREE ENERGY PREDICTED BY IDOCK:   -1.05 KCAL/MOL
REMARK 927      BINDING AFFINITY PREDICTED BY RF-SCORE:    0.00 PKD
ROOT
HETATM    1  C   UNL     1      -9.804  19.768  66.587  1.00  0.00    -0.538 C  
HETATM    2  C   UNL     1      -8.925  18.531  66.501  1.00  0.00    -0.300 C  
ENDROOT
BRANCH   2   3
HETATM    3  C   UNL     1      -9.757  17.245  66.470  1.00  0.00    -0.298 C  
BRANCH   3   4
HETATM    4  C   UNL     1      -8.927  15.972  66.269  1.00  0.00    -0.380 C  
BRANCH   4   5
HETATM    5  C   UNL     1      -9.743  14.792  65.840  1.00  0.00    -0.323 A  
HETATM    6  N   UNL     1     -10.430  14.773  64.714  1.00  0.00    -0.365 NA 
HETATM    7  C   UNL     1     -11.032  13.554  64.645  1.00  0.00    -0.385 A  
HETATM    8 CL   UNL     1     -12.028  13.113  63.338  1.00  0.00    -0.594 Cl 
HETATM    9  C   UNL     1     -10.744  12.799  65.764  1.00  0.00    -0.272 A  
HETATM   10  N   UNL     1      -9.930  13.611  66.544  1.00  0.00    -0.281 NA 
BRANCH   9  11
HETATM   11  C   UNL     1     -11.212  11.441  66.113  1.00  0.00    -0.137 C  
HETATM   12  H   UNL     1     -10.701   9.645  65.634  1.00  0.00     0.000 HD 
HETATM   13  O   UNL     1     -10.400  10.518  65.409  1.00  0.00    -0.278 OA 
ENDBRANCH   9  11
BRANCH  10  14
HETATM   14  C   UNL     1      -9.561  13.373  67.938  1.00  0.00    -0.216 C  
BRANCH  14  15
HETATM   15  C   UNL     1      -8.935  12.028  68.204  1.00  0.00    -0.190 A  
HETATM   16  C   UNL     1      -7.765  11.641  67.545  1.00  0.00    -0.136 A  
HETATM   17  C   UNL     1      -7.155  10.409  67.822  1.00  0.00    -0.084 A  
HETATM   18  C   UNL     1      -7.722   9.484  68.711  1.00  0.00    -0.080 A  
HETATM   19  C   UNL     1      -8.877   9.903  69.395  1.00  0.00    -0.195 A  
HETATM   20  C   UNL     1      -9.466  11.153  69.157  1.00  0.00    -0.000 A  
BRANCH  18  21
HETATM   21  C   UNL     1      -7.147   8.124  68.933  1.00  0.00    -0.066 A  
HETATM   22  C   UNL     1      -5.923   8.015  69.638  1.00  0.00    -0.029 A  
HETATM   23  C   UNL     1      -5.317   6.783  69.907  1.00  0.00    -0.015 A  
HETATM   24  C   UNL     1      -5.902   5.614  69.454  1.00  0.00    -0.016 A  
HETATM   25  C   UNL     1      -7.095   5.684  68.737  1.00  0.00    -0.072 A  
HETATM   26  C   UNL     1      -7.741   6.916  68.484  1.00  0.00    -0.113 A  
BRANCH  26  27
HETATM   27  C   UNL     1      -9.018   6.840  67.785  1.00  0.00    -0.116 A  
HETATM   28  N   UNL     1      -9.171   7.097  66.470  1.00  0.00    -0.159 NA 
HETATM   29  N   UNL     1     -10.486   6.890  66.338  1.00  0.00    -0.474 NA 
HETATM   30  N   UNL     1     -11.141   6.538  67.446  1.00  0.00    -0.367 NA 
HETATM   31  H   UNL     1     -10.961   6.996  65.441  1.00  0.00     0.000 HD 
HETATM   32  N   UNL     1     -10.203   6.474  68.381  1.00  0.00    -0.159 NA 
ENDBRANCH  26  27
ENDBRANCH  18  21
ENDBRANCH  14  15
ENDBRANCH  10  14
ENDBRANCH   4   5
ENDBRANCH   3   4
ENDBRANCH   2   3
TORSDOF 8
ENDMDL
MODEL      185
REMARK 921   NORMALIZED FREE ENERGY PREDICTED BY IDOCK:   -4.53 KCAL/MOL
REMARK 922        TOTAL FREE ENERGY PREDICTED BY IDOCK:   -7.68 KCAL/MOL
REMARK 923 INTER-LIGAND FREE ENERGY PREDICTED BY IDOCK:   -6.75 KCAL/MOL
REMARK 924 INTRA-LIGAND FREE ENERGY PREDICTED BY IDOCK:   -0.94 KCAL/MOL
REMARK 927      BINDING AFFINITY PREDICTED BY RF-SCORE:    0.00 PKD
ROOT
HETATM    1  C   UNL     1      -6.625  18.733  68.718  1.00  0.00    -0.282 C  
HETATM    2  C   UNL     1      -7.729  18.400  67.728  1.00  0.00    -0.240 C  
ENDROOT
BRANCH   2   3
HETATM    3  C   UNL     1      -7.330  17.248  66.800  1.00  0.00    -0.248 C  
BRANCH   3   4
HETATM    4  C   UNL     1      -7.812  15.872  67.275  1.00  0.00    -0.218 C  
BRANCH   4   5
HETATM    5  C   UNL     1      -9.145  15.484  66.713  1.00  0.00    -0.255 A  
HETATM    6  N   UNL     1      -9.552  15.866  65.518  1.00  0.00    -0.402 NA 
HETATM    7  C   UNL     1     -10.788  15.325  65.336  1.00  0.00    -0.387 A  
HETATM    8 CL   UNL     1     -11.681  15.577  63.910  1.00  0.00     0.068 Cl 
HETATM    9  C   UNL     1     -11.182  14.611  66.450  1.00  0.00    -0.336 A  
HETATM   10  N   UNL     1     -10.128  14.736  67.345  1.00  0.00    -0.231 NA 
BRANCH   9  11
HETATM   11  C   UNL     1     -12.452  13.895  66.692  1.00  0.00    -0.270 C  
HETATM   12  H   UNL     1     -13.147  12.147  66.271  1.00  0.00     0.000 HD 
HETATM   13  O   UNL     1     -12.330  12.607  66.115  1.00  0.00    -0.570 OA 
ENDBRANCH   9  11
BRANCH  10  14
HETATM   14  C   UNL     1     -10.156  14.376  68.762  1.00  0.00    -0.234 C  
BRANCH  14  15
HETATM   15  C   UNL     1     -10.222  12.895  69.035  1.00  0.00     0.100 A  
HETATM   16  C   UNL     1     -11.381  12.315  69.555  1.00  0.00    -0.258 A  
HETATM   17  C   UNL     1     -11.462  10.931  69.770  1.00  0.00    -0.390 A  
HETATM   18  C   UNL     1     -10.368  10.081  69.544  1.00  0.00    -0.256 A  
HETATM   19  C   UNL     1      -9.222  10.673  68.985  1.00  0.00    -0.177 A  
HETATM   20  C   UNL     1      -9.153  12.049  68.723  1.00  0.00     0.074 A  
BRANCH  18  21
HETATM   21  C   UNL     1     -10.400   8.625  69.873  1.00  0.00    -0.213 A  
HETATM   22  C   UNL     1     -10.946   8.226  71.119  1.00  0.00    -0.286 A  
HETATM   23  C   UNL     1     -11.032   6.884  71.507  1.00  0.00    -0.268 A  
HETATM   24  C   UNL     1     -10.550   5.892  70.671  1.00  0.00    -0.334 A  
HETATM   25  C   UNL     1      -9.986   6.249  69.447  1.00  0.00    -0.192 A  
HETATM   26  C   UNL     1      -9.920   7.597  69.022  1.00  0.00    -0.181 A  
BRANCH  26  27
HETATM   27  C   UNL     1      -9.371   7.823  67.690  1.00  0.00    -0.142 A  
HETATM   28  N   UNL     1      -8.074   7.637  67.372  1.00  0.00    -0.118 NA 
HETATM   29  N   UNL     1      -8.096   7.971  66.076  1.00  0.00    -0.104 NA 
HETATM   30  N   UNL     1      -9.279   8.345  65.585  1.00  0.00    -0.111 NA 
HETATM   31  H   UNL     1      -7.257   7.941  65.497  1.00  0.00     0.000 HD 
HETATM   32  N   UNL     1     -10.116   8.228  66.607  1.00  0.00    -0.285 NA 
ENDBRANCH  26  27
ENDBRANCH  18  21
ENDBRANCH  14  15
ENDBRANCH  10  14
ENDBRANCH   4   5
ENDBRANCH   3   4
ENDBRANCH   2   3
TORSDOF 8
ENDMDL
MODEL      186
REMARK 921   NORMALIZED FREE ENERGY PREDICTED BY IDOCK:   -4.53 KCAL/MOL
REMARK 922        TOTAL FREE ENERGY PREDICTED BY IDOCK:   -7.68 KCAL/MOL
REMARK 923 INTER-LIGAND FREE ENERGY PREDICTED BY IDOCK:   -7.21 KCAL/MOL
REMARK 924 INTRA-LIGAND FREE ENERGY PREDICTED BY IDOCK:   -0.47 KCAL/MOL
REMARK 927      BINDING AFFINITY PREDICTED BY RF-SCORE:    0.00 PKD
ROOT
HETATM    1  C   UNL     1      -5.129  20.669  71.204  1.00  0.00    -0.240 C  
HETATM    2  C   UNL     1      -6.061  19.498  70.936  1.00  0.00    -0.070 C  
ENDROOT
BRANCH   2   3
HETATM    3  C   UNL     1      -5.284  18.206  70.666  1.00  0.00    -0.271 C  
BRANCH   3   4
HETATM    4  C   UNL     1      -6.039  17.197  69.792  1.00  0.00    -0.229 C  
BRANCH   4   5
HETATM    5  C   UNL     1      -6.859  17.841  68.717  1.00  0.00    -0.247 A  
HETATM    6  N   UNL     1      -6.414  18.845  67.987  1.00  0.00    -0.219 NA 
HETATM    7  C   UNL     1      -7.408  19.162  67.113  1.00  0.00    -0.212 A  
HETATM    8 CL   UNL     1      -7.244  20.421  65.979  1.00  0.00    -0.256 Cl 
HETATM    9  C   UNL     1      -8.515  18.363  67.314  1.00  0.00    -0.254 A  
HETATM   10  N   UNL     1      -8.165  17.526  68.367  1.00  0.00    -0.270 NA 
BRANCH   9  11
HETATM   11  C   UNL     1      -9.818  18.388  66.617  1.00  0.00    -0.353 C  
HETATM   12  H   UNL     1     -11.552  19.149  66.972  1.00  0.00     0.000 HD 
HETATM   13  O   UNL     1     -10.715  19.133  67.421  1.00  0.00    -0.462 OA 
ENDBRANCH   9  11
BRANCH  10  14
HETATM   14  C   UNL     1      -9.075  16.670  69.124  1.00  0.00    -0.157 C  
BRANCH  14  15
HETATM   15  C   UNL     1      -9.157  15.247  68.635  1.00  0.00    -0.193 A  
HETATM   16  C   UNL     1      -8.014  14.577  68.190  1.00  0.00    -0.133 A  
HETATM   17  C   UNL     1      -8.077  13.239  67.775  1.00  0.00    -0.166 A  
HETATM   18  C   UNL     1      -9.291  12.537  67.719  1.00  0.00    -0.198 A  
HETATM   19  C   UNL     1     -10.425  13.211  68.206  1.00  0.00    -0.258 A  
HETATM   20  C   UNL     1     -10.359  14.534  68.666  1.00  0.00    -0.242 A  
BRANCH  18  21
HETATM   21  C   UNL     1      -9.393  11.150  67.175  1.00  0.00    -0.176 A  
HETATM   22  C   UNL     1      -8.640  10.820  66.021  1.00  0.00    -0.181 A  
HETATM   23  C   UNL     1      -8.660   9.543  65.450  1.00  0.00    -0.173 A  
HETATM   24  C   UNL     1      -9.457   8.555  65.998  1.00  0.00    -0.256 A  
HETATM   25  C   UNL     1     -10.230   8.850  67.121  1.00  0.00    -0.339 A  
HETATM   26  C   UNL     1     -10.198  10.124  67.733  1.00  0.00    -0.232 A  
BRANCH  26  27
HETATM   27  C   UNL     1     -11.000  10.276  68.942  1.00  0.00    -0.238 A  
HETATM   28  N   UNL     1     -12.324  10.529  68.937  1.00  0.00    -0.147 NA 
HETATM   29  N   UNL     1     -12.564  10.572  70.252  1.00  0.00    -0.470 NA 
HETATM   30  N   UNL     1     -11.511  10.374  71.049  1.00  0.00    -0.296 NA 
HETATM   31  H   UNL     1     -13.497  10.746  70.625  1.00  0.00     0.000 HD 
HETATM   32  N   UNL     1     -10.502  10.154  70.218  1.00  0.00    -0.270 NA 
ENDBRANCH  26  27
ENDBRANCH  18  21
ENDBRANCH  14  15
ENDBRANCH  10  14
ENDBRANCH   4   5
ENDBRANCH   3   4
ENDBRANCH   2   3
TORSDOF 8
ENDMDL
MODEL      187
REMARK 921   NORMALIZED FREE ENERGY PREDICTED BY IDOCK:   -4.53 KCAL/MOL
REMARK 922        TOTAL FREE ENERGY PREDICTED BY IDOCK:   -7.67 KCAL/MOL
REMARK 923 INTER-LIGAND FREE ENERGY PREDICTED BY IDOCK:   -6.58 KCAL/MOL
REMARK 924 INTRA-LIGAND FREE ENERGY PREDICTED BY IDOCK:   -1.09 KCAL/MOL
REMARK 927      BINDING AFFINITY PREDICTED BY RF-SCORE:    0.00 PKD
ROOT
HETATM    1  C   UNL     1     -10.703   7.083  67.870  1.00  0.00    -0.274 C  
HETATM    2  C   UNL     1      -9.897   8.366  67.754  1.00  0.00    -0.218 C  
ENDROOT
BRANCH   2   3
HETATM    3  C   UNL     1     -10.764   9.540  67.287  1.00  0.00    -0.269 C  
BRANCH   3   4
HETATM    4  C   UNL     1     -10.136  10.366  66.158  1.00  0.00    -0.299 C  
BRANCH   4   5
HETATM    5  C   UNL     1      -8.653  10.523  66.291  1.00  0.00    -0.147 A  
HETATM    6  N   UNL     1      -7.796   9.829  65.568  1.00  0.00    -0.115 NA 
HETATM    7  C   UNL     1      -6.552  10.236  65.942  1.00  0.00    -0.113 A  
HETATM    8 CL   UNL     1      -5.143   9.581  65.248  1.00  0.00    -0.038 Cl 
HETATM    9  C   UNL     1      -6.623  11.184  66.943  1.00  0.00    -0.124 A  
HETATM   10  N   UNL     1      -7.982  11.349  67.181  1.00  0.00    -0.148 NA 
BRANCH   9  11
HETATM   11  C   UNL     1      -5.523  11.864  67.658  1.00  0.00    -0.074 C  
HETATM   12  H   UNL     1      -4.621  13.560  67.498  1.00  0.00     0.000 HD 
HETATM   13  O   UNL     1      -5.329  13.122  67.037  1.00  0.00    -0.297 OA 
ENDBRANCH   9  11
BRANCH  10  14
HETATM   14  C   UNL     1      -8.576  12.053  68.316  1.00  0.00    -0.174 C  
BRANCH  14  15
HETATM   15  C   UNL     1      -8.758  13.535  68.114  1.00  0.00    -0.174 A  
HETATM   16  C   UNL     1      -9.119  14.363  69.181  1.00  0.00     0.088 A  
HETATM   17  C   UNL     1      -9.248  15.748  69.007  1.00  0.00    -0.243 A  
HETATM   18  C   UNL     1      -9.093  16.356  67.751  1.00  0.00    -0.199 A  
HETATM   19  C   UNL     1      -8.692  15.516  66.697  1.00  0.00    -0.326 A  
HETATM   20  C   UNL     1      -8.516  14.137  66.876  1.00  0.00    -0.117 A  
BRANCH  18  21
HETATM   21  C   UNL     1      -9.336  17.812  67.527  1.00  0.00    -0.245 A  
HETATM   22  C   UNL     1     -10.559  18.209  66.932  1.00  0.00    -0.326 A  
HETATM   23  C   UNL     1     -10.881  19.550  66.698  1.00  0.00    -0.476 A  
HETATM   24  C   UNL     1      -9.976  20.544  67.026  1.00  0.00    -0.489 A  
HETATM   25  C   UNL     1      -8.753  20.189  67.592  1.00  0.00    -0.380 A  
HETATM   26  C   UNL     1      -8.422  18.842  67.869  1.00  0.00    -0.318 A  
BRANCH  26  27
HETATM   27  C   UNL     1      -7.141  18.618  68.527  1.00  0.00    -0.277 A  
HETATM   28  N   UNL     1      -6.764  19.234  69.665  1.00  0.00    -0.260 NA 
HETATM   29  N   UNL     1      -5.551  18.696  69.838  1.00  0.00    -0.229 NA 
HETATM   30  N   UNL     1      -5.159  17.819  68.910  1.00  0.00    -0.154 NA 
HETATM   31  H   UNL     1      -4.960  18.941  70.632  1.00  0.00     0.000 HD 
HETATM   32  N   UNL     1      -6.185  17.739  68.074  1.00  0.00    -0.165 NA 
ENDBRANCH  26  27
ENDBRANCH  18  21
ENDBRANCH  14  15
ENDBRANCH  10  14
ENDBRANCH   4   5
ENDBRANCH   3   4
ENDBRANCH   2   3
TORSDOF 8
ENDMDL
MODEL      188
REMARK 921   NORMALIZED FREE ENERGY PREDICTED BY IDOCK:   -4.52 KCAL/MOL
REMARK 922        TOTAL FREE ENERGY PREDICTED BY IDOCK:   -7.66 KCAL/MOL
REMARK 923 INTER-LIGAND FREE ENERGY PREDICTED BY IDOCK:   -6.37 KCAL/MOL
REMARK 924 INTRA-LIGAND FREE ENERGY PREDICTED BY IDOCK:   -1.30 KCAL/MOL
REMARK 927      BINDING AFFINITY PREDICTED BY RF-SCORE:    0.00 PKD
ROOT
HETATM    1  C   UNL     1     -11.767  14.830  67.817  1.00  0.00    -0.368 C  
HETATM    2  C   UNL     1     -10.427  14.520  67.171  1.00  0.00    -0.267 C  
ENDROOT
BRANCH   2   3
HETATM    3  C   UNL     1      -9.960  13.096  67.489  1.00  0.00    -0.223 C  
BRANCH   3   4
HETATM    4  C   UNL     1     -11.082  12.051  67.451  1.00  0.00    -0.337 C  
BRANCH   4   5
HETATM    5  C   UNL     1     -11.308  11.375  68.768  1.00  0.00    -0.271 A  
HETATM    6  N   UNL     1     -12.286  11.716  69.585  1.00  0.00    -0.246 NA 
HETATM    7  C   UNL     1     -12.196  10.892  70.665  1.00  0.00    -0.376 A  
HETATM    8 CL   UNL     1     -13.279  11.000  71.973  1.00  0.00    -0.564 Cl 
HETATM    9  C   UNL     1     -11.122  10.034  70.542  1.00  0.00    -0.331 A  
HETATM   10  N   UNL     1     -10.538  10.364  69.326  1.00  0.00    -0.216 NA 
BRANCH   9  11
HETATM   11  C   UNL     1     -10.642   9.006  71.489  1.00  0.00    -0.345 C  
HETATM   12  H   UNL     1     -11.167   7.210  71.952  1.00  0.00     0.000 HD 
HETATM   13  O   UNL     1     -11.476   7.871  71.343  1.00  0.00    -0.251 OA 
ENDBRANCH   9  11
BRANCH  10  14
HETATM   14  C   UNL     1      -9.228   9.920  68.853  1.00  0.00    -0.160 C  
BRANCH  14  15
HETATM   15  C   UNL     1      -9.219   8.559  68.206  1.00  0.00    -0.140 A  
HETATM   16  C   UNL     1     -10.402   7.981  67.740  1.00  0.00    -0.294 A  
HETATM   17  C   UNL     1     -10.392   6.734  67.099  1.00  0.00    -0.327 A  
HETATM   18  C   UNL     1      -9.216   5.980  66.960  1.00  0.00    -0.124 A  
HETATM   19  C   UNL     1      -8.029   6.592  67.399  1.00  0.00    -0.113 A  
HETATM   20  C   UNL     1      -8.026   7.860  67.999  1.00  0.00    -0.128 A  
BRANCH  18  21
HETATM   21  C   UNL     1      -9.206   4.604  66.382  1.00  0.00    -0.133 A  
HETATM   22  C   UNL     1      -9.418   4.455  64.989  1.00  0.00    -0.169 A  
HETATM   23  C   UNL     1      -9.410   3.207  64.356  1.00  0.00    -0.141 A  
HETATM   24  C   UNL     1      -9.216   2.058  65.101  1.00  0.00    -0.083 A  
HETATM   25  C   UNL     1      -9.026   2.164  66.478  1.00  0.00    -0.114 A  
HETATM   26  C   UNL     1      -8.997   3.418  67.132  1.00  0.00    -0.173 A  
BRANCH  26  27
HETATM   27  C   UNL     1      -8.719   3.389  68.563  1.00  0.00    -0.102 A  
HETATM   28  N   UNL     1      -7.505   3.128  69.087  1.00  0.00    -0.048 NA 
HETATM   29  N   UNL     1      -7.783   3.222  70.392  1.00  0.00    -0.043 NA 
HETATM   30  N   UNL     1      -9.048   3.511  70.705  1.00  0.00    -0.099 NA 
HETATM   31  H   UNL     1      -7.069   3.082  71.107  1.00  0.00     0.000 HD 
HETATM   32  N   UNL     1      -9.657   3.648  69.535  1.00  0.00    -0.179 NA 
ENDBRANCH  26  27
ENDBRANCH  18  21
ENDBRANCH  14  15
ENDBRANCH  10  14
ENDBRANCH   4   5
ENDBRANCH   3   4
ENDBRANCH   2   3
TORSDOF 8
ENDMDL
MODEL      189
REMARK 921   NORMALIZED FREE ENERGY PREDICTED BY IDOCK:   -4.51 KCAL/MOL
REMARK 922        TOTAL FREE ENERGY PREDICTED BY IDOCK:   -7.65 KCAL/MOL
REMARK 923 INTER-LIGAND FREE ENERGY PREDICTED BY IDOCK:   -5.95 KCAL/MOL
REMARK 924 INTRA-LIGAND FREE ENERGY PREDICTED BY IDOCK:   -1.70 KCAL/MOL
REMARK 927      BINDING AFFINITY PREDICTED BY RF-SCORE:    0.00 PKD
ROOT
HETATM    1  C   UNL     1     -11.284   6.669  67.110  1.00  0.00    -0.306 C  
HETATM    2  C   UNL     1     -10.279   5.574  67.428  1.00  0.00    -0.253 C  
ENDROOT
BRANCH   2   3
HETATM    3  C   UNL     1      -9.022   5.689  66.560  1.00  0.00    -0.126 C  
BRANCH   3   4
HETATM    4  C   UNL     1      -7.728   5.308  67.288  1.00  0.00    -0.096 C  
BRANCH   4   5
HETATM    5  C   UNL     1      -7.605   5.928  68.646  1.00  0.00    -0.090 A  
HETATM    6  N   UNL     1      -8.213   5.438  69.709  1.00  0.00    -0.098 NA 
HETATM    7  C   UNL     1      -7.871   6.237  70.756  1.00  0.00    -0.106 A  
HETATM    8 CL   UNL     1      -8.450   5.956  72.331  1.00  0.00    -0.117 Cl 
HETATM    9  C   UNL     1      -7.055   7.270  70.341  1.00  0.00    -0.065 A  
HETATM   10  N   UNL     1      -6.904   7.079  68.973  1.00  0.00    -0.063 NA 
BRANCH   9  11
HETATM   11  C   UNL     1      -6.482   8.377  71.135  1.00  0.00    -0.044 C  
HETATM   12  H   UNL     1      -7.116  10.080  71.777  1.00  0.00     0.000 HD 
HETATM   13  O   UNL     1      -7.485   9.369  71.266  1.00  0.00    -0.322 OA 
ENDBRANCH   9  11
BRANCH  10  14
HETATM   14  C   UNL     1      -6.341   8.042  68.028  1.00  0.00    -0.051 C  
BRANCH  14  15
HETATM   15  C   UNL     1      -7.353   8.929  67.352  1.00  0.00    -0.081 A  
HETATM   16  C   UNL     1      -7.084   9.501  66.106  1.00  0.00    -0.092 A  
HETATM   17  C   UNL     1      -8.040  10.292  65.453  1.00  0.00    -0.147 A  
HETATM   18  C   UNL     1      -9.274  10.605  66.045  1.00  0.00    -0.208 A  
HETATM   19  C   UNL     1      -9.545   9.991  67.281  1.00  0.00    -0.188 A  
HETATM   20  C   UNL     1      -8.611   9.160  67.917  1.00  0.00    -0.121 A  
BRANCH  18  21
HETATM   21  C   UNL     1     -10.256  11.536  65.414  1.00  0.00    -0.311 A  
HETATM   22  C   UNL     1     -10.973  11.091  64.276  1.00  0.00    -0.148 A  
HETATM   23  C   UNL     1     -11.925  11.887  63.629  1.00  0.00    -0.578 A  
HETATM   24  C   UNL     1     -12.174  13.170  64.082  1.00  0.00    -0.465 A  
HETATM   25  C   UNL     1     -11.470  13.650  65.186  1.00  0.00    -0.328 A  
HETATM   26  C   UNL     1     -10.529  12.849  65.875  1.00  0.00    -0.294 A  
BRANCH  26  27
HETATM   27  C   UNL     1      -9.918  13.450  67.055  1.00  0.00    -0.246 A  
HETATM   28  N   UNL     1     -10.564  13.634  68.223  1.00  0.00    -0.246 NA 
HETATM   29  N   UNL     1      -9.591  14.198  68.948  1.00  0.00    -0.387 NA 
HETATM   30  N   UNL     1      -8.423  14.376  68.327  1.00  0.00    -0.157 NA 
HETATM   31  H   UNL     1      -9.733  14.476  69.919  1.00  0.00     0.000 HD 
HETATM   32  N   UNL     1      -8.611  13.873  67.115  1.00  0.00    -0.214 NA 
ENDBRANCH  26  27
ENDBRANCH  18  21
ENDBRANCH  14  15
ENDBRANCH  10  14
ENDBRANCH   4   5
ENDBRANCH   3   4
ENDBRANCH   2   3
TORSDOF 8
ENDMDL
MODEL      190
REMARK 921   NORMALIZED FREE ENERGY PREDICTED BY IDOCK:   -4.50 KCAL/MOL
REMARK 922        TOTAL FREE ENERGY PREDICTED BY IDOCK:   -7.64 KCAL/MOL
REMARK 923 INTER-LIGAND FREE ENERGY PREDICTED BY IDOCK:   -7.37 KCAL/MOL
REMARK 924 INTRA-LIGAND FREE ENERGY PREDICTED BY IDOCK:   -0.26 KCAL/MOL
REMARK 927      BINDING AFFINITY PREDICTED BY RF-SCORE:    0.00 PKD
ROOT
HETATM    1  C   UNL     1      -5.604  18.721  69.666  1.00  0.00    -0.238 C  
HETATM    2  C   UNL     1      -6.987  19.065  69.139  1.00  0.00    -0.346 C  
ENDROOT
BRANCH   2   3
HETATM    3  C   UNL     1      -7.584  17.917  68.318  1.00  0.00    -0.266 C  
BRANCH   3   4
HETATM    4  C   UNL     1      -8.974  18.218  67.747  1.00  0.00    -0.273 C  
BRANCH   4   5
HETATM    5  C   UNL     1      -9.991  17.168  68.074  1.00  0.00    -0.295 A  
HETATM    6  N   UNL     1     -10.670  17.163  69.204  1.00  0.00    -0.261 NA 
HETATM    7  C   UNL     1     -11.500  16.085  69.154  1.00  0.00    -0.347 A  
HETATM    8 CL   UNL     1     -12.561  15.704  70.429  1.00  0.00    -0.434 Cl 
HETATM    9  C   UNL     1     -11.321  15.378  67.982  1.00  0.00    -0.341 A  
HETATM   10  N   UNL     1     -10.328  16.068  67.298  1.00  0.00    -0.290 NA 
BRANCH   9  11
HETATM   11  C   UNL     1     -11.985  14.136  67.536  1.00  0.00    -0.384 C  
HETATM   12  H   UNL     1     -13.222  13.665  66.135  1.00  0.00     0.000 HD 
HETATM   13  O   UNL     1     -12.795  14.465  66.422  1.00  0.00    -0.111 OA 
ENDBRANCH   9  11
BRANCH  10  14
HETATM   14  C   UNL     1      -9.601  15.589  66.124  1.00  0.00    -0.330 C  
BRANCH  14  15
HETATM   15  C   UNL     1      -9.433  14.093  66.053  1.00  0.00    -0.189 A  
HETATM   16  C   UNL     1     -10.116  13.341  65.094  1.00  0.00    -0.249 A  
HETATM   17  C   UNL     1      -9.930  11.955  64.996  1.00  0.00    -0.276 A  
HETATM   18  C   UNL     1      -9.110  11.252  65.894  1.00  0.00    -0.217 A  
HETATM   19  C   UNL     1      -8.400  12.027  66.827  1.00  0.00    -0.135 A  
HETATM   20  C   UNL     1      -8.547  13.419  66.899  1.00  0.00    -0.114 A  
BRANCH  18  21
HETATM   21  C   UNL     1      -8.988   9.764  65.874  1.00  0.00    -0.189 A  
HETATM   22  C   UNL     1      -8.173   9.166  64.882  1.00  0.00    -0.154 A  
HETATM   23  C   UNL     1      -7.986   7.782  64.796  1.00  0.00    -0.142 A  
HETATM   24  C   UNL     1      -8.631   6.942  65.686  1.00  0.00    -0.119 A  
HETATM   25  C   UNL     1      -9.459   7.494  66.663  1.00  0.00    -0.246 A  
HETATM   26  C   UNL     1      -9.634   8.892  66.788  1.00  0.00    -0.262 A  
BRANCH  26  27
HETATM   27  C   UNL     1     -10.471   9.337  67.896  1.00  0.00    -0.236 A  
HETATM   28  N   UNL     1     -11.637   9.995  67.739  1.00  0.00     0.036 NA 
HETATM   29  N   UNL     1     -11.990  10.164  69.019  1.00  0.00    -0.523 NA 
HETATM   30  N   UNL     1     -11.147   9.675  69.931  1.00  0.00    -0.241 NA 
HETATM   31  H   UNL     1     -12.853  10.638  69.282  1.00  0.00     0.000 HD 
HETATM   32  N   UNL     1     -10.177   9.115  69.221  1.00  0.00    -0.204 NA 
ENDBRANCH  26  27
ENDBRANCH  18  21
ENDBRANCH  14  15
ENDBRANCH  10  14
ENDBRANCH   4   5
ENDBRANCH   3   4
ENDBRANCH   2   3
TORSDOF 8
ENDMDL
MODEL      191
REMARK 921   NORMALIZED FREE ENERGY PREDICTED BY IDOCK:   -4.50 KCAL/MOL
REMARK 922        TOTAL FREE ENERGY PREDICTED BY IDOCK:   -7.63 KCAL/MOL
REMARK 923 INTER-LIGAND FREE ENERGY PREDICTED BY IDOCK:   -6.55 KCAL/MOL
REMARK 924 INTRA-LIGAND FREE ENERGY PREDICTED BY IDOCK:   -1.08 KCAL/MOL
REMARK 927      BINDING AFFINITY PREDICTED BY RF-SCORE:    0.00 PKD
ROOT
HETATM    1  C   UNL     1      -6.192   3.796  74.105  1.00  0.00    -0.025 C  
HETATM    2  C   UNL     1      -5.453   5.119  73.995  1.00  0.00    -0.018 C  
ENDROOT
BRANCH   2   3
HETATM    3  C   UNL     1      -6.058   6.018  72.912  1.00  0.00    -0.049 C  
BRANCH   3   4
HETATM    4  C   UNL     1      -7.503   6.446  73.195  1.00  0.00    -0.090 C  
BRANCH   4   5
HETATM    5  C   UNL     1      -8.468   6.021  72.132  1.00  0.00    -0.124 A  
HETATM    6  N   UNL     1      -8.200   5.058  71.271  1.00  0.00    -0.113 NA 
HETATM    7  C   UNL     1      -9.294   4.936  70.470  1.00  0.00    -0.154 A  
HETATM    8 CL   UNL     1      -9.364   3.797  69.209  1.00  0.00    -0.230 Cl 
HETATM    9  C   UNL     1     -10.260   5.861  70.812  1.00  0.00    -0.211 A  
HETATM   10  N   UNL     1      -9.713   6.575  71.870  1.00  0.00    -0.152 NA 
BRANCH   9  11
HETATM   11  C   UNL     1     -11.579   6.099  70.188  1.00  0.00    -0.190 C  
HETATM   12  H   UNL     1     -12.196   6.666  68.452  1.00  0.00     0.000 HD 
HETATM   13  O   UNL     1     -11.348   6.513  68.853  1.00  0.00    -0.289 OA 
ENDBRANCH   9  11
BRANCH  10  14
HETATM   14  C   UNL     1     -10.233   7.824  72.424  1.00  0.00    -0.247 C  
BRANCH  14  15
HETATM   15  C   UNL     1     -10.378   8.944  71.427  1.00  0.00    -0.377 A  
HETATM   16  C   UNL     1     -11.563   9.679  71.345  1.00  0.00    -0.472 A  
HETATM   17  C   UNL     1     -11.687  10.751  70.449  1.00  0.00    -0.445 A  
HETATM   18  C   UNL     1     -10.663  11.088  69.549  1.00  0.00    -0.231 A  
HETATM   19  C   UNL     1      -9.464  10.364  69.670  1.00  0.00    -0.118 A  
HETATM   20  C   UNL     1      -9.317   9.323  70.598  1.00  0.00    -0.329 A  
BRANCH  18  21
HETATM   21  C   UNL     1     -10.821  12.151  68.514  1.00  0.00    -0.267 A  
HETATM   22  C   UNL     1     -11.389  13.391  68.899  1.00  0.00    -0.331 A  
HETATM   23  C   UNL     1     -11.561  14.451  68.002  1.00  0.00    -0.357 A  
HETATM   24  C   UNL     1     -11.193  14.299  66.677  1.00  0.00    -0.337 A  
HETATM   25  C   UNL     1     -10.652  13.085  66.256  1.00  0.00    -0.283 A  
HETATM   26  C   UNL     1     -10.438  12.014  67.154  1.00  0.00    -0.244 A  
BRANCH  26  27
HETATM   27  C   UNL     1      -9.799  10.827  66.597  1.00  0.00    -0.200 A  
HETATM   28  N   UNL     1      -8.497  10.768  66.254  1.00  0.00    -0.156 NA 
HETATM   29  N   UNL     1      -8.424   9.506  65.813  1.00  0.00    -0.130 NA 
HETATM   30  N   UNL     1      -9.557   8.802  65.854  1.00  0.00    -0.223 NA 
HETATM   31  H   UNL     1      -7.552   9.106  65.467  1.00  0.00     0.000 HD 
HETATM   32  N   UNL     1     -10.445   9.632  66.382  1.00  0.00    -0.164 NA 
ENDBRANCH  26  27
ENDBRANCH  18  21
ENDBRANCH  14  15
ENDBRANCH  10  14
ENDBRANCH   4   5
ENDBRANCH   3   4
ENDBRANCH   2   3
TORSDOF 8
ENDMDL
MODEL      192
REMARK 921   NORMALIZED FREE ENERGY PREDICTED BY IDOCK:   -4.49 KCAL/MOL
REMARK 922        TOTAL FREE ENERGY PREDICTED BY IDOCK:   -7.62 KCAL/MOL
REMARK 923 INTER-LIGAND FREE ENERGY PREDICTED BY IDOCK:   -5.90 KCAL/MOL
REMARK 924 INTRA-LIGAND FREE ENERGY PREDICTED BY IDOCK:   -1.72 KCAL/MOL
REMARK 927      BINDING AFFINITY PREDICTED BY RF-SCORE:    0.00 PKD
ROOT
HETATM    1  C   UNL     1     -11.914   9.605  70.658  1.00  0.00    -0.304 C  
HETATM    2  C   UNL     1     -11.126   9.212  71.897  1.00  0.00    -0.385 C  
ENDROOT
BRANCH   2   3
HETATM    3  C   UNL     1     -11.805   8.070  72.661  1.00  0.00    -0.380 C  
BRANCH   3   4
HETATM    4  C   UNL     1     -11.689   6.706  71.971  1.00  0.00    -0.354 C  
BRANCH   4   5
HETATM    5  C   UNL     1     -10.362   6.044  72.183  1.00  0.00    -0.197 A  
HETATM    6  N   UNL     1      -9.628   6.249  73.260  1.00  0.00    -0.146 NA 
HETATM    7  C   UNL     1      -8.510   5.486  73.120  1.00  0.00    -0.118 A  
HETATM    8 CL   UNL     1      -7.284   5.459  74.300  1.00  0.00    -0.082 Cl 
HETATM    9  C   UNL     1      -8.523   4.808  71.918  1.00  0.00    -0.119 A  
HETATM   10  N   UNL     1      -9.710   5.190  71.306  1.00  0.00    -0.162 NA 
BRANCH   9  11
HETATM   11  C   UNL     1      -7.502   3.902  71.352  1.00  0.00    -0.051 C  
HETATM   12  H   UNL     1      -6.400   2.475  72.033  1.00  0.00     0.000 HD 
HETATM   13  O   UNL     1      -7.057   3.058  72.398  1.00  0.00    -0.033 OA 
ENDBRANCH   9  11
BRANCH  10  14
HETATM   14  C   UNL     1     -10.074   4.948  69.911  1.00  0.00    -0.262 C  
BRANCH  14  15
HETATM   15  C   UNL     1     -10.084   6.176  69.039  1.00  0.00    -0.213 A  
HETATM   16  C   UNL     1     -10.993   6.298  67.985  1.00  0.00    -0.418 A  
HETATM   17  C   UNL     1     -11.034   7.458  67.198  1.00  0.00    -0.225 A  
HETATM   18  C   UNL     1     -10.125   8.512  67.382  1.00  0.00    -0.298 A  
HETATM   19  C   UNL     1      -9.243   8.392  68.470  1.00  0.00    -0.135 A  
HETATM   20  C   UNL     1      -9.229   7.254  69.290  1.00  0.00    -0.144 A  
BRANCH  18  21
HETATM   21  C   UNL     1     -10.082   9.703  66.483  1.00  0.00    -0.314 A  
HETATM   22  C   UNL     1     -11.069  10.708  66.645  1.00  0.00    -0.053 A  
HETATM   23  C   UNL     1     -11.098  11.866  65.860  1.00  0.00    -0.365 A  
HETATM   24  C   UNL     1     -10.155  12.048  64.864  1.00  0.00    -0.289 A  
HETATM   25  C   UNL     1      -9.183  11.070  64.661  1.00  0.00    -0.189 A  
HETATM   26  C   UNL     1      -9.115   9.909  65.466  1.00  0.00    -0.232 A  
BRANCH  26  27
HETATM   27  C   UNL     1      -8.006   9.003  65.192  1.00  0.00    -0.119 A  
HETATM   28  N   UNL     1      -7.992   8.120  64.173  1.00  0.00    -0.145 NA 
HETATM   29  N   UNL     1      -6.792   7.557  64.362  1.00  0.00    -0.053 NA 
HETATM   30  N   UNL     1      -6.085   8.012  65.399  1.00  0.00    -0.044 NA 
HETATM   31  H   UNL     1      -6.439   6.823  63.749  1.00  0.00     0.000 HD 
HETATM   32  N   UNL     1      -6.844   8.963  65.927  1.00  0.00    -0.072 NA 
ENDBRANCH  26  27
ENDBRANCH  18  21
ENDBRANCH  14  15
ENDBRANCH  10  14
ENDBRANCH   4   5
ENDBRANCH   3   4
ENDBRANCH   2   3
TORSDOF 8
ENDMDL
MODEL      193
REMARK 921   NORMALIZED FREE ENERGY PREDICTED BY IDOCK:   -4.45 KCAL/MOL
REMARK 922        TOTAL FREE ENERGY PREDICTED BY IDOCK:   -7.56 KCAL/MOL
REMARK 923 INTER-LIGAND FREE ENERGY PREDICTED BY IDOCK:   -6.08 KCAL/MOL
REMARK 924 INTRA-LIGAND FREE ENERGY PREDICTED BY IDOCK:   -1.48 KCAL/MOL
REMARK 927      BINDING AFFINITY PREDICTED BY RF-SCORE:    0.00 PKD
ROOT
HETATM    1  C   UNL     1     -11.784  15.111  69.173  1.00  0.00    -0.349 C  
HETATM    2  C   UNL     1     -10.698  14.801  68.156  1.00  0.00    -0.247 C  
ENDROOT
BRANCH   2   3
HETATM    3  C   UNL     1     -10.108  13.402  68.364  1.00  0.00    -0.244 C  
BRANCH   3   4
HETATM    4  C   UNL     1     -11.087  12.264  68.054  1.00  0.00    -0.285 C  
BRANCH   4   5
HETATM    5  C   UNL     1     -11.362  11.380  69.232  1.00  0.00    -0.289 A  
HETATM    6  N   UNL     1     -12.403  11.552  70.023  1.00  0.00    -0.246 NA 
HETATM    7  C   UNL     1     -12.342  10.572  70.966  1.00  0.00    -0.399 A  
HETATM    8 CL   UNL     1     -13.507  10.432  72.198  1.00  0.00    -0.425 Cl 
HETATM    9  C   UNL     1     -11.223   9.784  70.785  1.00  0.00    -0.348 A  
HETATM   10  N   UNL     1     -10.581  10.323  69.678  1.00  0.00    -0.240 NA 
BRANCH   9  11
HETATM   11  C   UNL     1     -10.754   8.638  71.593  1.00  0.00    -0.303 C  
HETATM   12  H   UNL     1     -10.879   6.719  71.458  1.00  0.00     0.000 HD 
HETATM   13  O   UNL     1     -11.180   7.456  70.939  1.00  0.00    -0.258 OA 
ENDBRANCH   9  11
BRANCH  10  14
HETATM   14  C   UNL     1      -9.225  10.008  69.232  1.00  0.00    -0.203 C  
BRANCH  14  15
HETATM   15  C   UNL     1      -9.127   8.835  68.291  1.00  0.00    -0.141 A  
HETATM   16  C   UNL     1      -8.006   8.002  68.302  1.00  0.00    -0.128 A  
HETATM   17  C   UNL     1      -7.929   6.884  67.458  1.00  0.00    -0.112 A  
HETATM   18  C   UNL     1      -8.933   6.592  66.521  1.00  0.00    -0.152 A  
HETATM   19  C   UNL     1     -10.071   7.416  66.549  1.00  0.00    -0.176 A  
HETATM   20  C   UNL     1     -10.174   8.508  67.424  1.00  0.00    -0.329 A  
BRANCH  18  21
HETATM   21  C   UNL     1      -8.816   5.473  65.540  1.00  0.00    -0.147 A  
HETATM   22  C   UNL     1      -9.429   4.234  65.852  1.00  0.00    -0.176 A  
HETATM   23  C   UNL     1      -9.385   3.135  64.987  1.00  0.00    -0.148 A  
HETATM   24  C   UNL     1      -8.702   3.228  63.788  1.00  0.00    -0.089 A  
HETATM   25  C   UNL     1      -8.068   4.424  63.458  1.00  0.00    -0.094 A  
HETATM   26  C   UNL     1      -8.128   5.557  64.302  1.00  0.00    -0.124 A  
BRANCH  26  27
HETATM   27  C   UNL     1      -7.481   6.765  63.803  1.00  0.00    -0.091 A  
HETATM   28  N   UNL     1      -8.029   7.585  62.885  1.00  0.00    -0.139 NA 
HETATM   29  N   UNL     1      -7.064   8.506  62.781  1.00  0.00    -0.090 NA 
HETATM   30  N   UNL     1      -5.985   8.317  63.544  1.00  0.00    -0.071 NA 
HETATM   31  H   UNL     1      -7.148   9.307  62.155  1.00  0.00     0.000 HD 
HETATM   32  N   UNL     1      -6.252   7.213  64.228  1.00  0.00    -0.037 NA 
ENDBRANCH  26  27
ENDBRANCH  18  21
ENDBRANCH  14  15
ENDBRANCH  10  14
ENDBRANCH   4   5
ENDBRANCH   3   4
ENDBRANCH   2   3
TORSDOF 8
ENDMDL
MODEL      194
REMARK 921   NORMALIZED FREE ENERGY PREDICTED BY IDOCK:   -4.40 KCAL/MOL
REMARK 922        TOTAL FREE ENERGY PREDICTED BY IDOCK:   -7.49 KCAL/MOL
REMARK 923 INTER-LIGAND FREE ENERGY PREDICTED BY IDOCK:   -6.32 KCAL/MOL
REMARK 924 INTRA-LIGAND FREE ENERGY PREDICTED BY IDOCK:   -1.17 KCAL/MOL
REMARK 927      BINDING AFFINITY PREDICTED BY RF-SCORE:    0.00 PKD
ROOT
HETATM    1  C   UNL     1      -6.776  11.066  69.599  1.00  0.00    -0.137 C  
HETATM    2  C   UNL     1      -7.307   9.711  70.036  1.00  0.00    -0.130 C  
ENDROOT
BRANCH   2   3
HETATM    3  C   UNL     1      -7.433   8.743  68.855  1.00  0.00    -0.083 C  
BRANCH   3   4
HETATM    4  C   UNL     1      -7.747   7.300  69.265  1.00  0.00    -0.107 C  
BRANCH   4   5
HETATM    5  C   UNL     1      -8.756   7.201  70.367  1.00  0.00    -0.150 A  
HETATM    6  N   UNL     1      -8.492   6.627  71.524  1.00  0.00    -0.120 NA 
HETATM    7  C   UNL     1      -9.622   6.731  72.277  1.00  0.00    -0.144 A  
HETATM    8 CL   UNL     1      -9.712   6.107  73.858  1.00  0.00    -0.174 Cl 
HETATM    9  C   UNL     1     -10.629   7.356  71.570  1.00  0.00    -0.206 A  
HETATM   10  N   UNL     1     -10.072   7.638  70.329  1.00  0.00    -0.196 NA 
BRANCH   9  11
HETATM   11  C   UNL     1     -12.017   7.644  71.989  1.00  0.00    -0.302 C  
HETATM   12  H   UNL     1     -13.607   6.596  72.288  1.00  0.00     0.000 HD 
HETATM   13  O   UNL     1     -12.714   6.411  72.018  1.00  0.00    -0.281 OA 
ENDBRANCH   9  11
BRANCH  10  14
HETATM   14  C   UNL     1     -10.802   8.068  69.138  1.00  0.00    -0.021 C  
BRANCH  14  15
HETATM   15  C   UNL     1     -10.904   9.562  68.965  1.00  0.00    -0.184 A  
HETATM   16  C   UNL     1     -11.074  10.125  67.698  1.00  0.00    -0.275 A  
HETATM   17  C   UNL     1     -11.213  11.511  67.537  1.00  0.00    -0.360 A  
HETATM   18  C   UNL     1     -11.116  12.397  68.621  1.00  0.00    -0.297 A  
HETATM   19  C   UNL     1     -10.983  11.813  69.893  1.00  0.00     0.165 A  
HETATM   20  C   UNL     1     -10.892  10.425  70.065  1.00  0.00    -0.348 A  
BRANCH  18  21
HETATM   21  C   UNL     1     -11.149  13.880  68.453  1.00  0.00    -0.278 A  
HETATM   22  C   UNL     1     -10.597  14.439  67.274  1.00  0.00    -0.279 A  
HETATM   23  C   UNL     1     -10.597  15.816  67.022  1.00  0.00    -0.316 A  
HETATM   24  C   UNL     1     -11.127  16.687  67.957  1.00  0.00    -0.255 A  
HETATM   25  C   UNL     1     -11.659  16.175  69.140  1.00  0.00    -0.285 A  
HETATM   26  C   UNL     1     -11.699  14.785  69.398  1.00  0.00    -0.358 A  
BRANCH  26  27
HETATM   27  C   UNL     1     -12.346  14.381  70.641  1.00  0.00    -0.351 A  
HETATM   28  N   UNL     1     -13.512  13.706  70.695  1.00  0.00     0.215 NA 
HETATM   29  N   UNL     1     -13.658  13.589  72.020  1.00  0.00    -0.472 NA 
HETATM   30  N   UNL     1     -12.696  14.132  72.769  1.00  0.00    -0.312 NA 
HETATM   31  H   UNL     1     -14.459  13.112  72.434  1.00  0.00     0.000 HD 
HETATM   32  N   UNL     1     -11.830  14.623  71.892  1.00  0.00    -0.275 NA 
ENDBRANCH  26  27
ENDBRANCH  18  21
ENDBRANCH  14  15
ENDBRANCH  10  14
ENDBRANCH   4   5
ENDBRANCH   3   4
ENDBRANCH   2   3
TORSDOF 8
ENDMDL
MODEL      195
REMARK 921   NORMALIZED FREE ENERGY PREDICTED BY IDOCK:   -4.40 KCAL/MOL
REMARK 922        TOTAL FREE ENERGY PREDICTED BY IDOCK:   -7.48 KCAL/MOL
REMARK 923 INTER-LIGAND FREE ENERGY PREDICTED BY IDOCK:   -6.38 KCAL/MOL
REMARK 924 INTRA-LIGAND FREE ENERGY PREDICTED BY IDOCK:   -1.10 KCAL/MOL
REMARK 927      BINDING AFFINITY PREDICTED BY RF-SCORE:    0.00 PKD
ROOT
HETATM    1  C   UNL     1      -5.979   9.739  64.734  1.00  0.00    -0.090 C  
HETATM    2  C   UNL     1      -6.187  10.656  65.928  1.00  0.00    -0.134 C  
ENDROOT
BRANCH   2   3
HETATM    3  C   UNL     1      -7.563  10.449  66.569  1.00  0.00    -0.118 C  
BRANCH   3   4
HETATM    4  C   UNL     1      -8.647  11.388  66.027  1.00  0.00    -0.094 C  
BRANCH   4   5
HETATM    5  C   UNL     1      -9.026  12.475  66.985  1.00  0.00    -0.211 A  
HETATM    6  N   UNL     1      -8.160  13.366  67.428  1.00  0.00    -0.176 NA 
HETATM    7  C   UNL     1      -8.847  14.196  68.260  1.00  0.00    -0.187 A  
HETATM    8 CL   UNL     1      -8.096  15.498  69.056  1.00  0.00    -0.200 Cl 
HETATM    9  C   UNL     1     -10.166  13.804  68.369  1.00  0.00    -0.248 A  
HETATM   10  N   UNL     1     -10.271  12.678  67.562  1.00  0.00    -0.213 NA 
BRANCH   9  11
HETATM   11  C   UNL     1     -11.247  14.396  69.184  1.00  0.00    -0.272 C  
HETATM   12  H   UNL     1     -12.241  16.047  69.159  1.00  0.00     0.000 HD 
HETATM   13  O   UNL     1     -11.545  15.667  68.634  1.00  0.00    -0.356 OA 
ENDBRANCH   9  11
BRANCH  10  14
HETATM   14  C   UNL     1     -11.396  11.744  67.531  1.00  0.00    -0.310 C  
BRANCH  14  15
HETATM   15  C   UNL     1     -11.208  10.503  68.364  1.00  0.00    -0.339 A  
HETATM   16  C   UNL     1     -10.873   9.285  67.767  1.00  0.00    -0.192 A  
HETATM   17  C   UNL     1     -10.655   8.137  68.543  1.00  0.00    -0.142 A  
HETATM   18  C   UNL     1     -10.830   8.138  69.936  1.00  0.00    -0.215 A  
HETATM   19  C   UNL     1     -11.129   9.379  70.525  1.00  0.00    -0.330 A  
HETATM   20  C   UNL     1     -11.302  10.541  69.759  1.00  0.00    -0.367 A  
BRANCH  18  21
HETATM   21  C   UNL     1     -10.712   6.900  70.762  1.00  0.00    -0.262 A  
HETATM   22  C   UNL     1     -11.515   6.784  71.924  1.00  0.00    -0.318 A  
HETATM   23  C   UNL     1     -11.483   5.656  72.750  1.00  0.00    -0.328 A  
HETATM   24  C   UNL     1     -10.625   4.611  72.458  1.00  0.00    -0.243 A  
HETATM   25  C   UNL     1      -9.803   4.700  71.335  1.00  0.00    -0.264 A  
HETATM   26  C   UNL     1      -9.844   5.817  70.468  1.00  0.00    -0.240 A  
BRANCH  26  27
HETATM   27  C   UNL     1      -8.984   5.749  69.293  1.00  0.00    -0.119 A  
HETATM   28  N   UNL     1      -7.811   6.404  69.183  1.00  0.00    -0.108 NA 
HETATM   29  N   UNL     1      -7.436   6.017  67.958  1.00  0.00    -0.084 NA 
HETATM   30  N   UNL     1      -8.271   5.196  67.319  1.00  0.00    -0.107 NA 
HETATM   31  H   UNL     1      -6.561   6.331  67.538  1.00  0.00     0.000 HD 
HETATM   32  N   UNL     1      -9.260   4.993  68.178  1.00  0.00    -0.115 NA 
ENDBRANCH  26  27
ENDBRANCH  18  21
ENDBRANCH  14  15
ENDBRANCH  10  14
ENDBRANCH   4   5
ENDBRANCH   3   4
ENDBRANCH   2   3
TORSDOF 8
ENDMDL
MODEL      196
REMARK 921   NORMALIZED FREE ENERGY PREDICTED BY IDOCK:   -4.39 KCAL/MOL
REMARK 922        TOTAL FREE ENERGY PREDICTED BY IDOCK:   -7.47 KCAL/MOL
REMARK 923 INTER-LIGAND FREE ENERGY PREDICTED BY IDOCK:   -6.01 KCAL/MOL
REMARK 924 INTRA-LIGAND FREE ENERGY PREDICTED BY IDOCK:   -1.47 KCAL/MOL
REMARK 927      BINDING AFFINITY PREDICTED BY RF-SCORE:    0.00 PKD
ROOT
HETATM    1  C   UNL     1     -10.646   4.670  65.494  1.00  0.00    -0.208 C  
HETATM    2  C   UNL     1      -9.526   5.226  66.357  1.00  0.00    -0.161 C  
ENDROOT
BRANCH   2   3
HETATM    3  C   UNL     1      -9.760   4.939  67.844  1.00  0.00    -0.202 C  
BRANCH   3   4
HETATM    4  C   UNL     1     -10.642   5.978  68.546  1.00  0.00    -0.325 C  
BRANCH   4   5
HETATM    5  C   UNL     1     -10.176   6.316  69.929  1.00  0.00    -0.184 A  
HETATM    6  N   UNL     1     -10.922   6.119  70.998  1.00  0.00    -0.280 NA 
HETATM    7  C   UNL     1     -10.183   6.523  72.068  1.00  0.00    -0.193 A  
HETATM    8 CL   UNL     1     -10.781   6.442  73.659  1.00  0.00    -0.272 Cl 
HETATM    9  C   UNL     1      -8.958   7.013  71.663  1.00  0.00    -0.134 A  
HETATM   10  N   UNL     1      -8.967   6.898  70.279  1.00  0.00    -0.152 NA 
BRANCH   9  11
HETATM   11  C   UNL     1      -7.868   7.582  72.484  1.00  0.00    -0.099 C  
HETATM   12  H   UNL     1      -7.481   9.308  73.249  1.00  0.00     0.000 HD 
HETATM   13  O   UNL     1      -8.182   8.942  72.721  1.00  0.00    -0.387 OA 
ENDBRANCH   9  11
BRANCH  10  14
HETATM   14  C   UNL     1      -8.008   7.508  69.360  1.00  0.00    -0.123 C  
BRANCH  14  15
HETATM   15  C   UNL     1      -8.475   8.790  68.719  1.00  0.00    -0.129 A  
HETATM   16  C   UNL     1      -9.332   9.659  69.400  1.00  0.00    -0.201 A  
HETATM   17  C   UNL     1      -9.734  10.873  68.824  1.00  0.00    -0.196 A  
HETATM   18  C   UNL     1      -9.359  11.237  67.522  1.00  0.00    -0.166 A  
HETATM   19  C   UNL     1      -8.466  10.371  66.865  1.00  0.00    -0.124 A  
HETATM   20  C   UNL     1      -8.023   9.179  67.454  1.00  0.00    -0.103 A  
BRANCH  18  21
HETATM   21  C   UNL     1      -9.868  12.471  66.853  1.00  0.00    -0.229 A  
HETATM   22  C   UNL     1     -10.985  12.358  65.988  1.00  0.00    -0.324 A  
HETATM   23  C   UNL     1     -11.541  13.461  65.331  1.00  0.00    -0.335 A  
HETATM   24  C   UNL     1     -10.982  14.716  65.495  1.00  0.00    -0.344 A  
HETATM   25  C   UNL     1      -9.869  14.861  66.321  1.00  0.00    -0.315 A  
HETATM   26  C   UNL     1      -9.312  13.765  67.021  1.00  0.00    -0.250 A  
BRANCH  26  27
HETATM   27  C   UNL     1      -8.194  14.070  67.906  1.00  0.00    -0.158 A  
HETATM   28  N   UNL     1      -8.317  14.248  69.236  1.00  0.00     0.129 NA 
HETATM   29  N   UNL     1      -7.042  14.493  69.563  1.00  0.00    -0.250 NA 
HETATM   30  N   UNL     1      -6.165  14.484  68.557  1.00  0.00    -0.084 NA 
HETATM   31  H   UNL     1      -6.757  14.676  70.525  1.00  0.00     0.000 HD 
HETATM   32  N   UNL     1      -6.889  14.186  67.487  1.00  0.00    -0.209 NA 
ENDBRANCH  26  27
ENDBRANCH  18  21
ENDBRANCH  14  15
ENDBRANCH  10  14
ENDBRANCH   4   5
ENDBRANCH   3   4
ENDBRANCH   2   3
TORSDOF 8
ENDMDL
MODEL      197
REMARK 921   NORMALIZED FREE ENERGY PREDICTED BY IDOCK:   -4.38 KCAL/MOL
REMARK 922        TOTAL FREE ENERGY PREDICTED BY IDOCK:   -7.46 KCAL/MOL
REMARK 923 INTER-LIGAND FREE ENERGY PREDICTED BY IDOCK:   -5.94 KCAL/MOL
REMARK 924 INTRA-LIGAND FREE ENERGY PREDICTED BY IDOCK:   -1.52 KCAL/MOL
REMARK 927      BINDING AFFINITY PREDICTED BY RF-SCORE:    0.00 PKD
ROOT
HETATM    1  C   UNL     1      -7.072  18.411  68.579  1.00  0.00    -0.285 C  
HETATM    2  C   UNL     1      -8.100  18.107  67.502  1.00  0.00    -0.238 C  
ENDROOT
BRANCH   2   3
HETATM    3  C   UNL     1      -7.583  17.067  66.501  1.00  0.00    -0.326 C  
BRANCH   3   4
HETATM    4  C   UNL     1      -8.010  15.630  66.822  1.00  0.00    -0.246 C  
BRANCH   4   5
HETATM    5  C   UNL     1      -9.379  15.291  66.316  1.00  0.00    -0.310 A  
HETATM    6  N   UNL     1      -9.920  15.889  65.272  1.00  0.00    -0.435 NA 
HETATM    7  C   UNL     1     -11.147  15.327  65.094  1.00  0.00    -0.404 A  
HETATM    8 CL   UNL     1     -12.190  15.818  63.843  1.00  0.00     0.100 Cl 
HETATM    9  C   UNL     1     -11.399  14.377  66.063  1.00  0.00    -0.335 A  
HETATM   10  N   UNL     1     -10.263  14.373  66.864  1.00  0.00    -0.262 NA 
BRANCH   9  11
HETATM   11  C   UNL     1     -12.610  13.555  66.265  1.00  0.00    -0.239 C  
HETATM   12  H   UNL     1     -13.423  12.059  65.360  1.00  0.00     0.000 HD 
HETATM   13  O   UNL     1     -12.644  12.588  65.230  1.00  0.00    -0.645 OA 
ENDBRANCH   9  11
BRANCH  10  14
HETATM   14  C   UNL     1     -10.133  13.726  68.168  1.00  0.00    -0.245 C  
BRANCH  14  15
HETATM   15  C   UNL     1      -9.588  12.322  68.124  1.00  0.00    -0.213 A  
HETATM   16  C   UNL     1     -10.399  11.252  67.736  1.00  0.00    -0.208 A  
HETATM   17  C   UNL     1      -9.885   9.951  67.652  1.00  0.00    -0.198 A  
HETATM   18  C   UNL     1      -8.564   9.650  68.020  1.00  0.00    -0.119 A  
HETATM   19  C   UNL     1      -7.750  10.741  68.371  1.00  0.00    -0.113 A  
HETATM   20  C   UNL     1      -8.246  12.052  68.411  1.00  0.00    -0.151 A  
BRANCH  18  21
HETATM   21  C   UNL     1      -8.033   8.254  68.043  1.00  0.00    -0.123 A  
HETATM   22  C   UNL     1      -8.123   7.518  69.251  1.00  0.00    -0.126 A  
HETATM   23  C   UNL     1      -7.667   6.200  69.363  1.00  0.00    -0.099 A  
HETATM   24  C   UNL     1      -7.080   5.578  68.276  1.00  0.00    -0.066 A  
HETATM   25  C   UNL     1      -6.955   6.279  67.078  1.00  0.00    -0.071 A  
HETATM   26  C   UNL     1      -7.439   7.600  66.933  1.00  0.00    -0.094 A  
BRANCH  26  27
HETATM   27  C   UNL     1      -7.307   8.191  65.607  1.00  0.00    -0.076 A  
HETATM   28  N   UNL     1      -6.322   9.042  65.259  1.00  0.00    -0.063 NA 
HETATM   29  N   UNL     1      -6.649   9.277  63.982  1.00  0.00    -0.089 NA 
HETATM   30  N   UNL     1      -7.738   8.653  63.530  1.00  0.00    -0.128 NA 
HETATM   31  H   UNL     1      -6.097   9.897  63.390  1.00  0.00     0.000 HD 
HETATM   32  N   UNL     1      -8.158   7.928  64.558  1.00  0.00    -0.136 NA 
ENDBRANCH  26  27
ENDBRANCH  18  21
ENDBRANCH  14  15
ENDBRANCH  10  14
ENDBRANCH   4   5
ENDBRANCH   3   4
ENDBRANCH   2   3
TORSDOF 8
ENDMDL
MODEL      198
REMARK 921   NORMALIZED FREE ENERGY PREDICTED BY IDOCK:   -4.37 KCAL/MOL
REMARK 922        TOTAL FREE ENERGY PREDICTED BY IDOCK:   -7.44 KCAL/MOL
REMARK 923 INTER-LIGAND FREE ENERGY PREDICTED BY IDOCK:   -6.13 KCAL/MOL
REMARK 924 INTRA-LIGAND FREE ENERGY PREDICTED BY IDOCK:   -1.31 KCAL/MOL
REMARK 927      BINDING AFFINITY PREDICTED BY RF-SCORE:    0.00 PKD
ROOT
HETATM    1  C   UNL     1     -11.875   9.869  71.317  1.00  0.00    -0.479 C  
HETATM    2  C   UNL     1     -12.707  11.118  71.559  1.00  0.00    -0.499 C  
ENDROOT
BRANCH   2   3
HETATM    3  C   UNL     1     -12.624  12.092  70.379  1.00  0.00    -0.128 C  
BRANCH   3   4
HETATM    4  C   UNL     1     -11.196  12.336  69.875  1.00  0.00     0.048 C  
BRANCH   4   5
HETATM    5  C   UNL     1     -11.099  13.459  68.889  1.00  0.00    -0.266 A  
HETATM    6  N   UNL     1     -10.944  14.716  69.256  1.00  0.00    -0.253 NA 
HETATM    7  C   UNL     1     -10.882  15.451  68.112  1.00  0.00    -0.285 A  
HETATM    8 CL   UNL     1     -10.688  17.141  68.135  1.00  0.00    -0.375 Cl 
HETATM    9  C   UNL     1     -11.032  14.646  67.000  1.00  0.00    -0.317 A  
HETATM   10  N   UNL     1     -11.194  13.363  67.508  1.00  0.00    -0.274 NA 
BRANCH   9  11
HETATM   11  C   UNL     1     -11.061  15.029  65.573  1.00  0.00    -0.357 C  
HETATM   12  H   UNL     1     -10.019  14.594  64.012  1.00  0.00     0.000 HD 
HETATM   13  O   UNL     1      -9.999  14.348  64.929  1.00  0.00    -0.316 OA 
ENDBRANCH   9  11
BRANCH  10  14
HETATM   14  C   UNL     1     -11.638  12.191  66.756  1.00  0.00    -0.345 C  
BRANCH  14  15
HETATM   15  C   UNL     1     -10.764  10.973  66.911  1.00  0.00    -0.325 A  
HETATM   16  C   UNL     1     -11.168   9.900  67.710  1.00  0.00    -0.075 A  
HETATM   17  C   UNL     1     -10.378   8.747  67.823  1.00  0.00    -0.297 A  
HETATM   18  C   UNL     1      -9.122   8.645  67.204  1.00  0.00    -0.156 A  
HETATM   19  C   UNL     1      -8.747   9.715  66.374  1.00  0.00    -0.148 A  
HETATM   20  C   UNL     1      -9.555  10.851  66.219  1.00  0.00    -0.234 A  
BRANCH  18  21
HETATM   21  C   UNL     1      -8.220   7.472  67.405  1.00  0.00    -0.116 A  
HETATM   22  C   UNL     1      -8.339   6.369  66.523  1.00  0.00    -0.115 A  
HETATM   23  C   UNL     1      -7.527   5.235  66.624  1.00  0.00    -0.087 A  
HETATM   24  C   UNL     1      -6.581   5.151  67.630  1.00  0.00    -0.053 A  
HETATM   25  C   UNL     1      -6.451   6.207  68.530  1.00  0.00    -0.053 A  
HETATM   26  C   UNL     1      -7.239   7.377  68.425  1.00  0.00    -0.093 A  
BRANCH  26  27
HETATM   27  C   UNL     1      -6.951   8.434  69.388  1.00  0.00    -0.050 A  
HETATM   28  N   UNL     1      -5.749   9.031  69.509  1.00  0.00    -0.034 NA 
HETATM   29  N   UNL     1      -6.010   9.895  70.498  1.00  0.00    -0.068 NA 
HETATM   30  N   UNL     1      -7.252   9.872  70.986  1.00  0.00    -0.291 NA 
HETATM   31  H   UNL     1      -5.301  10.534  70.856  1.00  0.00     0.000 HD 
HETATM   32  N   UNL     1      -7.877   8.954  70.262  1.00  0.00    -0.092 NA 
ENDBRANCH  26  27
ENDBRANCH  18  21
ENDBRANCH  14  15
ENDBRANCH  10  14
ENDBRANCH   4   5
ENDBRANCH   3   4
ENDBRANCH   2   3
TORSDOF 8
ENDMDL
MODEL      199
REMARK 921   NORMALIZED FREE ENERGY PREDICTED BY IDOCK:   -4.35 KCAL/MOL
REMARK 922        TOTAL FREE ENERGY PREDICTED BY IDOCK:   -7.41 KCAL/MOL
REMARK 923 INTER-LIGAND FREE ENERGY PREDICTED BY IDOCK:   -6.77 KCAL/MOL
REMARK 924 INTRA-LIGAND FREE ENERGY PREDICTED BY IDOCK:   -0.64 KCAL/MOL
REMARK 927      BINDING AFFINITY PREDICTED BY RF-SCORE:    0.00 PKD
ROOT
HETATM    1  C   UNL     1      -8.301   5.069  64.878  1.00  0.00    -0.142 C  
HETATM    2  C   UNL     1      -6.806   5.300  65.021  1.00  0.00    -0.049 C  
ENDROOT
BRANCH   2   3
HETATM    3  C   UNL     1      -6.406   5.537  66.482  1.00  0.00    -0.039 C  
BRANCH   3   4
HETATM    4  C   UNL     1      -7.342   6.489  67.235  1.00  0.00    -0.087 C  
BRANCH   4   5
HETATM    5  C   UNL     1      -7.320   7.888  66.703  1.00  0.00    -0.088 A  
HETATM    6  N   UNL     1      -6.201   8.555  66.500  1.00  0.00    -0.056 NA 
HETATM    7  C   UNL     1      -6.557   9.773  66.006  1.00  0.00    -0.082 A  
HETATM    8 CL   UNL     1      -5.401  10.957  65.607  1.00  0.00    -0.138 Cl 
HETATM    9  C   UNL     1      -7.930   9.889  65.923  1.00  0.00    -0.115 A  
HETATM   10  N   UNL     1      -8.419   8.678  66.396  1.00  0.00    -0.108 NA 
BRANCH   9  11
HETATM   11  C   UNL     1      -8.739  11.042  65.477  1.00  0.00    -0.138 C  
HETATM   12  H   UNL     1     -10.017  11.362  64.071  1.00  0.00     0.000 HD 
HETATM   13  O   UNL     1      -9.496  10.621  64.357  1.00  0.00    -0.222 OA 
ENDBRANCH   9  11
BRANCH  10  14
HETATM   14  C   UNL     1      -9.809   8.390  66.746  1.00  0.00    -0.259 C  
BRANCH  14  15
HETATM   15  C   UNL     1     -10.442   9.385  67.685  1.00  0.00    -0.328 A  
HETATM   16  C   UNL     1     -11.347  10.338  67.213  1.00  0.00     0.115 A  
HETATM   17  C   UNL     1     -11.971  11.237  68.090  1.00  0.00    -0.182 A  
HETATM   18  C   UNL     1     -11.666  11.270  69.460  1.00  0.00    -0.415 A  
HETATM   19  C   UNL     1     -10.783  10.280  69.926  1.00  0.00    -0.344 A  
HETATM   20  C   UNL     1     -10.192   9.348  69.061  1.00  0.00    -0.216 A  
BRANCH  18  21
HETATM   21  C   UNL     1     -12.236  12.293  70.386  1.00  0.00    -0.371 A  
HETATM   22  C   UNL     1     -12.964  11.848  71.518  1.00  0.00    -0.427 A  
HETATM   23  C   UNL     1     -13.520  12.731  72.449  1.00  0.00    -0.512 A  
HETATM   24  C   UNL     1     -13.392  14.097  72.266  1.00  0.00    -0.555 A  
HETATM   25  C   UNL     1     -12.702  14.571  71.152  1.00  0.00    -0.408 A  
HETATM   26  C   UNL     1     -12.103  13.695  70.217  1.00  0.00    -0.427 A  
BRANCH  26  27
HETATM   27  C   UNL     1     -11.352  14.324  69.138  1.00  0.00    -0.276 A  
HETATM   28  N   UNL     1     -10.016  14.214  68.989  1.00  0.00    -0.124 NA 
HETATM   29  N   UNL     1      -9.837  14.950  67.886  1.00  0.00    -0.213 NA 
HETATM   30  N   UNL     1     -10.935  15.496  67.358  1.00  0.00    -0.314 NA 
HETATM   31  H   UNL     1      -8.915  15.085  67.472  1.00  0.00     0.000 HD 
HETATM   32  N   UNL     1     -11.922  15.079  68.139  1.00  0.00    -0.248 NA 
ENDBRANCH  26  27
ENDBRANCH  18  21
ENDBRANCH  14  15
ENDBRANCH  10  14
ENDBRANCH   4   5
ENDBRANCH   3   4
ENDBRANCH   2   3
TORSDOF 8
ENDMDL
MODEL      200
REMARK 921   NORMALIZED FREE ENERGY PREDICTED BY IDOCK:   -4.34 KCAL/MOL
REMARK 922        TOTAL FREE ENERGY PREDICTED BY IDOCK:   -7.39 KCAL/MOL
REMARK 923 INTER-LIGAND FREE ENERGY PREDICTED BY IDOCK:   -5.87 KCAL/MOL
REMARK 924 INTRA-LIGAND FREE ENERGY PREDICTED BY IDOCK:   -1.52 KCAL/MOL
REMARK 927      BINDING AFFINITY PREDICTED BY RF-SCORE:    0.00 PKD
ROOT
HETATM    1  C   UNL     1     -12.567  12.675  63.483  1.00  0.00    -0.415 C  
HETATM    2  C   UNL     1     -11.435  11.685  63.702  1.00  0.00    -0.458 C  
ENDROOT
BRANCH   2   3
HETATM    3  C   UNL     1     -10.695  11.952  65.016  1.00  0.00    -0.341 C  
BRANCH   3   4
HETATM    4  C   UNL     1      -9.542  12.954  64.887  1.00  0.00     0.218 C  
BRANCH   4   5
HETATM    5  C   UNL     1      -9.509  13.968  65.989  1.00  0.00    -0.136 A  
HETATM    6  N   UNL     1     -10.154  15.116  65.919  1.00  0.00    -0.301 NA 
HETATM    7  C   UNL     1      -9.911  15.770  67.088  1.00  0.00    -0.242 A  
HETATM    8 CL   UNL     1     -10.562  17.310  67.411  1.00  0.00    -0.332 Cl 
HETATM    9  C   UNL     1      -9.072  15.035  67.899  1.00  0.00    -0.180 A  
HETATM   10  N   UNL     1      -8.795  13.882  67.176  1.00  0.00    -0.219 NA 
BRANCH   9  11
HETATM   11  C   UNL     1      -8.529  15.380  69.230  1.00  0.00    -0.258 C  
HETATM   12  H   UNL     1      -8.976  14.940  71.053  1.00  0.00     0.000 HD 
HETATM   13  O   UNL     1      -9.325  14.718  70.197  1.00  0.00     0.368 OA 
ENDBRANCH   9  11
BRANCH  10  14
HETATM   14  C   UNL     1      -7.759  12.899  67.487  1.00  0.00    -0.174 C  
BRANCH  14  15
HETATM   15  C   UNL     1      -8.263  11.627  68.117  1.00  0.00    -0.151 A  
HETATM   16  C   UNL     1      -9.618  11.467  68.418  1.00  0.00    -0.195 A  
HETATM   17  C   UNL     1     -10.099  10.268  68.965  1.00  0.00    -0.225 A  
HETATM   18  C   UNL     1      -9.242   9.209  69.299  1.00  0.00    -0.146 A  
HETATM   19  C   UNL     1      -7.888   9.369  68.954  1.00  0.00    -0.083 A  
HETATM   20  C   UNL     1      -7.409  10.548  68.364  1.00  0.00    -0.086 A  
BRANCH  18  21
HETATM   21  C   UNL     1      -9.721   7.971  69.983  1.00  0.00    -0.173 A  
HETATM   22  C   UNL     1     -10.006   8.034  71.370  1.00  0.00    -0.221 A  
HETATM   23  C   UNL     1     -10.475   6.930  72.092  1.00  0.00    -0.230 A  
HETATM   24  C   UNL     1     -10.649   5.714  71.455  1.00  0.00    -0.306 A  
HETATM   25  C   UNL     1     -10.357   5.610  70.096  1.00  0.00    -0.341 A  
HETATM   26  C   UNL     1      -9.915   6.721  69.342  1.00  0.00    -0.167 A  
BRANCH  26  27
HETATM   27  C   UNL     1      -9.715   6.490  67.916  1.00  0.00    -0.122 A  
HETATM   28  N   UNL     1     -10.720   6.304  67.037  1.00  0.00    -0.324 NA 
HETATM   29  N   UNL     1     -10.022   6.142  65.907  1.00  0.00    -0.372 NA 
HETATM   30  N   UNL     1      -8.694   6.207  66.021  1.00  0.00    -0.151 NA 
HETATM   31  H   UNL     1     -10.479   5.978  65.010  1.00  0.00     0.000 HD 
HETATM   32  N   UNL     1      -8.483   6.458  67.306  1.00  0.00    -0.112 NA 
ENDBRANCH  26  27
ENDBRANCH  18  21
ENDBRANCH  14  15
ENDBRANCH  10  14
ENDBRANCH   4   5
ENDBRANCH   3   4
ENDBRANCH   2   3
TORSDOF 8
ENDMDL
MODEL      201
REMARK 921   NORMALIZED FREE ENERGY PREDICTED BY IDOCK:   -4.32 KCAL/MOL
REMARK 922        TOTAL FREE ENERGY PREDICTED BY IDOCK:   -7.37 KCAL/MOL
REMARK 923 INTER-LIGAND FREE ENERGY PREDICTED BY IDOCK:   -5.65 KCAL/MOL
REMARK 924 INTRA-LIGAND FREE ENERGY PREDICTED BY IDOCK:   -1.72 KCAL/MOL
REMARK 927      BINDING AFFINITY PREDICTED BY RF-SCORE:    0.00 PKD
ROOT
HETATM    1  C   UNL     1      -7.463   4.237  70.581  1.00  0.00    -0.048 C  
HETATM    2  C   UNL     1      -7.445   5.617  71.218  1.00  0.00    -0.094 C  
ENDROOT
BRANCH   2   3
HETATM    3  C   UNL     1      -8.763   6.365  70.989  1.00  0.00    -0.135 C  
BRANCH   3   4
HETATM    4  C   UNL     1      -8.775   7.790  71.554  1.00  0.00    -0.140 C  
BRANCH   4   5
HETATM    5  C   UNL     1     -10.098   8.476  71.406  1.00  0.00    -0.234 A  
HETATM    6  N   UNL     1     -11.211   7.994  71.923  1.00  0.00    -0.264 NA 
HETATM    7  C   UNL     1     -12.200   8.874  71.605  1.00  0.00    -0.343 A  
HETATM    8 CL   UNL     1     -13.815   8.625  72.083  1.00  0.00    -0.455 Cl 
HETATM    9  C   UNL     1     -11.708   9.917  70.848  1.00  0.00    -0.364 A  
HETATM   10  N   UNL     1     -10.354   9.644  70.702  1.00  0.00    -0.296 NA 
BRANCH   9  11
HETATM   11  C   UNL     1     -12.434  11.065  70.265  1.00  0.00    -0.285 C  
HETATM   12  H   UNL     1     -13.304  12.637  70.962  1.00  0.00     0.000 HD 
HETATM   13  O   UNL     1     -12.838  11.899  71.337  1.00  0.00    -0.389 OA 
ENDBRANCH   9  11
BRANCH  10  14
HETATM   14  C   UNL     1      -9.438  10.309  69.777  1.00  0.00    -0.091 C  
BRANCH  14  15
HETATM   15  C   UNL     1      -9.115   9.523  68.533  1.00  0.00    -0.131 A  
HETATM   16  C   UNL     1      -7.828   9.027  68.314  1.00  0.00    -0.100 A  
HETATM   17  C   UNL     1      -7.534   8.258  67.178  1.00  0.00    -0.089 A  
HETATM   18  C   UNL     1      -8.491   8.011  66.181  1.00  0.00    -0.141 A  
HETATM   19  C   UNL     1      -9.791   8.483  66.435  1.00  0.00    -0.327 A  
HETATM   20  C   UNL     1     -10.102   9.213  67.591  1.00  0.00    -0.273 A  
BRANCH  18  21
HETATM   21  C   UNL     1      -8.166   7.290  64.915  1.00  0.00    -0.075 A  
HETATM   22  C   UNL     1      -7.572   8.021  63.855  1.00  0.00    -0.128 A  
HETATM   23  C   UNL     1      -7.218   7.427  62.639  1.00  0.00    -0.084 A  
HETATM   24  C   UNL     1      -7.471   6.083  62.428  1.00  0.00    -0.058 A  
HETATM   25  C   UNL     1      -8.074   5.338  63.440  1.00  0.00    -0.112 A  
HETATM   26  C   UNL     1      -8.408   5.911  64.690  1.00  0.00    -0.086 A  
BRANCH  26  27
HETATM   27  C   UNL     1      -8.968   5.002  65.683  1.00  0.00    -0.149 A  
HETATM   28  N   UNL     1     -10.065   4.247  65.475  1.00  0.00    -0.229 NA 
HETATM   29  N   UNL     1     -10.150   3.620  66.654  1.00  0.00    -0.267 NA 
HETATM   30  N   UNL     1      -9.213   3.928  67.553  1.00  0.00    -0.157 NA 
HETATM   31  H   UNL     1     -10.888   2.945  66.854  1.00  0.00     0.000 HD 
HETATM   32  N   UNL     1      -8.429   4.797  66.931  1.00  0.00    -0.106 NA 
ENDBRANCH  26  27
ENDBRANCH  18  21
ENDBRANCH  14  15
ENDBRANCH  10  14
ENDBRANCH   4   5
ENDBRANCH   3   4
ENDBRANCH   2   3
TORSDOF 8
ENDMDL
MODEL      202
REMARK 921   NORMALIZED FREE ENERGY PREDICTED BY IDOCK:   -4.32 KCAL/MOL
REMARK 922        TOTAL FREE ENERGY PREDICTED BY IDOCK:   -7.36 KCAL/MOL
REMARK 923 INTER-LIGAND FREE ENERGY PREDICTED BY IDOCK:   -6.77 KCAL/MOL
REMARK 924 INTRA-LIGAND FREE ENERGY PREDICTED BY IDOCK:   -0.60 KCAL/MOL
REMARK 927      BINDING AFFINITY PREDICTED BY RF-SCORE:    0.00 PKD
ROOT
HETATM    1  C   UNL     1     -10.212  19.174  67.535  1.00  0.00    -0.493 C  
HETATM    2  C   UNL     1     -10.225  17.964  68.454  1.00  0.00    -0.398 C  
ENDROOT
BRANCH   2   3
HETATM    3  C   UNL     1     -10.194  16.652  67.663  1.00  0.00    -0.285 C  
BRANCH   3   4
HETATM    4  C   UNL     1     -11.423  15.763  67.884  1.00  0.00    -0.221 C  
BRANCH   4   5
HETATM    5  C   UNL     1     -11.423  14.527  67.038  1.00  0.00    -0.370 A  
HETATM    6  N   UNL     1     -11.474  14.567  65.721  1.00  0.00    -0.340 NA 
HETATM    7  C   UNL     1     -11.444  13.275  65.292  1.00  0.00    -0.295 A  
HETATM    8 CL   UNL     1     -11.495  12.874  63.639  1.00  0.00    -0.511 Cl 
HETATM    9  C   UNL     1     -11.404  12.401  66.359  1.00  0.00    -0.342 A  
HETATM   10  N   UNL     1     -11.414  13.214  67.486  1.00  0.00    -0.308 NA 
BRANCH   9  11
HETATM   11  C   UNL     1     -11.395  10.924  66.350  1.00  0.00     0.270 C  
HETATM   12  H   UNL     1     -10.120   9.560  65.871  1.00  0.00     0.000 HD 
HETATM   13  O   UNL     1     -10.126  10.510  65.876  1.00  0.00    -0.242 OA 
ENDBRANCH   9  11
BRANCH  10  14
HETATM   14  C   UNL     1     -11.635  12.773  68.862  1.00  0.00    -0.316 C  
BRANCH  14  15
HETATM   15  C   UNL     1     -10.919  11.502  69.241  1.00  0.00    -0.261 A  
HETATM   16  C   UNL     1      -9.538  11.380  69.064  1.00  0.00    -0.004 A  
HETATM   17  C   UNL     1      -8.861  10.216  69.455  1.00  0.00    -0.197 A  
HETATM   18  C   UNL     1      -9.539   9.101  69.971  1.00  0.00    -0.218 A  
HETATM   19  C   UNL     1     -10.922   9.253  70.178  1.00  0.00    -0.278 A  
HETATM   20  C   UNL     1     -11.597  10.433  69.833  1.00  0.00    -0.358 A  
BRANCH  18  21
HETATM   21  C   UNL     1      -8.850   7.815  70.287  1.00  0.00    -0.144 A  
HETATM   22  C   UNL     1      -8.552   7.524  71.641  1.00  0.00    -0.125 A  
HETATM   23  C   UNL     1      -7.922   6.337  72.034  1.00  0.00    -0.109 A  
HETATM   24  C   UNL     1      -7.543   5.410  71.080  1.00  0.00    -0.090 A  
HETATM   25  C   UNL     1      -7.800   5.673  69.735  1.00  0.00    -0.087 A  
HETATM   26  C   UNL     1      -8.465   6.850  69.321  1.00  0.00    -0.129 A  
BRANCH  26  27
HETATM   27  C   UNL     1      -8.733   6.966  67.892  1.00  0.00    -0.121 A  
HETATM   28  N   UNL     1      -9.965   7.138  67.371  1.00  0.00    -0.158 NA 
HETATM   29  N   UNL     1      -9.668   7.183  66.067  1.00  0.00    -0.402 NA 
HETATM   30  N   UNL     1      -8.378   7.051  65.752  1.00  0.00    -0.138 NA 
HETATM   31  H   UNL     1     -10.386   7.311  65.354  1.00  0.00     0.000 HD 
HETATM   32  N   UNL     1      -7.760   6.937  66.920  1.00  0.00    -0.098 NA 
ENDBRANCH  26  27
ENDBRANCH  18  21
ENDBRANCH  14  15
ENDBRANCH  10  14
ENDBRANCH   4   5
ENDBRANCH   3   4
ENDBRANCH   2   3
TORSDOF 8
ENDMDL
MODEL      203
REMARK 921   NORMALIZED FREE ENERGY PREDICTED BY IDOCK:   -4.30 KCAL/MOL
REMARK 922        TOTAL FREE ENERGY PREDICTED BY IDOCK:   -7.34 KCAL/MOL
REMARK 923 INTER-LIGAND FREE ENERGY PREDICTED BY IDOCK:   -5.48 KCAL/MOL
REMARK 924 INTRA-LIGAND FREE ENERGY PREDICTED BY IDOCK:   -1.85 KCAL/MOL
REMARK 927      BINDING AFFINITY PREDICTED BY RF-SCORE:    0.00 PKD
ROOT
HETATM    1  C   UNL     1      -9.490  10.546  64.411  1.00  0.00    -0.333 C  
HETATM    2  C   UNL     1      -8.837   9.489  63.535  1.00  0.00    -0.235 C  
ENDROOT
BRANCH   2   3
HETATM    3  C   UNL     1      -7.370   9.264  63.916  1.00  0.00    -0.102 C  
BRANCH   3   4
HETATM    4  C   UNL     1      -7.002   7.791  64.130  1.00  0.00    -0.068 C  
BRANCH   4   5
HETATM    5  C   UNL     1      -7.681   7.176  65.315  1.00  0.00    -0.114 A  
HETATM    6  N   UNL     1      -8.797   6.481  65.214  1.00  0.00     0.043 NA 
HETATM    7  C   UNL     1      -9.114   6.069  66.472  1.00  0.00    -0.146 A  
HETATM    8 CL   UNL     1     -10.501   5.136  66.792  1.00  0.00    -0.304 Cl 
HETATM    9  C   UNL     1      -8.197   6.538  67.390  1.00  0.00    -0.121 A  
HETATM   10  N   UNL     1      -7.286   7.272  66.641  1.00  0.00    -0.078 NA 
BRANCH   9  11
HETATM   11  C   UNL     1      -8.177   6.358  68.857  1.00  0.00    -0.118 C  
HETATM   12  H   UNL     1      -9.217   7.022  70.338  1.00  0.00     0.000 HD 
HETATM   13  O   UNL     1      -9.230   7.138  69.394  1.00  0.00    -0.148 OA 
ENDBRANCH   9  11
BRANCH  10  14
HETATM   14  C   UNL     1      -6.268   8.177  67.173  1.00  0.00    -0.055 C  
BRANCH  14  15
HETATM   15  C   UNL     1      -6.766   9.559  67.508  1.00  0.00    -0.067 A  
HETATM   16  C   UNL     1      -7.477   9.796  68.688  1.00  0.00    -0.075 A  
HETATM   17  C   UNL     1      -7.904  11.088  69.025  1.00  0.00    -0.126 A  
HETATM   18  C   UNL     1      -7.705  12.183  68.169  1.00  0.00    -0.129 A  
HETATM   19  C   UNL     1      -6.956  11.936  67.005  1.00  0.00    -0.116 A  
HETATM   20  C   UNL     1      -6.485  10.654  66.686  1.00  0.00    -0.100 A  
BRANCH  18  21
HETATM   21  C   UNL     1      -8.251  13.541  68.460  1.00  0.00    -0.104 A  
HETATM   22  C   UNL     1      -7.356  14.550  68.894  1.00  0.00    -0.128 A  
HETATM   23  C   UNL     1      -7.774  15.856  69.175  1.00  0.00    -0.220 A  
HETATM   24  C   UNL     1      -9.111  16.193  69.056  1.00  0.00    -0.250 A  
HETATM   25  C   UNL     1     -10.024  15.220  68.653  1.00  0.00    -0.216 A  
HETATM   26  C   UNL     1      -9.617  13.904  68.332  1.00  0.00    -0.215 A  
BRANCH  26  27
HETATM   27  C   UNL     1     -10.663  13.007  67.856  1.00  0.00    -0.235 A  
HETATM   28  N   UNL     1     -11.348  12.162  68.653  1.00  0.00    -0.255 NA 
HETATM   29  N   UNL     1     -12.159  11.591  67.755  1.00  0.00    -0.587 NA 
HETATM   30  N   UNL     1     -12.026  12.007  66.494  1.00  0.00    -0.601 NA 
HETATM   31  H   UNL     1     -12.840  10.879  68.019  1.00  0.00     0.000 HD 
HETATM   32  N   UNL     1     -11.085  12.939  66.548  1.00  0.00    -0.279 NA 
ENDBRANCH  26  27
ENDBRANCH  18  21
ENDBRANCH  14  15
ENDBRANCH  10  14
ENDBRANCH   4   5
ENDBRANCH   3   4
ENDBRANCH   2   3
TORSDOF 8
ENDMDL
MODEL      204
REMARK 921   NORMALIZED FREE ENERGY PREDICTED BY IDOCK:   -4.28 KCAL/MOL
REMARK 922        TOTAL FREE ENERGY PREDICTED BY IDOCK:   -7.32 KCAL/MOL
REMARK 923 INTER-LIGAND FREE ENERGY PREDICTED BY IDOCK:   -6.12 KCAL/MOL
REMARK 924 INTRA-LIGAND FREE ENERGY PREDICTED BY IDOCK:   -1.19 KCAL/MOL
REMARK 927      BINDING AFFINITY PREDICTED BY RF-SCORE:    0.00 PKD
ROOT
HETATM    1  C   UNL     1     -10.174  11.544  63.272  1.00  0.00    -0.432 C  
HETATM    2  C   UNL     1      -9.089  11.051  64.215  1.00  0.00    -0.116 C  
ENDROOT
BRANCH   2   3
HETATM    3  C   UNL     1      -9.201  11.700  65.598  1.00  0.00    -0.150 C  
BRANCH   3   4
HETATM    4  C   UNL     1     -10.187  12.872  65.656  1.00  0.00    -0.295 C  
BRANCH   4   5
HETATM    5  C   UNL     1     -10.022  13.728  66.874  1.00  0.00    -0.264 A  
HETATM    6  N   UNL     1      -9.047  14.608  66.998  1.00  0.00    -0.226 NA 
HETATM    7  C   UNL     1      -9.213  15.204  68.210  1.00  0.00    -0.188 A  
HETATM    8 CL   UNL     1      -8.156  16.413  68.773  1.00  0.00    -0.222 Cl 
HETATM    9  C   UNL     1     -10.296  14.669  68.879  1.00  0.00    -0.245 A  
HETATM   10  N   UNL     1     -10.802  13.700  68.021  1.00  0.00    -0.241 NA 
BRANCH   9  11
HETATM   11  C   UNL     1     -10.811  14.996  70.225  1.00  0.00    -0.172 C  
HETATM   12  H   UNL     1     -11.799  16.457  71.001  1.00  0.00     0.000 HD 
HETATM   13  O   UNL     1     -11.468  16.248  70.135  1.00  0.00    -0.327 OA 
ENDBRANCH   9  11
BRANCH  10  14
HETATM   14  C   UNL     1     -11.790  12.679  68.365  1.00  0.00    -0.301 C  
BRANCH  14  15
HETATM   15  C   UNL     1     -11.215  11.316  68.654  1.00  0.00    -0.310 A  
HETATM   16  C   UNL     1     -11.052  10.377  67.632  1.00  0.00    -0.361 A  
HETATM   17  C   UNL     1     -10.478   9.124  67.889  1.00  0.00    -0.293 A  
HETATM   18  C   UNL     1     -10.108   8.728  69.184  1.00  0.00    -0.203 A  
HETATM   19  C   UNL     1     -10.242   9.697  70.194  1.00  0.00    -0.313 A  
HETATM   20  C   UNL     1     -10.773  10.969  69.934  1.00  0.00    -0.055 A  
BRANCH  18  21
HETATM   21  C   UNL     1      -9.600   7.359  69.492  1.00  0.00    -0.155 A  
HETATM   22  C   UNL     1     -10.467   6.448  70.144  1.00  0.00    -0.269 A  
HETATM   23  C   UNL     1     -10.084   5.139  70.459  1.00  0.00    -0.326 A  
HETATM   24  C   UNL     1      -8.807   4.703  70.155  1.00  0.00    -0.126 A  
HETATM   25  C   UNL     1      -7.919   5.579  69.533  1.00  0.00    -0.094 A  
HETATM   26  C   UNL     1      -8.297   6.894  69.176  1.00  0.00    -0.125 A  
BRANCH  26  27
HETATM   27  C   UNL     1      -7.295   7.680  68.467  1.00  0.00    -0.095 A  
HETATM   28  N   UNL     1      -7.028   7.547  67.153  1.00  0.00    -0.080 NA 
HETATM   29  N   UNL     1      -6.066   8.466  67.010  1.00  0.00    -0.053 NA 
HETATM   30  N   UNL     1      -5.724   9.136  68.112  1.00  0.00    -0.038 NA 
HETATM   31  H   UNL     1      -5.620   8.644  66.110  1.00  0.00     0.000 HD 
HETATM   32  N   UNL     1      -6.527   8.659  69.053  1.00  0.00    -0.047 NA 
ENDBRANCH  26  27
ENDBRANCH  18  21
ENDBRANCH  14  15
ENDBRANCH  10  14
ENDBRANCH   4   5
ENDBRANCH   3   4
ENDBRANCH   2   3
TORSDOF 8
ENDMDL
MODEL      205
REMARK 921   NORMALIZED FREE ENERGY PREDICTED BY IDOCK:   -4.27 KCAL/MOL
REMARK 922        TOTAL FREE ENERGY PREDICTED BY IDOCK:   -7.29 KCAL/MOL
REMARK 923 INTER-LIGAND FREE ENERGY PREDICTED BY IDOCK:   -6.37 KCAL/MOL
REMARK 924 INTRA-LIGAND FREE ENERGY PREDICTED BY IDOCK:   -0.93 KCAL/MOL
REMARK 927      BINDING AFFINITY PREDICTED BY RF-SCORE:    0.00 PKD
ROOT
HETATM    1  C   UNL     1     -10.960   6.051  68.290  1.00  0.00    -0.347 C  
HETATM    2  C   UNL     1     -10.385   7.456  68.224  1.00  0.00    -0.231 C  
ENDROOT
BRANCH   2   3
HETATM    3  C   UNL     1     -10.647   8.113  66.864  1.00  0.00    -0.311 C  
BRANCH   3   4
HETATM    4  C   UNL     1      -9.460   8.919  66.324  1.00  0.00    -0.304 C  
BRANCH   4   5
HETATM    5  C   UNL     1      -8.139   8.466  66.865  1.00  0.00    -0.099 A  
HETATM    6  N   UNL     1      -7.453   7.476  66.329  1.00  0.00    -0.082 NA 
HETATM    7  C   UNL     1      -6.313   7.350  67.062  1.00  0.00    -0.052 A  
HETATM    8 CL   UNL     1      -5.136   6.173  66.706  1.00  0.00    -0.005 Cl 
HETATM    9  C   UNL     1      -6.292   8.259  68.101  1.00  0.00    -0.055 A  
HETATM   10  N   UNL     1      -7.485   8.962  67.983  1.00  0.00    -0.091 NA 
BRANCH   9  11
HETATM   11  C   UNL     1      -5.269   8.447  69.151  1.00  0.00    -0.031 C  
HETATM   12  H   UNL     1      -4.739   7.492  70.739  1.00  0.00     0.000 HD 
HETATM   13  O   UNL     1      -5.397   7.372  70.064  1.00  0.00    -0.022 OA 
ENDBRANCH   9  11
BRANCH  10  14
HETATM   14  C   UNL     1      -8.055   9.861  68.985  1.00  0.00    -0.111 C  
BRANCH  14  15
HETATM   15  C   UNL     1      -8.329  11.259  68.496  1.00  0.00    -0.155 A  
HETATM   16  C   UNL     1      -9.636  11.751  68.432  1.00  0.00    -0.191 A  
HETATM   17  C   UNL     1      -9.893  13.066  68.019  1.00  0.00    -0.224 A  
HETATM   18  C   UNL     1      -8.867  13.920  67.584  1.00  0.00    -0.191 A  
HETATM   19  C   UNL     1      -7.556  13.425  67.690  1.00  0.00    -0.177 A  
HETATM   20  C   UNL     1      -7.289  12.127  68.148  1.00  0.00    -0.103 A  
BRANCH  18  21
HETATM   21  C   UNL     1      -9.134  15.283  67.035  1.00  0.00    -0.245 A  
HETATM   22  C   UNL     1      -8.287  16.348  67.429  1.00  0.00    -0.183 A  
HETATM   23  C   UNL     1      -8.450  17.654  66.954  1.00  0.00    -0.261 A  
HETATM   24  C   UNL     1      -9.487  17.947  66.087  1.00  0.00    -0.169 A  
HETATM   25  C   UNL     1     -10.355  16.929  65.695  1.00  0.00    -0.254 A  
HETATM   26  C   UNL     1     -10.186  15.596  66.136  1.00  0.00    -0.327 A  
BRANCH  26  27
HETATM   27  C   UNL     1     -11.121  14.617  65.593  1.00  0.00    -0.338 A  
HETATM   28  N   UNL     1     -10.878  13.877  64.494  1.00  0.00    -0.395 NA 
HETATM   29  N   UNL     1     -12.010  13.166  64.429  1.00  0.00    -0.376 NA 
HETATM   30  N   UNL     1     -12.913  13.411  65.381  1.00  0.00    -0.612 NA 
HETATM   31  H   UNL     1     -12.174  12.477  63.695  1.00  0.00     0.000 HD 
HETATM   32  N   UNL     1     -12.343  14.324  66.154  1.00  0.00    -0.425 NA 
ENDBRANCH  26  27
ENDBRANCH  18  21
ENDBRANCH  14  15
ENDBRANCH  10  14
ENDBRANCH   4   5
ENDBRANCH   3   4
ENDBRANCH   2   3
TORSDOF 8
ENDMDL
MODEL      206
REMARK 921   NORMALIZED FREE ENERGY PREDICTED BY IDOCK:   -4.23 KCAL/MOL
REMARK 922        TOTAL FREE ENERGY PREDICTED BY IDOCK:   -7.23 KCAL/MOL
REMARK 923 INTER-LIGAND FREE ENERGY PREDICTED BY IDOCK:   -5.78 KCAL/MOL
REMARK 924 INTRA-LIGAND FREE ENERGY PREDICTED BY IDOCK:   -1.45 KCAL/MOL
REMARK 927      BINDING AFFINITY PREDICTED BY RF-SCORE:    0.00 PKD
ROOT
HETATM    1  C   UNL     1      -9.442  10.277  62.850  1.00  0.00    -0.333 C  
HETATM    2  C   UNL     1      -8.702   9.160  63.568  1.00  0.00    -0.148 C  
ENDROOT
BRANCH   2   3
HETATM    3  C   UNL     1      -8.154   8.120  62.585  1.00  0.00    -0.161 C  
BRANCH   3   4
HETATM    4  C   UNL     1      -7.317   7.020  63.248  1.00  0.00    -0.081 C  
BRANCH   4   5
HETATM    5  C   UNL     1      -8.079   5.751  63.476  1.00  0.00    -0.106 A  
HETATM    6  N   UNL     1      -9.023   5.331  62.657  1.00  0.00    -0.019 NA 
HETATM    7  C   UNL     1      -9.483   4.154  63.164  1.00  0.00    -0.139 A  
HETATM    8 CL   UNL     1     -10.723   3.269  62.406  1.00  0.00    -0.168 Cl 
HETATM    9  C   UNL     1      -8.837   3.838  64.342  1.00  0.00    -0.120 A  
HETATM   10  N   UNL     1      -7.947   4.885  64.552  1.00  0.00    -0.097 NA 
BRANCH   9  11
HETATM   11  C   UNL     1      -9.046   2.679  65.234  1.00  0.00    -0.138 C  
HETATM   12  H   UNL     1      -8.102   1.039  65.600  1.00  0.00     0.000 HD 
HETATM   13  O   UNL     1      -7.967   1.784  65.026  1.00  0.00    -0.071 OA 
ENDBRANCH   9  11
BRANCH  10  14
HETATM   14  C   UNL     1      -7.211   5.152  65.787  1.00  0.00    -0.069 C  
BRANCH  14  15
HETATM   15  C   UNL     1      -8.048   5.693  66.916  1.00  0.00    -0.102 A  
HETATM   16  C   UNL     1      -8.052   5.069  68.166  1.00  0.00    -0.086 A  
HETATM   17  C   UNL     1      -8.795   5.594  69.233  1.00  0.00    -0.112 A  
HETATM   18  C   UNL     1      -9.620   6.719  69.079  1.00  0.00    -0.135 A  
HETATM   19  C   UNL     1      -9.576   7.358  67.828  1.00  0.00    -0.162 A  
HETATM   20  C   UNL     1      -8.797   6.865  66.771  1.00  0.00    -0.129 A  
BRANCH  18  21
HETATM   21  C   UNL     1     -10.504   7.224  70.172  1.00  0.00    -0.229 A  
HETATM   22  C   UNL     1     -11.816   6.700  70.276  1.00  0.00    -0.378 A  
HETATM   23  C   UNL     1     -12.709   7.101  71.276  1.00  0.00    -0.412 A  
HETATM   24  C   UNL     1     -12.328   8.063  72.195  1.00  0.00    -0.358 A  
HETATM   25  C   UNL     1     -11.052   8.618  72.109  1.00  0.00    -0.434 A  
HETATM   26  C   UNL     1     -10.123   8.202  71.127  1.00  0.00    -0.222 A  
BRANCH  26  27
HETATM   27  C   UNL     1      -8.801   8.812  71.195  1.00  0.00    -0.219 A  
HETATM   28  N   UNL     1      -7.942   8.631  72.218  1.00  0.00    -0.344 NA 
HETATM   29  N   UNL     1      -6.914   9.381  71.803  1.00  0.00    -0.301 NA 
HETATM   30  N   UNL     1      -7.073   9.999  70.631  1.00  0.00    -0.319 NA 
HETATM   31  H   UNL     1      -6.059   9.474  72.351  1.00  0.00     0.000 HD 
HETATM   32  N   UNL     1      -8.273   9.620  70.214  1.00  0.00    -0.190 NA 
ENDBRANCH  26  27
ENDBRANCH  18  21
ENDBRANCH  14  15
ENDBRANCH  10  14
ENDBRANCH   4   5
ENDBRANCH   3   4
ENDBRANCH   2   3
TORSDOF 8
ENDMDL
MODEL      207
REMARK 921   NORMALIZED FREE ENERGY PREDICTED BY IDOCK:   -4.23 KCAL/MOL
REMARK 922        TOTAL FREE ENERGY PREDICTED BY IDOCK:   -7.23 KCAL/MOL
REMARK 923 INTER-LIGAND FREE ENERGY PREDICTED BY IDOCK:   -6.74 KCAL/MOL
REMARK 924 INTRA-LIGAND FREE ENERGY PREDICTED BY IDOCK:   -0.49 KCAL/MOL
REMARK 927      BINDING AFFINITY PREDICTED BY RF-SCORE:    0.00 PKD
ROOT
HETATM    1  C   UNL     1     -10.767  19.197  65.877  1.00  0.00    -0.435 C  
HETATM    2  C   UNL     1      -9.646  20.203  65.678  1.00  0.00    -0.045 C  
ENDROOT
BRANCH   2   3
HETATM    3  C   UNL     1      -8.990  20.591  67.008  1.00  0.00    -0.380 C  
BRANCH   3   4
HETATM    4  C   UNL     1      -7.461  20.683  66.942  1.00  0.00    -0.313 C  
BRANCH   4   5
HETATM    5  C   UNL     1      -6.782  20.179  68.179  1.00  0.00    -0.294 A  
HETATM    6  N   UNL     1      -6.462  20.968  69.186  1.00  0.00     0.253 NA 
HETATM    7  C   UNL     1      -5.880  20.178  70.130  1.00  0.00    -0.333 A  
HETATM    8 CL   UNL     1      -5.310  20.806  71.605  1.00  0.00    -0.194 Cl 
HETATM    9  C   UNL     1      -5.803  18.869  69.698  1.00  0.00    -0.248 A  
HETATM   10  N   UNL     1      -6.367  18.879  68.428  1.00  0.00    -0.223 NA 
BRANCH   9  11
HETATM   11  C   UNL     1      -5.221  17.697  70.384  1.00  0.00    -0.252 C  
HETATM   12  H   UNL     1      -5.220  17.022  72.189  1.00  0.00     0.000 HD 
HETATM   13  O   UNL     1      -5.595  17.776  71.748  1.00  0.00     0.148 OA 
ENDBRANCH   9  11
BRANCH  10  14
HETATM   14  C   UNL     1      -6.297  17.796  67.448  1.00  0.00    -0.154 C  
BRANCH  14  15
HETATM   15  C   UNL     1      -7.313  16.700  67.646  1.00  0.00    -0.163 A  
HETATM   16  C   UNL     1      -7.938  16.519  68.883  1.00  0.00    -0.239 A  
HETATM   17  C   UNL     1      -8.915  15.529  69.059  1.00  0.00    -0.237 A  
HETATM   18  C   UNL     1      -9.258  14.634  68.034  1.00  0.00    -0.197 A  
HETATM   19  C   UNL     1      -8.650  14.854  66.785  1.00  0.00    -0.256 A  
HETATM   20  C   UNL     1      -7.706  15.873  66.590  1.00  0.00    -0.199 A  
BRANCH  18  21
HETATM   21  C   UNL     1     -10.213  13.505  68.238  1.00  0.00    -0.250 A  
HETATM   22  C   UNL     1     -10.030  12.320  67.483  1.00  0.00    -0.201 A  
HETATM   23  C   UNL     1     -10.864  11.205  67.618  1.00  0.00    -0.295 A  
HETATM   24  C   UNL     1     -11.932  11.246  68.497  1.00  0.00    -0.288 A  
HETATM   25  C   UNL     1     -12.157  12.404  69.240  1.00  0.00    -0.218 A  
HETATM   26  C   UNL     1     -11.305  13.529  69.143  1.00  0.00    -0.333 A  
BRANCH  26  27
HETATM   27  C   UNL     1     -11.614  14.646  70.028  1.00  0.00    -0.284 A  
HETATM   28  N   UNL     1     -12.206  15.786  69.619  1.00  0.00    -0.279 NA 
HETATM   29  N   UNL     1     -12.260  16.455  70.777  1.00  0.00    -0.304 NA 
HETATM   30  N   UNL     1     -11.753  15.830  71.842  1.00  0.00    -0.441 NA 
HETATM   31  H   UNL     1     -12.665  17.389  70.842  1.00  0.00     0.000 HD 
HETATM   32  N   UNL     1     -11.358  14.652  71.379  1.00  0.00    -0.085 NA 
ENDBRANCH  26  27
ENDBRANCH  18  21
ENDBRANCH  14  15
ENDBRANCH  10  14
ENDBRANCH   4   5
ENDBRANCH   3   4
ENDBRANCH   2   3
TORSDOF 8
ENDMDL
MODEL      208
REMARK 921   NORMALIZED FREE ENERGY PREDICTED BY IDOCK:   -4.20 KCAL/MOL
REMARK 922        TOTAL FREE ENERGY PREDICTED BY IDOCK:   -7.20 KCAL/MOL
REMARK 923 INTER-LIGAND FREE ENERGY PREDICTED BY IDOCK:   -6.81 KCAL/MOL
REMARK 924 INTRA-LIGAND FREE ENERGY PREDICTED BY IDOCK:   -0.39 KCAL/MOL
REMARK 927      BINDING AFFINITY PREDICTED BY RF-SCORE:    0.00 PKD
ROOT
HETATM    1  C   UNL     1     -11.954  11.150  70.478  1.00  0.00    -0.475 C  
HETATM    2  C   UNL     1     -11.864  12.513  69.812  1.00  0.00    -0.380 C  
ENDROOT
BRANCH   2   3
HETATM    3  C   UNL     1     -10.942  12.487  68.588  1.00  0.00    -0.291 C  
BRANCH   3   4
HETATM    4  C   UNL     1     -11.302  11.405  67.563  1.00  0.00    -0.362 C  
BRANCH   4   5
HETATM    5  C   UNL     1     -10.157  11.025  66.675  1.00  0.00    -0.220 A  
HETATM    6  N   UNL     1     -10.327  10.413  65.519  1.00  0.00    -0.238 NA 
HETATM    7  C   UNL     1      -9.086  10.237  64.986  1.00  0.00    -0.207 A  
HETATM    8 CL   UNL     1      -8.850   9.474  63.484  1.00  0.00    -0.246 Cl 
HETATM    9  C   UNL     1      -8.112  10.721  65.836  1.00  0.00    -0.148 A  
HETATM   10  N   UNL     1      -8.807  11.207  66.936  1.00  0.00    -0.152 NA 
BRANCH   9  11
HETATM   11  C   UNL     1      -6.644  10.704  65.670  1.00  0.00    -0.079 C  
HETATM   12  H   UNL     1      -5.242   9.412  65.954  1.00  0.00     0.000 HD 
HETATM   13  O   UNL     1      -6.187   9.422  66.061  1.00  0.00    -0.064 OA 
ENDBRANCH   9  11
BRANCH  10  14
HETATM   14  C   UNL     1      -8.224  11.593  68.219  1.00  0.00    -0.156 C  
BRANCH  14  15
HETATM   15  C   UNL     1      -7.856  13.050  68.333  1.00  0.00    -0.134 A  
HETATM   16  C   UNL     1      -7.403  13.581  69.543  1.00  0.00     0.361 A  
HETATM   17  C   UNL     1      -7.019  14.926  69.643  1.00  0.00    -0.184 A  
HETATM   18  C   UNL     1      -7.138  15.814  68.561  1.00  0.00    -0.118 A  
HETATM   19  C   UNL     1      -7.559  15.256  67.341  1.00  0.00    -0.229 A  
HETATM   20  C   UNL     1      -7.899  13.901  67.224  1.00  0.00    -0.134 A  
BRANCH  18  21
HETATM   21  C   UNL     1      -6.840  17.272  68.681  1.00  0.00    -0.207 A  
HETATM   22  C   UNL     1      -5.623  17.665  69.290  1.00  0.00    -0.200 A  
HETATM   23  C   UNL     1      -5.252  19.006  69.432  1.00  0.00    -0.197 A  
HETATM   24  C   UNL     1      -6.100  20.007  68.991  1.00  0.00    -0.331 A  
HETATM   25  C   UNL     1      -7.316  19.658  68.406  1.00  0.00    -0.354 A  
HETATM   26  C   UNL     1      -7.695  18.307  68.223  1.00  0.00    -0.303 A  
BRANCH  26  27
HETATM   27  C   UNL     1      -8.961  18.083  67.534  1.00  0.00    -0.249 A  
HETATM   28  N   UNL     1     -10.121  17.814  68.165  1.00  0.00    -0.341 NA 
HETATM   29  N   UNL     1     -10.943  17.700  67.115  1.00  0.00    -0.086 NA 
HETATM   30  N   UNL     1     -10.388  17.870  65.913  1.00  0.00    -0.578 NA 
HETATM   31  H   UNL     1     -11.936  17.495  67.227  1.00  0.00     0.000 HD 
HETATM   32  N   UNL     1      -9.117  18.145  66.169  1.00  0.00    -0.508 NA 
ENDBRANCH  26  27
ENDBRANCH  18  21
ENDBRANCH  14  15
ENDBRANCH  10  14
ENDBRANCH   4   5
ENDBRANCH   3   4
ENDBRANCH   2   3
TORSDOF 8
ENDMDL
MODEL      209
REMARK 921   NORMALIZED FREE ENERGY PREDICTED BY IDOCK:   -4.18 KCAL/MOL
REMARK 922        TOTAL FREE ENERGY PREDICTED BY IDOCK:   -7.17 KCAL/MOL
REMARK 923 INTER-LIGAND FREE ENERGY PREDICTED BY IDOCK:   -6.20 KCAL/MOL
REMARK 924 INTRA-LIGAND FREE ENERGY PREDICTED BY IDOCK:   -0.97 KCAL/MOL
REMARK 927      BINDING AFFINITY PREDICTED BY RF-SCORE:    0.00 PKD
ROOT
HETATM    1  C   UNL     1     -10.715   5.276  66.588  1.00  0.00    -0.274 C  
HETATM    2  C   UNL     1      -9.702   4.705  67.567  1.00  0.00    -0.213 C  
ENDROOT
BRANCH   2   3
HETATM    3  C   UNL     1     -10.219   4.750  69.009  1.00  0.00    -0.106 C  
BRANCH   3   4
HETATM    4  C   UNL     1     -10.071   6.120  69.679  1.00  0.00    -0.226 C  
BRANCH   4   5
HETATM    5  C   UNL     1      -8.652   6.591  69.761  1.00  0.00    -0.136 A  
HETATM    6  N   UNL     1      -7.916   6.447  70.846  1.00  0.00    -0.110 NA 
HETATM    7  C   UNL     1      -6.693   6.972  70.560  1.00  0.00    -0.053 A  
HETATM    8 CL   UNL     1      -5.431   6.992  71.701  1.00  0.00    -0.035 Cl 
HETATM    9  C   UNL     1      -6.665   7.485  69.279  1.00  0.00    -0.041 A  
HETATM   10  N   UNL     1      -7.939   7.258  68.775  1.00  0.00    -0.121 NA 
BRANCH   9  11
HETATM   11  C   UNL     1      -5.559   8.170  68.577  1.00  0.00    -0.033 C  
HETATM   12  H   UNL     1      -4.450   9.707  68.929  1.00  0.00     0.000 HD 
HETATM   13  O   UNL     1      -5.162   9.267  69.380  1.00  0.00    -0.035 OA 
ENDBRANCH   9  11
BRANCH  10  14
HETATM   14  C   UNL     1      -8.496   7.836  67.553  1.00  0.00    -0.120 C  
BRANCH  14  15
HETATM   15  C   UNL     1      -9.106   9.203  67.723  1.00  0.00    -0.135 A  
HETATM   16  C   UNL     1      -8.319  10.295  68.102  1.00  0.00    -0.118 A  
HETATM   17  C   UNL     1      -8.874  11.577  68.219  1.00  0.00    -0.166 A  
HETATM   18  C   UNL     1     -10.245  11.813  68.033  1.00  0.00    -0.202 A  
HETATM   19  C   UNL     1     -11.016  10.713  67.615  1.00  0.00    -0.370 A  
HETATM   20  C   UNL     1     -10.457   9.437  67.451  1.00  0.00    -0.343 A  
BRANCH  18  21
HETATM   21  C   UNL     1     -10.871  13.149  68.263  1.00  0.00    -0.274 A  
HETATM   22  C   UNL     1     -10.762  13.733  69.549  1.00  0.00     0.073 A  
HETATM   23  C   UNL     1     -11.301  14.988  69.853  1.00  0.00    -0.307 A  
HETATM   24  C   UNL     1     -11.995  15.693  68.886  1.00  0.00    -0.298 A  
HETATM   25  C   UNL     1     -12.142  15.139  67.615  1.00  0.00     0.137 A  
HETATM   26  C   UNL     1     -11.575  13.887  67.278  1.00  0.00    -0.393 A  
BRANCH  26  27
HETATM   27  C   UNL     1     -11.743  13.459  65.894  1.00  0.00    -0.356 A  
HETATM   28  N   UNL     1     -12.797  12.741  65.455  1.00  0.00    -0.593 NA 
HETATM   29  N   UNL     1     -12.477  12.618  64.161  1.00  0.00    -0.611 NA 
HETATM   30  N   UNL     1     -11.332  13.188  63.780  1.00  0.00    -0.372 NA 
HETATM   31  H   UNL     1     -13.076  12.118  63.503  1.00  0.00     0.000 HD 
HETATM   32  N   UNL     1     -10.862  13.756  64.882  1.00  0.00    -0.367 NA 
ENDBRANCH  26  27
ENDBRANCH  18  21
ENDBRANCH  14  15
ENDBRANCH  10  14
ENDBRANCH   4   5
ENDBRANCH   3   4
ENDBRANCH   2   3
TORSDOF 8
ENDMDL
MODEL      210
REMARK 921   NORMALIZED FREE ENERGY PREDICTED BY IDOCK:   -4.18 KCAL/MOL
REMARK 922        TOTAL FREE ENERGY PREDICTED BY IDOCK:   -7.16 KCAL/MOL
REMARK 923 INTER-LIGAND FREE ENERGY PREDICTED BY IDOCK:   -6.51 KCAL/MOL
REMARK 924 INTRA-LIGAND FREE ENERGY PREDICTED BY IDOCK:   -0.65 KCAL/MOL
REMARK 927      BINDING AFFINITY PREDICTED BY RF-SCORE:    0.00 PKD
ROOT
HETATM    1  C   UNL     1     -13.387  13.717  72.102  1.00  0.00    -0.587 C  
HETATM    2  C   UNL     1     -12.846  14.081  70.730  1.00  0.00    -0.355 C  
ENDROOT
BRANCH   2   3
HETATM    3  C   UNL     1     -11.696  13.158  70.310  1.00  0.00    -0.203 C  
BRANCH   3   4
HETATM    4  C   UNL     1     -12.135  11.978  69.436  1.00  0.00    -0.261 C  
BRANCH   4   5
HETATM    5  C   UNL     1     -12.271  10.694  70.196  1.00  0.00    -0.320 A  
HETATM    6  N   UNL     1     -13.382  10.350  70.819  1.00  0.00    -0.219 NA 
HETATM    7  C   UNL     1     -13.151   9.134  71.384  1.00  0.00    -0.304 A  
HETATM    8 CL   UNL     1     -14.338   8.322  72.293  1.00  0.00    -0.457 Cl 
HETATM    9  C   UNL     1     -11.859   8.714  71.139  1.00  0.00    -0.287 A  
HETATM   10  N   UNL     1     -11.287   9.736  70.391  1.00  0.00    -0.279 NA 
BRANCH   9  11
HETATM   11  C   UNL     1     -11.182   7.480  71.590  1.00  0.00    -0.243 C  
HETATM   12  H   UNL     1      -9.458   7.053  72.340  1.00  0.00     0.000 HD 
HETATM   13  O   UNL     1      -9.893   7.847  72.049  1.00  0.00    -0.172 OA 
ENDBRANCH   9  11
BRANCH  10  14
HETATM   14  C   UNL     1      -9.864   9.891  70.094  1.00  0.00    -0.219 C  
BRANCH  14  15
HETATM   15  C   UNL     1      -9.426   9.303  68.778  1.00  0.00    -0.150 A  
HETATM   16  C   UNL     1     -10.266   8.445  68.064  1.00  0.00    -0.263 A  
HETATM   17  C   UNL     1      -9.880   7.930  66.818  1.00  0.00    -0.318 A  
HETATM   18  C   UNL     1      -8.616   8.190  66.266  1.00  0.00    -0.157 A  
HETATM   19  C   UNL     1      -7.798   9.086  66.978  1.00  0.00    -0.098 A  
HETATM   20  C   UNL     1      -8.198   9.642  68.202  1.00  0.00    -0.106 A  
BRANCH  18  21
HETATM   21  C   UNL     1      -8.147   7.561  64.997  1.00  0.00    -0.127 A  
HETATM   22  C   UNL     1      -7.725   6.209  65.029  1.00  0.00    -0.099 A  
HETATM   23  C   UNL     1      -7.285   5.531  63.886  1.00  0.00    -0.051 A  
HETATM   24  C   UNL     1      -7.225   6.192  62.673  1.00  0.00    -0.053 A  
HETATM   25  C   UNL     1      -7.611   7.530  62.608  1.00  0.00    -0.112 A  
HETATM   26  C   UNL     1      -8.091   8.223  63.743  1.00  0.00    -0.126 A  
BRANCH  26  27
HETATM   27  C   UNL     1      -8.528   9.596  63.520  1.00  0.00    -0.188 A  
HETATM   28  N   UNL     1      -9.692  10.098  63.979  1.00  0.00    -0.280 NA 
HETATM   29  N   UNL     1      -9.610  11.351  63.518  1.00  0.00    -0.381 NA 
HETATM   30  N   UNL     1      -8.512  11.651  62.821  1.00  0.00     0.043 NA 
HETATM   31  H   UNL     1     -10.345  12.038  63.689  1.00  0.00     0.000 HD 
HETATM   32  N   UNL     1      -7.793  10.538  62.838  1.00  0.00    -0.138 NA 
ENDBRANCH  26  27
ENDBRANCH  18  21
ENDBRANCH  14  15
ENDBRANCH  10  14
ENDBRANCH   4   5
ENDBRANCH   3   4
ENDBRANCH   2   3
TORSDOF 8
ENDMDL
MODEL      211
REMARK 921   NORMALIZED FREE ENERGY PREDICTED BY IDOCK:   -4.15 KCAL/MOL
REMARK 922        TOTAL FREE ENERGY PREDICTED BY IDOCK:   -7.12 KCAL/MOL
REMARK 923 INTER-LIGAND FREE ENERGY PREDICTED BY IDOCK:   -5.68 KCAL/MOL
REMARK 924 INTRA-LIGAND FREE ENERGY PREDICTED BY IDOCK:   -1.44 KCAL/MOL
REMARK 927      BINDING AFFINITY PREDICTED BY RF-SCORE:    0.00 PKD
ROOT
HETATM    1  C   UNL     1      -5.160  20.745  70.192  1.00  0.00    -0.366 C  
HETATM    2  C   UNL     1      -6.068  19.549  69.952  1.00  0.00    -0.329 C  
ENDROOT
BRANCH   2   3
HETATM    3  C   UNL     1      -5.361  18.454  69.147  1.00  0.00    -0.198 C  
BRANCH   3   4
HETATM    4  C   UNL     1      -6.294  17.658  68.228  1.00  0.00    -0.183 C  
BRANCH   4   5
HETATM    5  C   UNL     1      -7.112  18.522  67.319  1.00  0.00    -0.204 A  
HETATM    6  N   UNL     1      -6.572  19.297  66.398  1.00  0.00    -0.188 NA 
HETATM    7  C   UNL     1      -7.601  19.920  65.761  1.00  0.00    -0.297 A  
HETATM    8 CL   UNL     1      -7.340  21.022  64.491  1.00  0.00     0.484 Cl 
HETATM    9  C   UNL     1      -8.814  19.555  66.310  1.00  0.00    -0.361 A  
HETATM   10  N   UNL     1      -8.491  18.670  67.331  1.00  0.00    -0.263 NA 
BRANCH   9  11
HETATM   11  C   UNL     1     -10.171  20.013  65.950  1.00  0.00    -0.421 C  
HETATM   12  H   UNL     1     -11.546  19.419  64.737  1.00  0.00     0.000 HD 
HETATM   13  O   UNL     1     -10.673  19.124  64.968  1.00  0.00    -0.275 OA 
ENDBRANCH   9  11
BRANCH  10  14
HETATM   14  C   UNL     1      -9.398  18.195  68.375  1.00  0.00    -0.309 C  
BRANCH  14  15
HETATM   15  C   UNL     1      -9.616  16.704  68.391  1.00  0.00    -0.233 A  
HETATM   16  C   UNL     1     -10.390  16.085  67.405  1.00  0.00    -0.294 A  
HETATM   17  C   UNL     1     -10.560  14.693  67.391  1.00  0.00    -0.265 A  
HETATM   18  C   UNL     1     -10.027  13.870  68.396  1.00  0.00    -0.233 A  
HETATM   19  C   UNL     1      -9.220  14.503  69.358  1.00  0.00     0.200 A  
HETATM   20  C   UNL     1      -9.007  15.889  69.350  1.00  0.00    -0.209 A  
BRANCH  18  21
HETATM   21  C   UNL     1     -10.293  12.402  68.458  1.00  0.00    -0.232 A  
HETATM   22  C   UNL     1     -11.617  11.965  68.705  1.00  0.00    -0.366 A  
HETATM   23  C   UNL     1     -11.964  10.610  68.765  1.00  0.00    -0.069 A  
HETATM   24  C   UNL     1     -10.988   9.642  68.605  1.00  0.00    -0.152 A  
HETATM   25  C   UNL     1      -9.670  10.035  68.383  1.00  0.00    -0.157 A  
HETATM   26  C   UNL     1      -9.305  11.398  68.285  1.00  0.00    -0.187 A  
BRANCH  26  27
HETATM   27  C   UNL     1      -7.905  11.668  67.979  1.00  0.00    -0.128 A  
HETATM   28  N   UNL     1      -6.916  11.630  68.895  1.00  0.00    -0.102 NA 
HETATM   29  N   UNL     1      -5.866  11.940  68.125  1.00  0.00    -0.050 NA 
HETATM   30  N   UNL     1      -6.128  12.165  66.836  1.00  0.00    -0.219 NA 
HETATM   31  H   UNL     1      -4.920  12.001  68.502  1.00  0.00     0.000 HD 
HETATM   32  N   UNL     1      -7.434  11.966  66.722  1.00  0.00    -0.073 NA 
ENDBRANCH  26  27
ENDBRANCH  18  21
ENDBRANCH  14  15
ENDBRANCH  10  14
ENDBRANCH   4   5
ENDBRANCH   3   4
ENDBRANCH   2   3
TORSDOF 8
ENDMDL
MODEL      212
REMARK 921   NORMALIZED FREE ENERGY PREDICTED BY IDOCK:   -4.14 KCAL/MOL
REMARK 922        TOTAL FREE ENERGY PREDICTED BY IDOCK:   -7.11 KCAL/MOL
REMARK 923 INTER-LIGAND FREE ENERGY PREDICTED BY IDOCK:   -7.22 KCAL/MOL
REMARK 924 INTRA-LIGAND FREE ENERGY PREDICTED BY IDOCK:    0.11 KCAL/MOL
REMARK 927      BINDING AFFINITY PREDICTED BY RF-SCORE:    0.00 PKD
ROOT
HETATM    1  C   UNL     1     -10.858   4.218  65.076  1.00  0.00    -0.102 C  
HETATM    2  C   UNL     1      -9.437   4.563  64.663  1.00  0.00    -0.108 C  
ENDROOT
BRANCH   2   3
HETATM    3  C   UNL     1      -8.717   5.381  65.740  1.00  0.00    -0.149 C  
BRANCH   3   4
HETATM    4  C   UNL     1      -9.448   6.670  66.134  1.00  0.00    -0.057 C  
BRANCH   4   5
HETATM    5  C   UNL     1      -8.722   7.471  67.171  1.00  0.00    -0.121 A  
HETATM    6  N   UNL     1      -7.405   7.527  67.234  1.00  0.00    -0.096 NA 
HETATM    7  C   UNL     1      -7.100   8.346  68.277  1.00  0.00    -0.085 A  
HETATM    8 CL   UNL     1      -5.491   8.690  68.712  1.00  0.00    -0.036 Cl 
HETATM    9  C   UNL     1      -8.246   8.793  68.904  1.00  0.00    -0.118 A  
HETATM   10  N   UNL     1      -9.290   8.207  68.200  1.00  0.00    -0.133 NA 
BRANCH   9  11
HETATM   11  C   UNL     1      -8.375   9.667  70.089  1.00  0.00    -0.198 C  
HETATM   12  H   UNL     1      -8.023   9.487  71.975  1.00  0.00     0.000 HD 
HETATM   13  O   UNL     1      -7.940   8.924  71.214  1.00  0.00    -0.142 OA 
ENDBRANCH   9  11
BRANCH  10  14
HETATM   14  C   UNL     1     -10.690   8.162  68.619  1.00  0.00    -0.025 C  
BRANCH  14  15
HETATM   15  C   UNL     1     -11.220   9.453  69.188  1.00  0.00     0.049 A  
HETATM   16  C   UNL     1     -11.263  10.613  68.411  1.00  0.00    -0.347 A  
HETATM   17  C   UNL     1     -11.795  11.805  68.923  1.00  0.00    -0.381 A  
HETATM   18  C   UNL     1     -12.241  11.909  70.250  1.00  0.00    -0.353 A  
HETATM   19  C   UNL     1     -12.228  10.724  71.006  1.00  0.00    -0.485 A  
HETATM   20  C   UNL     1     -11.740   9.517  70.485  1.00  0.00    -0.285 A  
BRANCH  18  21
HETATM   21  C   UNL     1     -12.705  13.198  70.843  1.00  0.00    -0.313 A  
HETATM   22  C   UNL     1     -13.541  13.152  71.987  1.00  0.00    -0.554 A  
HETATM   23  C   UNL     1     -14.012  14.307  72.621  1.00  0.00    -0.400 A  
HETATM   24  C   UNL     1     -13.685  15.553  72.115  1.00  0.00    -0.614 A  
HETATM   25  C   UNL     1     -12.883  15.636  70.978  1.00  0.00    -0.521 A  
HETATM   26  C   UNL     1     -12.369  14.482  70.343  1.00  0.00    -0.400 A  
BRANCH  26  27
HETATM   27  C   UNL     1     -11.486  14.714  69.206  1.00  0.00    -0.291 A  
HETATM   28  N   UNL     1     -11.923  14.927  67.948  1.00  0.00    -0.263 NA 
HETATM   29  N   UNL     1     -10.755  15.079  67.313  1.00  0.00    -0.291 NA 
HETATM   30  N   UNL     1      -9.658  14.974  68.065  1.00  0.00    -0.206 NA 
HETATM   31  H   UNL     1     -10.707  15.265  66.311  1.00  0.00     0.000 HD 
HETATM   32  N   UNL     1     -10.115  14.766  69.292  1.00  0.00    -0.195 NA 
ENDBRANCH  26  27
ENDBRANCH  18  21
ENDBRANCH  14  15
ENDBRANCH  10  14
ENDBRANCH   4   5
ENDBRANCH   3   4
ENDBRANCH   2   3
TORSDOF 8
ENDMDL
MODEL      213
REMARK 921   NORMALIZED FREE ENERGY PREDICTED BY IDOCK:   -4.14 KCAL/MOL
REMARK 922        TOTAL FREE ENERGY PREDICTED BY IDOCK:   -7.10 KCAL/MOL
REMARK 923 INTER-LIGAND FREE ENERGY PREDICTED BY IDOCK:   -6.39 KCAL/MOL
REMARK 924 INTRA-LIGAND FREE ENERGY PREDICTED BY IDOCK:   -0.71 KCAL/MOL
REMARK 927      BINDING AFFINITY PREDICTED BY RF-SCORE:    0.00 PKD
ROOT
HETATM    1  C   UNL     1     -12.838   9.180  72.147  1.00  0.00    -0.486 C  
HETATM    2  C   UNL     1     -12.717  10.660  71.823  1.00  0.00    -0.489 C  
ENDROOT
BRANCH   2   3
HETATM    3  C   UNL     1     -12.616  10.903  70.313  1.00  0.00    -0.342 C  
BRANCH   3   4
HETATM    4  C   UNL     1     -11.191  11.192  69.825  1.00  0.00    -0.318 C  
BRANCH   4   5
HETATM    5  C   UNL     1     -11.147  11.857  68.483  1.00  0.00    -0.243 A  
HETATM    6  N   UNL     1     -12.217  12.004  67.726  1.00  0.00    -0.368 NA 
HETATM    7  C   UNL     1     -11.811  12.652  66.601  1.00  0.00    -0.380 A  
HETATM    8 CL   UNL     1     -12.892  13.041  65.345  1.00  0.00    -0.382 Cl 
HETATM    9  C   UNL     1     -10.452  12.893  66.633  1.00  0.00    -0.263 A  
HETATM   10  N   UNL     1     -10.024  12.357  67.841  1.00  0.00    -0.198 NA 
BRANCH   9  11
HETATM   11  C   UNL     1      -9.599  13.536  65.613  1.00  0.00     0.010 C  
HETATM   12  H   UNL     1      -9.577  13.610  63.687  1.00  0.00     0.000 HD 
HETATM   13  O   UNL     1     -10.126  13.196  64.343  1.00  0.00    -0.334 OA 
ENDBRANCH   9  11
BRANCH  10  14
HETATM   14  C   UNL     1      -8.635  12.131  68.236  1.00  0.00    -0.175 C  
BRANCH  14  15
HETATM   15  C   UNL     1      -8.233  10.681  68.328  1.00  0.00    -0.120 A  
HETATM   16  C   UNL     1      -8.053   9.914  67.175  1.00  0.00    -0.117 A  
HETATM   17  C   UNL     1      -7.637   8.577  67.255  1.00  0.00    -0.097 A  
HETATM   18  C   UNL     1      -7.452   7.930  68.487  1.00  0.00    -0.096 A  
HETATM   19  C   UNL     1      -7.599   8.726  69.637  1.00  0.00    -0.076 A  
HETATM   20  C   UNL     1      -7.969  10.076  69.561  1.00  0.00    -0.161 A  
BRANCH  18  21
HETATM   21  C   UNL     1      -7.119   6.479  68.591  1.00  0.00    -0.083 A  
HETATM   22  C   UNL     1      -5.885   6.110  69.182  1.00  0.00    -0.020 A  
HETATM   23  C   UNL     1      -5.495   4.775  69.337  1.00  0.00    -0.008 A  
HETATM   24  C   UNL     1      -6.316   3.759  68.880  1.00  0.00    -0.032 A  
HETATM   25  C   UNL     1      -7.527   4.086  68.273  1.00  0.00    -0.059 A  
HETATM   26  C   UNL     1      -7.955   5.427  68.137  1.00  0.00    -0.095 A  
BRANCH  26  27
HETATM   27  C   UNL     1      -9.275   5.623  67.548  1.00  0.00    -0.109 A  
HETATM   28  N   UNL     1      -9.713   4.967  66.455  1.00  0.00    -0.168 NA 
HETATM   29  N   UNL     1     -10.938   5.492  66.336  1.00  0.00    -0.720 NA 
HETATM   30  N   UNL     1     -11.278   6.405  67.250  1.00  0.00    -0.315 NA 
HETATM   31  H   UNL     1     -11.576   5.212  65.591  1.00  0.00     0.000 HD 
HETATM   32  N   UNL     1     -10.225   6.479  68.053  1.00  0.00    -0.150 NA 
ENDBRANCH  26  27
ENDBRANCH  18  21
ENDBRANCH  14  15
ENDBRANCH  10  14
ENDBRANCH   4   5
ENDBRANCH   3   4
ENDBRANCH   2   3
TORSDOF 8
ENDMDL
MODEL      214
REMARK 921   NORMALIZED FREE ENERGY PREDICTED BY IDOCK:   -4.12 KCAL/MOL
REMARK 922        TOTAL FREE ENERGY PREDICTED BY IDOCK:   -7.07 KCAL/MOL
REMARK 923 INTER-LIGAND FREE ENERGY PREDICTED BY IDOCK:   -6.09 KCAL/MOL
REMARK 924 INTRA-LIGAND FREE ENERGY PREDICTED BY IDOCK:   -0.98 KCAL/MOL
REMARK 927      BINDING AFFINITY PREDICTED BY RF-SCORE:    0.00 PKD
ROOT
HETATM    1  C   UNL     1      -6.220   5.267  72.359  1.00  0.00    -0.031 C  
HETATM    2  C   UNL     1      -5.409   6.552  72.361  1.00  0.00    -0.036 C  
ENDROOT
BRANCH   2   3
HETATM    3  C   UNL     1      -5.716   7.418  71.134  1.00  0.00    -0.035 C  
BRANCH   3   4
HETATM    4  C   UNL     1      -7.205   7.737  70.955  1.00  0.00    -0.054 C  
BRANCH   4   5
HETATM    5  C   UNL     1      -7.709   7.465  69.572  1.00  0.00    -0.108 A  
HETATM    6  N   UNL     1      -6.969   6.886  68.646  1.00  0.00    -0.073 NA 
HETATM    7  C   UNL     1      -7.745   6.789  67.532  1.00  0.00    -0.110 A  
HETATM    8 CL   UNL     1      -7.166   6.098  66.088  1.00  0.00    -0.074 Cl 
HETATM    9  C   UNL     1      -8.989   7.345  67.748  1.00  0.00    -0.127 A  
HETATM   10  N   UNL     1      -8.954   7.801  69.060  1.00  0.00    -0.145 NA 
BRANCH   9  11
HETATM   11  C   UNL     1     -10.121   7.483  66.807  1.00  0.00    -0.243 C  
HETATM   12  H   UNL     1     -11.903   6.759  66.686  1.00  0.00     0.000 HD 
HETATM   13  O   UNL     1     -11.175   6.670  67.291  1.00  0.00    -0.366 OA 
ENDBRANCH   9  11
BRANCH  10  14
HETATM   14  C   UNL     1      -9.932   8.686  69.689  1.00  0.00    -0.191 C  
BRANCH  14  15
HETATM   15  C   UNL     1      -9.995  10.074  69.104  1.00  0.00    -0.213 A  
HETATM   16  C   UNL     1      -8.856  10.882  69.057  1.00  0.00    -0.105 A  
HETATM   17  C   UNL     1      -8.900  12.157  68.475  1.00  0.00    -0.079 A  
HETATM   18  C   UNL     1     -10.094  12.706  67.981  1.00  0.00    -0.229 A  
HETATM   19  C   UNL     1     -11.221  11.867  68.000  1.00  0.00    -0.317 A  
HETATM   20  C   UNL     1     -11.172  10.573  68.539  1.00  0.00    -0.332 A  
BRANCH  18  21
HETATM   21  C   UNL     1     -10.181  14.103  67.461  1.00  0.00    -0.241 A  
HETATM   22  C   UNL     1      -9.597  14.393  66.203  1.00  0.00    -0.309 A  
HETATM   23  C   UNL     1      -9.644  15.669  65.628  1.00  0.00    -0.319 A  
HETATM   24  C   UNL     1     -10.255  16.708  66.306  1.00  0.00    -0.344 A  
HETATM   25  C   UNL     1     -10.822  16.464  67.557  1.00  0.00    -0.249 A  
HETATM   26  C   UNL     1     -10.815  15.176  68.139  1.00  0.00    -0.266 A  
BRANCH  26  27
HETATM   27  C   UNL     1     -11.504  15.046  69.418  1.00  0.00    -0.300 A  
HETATM   28  N   UNL     1     -12.631  14.328  69.593  1.00  0.00    -0.175 NA 
HETATM   29  N   UNL     1     -12.842  14.529  70.899  1.00  0.00    -0.347 NA 
HETATM   30  N   UNL     1     -11.953  15.303  71.526  1.00  0.00    -0.331 NA 
HETATM   31  H   UNL     1     -13.636  14.115  71.388  1.00  0.00     0.000 HD 
HETATM   32  N   UNL     1     -11.070  15.621  70.589  1.00  0.00    -0.338 NA 
ENDBRANCH  26  27
ENDBRANCH  18  21
ENDBRANCH  14  15
ENDBRANCH  10  14
ENDBRANCH   4   5
ENDBRANCH   3   4
ENDBRANCH   2   3
TORSDOF 8
ENDMDL
MODEL      215
REMARK 921   NORMALIZED FREE ENERGY PREDICTED BY IDOCK:   -4.08 KCAL/MOL
REMARK 922        TOTAL FREE ENERGY PREDICTED BY IDOCK:   -7.01 KCAL/MOL
REMARK 923 INTER-LIGAND FREE ENERGY PREDICTED BY IDOCK:   -5.94 KCAL/MOL
REMARK 924 INTRA-LIGAND FREE ENERGY PREDICTED BY IDOCK:   -1.07 KCAL/MOL
REMARK 927      BINDING AFFINITY PREDICTED BY RF-SCORE:    0.00 PKD
ROOT
HETATM    1  C   UNL     1     -10.402   5.183  70.479  1.00  0.00    -0.314 C  
HETATM    2  C   UNL     1     -10.717   6.438  69.682  1.00  0.00    -0.339 C  
ENDROOT
BRANCH   2   3
HETATM    3  C   UNL     1     -11.048   6.114  68.221  1.00  0.00    -0.336 C  
BRANCH   3   4
HETATM    4  C   UNL     1     -10.598   7.192  67.228  1.00  0.00    -0.398 C  
BRANCH   4   5
HETATM    5  C   UNL     1      -9.118   7.208  67.000  1.00  0.00    -0.134 A  
HETATM    6  N   UNL     1      -8.514   6.359  66.190  1.00  0.00    -0.134 NA 
HETATM    7  C   UNL     1      -7.189   6.671  66.218  1.00  0.00    -0.072 A  
HETATM    8 CL   UNL     1      -6.041   5.807  65.306  1.00  0.00    -0.028 Cl 
HETATM    9  C   UNL     1      -6.947   7.717  67.086  1.00  0.00    -0.080 A  
HETATM   10  N   UNL     1      -8.193   8.045  67.606  1.00  0.00    -0.123 NA 
BRANCH   9  11
HETATM   11  C   UNL     1      -5.659   8.348  67.442  1.00  0.00    -0.039 C  
HETATM   12  H   UNL     1      -4.659   8.606  69.069  1.00  0.00     0.000 HD 
HETATM   13  O   UNL     1      -5.487   8.200  68.840  1.00  0.00    -0.029 OA 
ENDBRANCH   9  11
BRANCH  10  14
HETATM   14  C   UNL     1      -8.443   8.918  68.751  1.00  0.00    -0.131 C  
BRANCH  14  15
HETATM   15  C   UNL     1      -8.786  10.342  68.398  1.00  0.00    -0.129 A  
HETATM   16  C   UNL     1      -8.059  11.407  68.937  1.00  0.00    -0.067 A  
HETATM   17  C   UNL     1      -8.347  12.731  68.577  1.00  0.00    -0.054 A  
HETATM   18  C   UNL     1      -9.413  13.053  67.722  1.00  0.00    -0.209 A  
HETATM   19  C   UNL     1     -10.109  11.969  67.158  1.00  0.00    -0.217 A  
HETATM   20  C   UNL     1      -9.795  10.641  67.478  1.00  0.00    -0.194 A  
BRANCH  18  21
HETATM   21  C   UNL     1      -9.803  14.462  67.418  1.00  0.00    -0.224 A  
HETATM   22  C   UNL     1      -9.448  15.003  66.157  1.00  0.00    -0.347 A  
HETATM   23  C   UNL     1      -9.784  16.307  65.777  1.00  0.00    -0.299 A  
HETATM   24  C   UNL     1     -10.466  17.128  66.658  1.00  0.00    -0.259 A  
HETATM   25  C   UNL     1     -10.811  16.636  67.916  1.00  0.00    -0.321 A  
HETATM   26  C   UNL     1     -10.511  15.311  68.307  1.00  0.00    -0.244 A  
BRANCH  26  27
HETATM   27  C   UNL     1     -10.992  14.904  69.622  1.00  0.00    -0.274 A  
HETATM   28  N   UNL     1     -10.345  15.173  70.773  1.00  0.00     0.098 NA 
HETATM   29  N   UNL     1     -11.178  14.603  71.653  1.00  0.00    -0.347 NA 
HETATM   30  N   UNL     1     -12.261  14.014  71.142  1.00  0.00    -0.354 NA 
HETATM   31  H   UNL     1     -10.995  14.619  72.656  1.00  0.00     0.000 HD 
HETATM   32  N   UNL     1     -12.168  14.224  69.836  1.00  0.00    -0.341 NA 
ENDBRANCH  26  27
ENDBRANCH  18  21
ENDBRANCH  14  15
ENDBRANCH  10  14
ENDBRANCH   4   5
ENDBRANCH   3   4
ENDBRANCH   2   3
TORSDOF 8
ENDMDL
MODEL      216
REMARK 921   NORMALIZED FREE ENERGY PREDICTED BY IDOCK:   -4.07 KCAL/MOL
REMARK 922        TOTAL FREE ENERGY PREDICTED BY IDOCK:   -7.00 KCAL/MOL
REMARK 923 INTER-LIGAND FREE ENERGY PREDICTED BY IDOCK:   -5.86 KCAL/MOL
REMARK 924 INTRA-LIGAND FREE ENERGY PREDICTED BY IDOCK:   -1.14 KCAL/MOL
REMARK 927      BINDING AFFINITY PREDICTED BY RF-SCORE:    0.00 PKD
ROOT
HETATM    1  C   UNL     1      -8.213  18.491  68.095  1.00  0.00    -0.315 C  
HETATM    2  C   UNL     1      -8.080  17.566  69.294  1.00  0.00     0.181 C  
ENDROOT
BRANCH   2   3
HETATM    3  C   UNL     1      -8.495  16.131  68.951  1.00  0.00    -0.241 C  
BRANCH   3   4
HETATM    4  C   UNL     1     -10.007  15.889  69.019  1.00  0.00    -0.233 C  
BRANCH   4   5
HETATM    5  C   UNL     1     -10.591  15.412  67.725  1.00  0.00    -0.274 A  
HETATM    6  N   UNL     1     -10.555  16.131  66.620  1.00  0.00    -0.302 NA 
HETATM    7  C   UNL     1     -11.160  15.389  65.653  1.00  0.00    -0.271 A  
HETATM    8 CL   UNL     1     -11.331  15.955  64.057  1.00  0.00    -0.044 Cl 
HETATM    9  C   UNL     1     -11.615  14.190  66.164  1.00  0.00    -0.370 A  
HETATM   10  N   UNL     1     -11.266  14.219  67.508  1.00  0.00    -0.295 NA 
BRANCH   9  11
HETATM   11  C   UNL     1     -12.351  13.108  65.477  1.00  0.00    -0.474 C  
HETATM   12  H   UNL     1     -13.919  13.006  64.362  1.00  0.00     0.000 HD 
HETATM   13  O   UNL     1     -13.446  13.702  64.803  1.00  0.00    -0.094 OA 
ENDBRANCH   9  11
BRANCH  10  14
HETATM   14  C   UNL     1     -11.742  13.300  68.540  1.00  0.00    -0.352 C  
BRANCH  14  15
HETATM   15  C   UNL     1     -10.911  12.054  68.707  1.00  0.00    -0.267 A  
HETATM   16  C   UNL     1     -11.392  10.967  69.442  1.00  0.00    -0.352 A  
HETATM   17  C   UNL     1     -10.640   9.790  69.564  1.00  0.00    -0.253 A  
HETATM   18  C   UNL     1      -9.351   9.673  69.021  1.00  0.00    -0.159 A  
HETATM   19  C   UNL     1      -8.897  10.759  68.253  1.00  0.00    -0.139 A  
HETATM   20  C   UNL     1      -9.664  11.921  68.088  1.00  0.00    -0.194 A  
BRANCH  18  21
HETATM   21  C   UNL     1      -8.494   8.470  69.237  1.00  0.00    -0.128 A  
HETATM   22  C   UNL     1      -8.279   8.022  70.564  1.00  0.00    -0.118 A  
HETATM   23  C   UNL     1      -7.504   6.896  70.862  1.00  0.00    -0.083 A  
HETATM   24  C   UNL     1      -6.892   6.191  69.841  1.00  0.00    -0.058 A  
HETATM   25  C   UNL     1      -7.062   6.615  68.525  1.00  0.00    -0.083 A  
HETATM   26  C   UNL     1      -7.869   7.731  68.200  1.00  0.00    -0.121 A  
BRANCH  26  27
HETATM   27  C   UNL     1      -8.018   8.022  66.779  1.00  0.00    -0.103 A  
HETATM   28  N   UNL     1      -9.137   7.762  66.073  1.00  0.00    -0.156 NA 
HETATM   29  N   UNL     1      -8.765   8.204  64.866  1.00  0.00    -0.391 NA 
HETATM   30  N   UNL     1      -7.530   8.702  64.776  1.00  0.00    -0.094 NA 
HETATM   31  H   UNL     1      -9.390   8.164  64.061  1.00  0.00     0.000 HD 
HETATM   32  N   UNL     1      -7.047   8.616  66.007  1.00  0.00    -0.082 NA 
ENDBRANCH  26  27
ENDBRANCH  18  21
ENDBRANCH  14  15
ENDBRANCH  10  14
ENDBRANCH   4   5
ENDBRANCH   3   4
ENDBRANCH   2   3
TORSDOF 8
ENDMDL
MODEL      217
REMARK 921   NORMALIZED FREE ENERGY PREDICTED BY IDOCK:   -4.06 KCAL/MOL
REMARK 922        TOTAL FREE ENERGY PREDICTED BY IDOCK:   -6.98 KCAL/MOL
REMARK 923 INTER-LIGAND FREE ENERGY PREDICTED BY IDOCK:   -7.65 KCAL/MOL
REMARK 924 INTRA-LIGAND FREE ENERGY PREDICTED BY IDOCK:    0.67 KCAL/MOL
REMARK 927      BINDING AFFINITY PREDICTED BY RF-SCORE:    0.00 PKD
ROOT
HETATM    1  C   UNL     1     -10.516  19.339  66.109  1.00  0.00    -0.577 C  
HETATM    2  C   UNL     1      -9.839  18.183  66.828  1.00  0.00    -0.337 C  
ENDROOT
BRANCH   2   3
HETATM    3  C   UNL     1     -10.417  16.831  66.396  1.00  0.00    -0.269 C  
BRANCH   3   4
HETATM    4  C   UNL     1      -9.850  15.637  67.173  1.00  0.00    -0.229 C  
BRANCH   4   5
HETATM    5  C   UNL     1     -10.147  14.316  66.532  1.00  0.00    -0.278 A  
HETATM    6  N   UNL     1      -9.886  14.067  65.263  1.00  0.00    -0.226 NA 
HETATM    7  C   UNL     1     -10.269  12.782  65.032  1.00  0.00    -0.272 A  
HETATM    8 CL   UNL     1     -10.107  12.054  63.503  1.00  0.00    -0.449 Cl 
HETATM    9  C   UNL     1     -10.811  12.217  66.169  1.00  0.00    -0.282 A  
HETATM   10  N   UNL     1     -10.751  13.220  67.129  1.00  0.00    -0.258 NA 
BRANCH   9  11
HETATM   11  C   UNL     1     -11.379  10.865  66.355  1.00  0.00     0.270 C  
HETATM   12  H   UNL     1     -10.751   9.063  66.089  1.00  0.00     0.000 HD 
HETATM   13  O   UNL     1     -10.385   9.932  65.969  1.00  0.00    -0.224 OA 
ENDBRANCH   9  11
BRANCH  10  14
HETATM   14  C   UNL     1     -11.425  13.209  68.426  1.00  0.00    -0.315 C  
BRANCH  14  15
HETATM   15  C   UNL     1     -11.294  11.920  69.195  1.00  0.00    -0.338 A  
HETATM   16  C   UNL     1     -10.131  11.150  69.107  1.00  0.00    -0.134 A  
HETATM   17  C   UNL     1      -9.988   9.973  69.855  1.00  0.00    -0.280 A  
HETATM   18  C   UNL     1     -11.021   9.477  70.665  1.00  0.00    -0.370 A  
HETATM   19  C   UNL     1     -12.169  10.283  70.773  1.00  0.00    -0.447 A  
HETATM   20  C   UNL     1     -12.299  11.485  70.064  1.00  0.00    -0.287 A  
BRANCH  18  21
HETATM   21  C   UNL     1     -10.927   8.169  71.378  1.00  0.00    -0.282 A  
HETATM   22  C   UNL     1     -12.126   7.476  71.678  1.00  0.00    -0.341 A  
HETATM   23  C   UNL     1     -12.135   6.237  72.330  1.00  0.00    -0.255 A  
HETATM   24  C   UNL     1     -10.944   5.660  72.730  1.00  0.00    -0.320 A  
HETATM   25  C   UNL     1      -9.746   6.324  72.471  1.00  0.00    -0.163 A  
HETATM   26  C   UNL     1      -9.712   7.560  71.784  1.00  0.00    -0.187 A  
BRANCH  26  27
HETATM   27  C   UNL     1      -8.389   8.110  71.517  1.00  0.00    -0.126 A  
HETATM   28  N   UNL     1      -7.763   8.986  72.329  1.00  0.00    -0.313 NA 
HETATM   29  N   UNL     1      -6.622   9.166  71.652  1.00  0.00    -0.242 NA 
HETATM   30  N   UNL     1      -6.503   8.486  70.510  1.00  0.00    -0.035 NA 
HETATM   31  H   UNL     1      -5.887   9.786  71.990  1.00  0.00     0.000 HD 
HETATM   32  N   UNL     1      -7.622   7.781  70.424  1.00  0.00    -0.085 NA 
ENDBRANCH  26  27
ENDBRANCH  18  21
ENDBRANCH  14  15
ENDBRANCH  10  14
ENDBRANCH   4   5
ENDBRANCH   3   4
ENDBRANCH   2   3
TORSDOF 8
ENDMDL
MODEL      218
REMARK 921   NORMALIZED FREE ENERGY PREDICTED BY IDOCK:   -4.03 KCAL/MOL
REMARK 922        TOTAL FREE ENERGY PREDICTED BY IDOCK:   -6.95 KCAL/MOL
REMARK 923 INTER-LIGAND FREE ENERGY PREDICTED BY IDOCK:   -5.30 KCAL/MOL
REMARK 924 INTRA-LIGAND FREE ENERGY PREDICTED BY IDOCK:   -1.65 KCAL/MOL
REMARK 927      BINDING AFFINITY PREDICTED BY RF-SCORE:    0.00 PKD
ROOT
HETATM    1  C   UNL     1      -6.911  14.150  69.101  1.00  0.00    -0.111 C  
HETATM    2  C   UNL     1      -6.589  12.697  68.794  1.00  0.00    -0.089 C  
ENDROOT
BRANCH   2   3
HETATM    3  C   UNL     1      -7.848  11.823  68.801  1.00  0.00    -0.076 C  
BRANCH   3   4
HETATM    4  C   UNL     1      -7.564  10.324  68.950  1.00  0.00    -0.094 C  
BRANCH   4   5
HETATM    5  C   UNL     1      -8.534   9.622  69.849  1.00  0.00    -0.198 A  
HETATM    6  N   UNL     1      -8.246   9.305  71.096  1.00  0.00    -0.324 NA 
HETATM    7  C   UNL     1      -9.351   8.696  71.608  1.00  0.00    -0.263 A  
HETATM    8 CL   UNL     1      -9.404   8.121  73.208  1.00  0.00    -0.336 Cl 
HETATM    9  C   UNL     1     -10.346   8.600  70.656  1.00  0.00    -0.202 A  
HETATM   10  N   UNL     1      -9.805   9.178  69.514  1.00  0.00    -0.172 NA 
BRANCH   9  11
HETATM   11  C   UNL     1     -11.686   7.988  70.772  1.00  0.00    -0.206 C  
HETATM   12  H   UNL     1     -12.368   6.191  70.915  1.00  0.00     0.000 HD 
HETATM   13  O   UNL     1     -11.506   6.584  70.841  1.00  0.00    -0.312 OA 
ENDBRANCH   9  11
BRANCH  10  14
HETATM   14  C   UNL     1     -10.362   9.100  68.165  1.00  0.00    -0.216 C  
BRANCH  14  15
HETATM   15  C   UNL     1     -10.080   7.809  67.440  1.00  0.00    -0.288 A  
HETATM   16  C   UNL     1      -8.830   7.572  66.862  1.00  0.00    -0.145 A  
HETATM   17  C   UNL     1      -8.550   6.355  66.224  1.00  0.00    -0.140 A  
HETATM   18  C   UNL     1      -9.524   5.355  66.073  1.00  0.00    -0.161 A  
HETATM   19  C   UNL     1     -10.763   5.593  66.694  1.00  0.00    -0.339 A  
HETATM   20  C   UNL     1     -11.033   6.789  67.374  1.00  0.00    -0.407 A  
BRANCH  18  21
HETATM   21  C   UNL     1      -9.276   4.102  65.301  1.00  0.00    -0.152 A  
HETATM   22  C   UNL     1      -9.427   4.135  63.892  1.00  0.00    -0.149 A  
HETATM   23  C   UNL     1      -9.201   3.015  63.084  1.00  0.00    -0.094 A  
HETATM   24  C   UNL     1      -8.841   1.811  63.662  1.00  0.00    -0.088 A  
HETATM   25  C   UNL     1      -8.705   1.734  65.047  1.00  0.00    -0.112 A  
HETATM   26  C   UNL     1      -8.896   2.862  65.878  1.00  0.00    -0.141 A  
BRANCH  26  27
HETATM   27  C   UNL     1      -8.653   2.660  67.301  1.00  0.00    -0.106 A  
HETATM   28  N   UNL     1      -9.535   2.078  68.138  1.00  0.00    -0.200 NA 
HETATM   29  N   UNL     1      -8.849   2.135  69.285  1.00  0.00    -0.081 NA 
HETATM   30  N   UNL     1      -7.641   2.698  69.221  1.00  0.00    -0.044 NA 
HETATM   31  H   UNL     1      -9.227   1.768  70.159  1.00  0.00     0.000 HD 
HETATM   32  N   UNL     1      -7.490   3.017  67.943  1.00  0.00    -0.053 NA 
ENDBRANCH  26  27
ENDBRANCH  18  21
ENDBRANCH  14  15
ENDBRANCH  10  14
ENDBRANCH   4   5
ENDBRANCH   3   4
ENDBRANCH   2   3
TORSDOF 8
ENDMDL
MODEL      219
REMARK 921   NORMALIZED FREE ENERGY PREDICTED BY IDOCK:   -4.03 KCAL/MOL
REMARK 922        TOTAL FREE ENERGY PREDICTED BY IDOCK:   -6.94 KCAL/MOL
REMARK 923 INTER-LIGAND FREE ENERGY PREDICTED BY IDOCK:   -5.76 KCAL/MOL
REMARK 924 INTRA-LIGAND FREE ENERGY PREDICTED BY IDOCK:   -1.18 KCAL/MOL
REMARK 927      BINDING AFFINITY PREDICTED BY RF-SCORE:    0.00 PKD
ROOT
HETATM    1  C   UNL     1      -9.542   3.867  65.005  1.00  0.00    -0.181 C  
HETATM    2  C   UNL     1     -10.265   4.964  65.769  1.00  0.00    -0.207 C  
ENDROOT
BRANCH   2   3
HETATM    3  C   UNL     1     -10.385   4.632  67.260  1.00  0.00    -0.051 C  
BRANCH   3   4
HETATM    4  C   UNL     1      -9.326   3.645  67.764  1.00  0.00    -0.242 C  
BRANCH   4   5
HETATM    5  C   UNL     1      -9.085   3.734  69.239  1.00  0.00    -0.136 A  
HETATM    6  N   UNL     1      -9.638   2.903  70.102  1.00  0.00    -0.121 NA 
HETATM    7  C   UNL     1      -9.192   3.269  71.335  1.00  0.00    -0.121 A  
HETATM    8 CL   UNL     1      -9.672   2.449  72.747  1.00  0.00    -0.158 Cl 
HETATM    9  C   UNL     1      -8.364   4.370  71.253  1.00  0.00    -0.094 A  
HETATM   10  N   UNL     1      -8.317   4.681  69.900  1.00  0.00    -0.067 NA 
BRANCH   9  11
HETATM   11  C   UNL     1      -7.693   5.110  72.342  1.00  0.00    -0.097 C  
HETATM   12  H   UNL     1      -6.017   4.954  73.281  1.00  0.00     0.000 HD 
HETATM   13  O   UNL     1      -6.449   4.477  72.581  1.00  0.00    -0.036 OA 
ENDBRANCH   9  11
BRANCH  10  14
HETATM   14  C   UNL     1      -7.781   5.911  69.319  1.00  0.00    -0.094 C  
BRANCH  14  15
HETATM   15  C   UNL     1      -8.633   7.135  69.534  1.00  0.00    -0.134 A  
HETATM   16  C   UNL     1      -8.359   8.024  70.576  1.00  0.00    -0.123 A  
HETATM   17  C   UNL     1      -9.123   9.186  70.753  1.00  0.00    -0.313 A  
HETATM   18  C   UNL     1     -10.234   9.474  69.945  1.00  0.00    -0.261 A  
HETATM   19  C   UNL     1     -10.474   8.590  68.877  1.00  0.00    -0.207 A  
HETATM   20  C   UNL     1      -9.684   7.451  68.667  1.00  0.00    -0.152 A  
BRANCH  18  21
HETATM   21  C   UNL     1     -11.124  10.647  70.189  1.00  0.00    -0.341 A  
HETATM   22  C   UNL     1     -12.038  10.588  71.271  1.00  0.00    -0.432 A  
HETATM   23  C   UNL     1     -12.899  11.645  71.586  1.00  0.00    -0.454 A  
HETATM   24  C   UNL     1     -12.897  12.791  70.811  1.00  0.00    -0.109 A  
HETATM   25  C   UNL     1     -12.027  12.875  69.725  1.00  0.00    -0.365 A  
HETATM   26  C   UNL     1     -11.125  11.833  69.410  1.00  0.00    -0.245 A  
BRANCH  26  27
HETATM   27  C   UNL     1     -10.222  12.081  68.292  1.00  0.00    -0.206 A  
HETATM   28  N   UNL     1     -10.636  12.278  67.024  1.00  0.00    -0.220 NA 
HETATM   29  N   UNL     1      -9.458  12.455  66.414  1.00  0.00    -0.241 NA 
HETATM   30  N   UNL     1      -8.375  12.377  67.191  1.00  0.00    -0.181 NA 
HETATM   31  H   UNL     1      -9.391  12.637  65.413  1.00  0.00     0.000 HD 
HETATM   32  N   UNL     1      -8.855  12.164  68.409  1.00  0.00    -0.171 NA 
ENDBRANCH  26  27
ENDBRANCH  18  21
ENDBRANCH  14  15
ENDBRANCH  10  14
ENDBRANCH   4   5
ENDBRANCH   3   4
ENDBRANCH   2   3
TORSDOF 8
ENDMDL
MODEL      220
REMARK 921   NORMALIZED FREE ENERGY PREDICTED BY IDOCK:   -3.99 KCAL/MOL
REMARK 922        TOTAL FREE ENERGY PREDICTED BY IDOCK:   -6.88 KCAL/MOL
REMARK 923 INTER-LIGAND FREE ENERGY PREDICTED BY IDOCK:   -5.50 KCAL/MOL
REMARK 924 INTRA-LIGAND FREE ENERGY PREDICTED BY IDOCK:   -1.38 KCAL/MOL
REMARK 927      BINDING AFFINITY PREDICTED BY RF-SCORE:    0.00 PKD
ROOT
HETATM    1  C   UNL     1     -13.251   9.008  72.364  1.00  0.00    -0.507 C  
HETATM    2  C   UNL     1     -13.289  10.478  71.977  1.00  0.00    -0.420 C  
ENDROOT
BRANCH   2   3
HETATM    3  C   UNL     1     -12.895  10.689  70.511  1.00  0.00    -0.356 C  
BRANCH   3   4
HETATM    4  C   UNL     1     -11.431  10.347  70.207  1.00  0.00    -0.406 C  
BRANCH   4   5
HETATM    5  C   UNL     1     -10.771  11.328  69.288  1.00  0.00    -0.179 A  
HETATM    6  N   UNL     1     -11.425  12.324  68.722  1.00  0.00    -0.285 NA 
HETATM    7  C   UNL     1     -10.518  13.009  67.973  1.00  0.00    -0.228 A  
HETATM    8 CL   UNL     1     -10.952  14.381  67.064  1.00  0.00    -0.298 Cl 
HETATM    9  C   UNL     1      -9.272  12.418  68.045  1.00  0.00    -0.203 A  
HETATM   10  N   UNL     1      -9.446  11.319  68.877  1.00  0.00    -0.140 NA 
BRANCH   9  11
HETATM   11  C   UNL     1      -8.018  12.810  67.368  1.00  0.00    -0.179 C  
HETATM   12  H   UNL     1      -6.684  14.176  67.631  1.00  0.00     0.000 HD 
HETATM   13  O   UNL     1      -7.490  13.924  68.066  1.00  0.00    -0.105 OA 
ENDBRANCH   9  11
BRANCH  10  14
HETATM   14  C   UNL     1      -8.493  10.228  69.069  1.00  0.00    -0.150 C  
BRANCH  14  15
HETATM   15  C   UNL     1      -8.471   9.207  67.962  1.00  0.00    -0.121 A  
HETATM   16  C   UNL     1      -7.276   8.589  67.583  1.00  0.00    -0.084 A  
HETATM   17  C   UNL     1      -7.258   7.606  66.582  1.00  0.00    -0.087 A  
HETATM   18  C   UNL     1      -8.414   7.251  65.870  1.00  0.00    -0.148 A  
HETATM   19  C   UNL     1      -9.614   7.853  66.289  1.00  0.00    -0.200 A  
HETATM   20  C   UNL     1      -9.646   8.802  67.321  1.00  0.00    -0.214 A  
BRANCH  18  21
HETATM   21  C   UNL     1      -8.392   6.290  64.728  1.00  0.00    -0.051 A  
HETATM   22  C   UNL     1      -8.818   4.958  64.957  1.00  0.00    -0.154 A  
HETATM   23  C   UNL     1      -8.847   3.993  63.945  1.00  0.00    -0.117 A  
HETATM   24  C   UNL     1      -8.424   4.320  62.669  1.00  0.00    -0.090 A  
HETATM   25  C   UNL     1      -7.977   5.615  62.411  1.00  0.00    -0.089 A  
HETATM   26  C   UNL     1      -7.972   6.614  63.412  1.00  0.00    -0.072 A  
BRANCH  26  27
HETATM   27  C   UNL     1      -7.546   7.943  62.990  1.00  0.00    -0.126 A  
HETATM   28  N   UNL     1      -6.256   8.310  62.853  1.00  0.00    -0.085 NA 
HETATM   29  N   UNL     1      -6.410   9.579  62.459  1.00  0.00    -0.097 NA 
HETATM   30  N   UNL     1      -7.667  10.014  62.350  1.00  0.00    -0.120 NA 
HETATM   31  H   UNL     1      -5.612  10.180  62.253  1.00  0.00     0.000 HD 
HETATM   32  N   UNL     1      -8.411   8.962  62.663  1.00  0.00    -0.193 NA 
ENDBRANCH  26  27
ENDBRANCH  18  21
ENDBRANCH  14  15
ENDBRANCH  10  14
ENDBRANCH   4   5
ENDBRANCH   3   4
ENDBRANCH   2   3
TORSDOF 8
ENDMDL
MODEL      221
REMARK 921   NORMALIZED FREE ENERGY PREDICTED BY IDOCK:   -3.92 KCAL/MOL
REMARK 922        TOTAL FREE ENERGY PREDICTED BY IDOCK:   -6.78 KCAL/MOL
REMARK 923 INTER-LIGAND FREE ENERGY PREDICTED BY IDOCK:   -6.19 KCAL/MOL
REMARK 924 INTRA-LIGAND FREE ENERGY PREDICTED BY IDOCK:   -0.59 KCAL/MOL
REMARK 927      BINDING AFFINITY PREDICTED BY RF-SCORE:    0.00 PKD
ROOT
HETATM    1  C   UNL     1     -10.164  20.185  66.200  1.00  0.00    -0.518 C  
HETATM    2  C   UNL     1      -9.377  19.054  66.840  1.00  0.00    -0.346 C  
ENDROOT
BRANCH   2   3
HETATM    3  C   UNL     1     -10.152  17.732  66.803  1.00  0.00    -0.349 C  
BRANCH   3   4
HETATM    4  C   UNL     1      -9.257  16.490  66.713  1.00  0.00    -0.256 C  
BRANCH   4   5
HETATM    5  C   UNL     1      -9.961  15.291  66.157  1.00  0.00    -0.302 A  
HETATM    6  N   UNL     1     -10.679  15.336  65.051  1.00  0.00    -0.430 NA 
HETATM    7  C   UNL     1     -11.153  14.078  64.843  1.00  0.00    -0.375 A  
HETATM    8 CL   UNL     1     -12.140  13.695  63.511  1.00  0.00    -0.443 Cl 
HETATM    9  C   UNL     1     -10.752  13.226  65.853  1.00  0.00    -0.275 A  
HETATM   10  N   UNL     1     -10.002  14.020  66.712  1.00  0.00    -0.262 NA 
BRANCH   9  11
HETATM   11  C   UNL     1     -11.065  11.794  66.040  1.00  0.00    -0.312 C  
HETATM   12  H   UNL     1     -12.467  10.796  66.907  1.00  0.00     0.000 HD 
HETATM   13  O   UNL     1     -12.266  11.717  66.788  1.00  0.00    -0.243 OA 
ENDBRANCH   9  11
BRANCH  10  14
HETATM   14  C   UNL     1      -9.564  13.655  68.058  1.00  0.00    -0.216 C  
BRANCH  14  15
HETATM   15  C   UNL     1      -8.974  12.273  68.177  1.00  0.00    -0.192 A  
HETATM   16  C   UNL     1      -7.751  11.964  67.577  1.00  0.00    -0.151 A  
HETATM   17  C   UNL     1      -7.178  10.692  67.721  1.00  0.00    -0.088 A  
HETATM   18  C   UNL     1      -7.831   9.657  68.408  1.00  0.00    -0.085 A  
HETATM   19  C   UNL     1      -9.042   9.995  69.038  1.00  0.00    -0.172 A  
HETATM   20  C   UNL     1      -9.598  11.278  68.937  1.00  0.00    -0.119 A  
BRANCH  18  21
HETATM   21  C   UNL     1      -7.288   8.268  68.475  1.00  0.00    -0.093 A  
HETATM   22  C   UNL     1      -7.407   7.440  67.332  1.00  0.00    -0.102 A  
HETATM   23  C   UNL     1      -6.913   6.131  67.297  1.00  0.00    -0.069 A  
HETATM   24  C   UNL     1      -6.306   5.593  68.417  1.00  0.00    -0.041 A  
HETATM   25  C   UNL     1      -6.192   6.371  69.568  1.00  0.00    -0.034 A  
HETATM   26  C   UNL     1      -6.653   7.708  69.613  1.00  0.00    -0.035 A  
BRANCH  26  27
HETATM   27  C   UNL     1      -6.407   8.430  70.856  1.00  0.00    -0.038 A  
HETATM   28  N   UNL     1      -5.337   9.222  71.064  1.00  0.00    -0.032 NA 
HETATM   29  N   UNL     1      -5.581   9.630  72.315  1.00  0.00    -0.254 NA 
HETATM   30  N   UNL     1      -6.692   9.156  72.882  1.00  0.00    -0.269 NA 
HETATM   31  H   UNL     1      -4.954  10.267  72.807  1.00  0.00     0.000 HD 
HETATM   32  N   UNL     1      -7.249   8.402  71.943  1.00  0.00    -0.090 NA 
ENDBRANCH  26  27
ENDBRANCH  18  21
ENDBRANCH  14  15
ENDBRANCH  10  14
ENDBRANCH   4   5
ENDBRANCH   3   4
ENDBRANCH   2   3
TORSDOF 8
ENDMDL
MODEL      222
REMARK 921   NORMALIZED FREE ENERGY PREDICTED BY IDOCK:   -3.89 KCAL/MOL
REMARK 922        TOTAL FREE ENERGY PREDICTED BY IDOCK:   -6.74 KCAL/MOL
REMARK 923 INTER-LIGAND FREE ENERGY PREDICTED BY IDOCK:   -5.83 KCAL/MOL
REMARK 924 INTRA-LIGAND FREE ENERGY PREDICTED BY IDOCK:   -0.91 KCAL/MOL
REMARK 927      BINDING AFFINITY PREDICTED BY RF-SCORE:    0.00 PKD
ROOT
HETATM    1  C   UNL     1     -11.088  15.627  64.884  1.00  0.00    -0.414 C  
HETATM    2  C   UNL     1     -11.980  14.397  64.883  1.00  0.00    -0.430 C  
ENDROOT
BRANCH   2   3
HETATM    3  C   UNL     1     -11.282  13.191  64.246  1.00  0.00    -0.422 C  
BRANCH   3   4
HETATM    4  C   UNL     1     -11.077  12.013  65.205  1.00  0.00    -0.369 C  
BRANCH   4   5
HETATM    5  C   UNL     1      -9.964  11.099  64.794  1.00  0.00    -0.287 A  
HETATM    6  N   UNL     1     -10.025  10.344  63.715  1.00  0.00    -0.253 NA 
HETATM    7  C   UNL     1      -8.848   9.664  63.649  1.00  0.00    -0.232 A  
HETATM    8 CL   UNL     1      -8.512   8.563  62.395  1.00  0.00    -0.197 Cl 
HETATM    9  C   UNL     1      -8.039   9.973  64.724  1.00  0.00    -0.155 A  
HETATM   10  N   UNL     1      -8.773  10.883  65.473  1.00  0.00    -0.187 NA 
BRANCH   9  11
HETATM   11  C   UNL     1      -6.701   9.444  65.062  1.00  0.00    -0.084 C  
HETATM   12  H   UNL     1      -4.895   9.806  64.492  1.00  0.00     0.000 HD 
HETATM   13  O   UNL     1      -5.756  10.146  64.274  1.00  0.00    -0.108 OA 
ENDBRANCH   9  11
BRANCH  10  14
HETATM   14  C   UNL     1      -8.466  11.323  66.833  1.00  0.00    -0.152 C  
BRANCH  14  15
HETATM   15  C   UNL     1      -8.856  10.348  67.915  1.00  0.00    -0.125 A  
HETATM   16  C   UNL     1      -8.583   8.985  67.780  1.00  0.00    -0.121 A  
HETATM   17  C   UNL     1      -8.905   8.080  68.803  1.00  0.00    -0.138 A  
HETATM   18  C   UNL     1      -9.574   8.486  69.968  1.00  0.00    -0.170 A  
HETATM   19  C   UNL     1      -9.807   9.866  70.106  1.00  0.00    -0.272 A  
HETATM   20  C   UNL     1      -9.445  10.781  69.107  1.00  0.00    -0.151 A  
BRANCH  18  21
HETATM   21  C   UNL     1     -10.023   7.520  71.015  1.00  0.00    -0.189 A  
HETATM   22  C   UNL     1     -11.174   6.734  70.760  1.00  0.00    -0.352 A  
HETATM   23  C   UNL     1     -11.660   5.793  71.674  1.00  0.00    -0.086 A  
HETATM   24  C   UNL     1     -11.025   5.623  72.891  1.00  0.00    -0.323 A  
HETATM   25  C   UNL     1      -9.902   6.395  73.186  1.00  0.00    -0.178 A  
HETATM   26  C   UNL     1      -9.376   7.328  72.262  1.00  0.00    -0.162 A  
BRANCH  26  27
HETATM   27  C   UNL     1      -8.157   8.017  72.670  1.00  0.00    -0.145 A  
HETATM   28  N   UNL     1      -8.118   8.976  73.616  1.00  0.00     0.067 NA 
HETATM   29  N   UNL     1      -6.812   9.266  73.608  1.00  0.00    -0.059 NA 
HETATM   30  N   UNL     1      -6.061   8.578  72.745  1.00  0.00    -0.081 NA 
HETATM   31  H   UNL     1      -6.413   9.973  74.226  1.00  0.00     0.000 HD 
HETATM   32  N   UNL     1      -6.911   7.750  72.153  1.00  0.00    -0.057 NA 
ENDBRANCH  26  27
ENDBRANCH  18  21
ENDBRANCH  14  15
ENDBRANCH  10  14
ENDBRANCH   4   5
ENDBRANCH   3   4
ENDBRANCH   2   3
TORSDOF 8
ENDMDL
MODEL      223
REMARK 921   NORMALIZED FREE ENERGY PREDICTED BY IDOCK:   -3.89 KCAL/MOL
REMARK 922        TOTAL FREE ENERGY PREDICTED BY IDOCK:   -6.73 KCAL/MOL
REMARK 923 INTER-LIGAND FREE ENERGY PREDICTED BY IDOCK:   -5.14 KCAL/MOL
REMARK 924 INTRA-LIGAND FREE ENERGY PREDICTED BY IDOCK:   -1.59 KCAL/MOL
REMARK 927      BINDING AFFINITY PREDICTED BY RF-SCORE:    0.00 PKD
ROOT
HETATM    1  C   UNL     1     -12.623  11.918  63.402  1.00  0.00    -0.555 C  
HETATM    2  C   UNL     1     -11.557  12.821  64.000  1.00  0.00    -0.488 C  
ENDROOT
BRANCH   2   3
HETATM    3  C   UNL     1     -12.142  14.160  64.461  1.00  0.00    -0.489 C  
BRANCH   3   4
HETATM    4  C   UNL     1     -11.092  15.151  64.977  1.00  0.00    -0.428 C  
BRANCH   4   5
HETATM    5  C   UNL     1     -10.931  15.124  66.466  1.00  0.00    -0.318 A  
HETATM    6  N   UNL     1     -11.755  15.750  67.283  1.00  0.00     0.140 NA 
HETATM    7  C   UNL     1     -11.316  15.499  68.547  1.00  0.00    -0.351 A  
HETATM    8 CL   UNL     1     -12.104  16.130  69.917  1.00  0.00    -0.110 Cl 
HETATM    9  C   UNL     1     -10.174  14.724  68.527  1.00  0.00    -0.232 A  
HETATM   10  N   UNL     1      -9.916  14.503  67.180  1.00  0.00    -0.249 NA 
BRANCH   9  11
HETATM   11  C   UNL     1      -9.355  14.248  69.661  1.00  0.00     0.693 C  
HETATM   12  H   UNL     1      -7.647  14.724  70.417  1.00  0.00     0.000 HD 
HETATM   13  O   UNL     1      -8.173  15.030  69.687  1.00  0.00    -0.167 OA 
ENDBRANCH   9  11
BRANCH  10  14
HETATM   14  C   UNL     1      -8.683  13.952  66.620  1.00  0.00    -0.013 C  
BRANCH  14  15
HETATM   15  C   UNL     1      -8.499  12.472  66.832  1.00  0.00    -0.130 A  
HETATM   16  C   UNL     1      -9.515  11.571  66.502  1.00  0.00    -0.220 A  
HETATM   17  C   UNL     1      -9.332  10.189  66.657  1.00  0.00    -0.195 A  
HETATM   18  C   UNL     1      -8.160   9.654  67.213  1.00  0.00    -0.110 A  
HETATM   19  C   UNL     1      -7.133  10.569  67.504  1.00  0.00    -0.089 A  
HETATM   20  C   UNL     1      -7.292  11.948  67.306  1.00  0.00    -0.146 A  
BRANCH  18  21
HETATM   21  C   UNL     1      -7.993   8.196  67.489  1.00  0.00    -0.122 A  
HETATM   22  C   UNL     1      -7.129   7.445  66.654  1.00  0.00    -0.075 A  
HETATM   23  C   UNL     1      -6.898   6.078  66.846  1.00  0.00    -0.063 A  
HETATM   24  C   UNL     1      -7.548   5.406  67.866  1.00  0.00    -0.088 A  
HETATM   25  C   UNL     1      -8.423   6.108  68.693  1.00  0.00    -0.114 A  
HETATM   26  C   UNL     1      -8.644   7.496  68.537  1.00  0.00    -0.129 A  
BRANCH  26  27
HETATM   27  C   UNL     1      -9.530   8.119  69.514  1.00  0.00    -0.156 A  
HETATM   28  N   UNL     1     -10.870   7.973  69.512  1.00  0.00    -0.182 NA 
HETATM   29  N   UNL     1     -11.192   8.719  70.576  1.00  0.00    -0.256 NA 
HETATM   30  N   UNL     1     -10.177   9.303  71.215  1.00  0.00    -0.319 NA 
HETATM   31  H   UNL     1     -12.159   8.834  70.881  1.00  0.00     0.000 HD 
HETATM   32  N   UNL     1      -9.096   8.903  70.558  1.00  0.00    -0.181 NA 
ENDBRANCH  26  27
ENDBRANCH  18  21
ENDBRANCH  14  15
ENDBRANCH  10  14
ENDBRANCH   4   5
ENDBRANCH   3   4
ENDBRANCH   2   3
TORSDOF 8
ENDMDL
MODEL      224
REMARK 921   NORMALIZED FREE ENERGY PREDICTED BY IDOCK:   -3.85 KCAL/MOL
REMARK 922        TOTAL FREE ENERGY PREDICTED BY IDOCK:   -6.68 KCAL/MOL
REMARK 923 INTER-LIGAND FREE ENERGY PREDICTED BY IDOCK:   -5.00 KCAL/MOL
REMARK 924 INTRA-LIGAND FREE ENERGY PREDICTED BY IDOCK:   -1.68 KCAL/MOL
REMARK 927      BINDING AFFINITY PREDICTED BY RF-SCORE:    0.00 PKD
ROOT
HETATM    1  C   UNL     1     -11.331  11.303  67.238  1.00  0.00    -0.329 C  
HETATM    2  C   UNL     1     -11.644  11.064  68.706  1.00  0.00    -0.386 C  
ENDROOT
BRANCH   2   3
HETATM    3  C   UNL     1     -10.432  10.508  69.461  1.00  0.00    -0.265 C  
BRANCH   3   4
HETATM    4  C   UNL     1     -10.794   9.526  70.581  1.00  0.00    -0.371 C  
BRANCH   4   5
HETATM    5  C   UNL     1      -9.623   8.740  71.084  1.00  0.00    -0.242 A  
HETATM    6  N   UNL     1      -8.452   9.291  71.337  1.00  0.00    -0.304 NA 
HETATM    7  C   UNL     1      -7.640   8.294  71.783  1.00  0.00    -0.099 A  
HETATM    8 CL   UNL     1      -6.021   8.577  72.222  1.00  0.00    -0.062 Cl 
HETATM    9  C   UNL     1      -8.303   7.083  71.784  1.00  0.00    -0.110 A  
HETATM   10  N   UNL     1      -9.576   7.372  71.310  1.00  0.00    -0.162 NA 
BRANCH   9  11
HETATM   11  C   UNL     1      -7.794   5.746  72.157  1.00  0.00    -0.103 C  
HETATM   12  H   UNL     1      -6.576   4.472  71.378  1.00  0.00     0.000 HD 
HETATM   13  O   UNL     1      -6.903   5.331  71.138  1.00  0.00    -0.042 OA 
ENDBRANCH   9  11
BRANCH  10  14
HETATM   14  C   UNL     1     -10.578   6.395  70.886  1.00  0.00    -0.236 C  
BRANCH  14  15
HETATM   15  C   UNL     1     -10.332   5.786  69.530  1.00  0.00    -0.333 A  
HETATM   16  C   UNL     1      -9.966   4.444  69.405  1.00  0.00    -0.165 A  
HETATM   17  C   UNL     1      -9.778   3.862  68.143  1.00  0.00    -0.124 A  
HETATM   18  C   UNL     1      -9.877   4.609  66.959  1.00  0.00    -0.232 A  
HETATM   19  C   UNL     1     -10.284   5.948  67.099  1.00  0.00    -0.247 A  
HETATM   20  C   UNL     1     -10.520   6.523  68.356  1.00  0.00    -0.258 A  
BRANCH  18  21
HETATM   21  C   UNL     1      -9.571   4.033  65.616  1.00  0.00    -0.190 A  
HETATM   22  C   UNL     1     -10.641   3.828  64.710  1.00  0.00    -0.064 A  
HETATM   23  C   UNL     1     -10.448   3.308  63.425  1.00  0.00    -0.233 A  
HETATM   24  C   UNL     1      -9.178   2.949  63.009  1.00  0.00    -0.094 A  
HETATM   25  C   UNL     1      -8.105   3.116  63.883  1.00  0.00    -0.082 A  
HETATM   26  C   UNL     1      -8.273   3.671  65.173  1.00  0.00    -0.097 A  
BRANCH  26  27
HETATM   27  C   UNL     1      -7.057   3.855  65.956  1.00  0.00    -0.067 A  
HETATM   28  N   UNL     1      -6.423   5.037  66.090  1.00  0.00    -0.042 NA 
HETATM   29  N   UNL     1      -5.404   4.673  66.878  1.00  0.00    -0.012 NA 
HETATM   30  N   UNL     1      -5.361   3.386  67.227  1.00  0.00    -0.015 NA 
HETATM   31  H   UNL     1      -4.701   5.342  67.194  1.00  0.00     0.000 HD 
HETATM   32  N   UNL     1      -6.436   2.852  66.663  1.00  0.00    -0.035 NA 
ENDBRANCH  26  27
ENDBRANCH  18  21
ENDBRANCH  14  15
ENDBRANCH  10  14
ENDBRANCH   4   5
ENDBRANCH   3   4
ENDBRANCH   2   3
TORSDOF 8
ENDMDL
MODEL      225
REMARK 921   NORMALIZED FREE ENERGY PREDICTED BY IDOCK:   -3.74 KCAL/MOL
REMARK 922        TOTAL FREE ENERGY PREDICTED BY IDOCK:   -6.52 KCAL/MOL
REMARK 923 INTER-LIGAND FREE ENERGY PREDICTED BY IDOCK:   -5.22 KCAL/MOL
REMARK 924 INTRA-LIGAND FREE ENERGY PREDICTED BY IDOCK:   -1.30 KCAL/MOL
REMARK 927      BINDING AFFINITY PREDICTED BY RF-SCORE:    0.00 PKD
ROOT
HETATM    1  C   UNL     1      -7.895  16.902  68.641  1.00  0.00    -0.244 C  
HETATM    2  C   UNL     1      -6.694  16.212  68.018  1.00  0.00    -0.143 C  
ENDROOT
BRANCH   2   3
HETATM    3  C   UNL     1      -6.884  14.693  67.952  1.00  0.00    -0.176 C  
BRANCH   3   4
HETATM    4  C   UNL     1      -8.160  14.196  68.641  1.00  0.00    -0.126 C  
BRANCH   4   5
HETATM    5  C   UNL     1      -9.139  13.568  67.698  1.00  0.00    -0.205 A  
HETATM    6  N   UNL     1     -10.378  14.001  67.565  1.00  0.00    -0.244 NA 
HETATM    7  C   UNL     1     -10.967  13.212  66.625  1.00  0.00    -0.283 A  
HETATM    8 CL   UNL     1     -12.587  13.432  66.151  1.00  0.00    -0.380 Cl 
HETATM    9  C   UNL     1     -10.093  12.242  66.177  1.00  0.00    -0.245 A  
HETATM   10  N   UNL     1      -8.921  12.462  66.890  1.00  0.00    -0.208 NA 
BRANCH   9  11
HETATM   11  C   UNL     1     -10.327  11.166  65.192  1.00  0.00    -0.293 C  
HETATM   12  H   UNL     1     -10.458  11.065  63.272  1.00  0.00     0.000 HD 
HETATM   13  O   UNL     1     -10.308  11.758  63.905  1.00  0.00    -0.311 OA 
ENDBRANCH   9  11
BRANCH  10  14
HETATM   14  C   UNL     1      -7.779  11.553  66.965  1.00  0.00    -0.158 C  
BRANCH  14  15
HETATM   15  C   UNL     1      -7.906  10.464  68.000  1.00  0.00    -0.104 A  
HETATM   16  C   UNL     1      -8.171  10.775  69.336  1.00  0.00    -0.035 A  
HETATM   17  C   UNL     1      -8.332   9.764  70.294  1.00  0.00    -0.172 A  
HETATM   18  C   UNL     1      -8.167   8.407  69.975  1.00  0.00    -0.121 A  
HETATM   19  C   UNL     1      -7.939   8.108  68.620  1.00  0.00    -0.115 A  
HETATM   20  C   UNL     1      -7.823   9.113  67.649  1.00  0.00    -0.096 A  
BRANCH  18  21
HETATM   21  C   UNL     1      -8.225   7.326  71.004  1.00  0.00    -0.107 A  
HETATM   22  C   UNL     1      -7.020   6.676  71.368  1.00  0.00    -0.075 A  
HETATM   23  C   UNL     1      -6.975   5.663  72.334  1.00  0.00    -0.083 A  
HETATM   24  C   UNL     1      -8.141   5.246  72.951  1.00  0.00    -0.109 A  
HETATM   25  C   UNL     1      -9.348   5.849  72.601  1.00  0.00    -0.146 A  
HETATM   26  C   UNL     1      -9.411   6.896  71.653  1.00  0.00    -0.154 A  
BRANCH  26  27
HETATM   27  C   UNL     1     -10.727   7.485  71.433  1.00  0.00    -0.223 A  
HETATM   28  N   UNL     1     -11.272   8.424  72.232  1.00  0.00    -0.359 NA 
HETATM   29  N   UNL     1     -12.442   8.615  71.610  1.00  0.00    -0.321 NA 
HETATM   30  N   UNL     1     -12.656   7.879  70.518  1.00  0.00     0.295 NA 
HETATM   31  H   UNL     1     -13.130   9.286  71.952  1.00  0.00     0.000 HD 
HETATM   32  N   UNL     1     -11.547   7.165  70.376  1.00  0.00    -0.283 NA 
ENDBRANCH  26  27
ENDBRANCH  18  21
ENDBRANCH  14  15
ENDBRANCH  10  14
ENDBRANCH   4   5
ENDBRANCH   3   4
ENDBRANCH   2   3
TORSDOF 8
ENDMDL
MODEL      226
REMARK 921   NORMALIZED FREE ENERGY PREDICTED BY IDOCK:   -3.71 KCAL/MOL
REMARK 922        TOTAL FREE ENERGY PREDICTED BY IDOCK:   -6.47 KCAL/MOL
REMARK 923 INTER-LIGAND FREE ENERGY PREDICTED BY IDOCK:   -7.08 KCAL/MOL
REMARK 924 INTRA-LIGAND FREE ENERGY PREDICTED BY IDOCK:    0.61 KCAL/MOL
REMARK 927      BINDING AFFINITY PREDICTED BY RF-SCORE:    0.00 PKD
ROOT
HETATM    1  C   UNL     1      -9.775  19.286  66.875  1.00  0.00    -0.406 C  
HETATM    2  C   UNL     1     -10.293  18.212  67.818  1.00  0.00    -0.413 C  
ENDROOT
BRANCH   2   3
HETATM    3  C   UNL     1     -10.198  16.816  67.194  1.00  0.00    -0.295 C  
BRANCH   3   4
HETATM    4  C   UNL     1     -11.475  15.980  67.346  1.00  0.00     0.114 C  
BRANCH   4   5
HETATM    5  C   UNL     1     -11.439  14.696  66.575  1.00  0.00    -0.351 A  
HETATM    6  N   UNL     1     -11.422  14.658  65.257  1.00  0.00    -0.351 NA 
HETATM    7  C   UNL     1     -11.378  13.343  64.906  1.00  0.00    -0.328 A  
HETATM    8 CL   UNL     1     -11.347  12.845  63.280  1.00  0.00    -0.327 Cl 
HETATM    9  C   UNL     1     -11.398  12.534  66.024  1.00  0.00    -0.344 A  
HETATM   10  N   UNL     1     -11.460  13.412  67.099  1.00  0.00    -0.322 NA 
BRANCH   9  11
HETATM   11  C   UNL     1     -11.397  11.058  66.103  1.00  0.00     0.246 C  
HETATM   12  H   UNL     1     -10.218   9.651  65.515  1.00  0.00     0.000 HD 
HETATM   13  O   UNL     1     -10.218  10.600  65.464  1.00  0.00    -0.264 OA 
ENDBRANCH   9  11
BRANCH  10  14
HETATM   14  C   UNL     1     -11.754  13.053  68.486  1.00  0.00    -0.342 C  
BRANCH  14  15
HETATM   15  C   UNL     1     -10.929  11.918  69.033  1.00  0.00    -0.267 A  
HETATM   16  C   UNL     1      -9.576  11.794  68.703  1.00  0.00    -0.122 A  
HETATM   17  C   UNL     1      -8.794  10.764  69.244  1.00  0.00    -0.039 A  
HETATM   18  C   UNL     1      -9.341   9.775  70.078  1.00  0.00    -0.274 A  
HETATM   19  C   UNL     1     -10.693   9.936  70.430  1.00  0.00    -0.379 A  
HETATM   20  C   UNL     1     -11.469  10.991  69.930  1.00  0.00    -0.400 A  
BRANCH  18  21
HETATM   21  C   UNL     1      -8.549   8.610  70.571  1.00  0.00    -0.170 A  
HETATM   22  C   UNL     1      -7.175   8.535  70.233  1.00  0.00    -0.048 A  
HETATM   23  C   UNL     1      -6.350   7.490  70.663  1.00  0.00    -0.038 A  
HETATM   24  C   UNL     1      -6.879   6.465  71.427  1.00  0.00    -0.067 A  
HETATM   25  C   UNL     1      -8.232   6.494  71.761  1.00  0.00    -0.112 A  
HETATM   26  C   UNL     1      -9.075   7.558  71.365  1.00  0.00    -0.145 A  
BRANCH  26  27
HETATM   27  C   UNL     1     -10.451   7.498  71.841  1.00  0.00    -0.202 A  
HETATM   28  N   UNL     1     -10.868   8.043  73.002  1.00  0.00    -0.335 NA 
HETATM   29  N   UNL     1     -12.166   7.718  72.965  1.00  0.00    -0.498 NA 
HETATM   30  N   UNL     1     -12.570   7.027  71.897  1.00  0.00    -0.322 NA 
HETATM   31  H   UNL     1     -12.810   7.984  73.710  1.00  0.00     0.000 HD 
HETATM   32  N   UNL     1     -11.481   6.901  71.151  1.00  0.00    -0.287 NA 
ENDBRANCH  26  27
ENDBRANCH  18  21
ENDBRANCH  14  15
ENDBRANCH  10  14
ENDBRANCH   4   5
ENDBRANCH   3   4
ENDBRANCH   2   3
TORSDOF 8
ENDMDL
MODEL      227
REMARK 921   NORMALIZED FREE ENERGY PREDICTED BY IDOCK:   -3.69 KCAL/MOL
REMARK 922        TOTAL FREE ENERGY PREDICTED BY IDOCK:   -6.45 KCAL/MOL
REMARK 923 INTER-LIGAND FREE ENERGY PREDICTED BY IDOCK:   -5.02 KCAL/MOL
REMARK 924 INTRA-LIGAND FREE ENERGY PREDICTED BY IDOCK:   -1.43 KCAL/MOL
REMARK 927      BINDING AFFINITY PREDICTED BY RF-SCORE:    0.00 PKD
ROOT
HETATM    1  C   UNL     1      -6.741  10.197  63.291  1.00  0.00    -0.131 C  
HETATM    2  C   UNL     1      -6.922   9.883  64.767  1.00  0.00    -0.132 C  
ENDROOT
BRANCH   2   3
HETATM    3  C   UNL     1      -8.187   9.056  65.019  1.00  0.00    -0.154 C  
BRANCH   3   4
HETATM    4  C   UNL     1      -9.484   9.871  64.958  1.00  0.00    -0.343 C  
BRANCH   4   5
HETATM    5  C   UNL     1      -9.929  10.380  66.295  1.00  0.00    -0.226 A  
HETATM    6  N   UNL     1      -9.706  11.616  66.696  1.00  0.00    -0.198 NA 
HETATM    7  C   UNL     1     -10.253  11.728  67.937  1.00  0.00    -0.191 A  
HETATM    8 CL   UNL     1     -10.184  13.177  68.826  1.00  0.00    -0.164 Cl 
HETATM    9  C   UNL     1     -10.806  10.530  68.341  1.00  0.00    -0.240 A  
HETATM   10  N   UNL     1     -10.575   9.656  67.286  1.00  0.00    -0.260 NA 
BRANCH   9  11
HETATM   11  C   UNL     1     -11.469  10.197  69.619  1.00  0.00    -0.198 C  
HETATM   12  H   UNL     1     -10.884   9.865  71.425  1.00  0.00     0.000 HD 
HETATM   13  O   UNL     1     -10.457  10.078  70.603  1.00  0.00    -0.276 OA 
ENDBRANCH   9  11
BRANCH  10  14
HETATM   14  C   UNL     1     -10.742   8.204  67.321  1.00  0.00    -0.193 C  
BRANCH  14  15
HETATM   15  C   UNL     1      -9.854   7.489  68.306  1.00  0.00    -0.177 A  
HETATM   16  C   UNL     1      -8.518   7.865  68.468  1.00  0.00    -0.128 A  
HETATM   17  C   UNL     1      -7.700   7.232  69.415  1.00  0.00    -0.107 A  
HETATM   18  C   UNL     1      -8.158   6.153  70.188  1.00  0.00    -0.116 A  
HETATM   19  C   UNL     1      -9.514   5.812  70.041  1.00  0.00    -0.193 A  
HETATM   20  C   UNL     1     -10.350   6.473  69.129  1.00  0.00    -0.226 A  
BRANCH  18  21
HETATM   21  C   UNL     1      -7.269   5.396  71.118  1.00  0.00    -0.078 A  
HETATM   22  C   UNL     1      -6.176   4.677  70.573  1.00  0.00    -0.022 A  
HETATM   23  C   UNL     1      -5.281   3.952  71.369  1.00  0.00     0.000 A  
HETATM   24  C   UNL     1      -5.465   3.899  72.739  1.00  0.00     0.000 A  
HETATM   25  C   UNL     1      -6.542   4.575  73.308  1.00  0.00    -0.052 A  
HETATM   26  C   UNL     1      -7.438   5.341  72.526  1.00  0.00    -0.096 A  
BRANCH  26  27
HETATM   27  C   UNL     1      -8.479   6.055  73.256  1.00  0.00    -0.117 A  
HETATM   28  N   UNL     1      -8.395   7.355  73.603  1.00  0.00    -0.135 NA 
HETATM   29  N   UNL     1      -9.566   7.511  74.230  1.00  0.00    -0.383 NA 
HETATM   30  N   UNL     1     -10.345   6.429  74.299  1.00  0.00    -0.331 NA 
HETATM   31  H   UNL     1      -9.848   8.405  74.633  1.00  0.00     0.000 HD 
HETATM   32  N   UNL     1      -9.669   5.490  73.651  1.00  0.00    -0.147 NA 
ENDBRANCH  26  27
ENDBRANCH  18  21
ENDBRANCH  14  15
ENDBRANCH  10  14
ENDBRANCH   4   5
ENDBRANCH   3   4
ENDBRANCH   2   3
TORSDOF 8
ENDMDL
MODEL      228
REMARK 921   NORMALIZED FREE ENERGY PREDICTED BY IDOCK:   -3.68 KCAL/MOL
REMARK 922        TOTAL FREE ENERGY PREDICTED BY IDOCK:   -6.44 KCAL/MOL
REMARK 923 INTER-LIGAND FREE ENERGY PREDICTED BY IDOCK:   -5.81 KCAL/MOL
REMARK 924 INTRA-LIGAND FREE ENERGY PREDICTED BY IDOCK:   -0.63 KCAL/MOL
REMARK 927      BINDING AFFINITY PREDICTED BY RF-SCORE:    0.00 PKD
ROOT
HETATM    1  C   UNL     1     -13.300  12.567  71.466  1.00  0.00    -0.180 C  
HETATM    2  C   UNL     1     -13.022  11.229  72.130  1.00  0.00    -0.208 C  
ENDROOT
BRANCH   2   3
HETATM    3  C   UNL     1     -12.479  10.203  71.130  1.00  0.00    -0.490 C  
BRANCH   3   4
HETATM    4  C   UNL     1     -11.046   9.745  71.426  1.00  0.00    -0.317 C  
BRANCH   4   5
HETATM    5  C   UNL     1     -10.915   8.261  71.578  1.00  0.00    -0.254 A  
HETATM    6  N   UNL     1     -11.685   7.558  72.386  1.00  0.00    -0.302 NA 
HETATM    7  C   UNL     1     -11.298   6.259  72.261  1.00  0.00    -0.294 A  
HETATM    8 CL   UNL     1     -12.041   5.008  73.144  1.00  0.00    -0.063 Cl 
HETATM    9  C   UNL     1     -10.243   6.142  71.379  1.00  0.00    -0.205 A  
HETATM   10  N   UNL     1      -9.984   7.441  70.957  1.00  0.00    -0.184 NA 
BRANCH   9  11
HETATM   11  C   UNL     1      -9.499   4.931  70.977  1.00  0.00    -0.164 C  
HETATM   12  H   UNL     1      -9.156   4.016  69.315  1.00  0.00     0.000 HD 
HETATM   13  O   UNL     1      -9.635   4.795  69.573  1.00  0.00    -0.144 OA 
ENDBRANCH   9  11
BRANCH  10  14
HETATM   14  C   UNL     1      -8.805   7.885  70.216  1.00  0.00    -0.140 C  
BRANCH  14  15
HETATM   15  C   UNL     1      -9.105   8.626  68.939  1.00  0.00    -0.145 A  
HETATM   16  C   UNL     1      -8.928  10.009  68.857  1.00  0.00    -0.152 A  
HETATM   17  C   UNL     1      -9.164  10.697  67.657  1.00  0.00    -0.153 A  
HETATM   18  C   UNL     1      -9.653  10.047  66.513  1.00  0.00    -0.237 A  
HETATM   19  C   UNL     1      -9.789   8.650  66.600  1.00  0.00    -0.336 A  
HETATM   20  C   UNL     1      -9.509   7.950  67.783  1.00  0.00    -0.165 A  
BRANCH  18  21
HETATM   21  C   UNL     1     -10.015  10.780  65.265  1.00  0.00    -0.342 A  
HETATM   22  C   UNL     1     -11.323  11.314  65.150  1.00  0.00     0.013 A  
HETATM   23  C   UNL     1     -11.747  12.030  64.025  1.00  0.00    -0.498 A  
HETATM   24  C   UNL     1     -10.884  12.214  62.959  1.00  0.00    -0.012 A  
HETATM   25  C   UNL     1      -9.597  11.683  63.027  1.00  0.00    -0.311 A  
HETATM   26  C   UNL     1      -9.138  10.986  64.169  1.00  0.00    -0.110 A  
BRANCH  26  27
HETATM   27  C   UNL     1      -7.748  10.546  64.136  1.00  0.00     0.053 A  
HETATM   28  N   UNL     1      -6.965  10.451  65.229  1.00  0.00    -0.126 NA 
HETATM   29  N   UNL     1      -5.828  10.017  64.672  1.00  0.00    -0.103 NA 
HETATM   30  N   UNL     1      -5.851   9.845  63.348  1.00  0.00    -0.107 NA 
HETATM   31  H   UNL     1      -4.994   9.827  65.226  1.00  0.00     0.000 HD 
HETATM   32  N   UNL     1      -7.090  10.156  62.993  1.00  0.00    -0.131 NA 
ENDBRANCH  26  27
ENDBRANCH  18  21
ENDBRANCH  14  15
ENDBRANCH  10  14
ENDBRANCH   4   5
ENDBRANCH   3   4
ENDBRANCH   2   3
TORSDOF 8
ENDMDL
MODEL      229
REMARK 921   NORMALIZED FREE ENERGY PREDICTED BY IDOCK:   -3.68 KCAL/MOL
REMARK 922        TOTAL FREE ENERGY PREDICTED BY IDOCK:   -6.43 KCAL/MOL
REMARK 923 INTER-LIGAND FREE ENERGY PREDICTED BY IDOCK:   -6.17 KCAL/MOL
REMARK 924 INTRA-LIGAND FREE ENERGY PREDICTED BY IDOCK:   -0.26 KCAL/MOL
REMARK 927      BINDING AFFINITY PREDICTED BY RF-SCORE:    0.00 PKD
ROOT
HETATM    1  C   UNL     1     -10.472  17.826  66.260  1.00  0.00    -0.307 C  
HETATM    2  C   UNL     1     -10.676  16.506  66.985  1.00  0.00    -0.191 C  
ENDROOT
BRANCH   2   3
HETATM    3  C   UNL     1     -10.765  16.701  68.503  1.00  0.00    -0.351 C  
BRANCH   3   4
HETATM    4  C   UNL     1     -10.048  15.614  69.312  1.00  0.00    -0.258 C  
BRANCH   4   5
HETATM    5  C   UNL     1     -10.970  14.549  69.822  1.00  0.00    -0.151 A  
HETATM    6  N   UNL     1     -11.712  14.708  70.900  1.00  0.00    -0.298 NA 
HETATM    7  C   UNL     1     -12.423  13.557  71.056  1.00  0.00    -0.369 A  
HETATM    8 CL   UNL     1     -13.514  13.339  72.343  1.00  0.00    -0.674 Cl 
HETATM    9  C   UNL     1     -12.100  12.642  70.074  1.00  0.00    -0.269 A  
HETATM   10  N   UNL     1     -11.144  13.279  69.293  1.00  0.00    -0.200 NA 
BRANCH   9  11
HETATM   11  C   UNL     1     -12.605  11.266  69.886  1.00  0.00    -0.064 C  
HETATM   12  H   UNL     1     -12.655   9.662  70.953  1.00  0.00     0.000 HD 
HETATM   13  O   UNL     1     -12.330  10.547  71.075  1.00  0.00    -0.328 OA 
ENDBRANCH   9  11
BRANCH  10  14
HETATM   14  C   UNL     1     -10.302  12.646  68.279  1.00  0.00    -0.241 C  
BRANCH  14  15
HETATM   15  C   UNL     1     -10.068  11.171  68.484  1.00  0.00    -0.208 A  
HETATM   16  C   UNL     1     -10.703  10.227  67.673  1.00  0.00    -0.339 A  
HETATM   17  C   UNL     1     -10.455   8.856  67.832  1.00  0.00    -0.281 A  
HETATM   18  C   UNL     1      -9.621   8.366  68.849  1.00  0.00    -0.153 A  
HETATM   19  C   UNL     1      -8.960   9.329  69.631  1.00  0.00    -0.164 A  
HETATM   20  C   UNL     1      -9.168  10.704  69.446  1.00  0.00    -0.073 A  
BRANCH  18  21
HETATM   21  C   UNL     1      -9.434   6.907  69.102  1.00  0.00    -0.142 A  
HETATM   22  C   UNL     1     -10.451   6.206  69.796  1.00  0.00    -0.299 A  
HETATM   23  C   UNL     1     -10.371   4.835  70.065  1.00  0.00    -0.153 A  
HETATM   24  C   UNL     1      -9.254   4.120  69.672  1.00  0.00    -0.210 A  
HETATM   25  C   UNL     1      -8.223   4.781  69.007  1.00  0.00    -0.081 A  
HETATM   26  C   UNL     1      -8.299   6.158  68.695  1.00  0.00    -0.114 A  
BRANCH  26  27
HETATM   27  C   UNL     1      -7.183   6.708  67.935  1.00  0.00    -0.091 A  
HETATM   28  N   UNL     1      -7.227   6.954  66.610  1.00  0.00    -0.074 NA 
HETATM   29  N   UNL     1      -5.993   7.434  66.416  1.00  0.00    -0.036 NA 
HETATM   30  N   UNL     1      -5.209   7.496  67.494  1.00  0.00    -0.024 NA 
HETATM   31  H   UNL     1      -5.670   7.736  65.496  1.00  0.00     0.000 HD 
HETATM   32  N   UNL     1      -5.972   7.057  68.486  1.00  0.00    -0.024 NA 
ENDBRANCH  26  27
ENDBRANCH  18  21
ENDBRANCH  14  15
ENDBRANCH  10  14
ENDBRANCH   4   5
ENDBRANCH   3   4
ENDBRANCH   2   3
TORSDOF 8
ENDMDL
MODEL      230
REMARK 921   NORMALIZED FREE ENERGY PREDICTED BY IDOCK:   -3.59 KCAL/MOL
REMARK 922        TOTAL FREE ENERGY PREDICTED BY IDOCK:   -6.30 KCAL/MOL
REMARK 923 INTER-LIGAND FREE ENERGY PREDICTED BY IDOCK:   -5.91 KCAL/MOL
REMARK 924 INTRA-LIGAND FREE ENERGY PREDICTED BY IDOCK:   -0.39 KCAL/MOL
REMARK 927      BINDING AFFINITY PREDICTED BY RF-SCORE:    0.00 PKD
ROOT
HETATM    1  C   UNL     1      -6.057   4.117  72.556  1.00  0.00    -0.016 C  
HETATM    2  C   UNL     1      -5.869   5.561  72.994  1.00  0.00    -0.024 C  
ENDROOT
BRANCH   2   3
HETATM    3  C   UNL     1      -6.389   6.544  71.940  1.00  0.00    -0.046 C  
BRANCH   3   4
HETATM    4  C   UNL     1      -7.906   6.481  71.726  1.00  0.00    -0.103 C  
BRANCH   4   5
HETATM    5  C   UNL     1      -8.311   6.638  70.293  1.00  0.00    -0.134 A  
HETATM    6  N   UNL     1      -7.516   6.318  69.290  1.00  0.00    -0.091 NA 
HETATM    7  C   UNL     1      -8.208   6.576  68.147  1.00  0.00    -0.117 A  
HETATM    8 CL   UNL     1      -7.539   6.303  66.607  1.00  0.00    -0.093 Cl 
HETATM    9  C   UNL     1      -9.454   7.098  68.433  1.00  0.00    -0.138 A  
HETATM   10  N   UNL     1      -9.506   7.158  69.820  1.00  0.00    -0.150 NA 
BRANCH   9  11
HETATM   11  C   UNL     1     -10.509   7.547  67.500  1.00  0.00    -0.271 C  
HETATM   12  H   UNL     1     -11.802   6.676  66.366  1.00  0.00     0.000 HD 
HETATM   13  O   UNL     1     -11.123   6.387  66.966  1.00  0.00    -0.384 OA 
ENDBRANCH   9  11
BRANCH  10  14
HETATM   14  C   UNL     1     -10.510   7.867  70.612  1.00  0.00    -0.213 C  
BRANCH  14  15
HETATM   15  C   UNL     1     -10.739   9.299  70.204  1.00  0.00    -0.269 A  
HETATM   16  C   UNL     1     -12.017   9.862  70.259  1.00  0.00    -0.209 A  
HETATM   17  C   UNL     1     -12.228  11.207  69.921  1.00  0.00    -0.385 A  
HETATM   18  C   UNL     1     -11.190  12.025  69.449  1.00  0.00    -0.263 A  
HETATM   19  C   UNL     1      -9.904  11.456  69.437  1.00  0.00     0.270 A  
HETATM   20  C   UNL     1      -9.679  10.125  69.818  1.00  0.00    -0.232 A  
BRANCH  18  21
HETATM   21  C   UNL     1     -11.418  13.424  68.980  1.00  0.00    -0.348 A  
HETATM   22  C   UNL     1     -11.519  14.453  69.949  1.00  0.00    -0.314 A  
HETATM   23  C   UNL     1     -11.717  15.794  69.603  1.00  0.00    -0.363 A  
HETATM   24  C   UNL     1     -11.847  16.151  68.273  1.00  0.00     0.083 A  
HETATM   25  C   UNL     1     -11.775  15.162  67.293  1.00  0.00    -0.169 A  
HETATM   26  C   UNL     1     -11.542  13.806  67.619  1.00  0.00    -0.381 A  
BRANCH  26  27
HETATM   27  C   UNL     1     -11.419  12.887  66.494  1.00  0.00    -0.341 A  
HETATM   28  N   UNL     1     -12.164  12.969  65.373  1.00  0.00    -0.446 NA 
HETATM   29  N   UNL     1     -11.674  11.932  64.684  1.00  0.00    -0.275 NA 
HETATM   30  N   UNL     1     -10.710  11.230  65.284  1.00  0.00    -0.266 NA 
HETATM   31  H   UNL     1     -12.017  11.691  63.754  1.00  0.00     0.000 HD 
HETATM   32  N   UNL     1     -10.517  11.851  66.440  1.00  0.00    -0.217 NA 
ENDBRANCH  26  27
ENDBRANCH  18  21
ENDBRANCH  14  15
ENDBRANCH  10  14
ENDBRANCH   4   5
ENDBRANCH   3   4
ENDBRANCH   2   3
TORSDOF 8
ENDMDL
MODEL      231
REMARK 921   NORMALIZED FREE ENERGY PREDICTED BY IDOCK:   -3.59 KCAL/MOL
REMARK 922        TOTAL FREE ENERGY PREDICTED BY IDOCK:   -6.29 KCAL/MOL
REMARK 923 INTER-LIGAND FREE ENERGY PREDICTED BY IDOCK:   -5.73 KCAL/MOL
REMARK 924 INTRA-LIGAND FREE ENERGY PREDICTED BY IDOCK:   -0.56 KCAL/MOL
REMARK 927      BINDING AFFINITY PREDICTED BY RF-SCORE:    0.00 PKD
ROOT
HETATM    1  C   UNL     1     -12.293  15.454  64.385  1.00  0.00    -0.089 C  
HETATM    2  C   UNL     1     -12.703  14.082  64.895  1.00  0.00    -0.303 C  
ENDROOT
BRANCH   2   3
HETATM    3  C   UNL     1     -11.869  12.967  64.256  1.00  0.00    -0.457 C  
BRANCH   3   4
HETATM    4  C   UNL     1     -11.450  11.865  65.236  1.00  0.00    -0.313 C  
BRANCH   4   5
HETATM    5  C   UNL     1     -10.086  11.311  64.960  1.00  0.00    -0.279 A  
HETATM    6  N   UNL     1      -9.602  11.189  63.739  1.00  0.00    -0.252 NA 
HETATM    7  C   UNL     1      -8.351  10.669  63.866  1.00  0.00    -0.023 A  
HETATM    8 CL   UNL     1      -7.367  10.346  62.516  1.00  0.00    -0.150 Cl 
HETATM    9  C   UNL     1      -8.049  10.429  65.192  1.00  0.00    -0.145 A  
HETATM   10  N   UNL     1      -9.182  10.824  65.893  1.00  0.00    -0.182 NA 
BRANCH   9  11
HETATM   11  C   UNL     1      -6.823   9.845  65.775  1.00  0.00    -0.104 C  
HETATM   12  H   UNL     1      -4.930  10.140  65.573  1.00  0.00     0.000 HD 
HETATM   13  O   UNL     1      -5.718  10.516  65.197  1.00  0.00    -0.126 OA 
ENDBRANCH   9  11
BRANCH  10  14
HETATM   14  C   UNL     1      -9.465  10.541  67.298  1.00  0.00    -0.158 C  
BRANCH  14  15
HETATM   15  C   UNL     1      -9.477   9.077  67.657  1.00  0.00    -0.166 A  
HETATM   16  C   UNL     1      -8.317   8.443  68.109  1.00  0.00    -0.128 A  
HETATM   17  C   UNL     1      -8.334   7.092  68.485  1.00  0.00    -0.121 A  
HETATM   18  C   UNL     1      -9.487   6.301  68.360  1.00  0.00    -0.118 A  
HETATM   19  C   UNL     1     -10.654   6.963  67.941  1.00  0.00    -0.286 A  
HETATM   20  C   UNL     1     -10.655   8.325  67.608  1.00  0.00    -0.264 A  
BRANCH  18  21
HETATM   21  C   UNL     1      -9.493   4.836  68.649  1.00  0.00    -0.208 A  
HETATM   22  C   UNL     1      -9.339   3.933  67.568  1.00  0.00    -0.229 A  
HETATM   23  C   UNL     1      -9.316   2.545  67.745  1.00  0.00    -0.222 A  
HETATM   24  C   UNL     1      -9.474   2.009  69.011  1.00  0.00    -0.160 A  
HETATM   25  C   UNL     1      -9.650   2.867  70.095  1.00  0.00    -0.138 A  
HETATM   26  C   UNL     1      -9.642   4.273  69.943  1.00  0.00    -0.279 A  
BRANCH  26  27
HETATM   27  C   UNL     1      -9.765   5.052  71.169  1.00  0.00    -0.178 A  
HETATM   28  N   UNL     1     -10.944   5.372  71.739  1.00  0.00    -0.178 NA 
HETATM   29  N   UNL     1     -10.515   6.066  72.800  1.00  0.00    -0.206 NA 
HETATM   30  N   UNL     1      -9.193   6.198  72.921  1.00  0.00    -0.135 NA 
HETATM   31  H   UNL     1     -11.162   6.470  73.477  1.00  0.00     0.000 HD 
HETATM   32  N   UNL     1      -8.696   5.526  71.892  1.00  0.00    -0.134 NA 
ENDBRANCH  26  27
ENDBRANCH  18  21
ENDBRANCH  14  15
ENDBRANCH  10  14
ENDBRANCH   4   5
ENDBRANCH   3   4
ENDBRANCH   2   3
TORSDOF 8
ENDMDL
MODEL      232
REMARK 921   NORMALIZED FREE ENERGY PREDICTED BY IDOCK:   -3.58 KCAL/MOL
REMARK 922        TOTAL FREE ENERGY PREDICTED BY IDOCK:   -6.28 KCAL/MOL
REMARK 923 INTER-LIGAND FREE ENERGY PREDICTED BY IDOCK:   -4.81 KCAL/MOL
REMARK 924 INTRA-LIGAND FREE ENERGY PREDICTED BY IDOCK:   -1.47 KCAL/MOL
REMARK 927      BINDING AFFINITY PREDICTED BY RF-SCORE:    0.00 PKD
ROOT
HETATM    1  C   UNL     1     -10.633   4.968  72.189  1.00  0.00    -0.259 C  
HETATM    2  C   UNL     1     -10.778   5.136  73.692  1.00  0.00    -0.345 C  
ENDROOT
BRANCH   2   3
HETATM    3  C   UNL     1     -10.109   6.423  74.186  1.00  0.00    -0.353 C  
BRANCH   3   4
HETATM    4  C   UNL     1     -10.349   7.635  73.279  1.00  0.00    -0.405 C  
BRANCH   4   5
HETATM    5  C   UNL     1      -9.098   8.159  72.644  1.00  0.00    -0.250 A  
HETATM    6  N   UNL     1      -7.990   8.373  73.327  1.00  0.00    -0.357 NA 
HETATM    7  C   UNL     1      -7.067   8.831  72.437  1.00  0.00     0.084 A  
HETATM    8 CL   UNL     1      -5.484   9.238  72.910  1.00  0.00    -0.078 Cl 
HETATM    9  C   UNL     1      -7.611   8.937  71.173  1.00  0.00    -0.119 A  
HETATM   10  N   UNL     1      -8.930   8.524  71.316  1.00  0.00    -0.173 NA 
BRANCH   9  11
HETATM   11  C   UNL     1      -6.978   9.419  69.928  1.00  0.00    -0.071 C  
HETATM   12  H   UNL     1      -5.644   8.742  68.713  1.00  0.00     0.000 HD 
HETATM   13  O   UNL     1      -6.050   8.432  69.514  1.00  0.00    -0.035 OA 
ENDBRANCH   9  11
BRANCH  10  14
HETATM   14  C   UNL     1      -9.994   8.689  70.328  1.00  0.00    -0.186 C  
BRANCH  14  15
HETATM   15  C   UNL     1      -9.884   7.788  69.125  1.00  0.00    -0.173 A  
HETATM   16  C   UNL     1      -9.215   6.564  69.208  1.00  0.00    -0.139 A  
HETATM   17  C   UNL     1      -9.147   5.703  68.103  1.00  0.00    -0.111 A  
HETATM   18  C   UNL     1      -9.680   6.056  66.853  1.00  0.00    -0.173 A  
HETATM   19  C   UNL     1     -10.383   7.273  66.797  1.00  0.00    -0.311 A  
HETATM   20  C   UNL     1     -10.494   8.116  67.911  1.00  0.00    -0.259 A  
BRANCH  18  21
HETATM   21  C   UNL     1      -9.519   5.202  65.640  1.00  0.00    -0.129 A  
HETATM   22  C   UNL     1     -10.619   4.417  65.215  1.00  0.00    -0.181 A  
HETATM   23  C   UNL     1     -10.567   3.598  64.081  1.00  0.00    -0.246 A  
HETATM   24  C   UNL     1      -9.399   3.515  63.345  1.00  0.00    -0.103 A  
HETATM   25  C   UNL     1      -8.288   4.256  63.746  1.00  0.00    -0.100 A  
HETATM   26  C   UNL     1      -8.331   5.115  64.869  1.00  0.00    -0.145 A  
BRANCH  26  27
HETATM   27  C   UNL     1      -7.122   5.885  65.134  1.00  0.00    -0.064 A  
HETATM   28  N   UNL     1      -6.115   5.454  65.921  1.00  0.00    -0.032 NA 
HETATM   29  N   UNL     1      -5.281   6.497  65.833  1.00  0.00    -0.017 NA 
HETATM   30  N   UNL     1      -5.690   7.515  65.074  1.00  0.00    -0.037 NA 
HETATM   31  H   UNL     1      -4.384   6.512  66.319  1.00  0.00     0.000 HD 
HETATM   32  N   UNL     1      -6.862   7.124  64.595  1.00  0.00    -0.049 NA 
ENDBRANCH  26  27
ENDBRANCH  18  21
ENDBRANCH  14  15
ENDBRANCH  10  14
ENDBRANCH   4   5
ENDBRANCH   3   4
ENDBRANCH   2   3
TORSDOF 8
ENDMDL
MODEL      233
REMARK 921   NORMALIZED FREE ENERGY PREDICTED BY IDOCK:   -3.55 KCAL/MOL
REMARK 922        TOTAL FREE ENERGY PREDICTED BY IDOCK:   -6.24 KCAL/MOL
REMARK 923 INTER-LIGAND FREE ENERGY PREDICTED BY IDOCK:   -5.40 KCAL/MOL
REMARK 924 INTRA-LIGAND FREE ENERGY PREDICTED BY IDOCK:   -0.85 KCAL/MOL
REMARK 927      BINDING AFFINITY PREDICTED BY RF-SCORE:    0.00 PKD
ROOT
HETATM    1  C   UNL     1      -5.128  19.423  67.909  1.00  0.00    -0.171 C  
HETATM    2  C   UNL     1      -5.685  18.071  67.496  1.00  0.00    -0.147 C  
ENDROOT
BRANCH   2   3
HETATM    3  C   UNL     1      -6.158  18.074  66.039  1.00  0.00    -0.266 C  
BRANCH   3   4
HETATM    4  C   UNL     1      -7.436  18.887  65.803  1.00  0.00    -0.166 C  
BRANCH   4   5
HETATM    5  C   UNL     1      -8.483  18.666  66.851  1.00  0.00    -0.273 A  
HETATM    6  N   UNL     1      -8.640  19.473  67.881  1.00  0.00    -0.309 NA 
HETATM    7  C   UNL     1      -9.678  18.978  68.610  1.00  0.00    -0.410 A  
HETATM    8 CL   UNL     1     -10.213  19.726  70.041  1.00  0.00     0.147 Cl 
HETATM    9  C   UNL     1     -10.167  17.817  68.044  1.00  0.00    -0.377 A  
HETATM   10  N   UNL     1      -9.377  17.607  66.921  1.00  0.00    -0.256 NA 
BRANCH   9  11
HETATM   11  C   UNL     1     -11.258  16.941  68.520  1.00  0.00    -0.112 C  
HETATM   12  H   UNL     1     -11.569  15.859  70.084  1.00  0.00     0.000 HD 
HETATM   13  O   UNL     1     -10.867  16.422  69.778  1.00  0.00    -0.329 OA 
ENDBRANCH   9  11
BRANCH  10  14
HETATM   14  C   UNL     1      -9.326  16.383  66.123  1.00  0.00    -0.325 C  
BRANCH  14  15
HETATM   15  C   UNL     1      -8.741  15.191  66.834  1.00  0.00    -0.289 A  
HETATM   16  C   UNL     1      -7.369  15.111  67.088  1.00  0.00    -0.145 A  
HETATM   17  C   UNL     1      -6.827  14.024  67.788  1.00  0.00    -0.187 A  
HETATM   18  C   UNL     1      -7.616  12.939  68.200  1.00  0.00    -0.135 A  
HETATM   19  C   UNL     1      -8.998  13.051  67.972  1.00  0.00    -0.199 A  
HETATM   20  C   UNL     1      -9.553  14.158  67.314  1.00  0.00    -0.234 A  
BRANCH  18  21
HETATM   21  C   UNL     1      -7.037  11.723  68.845  1.00  0.00    -0.114 A  
HETATM   22  C   UNL     1      -6.303  11.881  70.047  1.00  0.00    -0.072 A  
HETATM   23  C   UNL     1      -5.738  10.799  70.731  1.00  0.00    -0.099 A  
HETATM   24  C   UNL     1      -5.866   9.519  70.221  1.00  0.00    -0.044 A  
HETATM   25  C   UNL     1      -6.563   9.328  69.029  1.00  0.00    -0.047 A  
HETATM   26  C   UNL     1      -7.170  10.404  68.341  1.00  0.00    -0.080 A  
BRANCH  26  27
HETATM   27  C   UNL     1      -7.928  10.054  67.145  1.00  0.00    -0.109 A  
HETATM   28  N   UNL     1      -7.729  10.622  65.938  1.00  0.00    -0.155 NA 
HETATM   29  N   UNL     1      -8.647   9.971  65.214  1.00  0.00    -0.146 NA 
HETATM   30  N   UNL     1      -9.383   9.070  65.870  1.00  0.00    -0.229 NA 
HETATM   31  H   UNL     1      -8.778  10.152  64.219  1.00  0.00     0.000 HD 
HETATM   32  N   UNL     1      -8.911   9.094  67.109  1.00  0.00    -0.122 NA 
ENDBRANCH  26  27
ENDBRANCH  18  21
ENDBRANCH  14  15
ENDBRANCH  10  14
ENDBRANCH   4   5
ENDBRANCH   3   4
ENDBRANCH   2   3
TORSDOF 8
ENDMDL
MODEL      234
REMARK 921   NORMALIZED FREE ENERGY PREDICTED BY IDOCK:   -3.51 KCAL/MOL
REMARK 922        TOTAL FREE ENERGY PREDICTED BY IDOCK:   -6.17 KCAL/MOL
REMARK 923 INTER-LIGAND FREE ENERGY PREDICTED BY IDOCK:   -4.86 KCAL/MOL
REMARK 924 INTRA-LIGAND FREE ENERGY PREDICTED BY IDOCK:   -1.32 KCAL/MOL
REMARK 927      BINDING AFFINITY PREDICTED BY RF-SCORE:    0.00 PKD
ROOT
HETATM    1  C   UNL     1     -13.203   9.460  72.537  1.00  0.00    -0.403 C  
HETATM    2  C   UNL     1     -13.096  10.905  72.079  1.00  0.00    -0.462 C  
ENDROOT
BRANCH   2   3
HETATM    3  C   UNL     1     -12.785  11.004  70.582  1.00  0.00    -0.375 C  
BRANCH   3   4
HETATM    4  C   UNL     1     -11.508  10.266  70.162  1.00  0.00    -0.383 C  
BRANCH   4   5
HETATM    5  C   UNL     1     -10.783  10.929  69.033  1.00  0.00    -0.224 A  
HETATM    6  N   UNL     1     -11.340  11.853  68.274  1.00  0.00    -0.252 NA 
HETATM    7  C   UNL     1     -10.397  12.235  67.370  1.00  0.00    -0.206 A  
HETATM    8 CL   UNL     1     -10.708  13.420  66.189  1.00  0.00    -0.283 Cl 
HETATM    9  C   UNL     1      -9.230  11.518  67.541  1.00  0.00    -0.166 A  
HETATM   10  N   UNL     1      -9.492  10.659  68.602  1.00  0.00    -0.169 NA 
BRANCH   9  11
HETATM   11  C   UNL     1      -7.975  11.587  66.765  1.00  0.00    -0.152 C  
HETATM   12  H   UNL     1      -6.581  12.895  66.518  1.00  0.00     0.000 HD 
HETATM   13  O   UNL     1      -7.389  12.852  67.018  1.00  0.00    -0.043 OA 
ENDBRANCH   9  11
BRANCH  10  14
HETATM   14  C   UNL     1      -8.669   9.522  69.010  1.00  0.00    -0.142 C  
BRANCH  14  15
HETATM   15  C   UNL     1      -8.672   8.363  68.047  1.00  0.00    -0.139 A  
HETATM   16  C   UNL     1      -7.473   7.812  67.588  1.00  0.00    -0.104 A  
HETATM   17  C   UNL     1      -7.471   6.706  66.726  1.00  0.00    -0.079 A  
HETATM   18  C   UNL     1      -8.660   6.149  66.231  1.00  0.00    -0.136 A  
HETATM   19  C   UNL     1      -9.858   6.689  66.732  1.00  0.00    -0.227 A  
HETATM   20  C   UNL     1      -9.866   7.765  67.631  1.00  0.00    -0.208 A  
BRANCH  18  21
HETATM   21  C   UNL     1      -8.674   5.044  65.226  1.00  0.00    -0.149 A  
HETATM   22  C   UNL     1      -8.626   5.381  63.851  1.00  0.00    -0.013 A  
HETATM   23  C   UNL     1      -8.619   4.414  62.839  1.00  0.00    -0.106 A  
HETATM   24  C   UNL     1      -8.686   3.072  63.168  1.00  0.00    -0.085 A  
HETATM   25  C   UNL     1      -8.757   2.704  64.511  1.00  0.00    -0.100 A  
HETATM   26  C   UNL     1      -8.732   3.664  65.549  1.00  0.00    -0.119 A  
BRANCH  26  27
HETATM   27  C   UNL     1      -8.741   3.138  66.909  1.00  0.00    -0.127 A  
HETATM   28  N   UNL     1      -9.855   2.727  67.547  1.00  0.00     0.277 NA 
HETATM   29  N   UNL     1      -9.333   2.351  68.721  1.00  0.00    -0.169 NA 
HETATM   30  N   UNL     1      -8.013   2.502  68.853  1.00  0.00    -0.052 NA 
HETATM   31  H   UNL     1      -9.910   1.972  69.471  1.00  0.00     0.000 HD 
HETATM   32  N   UNL     1      -7.615   2.983  67.683  1.00  0.00    -0.061 NA 
ENDBRANCH  26  27
ENDBRANCH  18  21
ENDBRANCH  14  15
ENDBRANCH  10  14
ENDBRANCH   4   5
ENDBRANCH   3   4
ENDBRANCH   2   3
TORSDOF 8
ENDMDL
MODEL      235
REMARK 921   NORMALIZED FREE ENERGY PREDICTED BY IDOCK:   -3.48 KCAL/MOL
REMARK 922        TOTAL FREE ENERGY PREDICTED BY IDOCK:   -6.14 KCAL/MOL
REMARK 923 INTER-LIGAND FREE ENERGY PREDICTED BY IDOCK:   -5.73 KCAL/MOL
REMARK 924 INTRA-LIGAND FREE ENERGY PREDICTED BY IDOCK:   -0.41 KCAL/MOL
REMARK 927      BINDING AFFINITY PREDICTED BY RF-SCORE:    0.00 PKD
ROOT
HETATM    1  C   UNL     1     -11.093  15.668  64.860  1.00  0.00    -0.414 C  
HETATM    2  C   UNL     1     -12.008  14.458  64.765  1.00  0.00    -0.455 C  
ENDROOT
BRANCH   2   3
HETATM    3  C   UNL     1     -11.290  13.251  64.153  1.00  0.00    -0.424 C  
BRANCH   3   4
HETATM    4  C   UNL     1     -11.186  12.046  65.095  1.00  0.00    -0.368 C  
BRANCH   4   5
HETATM    5  C   UNL     1     -10.029  11.147  64.786  1.00  0.00    -0.287 A  
HETATM    6  N   UNL     1      -9.961  10.429  63.681  1.00  0.00    -0.236 NA 
HETATM    7  C   UNL     1      -8.782   9.752  63.729  1.00  0.00    -0.224 A  
HETATM    8 CL   UNL     1      -8.298   8.695  62.486  1.00  0.00    -0.197 Cl 
HETATM    9  C   UNL     1      -8.104  10.024  64.901  1.00  0.00    -0.154 A  
HETATM   10  N   UNL     1      -8.925  10.908  65.591  1.00  0.00    -0.191 NA 
BRANCH   9  11
HETATM   11  C   UNL     1      -6.813   9.483  65.374  1.00  0.00    -0.086 C  
HETATM   12  H   UNL     1      -5.204  10.230  66.129  1.00  0.00     0.000 HD 
HETATM   13  O   UNL     1      -6.035  10.578  65.825  1.00  0.00    -0.104 OA 
ENDBRANCH   9  11
BRANCH  10  14
HETATM   14  C   UNL     1      -8.780  11.300  66.991  1.00  0.00    -0.152 C  
BRANCH  14  15
HETATM   15  C   UNL     1      -9.546  10.446  67.968  1.00  0.00    -0.156 A  
HETATM   16  C   UNL     1      -9.183   9.116  68.194  1.00  0.00    -0.137 A  
HETATM   17  C   UNL     1      -9.866   8.331  69.134  1.00  0.00    -0.179 A  
HETATM   18  C   UNL     1     -10.981   8.816  69.835  1.00  0.00    -0.184 A  
HETATM   19  C   UNL     1     -11.310  10.167  69.626  1.00  0.00    -0.289 A  
HETATM   20  C   UNL     1     -10.601  10.970  68.722  1.00  0.00    -0.232 A  
BRANCH  18  21
HETATM   21  C   UNL     1     -11.787   7.960  70.755  1.00  0.00    -0.190 A  
HETATM   22  C   UNL     1     -13.142   8.305  70.986  1.00  0.00     0.069 A  
HETATM   23  C   UNL     1     -13.978   7.554  71.819  1.00  0.00    -0.473 A  
HETATM   24  C   UNL     1     -13.480   6.441  72.474  1.00  0.00     0.550 A  
HETATM   25  C   UNL     1     -12.145   6.084  72.288  1.00  0.00    -0.196 A  
HETATM   26  C   UNL     1     -11.293   6.810  71.424  1.00  0.00    -0.322 A  
BRANCH  26  27
HETATM   27  C   UNL     1      -9.941   6.286  71.266  1.00  0.00    -0.180 A  
HETATM   28  N   UNL     1      -9.587   5.400  70.314  1.00  0.00    -0.168 NA 
HETATM   29  N   UNL     1      -8.287   5.254  70.597  1.00  0.00    -0.111 NA 
HETATM   30  N   UNL     1      -7.826   5.963  71.629  1.00  0.00    -0.104 NA 
HETATM   31  H   UNL     1      -7.683   4.637  70.054  1.00  0.00     0.000 HD 
HETATM   32  N   UNL     1      -8.875   6.654  72.053  1.00  0.00    -0.135 NA 
ENDBRANCH  26  27
ENDBRANCH  18  21
ENDBRANCH  14  15
ENDBRANCH  10  14
ENDBRANCH   4   5
ENDBRANCH   3   4
ENDBRANCH   2   3
TORSDOF 8
ENDMDL
MODEL      236
REMARK 921   NORMALIZED FREE ENERGY PREDICTED BY IDOCK:   -3.45 KCAL/MOL
REMARK 922        TOTAL FREE ENERGY PREDICTED BY IDOCK:   -6.10 KCAL/MOL
REMARK 923 INTER-LIGAND FREE ENERGY PREDICTED BY IDOCK:   -4.52 KCAL/MOL
REMARK 924 INTRA-LIGAND FREE ENERGY PREDICTED BY IDOCK:   -1.58 KCAL/MOL
REMARK 927      BINDING AFFINITY PREDICTED BY RF-SCORE:    0.00 PKD
ROOT
HETATM    1  C   UNL     1     -11.266   9.160  70.760  1.00  0.00    -0.336 C  
HETATM    2  C   UNL     1     -11.064   7.913  69.914  1.00  0.00    -0.123 C  
ENDROOT
BRANCH   2   3
HETATM    3  C   UNL     1      -9.708   7.256  70.189  1.00  0.00    -0.172 C  
BRANCH   3   4
HETATM    4  C   UNL     1      -8.531   7.941  69.484  1.00  0.00    -0.133 C  
BRANCH   4   5
HETATM    5  C   UNL     1      -8.121   7.261  68.214  1.00  0.00    -0.124 A  
HETATM    6  N   UNL     1      -8.656   6.125  67.811  1.00  0.00    -0.115 NA 
HETATM    7  C   UNL     1      -8.060   5.812  66.628  1.00  0.00    -0.102 A  
HETATM    8 CL   UNL     1      -8.462   4.404  65.761  1.00  0.00    -0.113 Cl 
HETATM    9  C   UNL     1      -7.107   6.753  66.292  1.00  0.00    -0.067 A  
HETATM   10  N   UNL     1      -7.134   7.675  67.331  1.00  0.00    -0.083 NA 
BRANCH   9  11
HETATM   11  C   UNL     1      -6.209   6.787  65.120  1.00  0.00    -0.039 C  
HETATM   12  H   UNL     1      -6.352   7.390  63.295  1.00  0.00     0.000 HD 
HETATM   13  O   UNL     1      -6.931   7.368  64.048  1.00  0.00    -0.054 OA 
ENDBRANCH   9  11
BRANCH  10  14
HETATM   14  C   UNL     1      -6.145   8.723  67.576  1.00  0.00    -0.051 C  
BRANCH  14  15
HETATM   15  C   UNL     1      -6.701  10.123  67.595  1.00  0.00    -0.075 A  
HETATM   16  C   UNL     1      -7.410  10.626  66.501  1.00  0.00    -0.134 A  
HETATM   17  C   UNL     1      -7.967  11.913  66.532  1.00  0.00     0.041 A  
HETATM   18  C   UNL     1      -7.779  12.776  67.623  1.00  0.00    -0.162 A  
HETATM   19  C   UNL     1      -7.098  12.242  68.731  1.00  0.00    -0.107 A  
HETATM   20  C   UNL     1      -6.580  10.939  68.724  1.00  0.00    -0.059 A  
BRANCH  18  21
HETATM   21  C   UNL     1      -8.269  14.187  67.626  1.00  0.00    -0.193 A  
HETATM   22  C   UNL     1      -7.348  15.222  67.329  1.00  0.00    -0.230 A  
HETATM   23  C   UNL     1      -7.718  16.571  67.293  1.00  0.00    -0.193 A  
HETATM   24  C   UNL     1      -9.022  16.936  67.579  1.00  0.00    -0.208 A  
HETATM   25  C   UNL     1      -9.950  15.946  67.897  1.00  0.00    -0.221 A  
HETATM   26  C   UNL     1      -9.604  14.575  67.906  1.00  0.00    -0.217 A  
BRANCH  26  27
HETATM   27  C   UNL     1     -10.689  13.641  68.186  1.00  0.00    -0.248 A  
HETATM   28  N   UNL     1     -11.124  13.347  69.428  1.00  0.00    -0.161 NA 
HETATM   29  N   UNL     1     -12.096  12.473  69.139  1.00  0.00    -0.206 NA 
HETATM   30  N   UNL     1     -12.284  12.209  67.845  1.00  0.00    -0.341 NA 
HETATM   31  H   UNL     1     -12.660  12.035  69.867  1.00  0.00     0.000 HD 
HETATM   32  N   UNL     1     -11.402  12.975  67.217  1.00  0.00    -0.290 NA 
ENDBRANCH  26  27
ENDBRANCH  18  21
ENDBRANCH  14  15
ENDBRANCH  10  14
ENDBRANCH   4   5
ENDBRANCH   3   4
ENDBRANCH   2   3
TORSDOF 8
ENDMDL
MODEL      237
REMARK 921   NORMALIZED FREE ENERGY PREDICTED BY IDOCK:   -3.44 KCAL/MOL
REMARK 922        TOTAL FREE ENERGY PREDICTED BY IDOCK:   -6.07 KCAL/MOL
REMARK 923 INTER-LIGAND FREE ENERGY PREDICTED BY IDOCK:   -4.77 KCAL/MOL
REMARK 924 INTRA-LIGAND FREE ENERGY PREDICTED BY IDOCK:   -1.30 KCAL/MOL
REMARK 927      BINDING AFFINITY PREDICTED BY RF-SCORE:    0.00 PKD
ROOT
HETATM    1  C   UNL     1     -11.484   3.162  73.677  1.00  0.00    -0.137 C  
HETATM    2  C   UNL     1     -11.001   2.035  72.779  1.00  0.00    -0.120 C  
ENDROOT
BRANCH   2   3
HETATM    3  C   UNL     1      -9.654   1.476  73.247  1.00  0.00    -0.096 C  
BRANCH   3   4
HETATM    4  C   UNL     1      -8.646   2.552  73.668  1.00  0.00    -0.071 C  
BRANCH   4   5
HETATM    5  C   UNL     1      -7.832   3.082  72.528  1.00  0.00    -0.058 A  
HETATM    6  N   UNL     1      -7.135   2.299  71.727  1.00  0.00    -0.030 NA 
HETATM    7  C   UNL     1      -6.539   3.111  70.812  1.00  0.00    -0.032 A  
HETATM    8 CL   UNL     1      -5.534   2.498  69.583  1.00  0.00    -0.016 Cl 
HETATM    9  C   UNL     1      -6.841   4.436  71.056  1.00  0.00    -0.036 A  
HETATM   10  N   UNL     1      -7.658   4.414  72.180  1.00  0.00    -0.078 NA 
BRANCH   9  11
HETATM   11  C   UNL     1      -6.384   5.641  70.334  1.00  0.00    -0.031 C  
HETATM   12  H   UNL     1      -6.560   6.317  68.538  1.00  0.00     0.000 HD 
HETATM   13  O   UNL     1      -6.854   5.541  69.002  1.00  0.00    -0.051 OA 
ENDBRANCH   9  11
BRANCH  10  14
HETATM   14  C   UNL     1      -8.042   5.571  72.986  1.00  0.00    -0.111 C  
BRANCH  14  15
HETATM   15  C   UNL     1      -8.731   6.672  72.222  1.00  0.00    -0.132 A  
HETATM   16  C   UNL     1      -9.844   6.399  71.423  1.00  0.00    -0.195 A  
HETATM   17  C   UNL     1     -10.514   7.428  70.745  1.00  0.00    -0.221 A  
HETATM   18  C   UNL     1     -10.062   8.756  70.778  1.00  0.00    -0.261 A  
HETATM   19  C   UNL     1      -8.966   9.021  71.618  1.00  0.00    -0.144 A  
HETATM   20  C   UNL     1      -8.320   8.004  72.335  1.00  0.00    -0.205 A  
BRANCH  18  21
HETATM   21  C   UNL     1     -10.697   9.842  69.974  1.00  0.00    -0.338 A  
HETATM   22  C   UNL     1     -11.541  10.768  70.636  1.00  0.00    -0.388 A  
HETATM   23  C   UNL     1     -12.165  11.827  69.968  1.00  0.00    -0.317 A  
HETATM   24  C   UNL     1     -11.989  11.982  68.605  1.00  0.00    -0.290 A  
HETATM   25  C   UNL     1     -11.183  11.077  67.916  1.00  0.00    -0.375 A  
HETATM   26  C   UNL     1     -10.516  10.020  68.578  1.00  0.00    -0.229 A  
BRANCH  26  27
HETATM   27  C   UNL     1      -9.649   9.190  67.750  1.00  0.00    -0.146 A  
HETATM   28  N   UNL     1      -8.302   9.232  67.796  1.00  0.00    -0.116 NA 
HETATM   29  N   UNL     1      -8.003   8.309  66.875  1.00  0.00    -0.099 NA 
HETATM   30  N   UNL     1      -9.039   7.719  66.275  1.00  0.00    -0.180 NA 
HETATM   31  H   UNL     1      -7.039   8.070  66.644  1.00  0.00     0.000 HD 
HETATM   32  N   UNL     1     -10.106   8.257  66.849  1.00  0.00    -0.270 NA 
ENDBRANCH  26  27
ENDBRANCH  18  21
ENDBRANCH  14  15
ENDBRANCH  10  14
ENDBRANCH   4   5
ENDBRANCH   3   4
ENDBRANCH   2   3
TORSDOF 8
ENDMDL
MODEL      238
REMARK 921   NORMALIZED FREE ENERGY PREDICTED BY IDOCK:   -3.36 KCAL/MOL
REMARK 922        TOTAL FREE ENERGY PREDICTED BY IDOCK:   -5.96 KCAL/MOL
REMARK 923 INTER-LIGAND FREE ENERGY PREDICTED BY IDOCK:   -6.42 KCAL/MOL
REMARK 924 INTRA-LIGAND FREE ENERGY PREDICTED BY IDOCK:    0.47 KCAL/MOL
REMARK 927      BINDING AFFINITY PREDICTED BY RF-SCORE:    0.00 PKD
ROOT
HETATM    1  C   UNL     1      -9.105   3.182  67.007  1.00  0.00    -0.198 C  
HETATM    2  C   UNL     1      -8.338   2.433  68.085  1.00  0.00    -0.081 C  
ENDROOT
BRANCH   2   3
HETATM    3  C   UNL     1      -9.091   2.434  69.420  1.00  0.00    -0.183 C  
BRANCH   3   4
HETATM    4  C   UNL     1      -9.598   3.816  69.846  1.00  0.00    -0.255 C  
BRANCH   4   5
HETATM    5  C   UNL     1      -8.498   4.805  70.082  1.00  0.00    -0.082 A  
HETATM    6  N   UNL     1      -7.609   4.664  71.045  1.00  0.00    -0.070 NA 
HETATM    7  C   UNL     1      -6.765   5.728  70.955  1.00  0.00    -0.053 A  
HETATM    8 CL   UNL     1      -5.459   5.937  72.027  1.00  0.00    -0.021 Cl 
HETATM    9  C   UNL     1      -7.147   6.575  69.935  1.00  0.00    -0.068 A  
HETATM   10  N   UNL     1      -8.281   5.987  69.388  1.00  0.00    -0.113 NA 
BRANCH   9  11
HETATM   11  C   UNL     1      -6.539   7.854  69.512  1.00  0.00    -0.035 C  
HETATM   12  H   UNL     1      -5.044   8.923  70.092  1.00  0.00     0.000 HD 
HETATM   13  O   UNL     1      -5.435   8.100  70.365  1.00  0.00    -0.023 OA 
ENDBRANCH   9  11
BRANCH  10  14
HETATM   14  C   UNL     1      -9.207   6.616  68.448  1.00  0.00    -0.122 C  
BRANCH  14  15
HETATM   15  C   UNL     1      -9.884   7.859  68.965  1.00  0.00    -0.171 A  
HETATM   16  C   UNL     1     -10.563   7.848  70.187  1.00  0.00    -0.237 A  
HETATM   17  C   UNL     1     -11.158   9.013  70.692  1.00  0.00    -0.314 A  
HETATM   18  C   UNL     1     -11.162  10.217  69.970  1.00  0.00    -0.376 A  
HETATM   19  C   UNL     1     -10.442  10.222  68.762  1.00  0.00    -0.222 A  
HETATM   20  C   UNL     1      -9.805   9.072  68.274  1.00  0.00    -0.186 A  
BRANCH  18  21
HETATM   21  C   UNL     1     -11.885  11.435  70.441  1.00  0.00    -0.428 A  
HETATM   22  C   UNL     1     -12.646  11.350  71.634  1.00  0.00    -0.338 A  
HETATM   23  C   UNL     1     -13.343  12.443  72.160  1.00  0.00    -0.508 A  
HETATM   24  C   UNL     1     -13.326  13.656  71.496  1.00  0.00    -0.372 A  
HETATM   25  C   UNL     1     -12.606  13.771  70.308  1.00  0.00    -0.288 A  
HETATM   26  C   UNL     1     -11.867  12.689  69.777  1.00  0.00    -0.379 A  
BRANCH  26  27
HETATM   27  C   UNL     1     -11.102  12.966  68.567  1.00  0.00    -0.267 A  
HETATM   28  N   UNL     1     -11.662  13.190  67.361  1.00  0.00    -0.355 NA 
HETATM   29  N   UNL     1     -10.564  13.385  66.621  1.00  0.00    -0.280 NA 
HETATM   30  N   UNL     1      -9.397  13.295  67.264  1.00  0.00    -0.217 NA 
HETATM   31  H   UNL     1     -10.615  13.591  65.623  1.00  0.00     0.000 HD 
HETATM   32  N   UNL     1      -9.730  13.052  68.524  1.00  0.00    -0.178 NA 
ENDBRANCH  26  27
ENDBRANCH  18  21
ENDBRANCH  14  15
ENDBRANCH  10  14
ENDBRANCH   4   5
ENDBRANCH   3   4
ENDBRANCH   2   3
TORSDOF 8
ENDMDL
MODEL      239
REMARK 921   NORMALIZED FREE ENERGY PREDICTED BY IDOCK:   -3.11 KCAL/MOL
REMARK 922        TOTAL FREE ENERGY PREDICTED BY IDOCK:   -5.59 KCAL/MOL
REMARK 923 INTER-LIGAND FREE ENERGY PREDICTED BY IDOCK:   -5.16 KCAL/MOL
REMARK 924 INTRA-LIGAND FREE ENERGY PREDICTED BY IDOCK:   -0.43 KCAL/MOL
REMARK 927      BINDING AFFINITY PREDICTED BY RF-SCORE:    0.00 PKD
ROOT
HETATM    1  C   UNL     1     -13.324  11.356  71.795  1.00  0.00    -0.368 C  
HETATM    2  C   UNL     1     -13.119  12.855  71.646  1.00  0.00    -0.430 C  
ENDROOT
BRANCH   2   3
HETATM    3  C   UNL     1     -11.802  13.179  70.933  1.00  0.00     0.162 C  
BRANCH   3   4
HETATM    4  C   UNL     1     -11.961  14.115  69.730  1.00  0.00    -0.396 C  
BRANCH   4   5
HETATM    5  C   UNL     1     -10.990  13.833  68.625  1.00  0.00    -0.266 A  
HETATM    6  N   UNL     1     -10.277  14.779  68.046  1.00  0.00    -0.224 NA 
HETATM    7  C   UNL     1      -9.505  14.165  67.107  1.00  0.00    -0.236 A  
HETATM    8 CL   UNL     1      -8.426  15.034  66.119  1.00  0.00     0.179 Cl 
HETATM    9  C   UNL     1      -9.758  12.808  67.072  1.00  0.00    -0.224 A  
HETATM   10  N   UNL     1     -10.735  12.602  68.038  1.00  0.00    -0.219 NA 
BRANCH   9  11
HETATM   11  C   UNL     1      -9.173  11.778  66.189  1.00  0.00    -0.210 C  
HETATM   12  H   UNL     1      -8.795  11.635  64.305  1.00  0.00     0.000 HD 
HETATM   13  O   UNL     1      -9.172  12.299  64.872  1.00  0.00     0.220 OA 
ENDBRANCH   9  11
BRANCH  10  14
HETATM   14  C   UNL     1     -11.521  11.383  68.218  1.00  0.00    -0.299 C  
BRANCH  14  15
HETATM   15  C   UNL     1     -10.752  10.211  68.770  1.00  0.00    -0.247 A  
HETATM   16  C   UNL     1     -10.662   9.014  68.055  1.00  0.00    -0.184 A  
HETATM   17  C   UNL     1      -9.911   7.936  68.545  1.00  0.00    -0.186 A  
HETATM   18  C   UNL     1      -9.279   7.980  69.798  1.00  0.00    -0.149 A  
HETATM   19  C   UNL     1      -9.346   9.204  70.487  1.00  0.00    -0.287 A  
HETATM   20  C   UNL     1     -10.057  10.302  69.980  1.00  0.00    -0.167 A  
BRANCH  18  21
HETATM   21  C   UNL     1      -8.570   6.804  70.383  1.00  0.00    -0.146 A  
HETATM   22  C   UNL     1      -7.189   6.643  70.111  1.00  0.00    -0.080 A  
HETATM   23  C   UNL     1      -6.439   5.581  70.629  1.00  0.00    -0.035 A  
HETATM   24  C   UNL     1      -7.052   4.625  71.418  1.00  0.00    -0.051 A  
HETATM   25  C   UNL     1      -8.415   4.738  71.688  1.00  0.00    -0.121 A  
HETATM   26  C   UNL     1      -9.184   5.821  71.203  1.00  0.00    -0.168 A  
BRANCH  26  27
HETATM   27  C   UNL     1     -10.581   5.855  71.619  1.00  0.00    -0.241 A  
HETATM   28  N   UNL     1     -11.152   4.920  72.405  1.00  0.00    -0.103 NA 
HETATM   29  N   UNL     1     -12.398   5.404  72.483  1.00  0.00    -0.117 NA 
HETATM   30  N   UNL     1     -12.632   6.536  71.816  1.00  0.00    -0.287 NA 
HETATM   31  H   UNL     1     -13.126   4.934  73.021  1.00  0.00     0.000 HD 
HETATM   32  N   UNL     1     -11.463   6.853  71.277  1.00  0.00    -0.279 NA 
ENDBRANCH  26  27
ENDBRANCH  18  21
ENDBRANCH  14  15
ENDBRANCH  10  14
ENDBRANCH   4   5
ENDBRANCH   3   4
ENDBRANCH   2   3
TORSDOF 8
ENDMDL
MODEL      240
REMARK 921   NORMALIZED FREE ENERGY PREDICTED BY IDOCK:   -3.08 KCAL/MOL
REMARK 922        TOTAL FREE ENERGY PREDICTED BY IDOCK:   -5.55 KCAL/MOL
REMARK 923 INTER-LIGAND FREE ENERGY PREDICTED BY IDOCK:   -4.41 KCAL/MOL
REMARK 924 INTRA-LIGAND FREE ENERGY PREDICTED BY IDOCK:   -1.14 KCAL/MOL
REMARK 927      BINDING AFFINITY PREDICTED BY RF-SCORE:    0.00 PKD
ROOT
HETATM    1  C   UNL     1     -13.110  11.732  63.529  1.00  0.00    -0.055 C  
HETATM    2  C   UNL     1     -12.042  12.591  64.185  1.00  0.00    -0.530 C  
ENDROOT
BRANCH   2   3
HETATM    3  C   UNL     1     -12.404  14.079  64.139  1.00  0.00    -0.374 C  
BRANCH   3   4
HETATM    4  C   UNL     1     -11.294  15.005  64.648  1.00  0.00    -0.357 C  
BRANCH   4   5
HETATM    5  C   UNL     1     -11.126  14.969  66.136  1.00  0.00    -0.329 A  
HETATM    6  N   UNL     1     -11.893  15.662  66.955  1.00  0.00     0.315 NA 
HETATM    7  C   UNL     1     -11.468  15.381  68.217  1.00  0.00    -0.353 A  
HETATM    8 CL   UNL     1     -12.194  16.078  69.589  1.00  0.00    -0.163 Cl 
HETATM    9  C   UNL     1     -10.392  14.517  68.194  1.00  0.00    -0.232 A  
HETATM   10  N   UNL     1     -10.160  14.272  66.846  1.00  0.00    -0.260 NA 
BRANCH   9  11
HETATM   11  C   UNL     1      -9.606  13.982  69.325  1.00  0.00     0.333 C  
HETATM   12  H   UNL     1      -7.972  14.476  70.220  1.00  0.00     0.000 HD 
HETATM   13  O   UNL     1      -8.477  14.820  69.492  1.00  0.00    -0.058 OA 
ENDBRANCH   9  11
BRANCH  10  14
HETATM   14  C   UNL     1      -8.978  13.622  66.282  1.00  0.00     0.134 C  
BRANCH  14  15
HETATM   15  C   UNL     1      -9.005  12.116  66.324  1.00  0.00    -0.094 A  
HETATM   16  C   UNL     1      -7.844  11.388  66.599  1.00  0.00    -0.137 A  
HETATM   17  C   UNL     1      -7.873   9.989  66.682  1.00  0.00    -0.111 A  
HETATM   18  C   UNL     1      -9.042   9.254  66.425  1.00  0.00    -0.200 A  
HETATM   19  C   UNL     1     -10.209  10.002  66.189  1.00  0.00    -0.283 A  
HETATM   20  C   UNL     1     -10.195  11.404  66.152  1.00  0.00    -0.282 A  
BRANCH  18  21
HETATM   21  C   UNL     1      -9.064   7.762  66.400  1.00  0.00    -0.216 A  
HETATM   22  C   UNL     1      -9.776   7.079  67.417  1.00  0.00    -0.177 A  
HETATM   23  C   UNL     1      -9.866   5.684  67.465  1.00  0.00    -0.156 A  
HETATM   24  C   UNL     1      -9.223   4.918  66.509  1.00  0.00    -0.135 A  
HETATM   25  C   UNL     1      -8.494   5.555  65.506  1.00  0.00    -0.144 A  
HETATM   26  C   UNL     1      -8.419   6.964  65.420  1.00  0.00    -0.091 A  
BRANCH  26  27
HETATM   27  C   UNL     1      -7.683   7.499  64.280  1.00  0.00    -0.128 A  
HETATM   28  N   UNL     1      -8.253   8.205  63.283  1.00  0.00    -0.120 NA 
HETATM   29  N   UNL     1      -7.180   8.450  62.521  1.00  0.00    -0.094 NA 
HETATM   30  N   UNL     1      -6.021   7.956  62.961  1.00  0.00    -0.066 NA 
HETATM   31  H   UNL     1      -7.245   8.984  61.655  1.00  0.00     0.000 HD 
HETATM   32  N   UNL     1      -6.325   7.364  64.108  1.00  0.00    -0.047 NA 
ENDBRANCH  26  27
ENDBRANCH  18  21
ENDBRANCH  14  15
ENDBRANCH  10  14
ENDBRANCH   4   5
ENDBRANCH   3   4
ENDBRANCH   2   3
TORSDOF 8
ENDMDL
MODEL      241
REMARK 921   NORMALIZED FREE ENERGY PREDICTED BY IDOCK:   -3.06 KCAL/MOL
REMARK 922        TOTAL FREE ENERGY PREDICTED BY IDOCK:   -5.52 KCAL/MOL
REMARK 923 INTER-LIGAND FREE ENERGY PREDICTED BY IDOCK:   -4.83 KCAL/MOL
REMARK 924 INTRA-LIGAND FREE ENERGY PREDICTED BY IDOCK:   -0.69 KCAL/MOL
REMARK 927      BINDING AFFINITY PREDICTED BY RF-SCORE:    0.00 PKD
ROOT
HETATM    1  C   UNL     1     -11.561  19.401  68.367  1.00  0.00     2.106 C  
HETATM    2  C   UNL     1     -10.285  20.098  68.810  1.00  0.00    -0.323 C  
ENDROOT
BRANCH   2   3
HETATM    3  C   UNL     1      -9.597  20.816  67.643  1.00  0.00    -0.378 C  
BRANCH   3   4
HETATM    4  C   UNL     1      -9.511  19.977  66.363  1.00  0.00    -0.512 C  
BRANCH   4   5
HETATM    5  C   UNL     1      -8.161  19.366  66.143  1.00  0.00    -0.311 A  
HETATM    6  N   UNL     1      -7.533  19.425  64.985  1.00  0.00    -0.046 NA 
HETATM    7  C   UNL     1      -6.345  18.783  65.153  1.00  0.00    -0.247 A  
HETATM    8 CL   UNL     1      -5.218  18.626  63.888  1.00  0.00    -0.165 Cl 
HETATM    9  C   UNL     1      -6.232  18.282  66.434  1.00  0.00    -0.187 A  
HETATM   10  N   UNL     1      -7.418  18.641  67.063  1.00  0.00    -0.217 NA 
BRANCH   9  11
HETATM   11  C   UNL     1      -5.132  17.497  67.031  1.00  0.00    -0.138 C  
HETATM   12  H   UNL     1      -4.608  15.642  67.028  1.00  0.00     0.000 HD 
HETATM   13  O   UNL     1      -5.316  16.147  66.644  1.00  0.00    -0.247 OA 
ENDBRANCH   9  11
BRANCH  10  14
HETATM   14  C   UNL     1      -7.897  18.133  68.347  1.00  0.00    -0.297 C  
BRANCH  14  15
HETATM   15  C   UNL     1      -8.475  16.742  68.300  1.00  0.00    -0.222 A  
HETATM   16  C   UNL     1      -8.564  15.965  69.458  1.00  0.00    -0.095 A  
HETATM   17  C   UNL     1      -9.140  14.687  69.427  1.00  0.00     0.126 A  
HETATM   18  C   UNL     1      -9.586  14.103  68.231  1.00  0.00    -0.226 A  
HETATM   19  C   UNL     1      -9.526  14.912  67.082  1.00  0.00    -0.231 A  
HETATM   20  C   UNL     1      -8.993  16.209  67.116  1.00  0.00    -0.218 A  
BRANCH  18  21
HETATM   21  C   UNL     1     -10.099  12.703  68.161  1.00  0.00    -0.231 A  
HETATM   22  C   UNL     1      -9.398  11.766  67.361  1.00  0.00    -0.174 A  
HETATM   23  C   UNL     1      -9.795  10.429  67.248  1.00  0.00    -0.214 A  
HETATM   24  C   UNL     1     -10.925   9.986  67.912  1.00  0.00    -0.311 A  
HETATM   25  C   UNL     1     -11.651  10.885  68.691  1.00  0.00    -0.373 A  
HETATM   26  C   UNL     1     -11.249  12.232  68.846  1.00  0.00    -0.323 A  
BRANCH  26  27
HETATM   27  C   UNL     1     -12.059  13.045  69.745  1.00  0.00    -0.258 A  
HETATM   28  N   UNL     1     -12.444  12.648  70.974  1.00  0.00    -0.335 NA 
HETATM   29  N   UNL     1     -13.141  13.722  71.365  1.00  0.00    -0.347 NA 
HETATM   30  N   UNL     1     -13.217  14.725  70.487  1.00  0.00    -0.249 NA 
HETATM   31  H   UNL     1     -13.588  13.771  72.280  1.00  0.00     0.000 HD 
HETATM   32  N   UNL     1     -12.501  14.314  69.450  1.00  0.00    -0.186 NA 
ENDBRANCH  26  27
ENDBRANCH  18  21
ENDBRANCH  14  15
ENDBRANCH  10  14
ENDBRANCH   4   5
ENDBRANCH   3   4
ENDBRANCH   2   3
TORSDOF 8
ENDMDL
MODEL      242
REMARK 921   NORMALIZED FREE ENERGY PREDICTED BY IDOCK:   -3.05 KCAL/MOL
REMARK 922        TOTAL FREE ENERGY PREDICTED BY IDOCK:   -5.51 KCAL/MOL
REMARK 923 INTER-LIGAND FREE ENERGY PREDICTED BY IDOCK:   -4.83 KCAL/MOL
REMARK 924 INTRA-LIGAND FREE ENERGY PREDICTED BY IDOCK:   -0.68 KCAL/MOL
REMARK 927      BINDING AFFINITY PREDICTED BY RF-SCORE:    0.00 PKD
ROOT
HETATM    1  C   UNL     1      -9.386   9.150  70.799  1.00  0.00    -0.325 C  
HETATM    2  C   UNL     1     -10.663   8.917  71.590  1.00  0.00    -0.418 C  
ENDROOT
BRANCH   2   3
HETATM    3  C   UNL     1     -11.633   7.997  70.842  1.00  0.00    -0.284 C  
BRANCH   3   4
HETATM    4  C   UNL     1     -10.945   6.877  70.054  1.00  0.00    -0.320 C  
BRANCH   4   5
HETATM    5  C   UNL     1     -10.393   5.791  70.926  1.00  0.00    -0.237 A  
HETATM    6  N   UNL     1     -10.146   5.965  72.210  1.00  0.00    -0.180 NA 
HETATM    7  C   UNL     1      -9.670   4.780  72.679  1.00  0.00    -0.141 A  
HETATM    8 CL   UNL     1      -9.221   4.570  74.307  1.00  0.00    -0.112 Cl 
HETATM    9  C   UNL     1      -9.585   3.846  71.666  1.00  0.00    -0.162 A  
HETATM   10  N   UNL     1     -10.031   4.511  70.530  1.00  0.00    -0.223 NA 
BRANCH   9  11
HETATM   11  C   UNL     1      -9.095   2.454  71.724  1.00  0.00    -0.088 C  
HETATM   12  H   UNL     1      -7.384   1.609  71.994  1.00  0.00     0.000 HD 
HETATM   13  O   UNL     1      -7.699   2.505  71.956  1.00  0.00    -0.047 OA 
ENDBRANCH   9  11
BRANCH  10  14
HETATM   14  C   UNL     1      -9.899   4.042  69.152  1.00  0.00    -0.002 C  
BRANCH  14  15
HETATM   15  C   UNL     1      -9.337   5.057  68.191  1.00  0.00    -0.156 A  
HETATM   16  C   UNL     1      -8.104   5.667  68.435  1.00  0.00    -0.103 A  
HETATM   17  C   UNL     1      -7.557   6.580  67.522  1.00  0.00    -0.105 A  
HETATM   18  C   UNL     1      -8.247   6.975  66.365  1.00  0.00    -0.117 A  
HETATM   19  C   UNL     1      -9.467   6.324  66.113  1.00  0.00    -0.092 A  
HETATM   20  C   UNL     1      -9.997   5.375  67.000  1.00  0.00    -0.204 A  
BRANCH  18  21
HETATM   21  C   UNL     1      -7.730   8.028  65.441  1.00  0.00    -0.096 A  
HETATM   22  C   UNL     1      -6.817   7.647  64.426  1.00  0.00    -0.058 A  
HETATM   23  C   UNL     1      -6.292   8.560  63.505  1.00  0.00    -0.081 A  
HETATM   24  C   UNL     1      -6.642   9.896  63.583  1.00  0.00    -0.125 A  
HETATM   25  C   UNL     1      -7.521  10.311  64.583  1.00  0.00    -0.093 A  
HETATM   26  C   UNL     1      -8.088   9.399  65.503  1.00  0.00    -0.116 A  
BRANCH  26  27
HETATM   27  C   UNL     1      -9.046   9.955  66.451  1.00  0.00    -0.150 A  
HETATM   28  N   UNL     1      -8.700  10.728  67.500  1.00  0.00    -0.125 NA 
HETATM   29  N   UNL     1      -9.906  10.965  68.030  1.00  0.00    -0.168 NA 
HETATM   30  N   UNL     1     -10.943  10.406  67.404  1.00  0.00    -0.293 NA 
HETATM   31  H   UNL     1     -10.025  11.540  68.864  1.00  0.00     0.000 HD 
HETATM   32  N   UNL     1     -10.407   9.775  66.369  1.00  0.00    -0.211 NA 
ENDBRANCH  26  27
ENDBRANCH  18  21
ENDBRANCH  14  15
ENDBRANCH  10  14
ENDBRANCH   4   5
ENDBRANCH   3   4
ENDBRANCH   2   3
TORSDOF 8
ENDMDL
MODEL      243
REMARK 921   NORMALIZED FREE ENERGY PREDICTED BY IDOCK:   -3.05 KCAL/MOL
REMARK 922        TOTAL FREE ENERGY PREDICTED BY IDOCK:   -5.51 KCAL/MOL
REMARK 923 INTER-LIGAND FREE ENERGY PREDICTED BY IDOCK:   -6.35 KCAL/MOL
REMARK 924 INTRA-LIGAND FREE ENERGY PREDICTED BY IDOCK:    0.84 KCAL/MOL
REMARK 927      BINDING AFFINITY PREDICTED BY RF-SCORE:    0.00 PKD
ROOT
HETATM    1  C   UNL     1      -9.825  13.062  64.380  1.00  0.00     0.013 C  
HETATM    2  C   UNL     1      -9.939  11.989  65.450  1.00  0.00    -0.279 C  
ENDROOT
BRANCH   2   3
HETATM    3  C   UNL     1      -9.112  12.336  66.692  1.00  0.00    -0.203 C  
BRANCH   3   4
HETATM    4  C   UNL     1      -8.051  11.287  67.045  1.00  0.00    -0.149 C  
BRANCH   4   5
HETATM    5  C   UNL     1      -7.911  10.213  66.010  1.00  0.00    -0.122 A  
HETATM    6  N   UNL     1      -7.509  10.459  64.779  1.00  0.00    -0.098 NA 
HETATM    7  C   UNL     1      -7.488   9.263  64.129  1.00  0.00    -0.110 A  
HETATM    8 CL   UNL     1      -7.025   9.132  62.497  1.00  0.00    -0.092 Cl 
HETATM    9  C   UNL     1      -7.914   8.245  64.958  1.00  0.00    -0.141 A  
HETATM   10  N   UNL     1      -8.208   8.867  66.165  1.00  0.00    -0.113 NA 
BRANCH   9  11
HETATM   11  C   UNL     1      -8.077   6.808  64.655  1.00  0.00    -0.086 C  
HETATM   12  H   UNL     1      -8.647   5.781  63.126  1.00  0.00     0.000 HD 
HETATM   13  O   UNL     1      -8.543   6.706  63.321  1.00  0.00     0.210 OA 
ENDBRANCH   9  11
BRANCH  10  14
HETATM   14  C   UNL     1      -8.932   8.269  67.286  1.00  0.00    -0.137 C  
BRANCH  14  15
HETATM   15  C   UNL     1      -9.768   9.235  68.084  1.00  0.00    -0.169 A  
HETATM   16  C   UNL     1     -10.943   9.772  67.552  1.00  0.00    -0.205 A  
HETATM   17  C   UNL     1     -11.747  10.638  68.308  1.00  0.00    -0.136 A  
HETATM   18  C   UNL     1     -11.378  11.058  69.595  1.00  0.00    -0.363 A  
HETATM   19  C   UNL     1     -10.215  10.479  70.131  1.00  0.00     0.081 A  
HETATM   20  C   UNL     1      -9.431   9.576  69.398  1.00  0.00    -0.182 A  
BRANCH  18  21
HETATM   21  C   UNL     1     -12.164  12.065  70.369  1.00  0.00    -0.379 A  
HETATM   22  C   UNL     1     -12.867  11.633  71.521  1.00  0.00    -0.469 A  
HETATM   23  C   UNL     1     -13.616  12.507  72.317  1.00  0.00    -0.443 A  
HETATM   24  C   UNL     1     -13.712  13.843  71.971  1.00  0.00    -0.577 A  
HETATM   25  C   UNL     1     -13.052  14.299  70.831  1.00  0.00    -0.368 A  
HETATM   26  C   UNL     1     -12.262  13.440  70.033  1.00  0.00    -0.367 A  
BRANCH  26  27
HETATM   27  C   UNL     1     -11.570  14.062  68.910  1.00  0.00    -0.315 A  
HETATM   28  N   UNL     1     -12.061  14.101  67.655  1.00  0.00    -0.358 NA 
HETATM   29  N   UNL     1     -11.075  14.760  67.034  1.00  0.00    -0.325 NA 
HETATM   30  N   UNL     1     -10.036  15.116  67.793  1.00  0.00    -0.230 NA 
HETATM   31  H   UNL     1     -11.115  14.977  66.038  1.00  0.00     0.000 HD 
HETATM   32  N   UNL     1     -10.354  14.697  69.010  1.00  0.00    -0.238 NA 
ENDBRANCH  26  27
ENDBRANCH  18  21
ENDBRANCH  14  15
ENDBRANCH  10  14
ENDBRANCH   4   5
ENDBRANCH   3   4
ENDBRANCH   2   3
TORSDOF 8
ENDMDL
MODEL      244
REMARK 921   NORMALIZED FREE ENERGY PREDICTED BY IDOCK:   -3.02 KCAL/MOL
REMARK 922        TOTAL FREE ENERGY PREDICTED BY IDOCK:   -5.46 KCAL/MOL
REMARK 923 INTER-LIGAND FREE ENERGY PREDICTED BY IDOCK:   -5.24 KCAL/MOL
REMARK 924 INTRA-LIGAND FREE ENERGY PREDICTED BY IDOCK:   -0.22 KCAL/MOL
REMARK 927      BINDING AFFINITY PREDICTED BY RF-SCORE:    0.00 PKD
ROOT
HETATM    1  C   UNL     1      -5.177  19.572  67.118  1.00  0.00    -0.161 C  
HETATM    2  C   UNL     1      -5.977  18.501  66.395  1.00  0.00    -0.188 C  
ENDROOT
BRANCH   2   3
HETATM    3  C   UNL     1      -6.909  19.105  65.340  1.00  0.00    -0.239 C  
BRANCH   3   4
HETATM    4  C   UNL     1      -7.953  20.071  65.913  1.00  0.00    -0.253 C  
BRANCH   4   5
HETATM    5  C   UNL     1      -8.882  19.427  66.895  1.00  0.00    -0.306 A  
HETATM    6  N   UNL     1      -9.055  19.887  68.119  1.00  0.00    -0.305 NA 
HETATM    7  C   UNL     1      -9.966  19.072  68.717  1.00  0.00    -0.411 A  
HETATM    8 CL   UNL     1     -10.476  19.314  70.322  1.00  0.00     0.990 Cl 
HETATM    9  C   UNL     1     -10.355  18.059  67.864  1.00  0.00    -0.392 A  
HETATM   10  N   UNL     1      -9.634  18.278  66.697  1.00  0.00    -0.303 NA 
BRANCH   9  11
HETATM   11  C   UNL     1     -11.293  16.944  68.113  1.00  0.00     0.043 C  
HETATM   12  H   UNL     1     -11.344  15.431  69.306  1.00  0.00     0.000 HD 
HETATM   13  O   UNL     1     -10.740  16.147  69.146  1.00  0.00    -0.250 OA 
ENDBRANCH   9  11
BRANCH  10  14
HETATM   14  C   UNL     1      -9.498  17.342  65.582  1.00  0.00     0.332 C  
BRANCH  14  15
HETATM   15  C   UNL     1      -9.451  15.890  65.980  1.00  0.00    -0.389 A  
HETATM   16  C   UNL     1      -8.392  15.391  66.743  1.00  0.00    -0.285 A  
HETATM   17  C   UNL     1      -8.366  14.050  67.152  1.00  0.00    -0.174 A  
HETATM   18  C   UNL     1      -9.355  13.135  66.759  1.00  0.00    -0.244 A  
HETATM   19  C   UNL     1     -10.434  13.660  66.025  1.00  0.00    -0.300 A  
HETATM   20  C   UNL     1     -10.489  15.011  65.653  1.00  0.00    -0.368 A  
BRANCH  18  21
HETATM   21  C   UNL     1      -9.284  11.681  67.091  1.00  0.00    -0.176 A  
HETATM   22  C   UNL     1      -9.114  11.306  68.447  1.00  0.00    -0.170 A  
HETATM   23  C   UNL     1      -9.053   9.969  68.855  1.00  0.00    -0.159 A  
HETATM   24  C   UNL     1      -9.133   8.957  67.914  1.00  0.00    -0.145 A  
HETATM   25  C   UNL     1      -9.278   9.289  66.569  1.00  0.00    -0.206 A  
HETATM   26  C   UNL     1      -9.376  10.633  66.139  1.00  0.00    -0.207 A  
BRANCH  26  27
HETATM   27  C   UNL     1      -9.597  10.837  64.712  1.00  0.00    -0.262 A  
HETATM   28  N   UNL     1      -8.603  10.945  63.807  1.00  0.00    -0.033 NA 
HETATM   29  N   UNL     1      -9.318  11.114  62.688  1.00  0.00    -0.481 NA 
HETATM   30  N   UNL     1     -10.644  11.123  62.833  1.00  0.00    -0.004 NA 
HETATM   31  H   UNL     1      -8.873  11.228  61.777  1.00  0.00     0.000 HD 
HETATM   32  N   UNL     1     -10.839  10.918  64.128  1.00  0.00    -0.192 NA 
ENDBRANCH  26  27
ENDBRANCH  18  21
ENDBRANCH  14  15
ENDBRANCH  10  14
ENDBRANCH   4   5
ENDBRANCH   3   4
ENDBRANCH   2   3
TORSDOF 8
ENDMDL
MODEL      245
REMARK 921   NORMALIZED FREE ENERGY PREDICTED BY IDOCK:   -3.01 KCAL/MOL
REMARK 922        TOTAL FREE ENERGY PREDICTED BY IDOCK:   -5.45 KCAL/MOL
REMARK 923 INTER-LIGAND FREE ENERGY PREDICTED BY IDOCK:   -6.31 KCAL/MOL
REMARK 924 INTRA-LIGAND FREE ENERGY PREDICTED BY IDOCK:    0.86 KCAL/MOL
REMARK 927      BINDING AFFINITY PREDICTED BY RF-SCORE:    0.00 PKD
ROOT
HETATM    1  C   UNL     1     -11.591  18.684  68.053  1.00  0.00     1.499 C  
HETATM    2  C   UNL     1     -10.244  19.183  68.552  1.00  0.00    -0.448 C  
ENDROOT
BRANCH   2   3
HETATM    3  C   UNL     1      -9.744  20.379  67.735  1.00  0.00    -0.487 C  
BRANCH   3   4
HETATM    4  C   UNL     1      -9.502  20.062  66.255  1.00  0.00    -0.485 C  
BRANCH   4   5
HETATM    5  C   UNL     1      -8.149  19.481  65.985  1.00  0.00    -0.291 A  
HETATM    6  N   UNL     1      -7.505  19.674  64.851  1.00  0.00     0.012 NA 
HETATM    7  C   UNL     1      -6.317  19.018  64.961  1.00  0.00    -0.248 A  
HETATM    8 CL   UNL     1      -5.173  19.008  63.701  1.00  0.00    -0.279 Cl 
HETATM    9  C   UNL     1      -6.221  18.372  66.177  1.00  0.00    -0.200 A  
HETATM   10  N   UNL     1      -7.417  18.655  66.826  1.00  0.00    -0.218 NA 
BRANCH   9  11
HETATM   11  C   UNL     1      -5.127  17.524  66.695  1.00  0.00    -0.169 C  
HETATM   12  H   UNL     1      -4.797  15.629  66.816  1.00  0.00     0.000 HD 
HETATM   13  O   UNL     1      -5.501  16.174  66.483  1.00  0.00    -0.095 OA 
ENDBRANCH   9  11
BRANCH  10  14
HETATM   14  C   UNL     1      -7.913  18.002  68.036  1.00  0.00    -0.255 C  
BRANCH  14  15
HETATM   15  C   UNL     1      -8.266  16.547  67.869  1.00  0.00    -0.172 A  
HETATM   16  C   UNL     1      -8.316  15.692  68.973  1.00  0.00    -0.235 A  
HETATM   17  C   UNL     1      -8.687  14.347  68.827  1.00  0.00    -0.129 A  
HETATM   18  C   UNL     1      -8.954  13.783  67.570  1.00  0.00    -0.201 A  
HETATM   19  C   UNL     1      -8.938  14.665  66.475  1.00  0.00    -0.236 A  
HETATM   20  C   UNL     1      -8.613  16.021  66.621  1.00  0.00    -0.316 A  
BRANCH  18  21
HETATM   21  C   UNL     1      -9.241  12.330  67.385  1.00  0.00    -0.182 A  
HETATM   22  C   UNL     1      -8.477  11.391  68.122  1.00  0.00    -0.152 A  
HETATM   23  C   UNL     1      -8.685  10.011  68.027  1.00  0.00    -0.125 A  
HETATM   24  C   UNL     1      -9.650   9.518  67.166  1.00  0.00    -0.206 A  
HETATM   25  C   UNL     1     -10.405  10.410  66.407  1.00  0.00    -0.278 A  
HETATM   26  C   UNL     1     -10.234  11.810  66.515  1.00  0.00    -0.240 A  
BRANCH  26  27
HETATM   27  C   UNL     1     -11.138  12.630  65.718  1.00  0.00    -0.297 A  
HETATM   28  N   UNL     1     -12.178  13.316  66.231  1.00  0.00    -0.401 NA 
HETATM   29  N   UNL     1     -12.664  13.881  65.119  1.00  0.00    -0.689 NA 
HETATM   30  N   UNL     1     -12.019  13.598  63.986  1.00  0.00    -0.446 NA 
HETATM   31  H   UNL     1     -13.480  14.493  65.137  1.00  0.00     0.000 HD 
HETATM   32  N   UNL     1     -11.017  12.814  64.360  1.00  0.00    -0.338 NA 
ENDBRANCH  26  27
ENDBRANCH  18  21
ENDBRANCH  14  15
ENDBRANCH  10  14
ENDBRANCH   4   5
ENDBRANCH   3   4
ENDBRANCH   2   3
TORSDOF 8
ENDMDL
MODEL      246
REMARK 921   NORMALIZED FREE ENERGY PREDICTED BY IDOCK:   -2.94 KCAL/MOL
REMARK 922        TOTAL FREE ENERGY PREDICTED BY IDOCK:   -5.35 KCAL/MOL
REMARK 923 INTER-LIGAND FREE ENERGY PREDICTED BY IDOCK:   -6.40 KCAL/MOL
REMARK 924 INTRA-LIGAND FREE ENERGY PREDICTED BY IDOCK:    1.06 KCAL/MOL
REMARK 927      BINDING AFFINITY PREDICTED BY RF-SCORE:    0.00 PKD
ROOT
HETATM    1  C   UNL     1      -9.203   6.037  65.964  1.00  0.00    -0.129 C  
HETATM    2  C   UNL     1      -9.121   5.925  67.478  1.00  0.00    -0.106 C  
ENDROOT
BRANCH   2   3
HETATM    3  C   UNL     1     -10.323   5.172  68.057  1.00  0.00    -0.142 C  
BRANCH   3   4
HETATM    4  C   UNL     1     -11.250   6.045  68.910  1.00  0.00    -0.246 C  
BRANCH   4   5
HETATM    5  C   UNL     1     -10.554   7.213  69.539  1.00  0.00    -0.234 A  
HETATM    6  N   UNL     1     -10.166   7.216  70.799  1.00  0.00    -0.198 NA 
HETATM    7  C   UNL     1      -9.567   8.418  71.019  1.00  0.00    -0.169 A  
HETATM    8 CL   UNL     1      -8.919   8.839  72.535  1.00  0.00    -0.152 Cl 
HETATM    9  C   UNL     1      -9.603   9.202  69.883  1.00  0.00    -0.192 A  
HETATM   10  N   UNL     1     -10.262   8.428  68.936  1.00  0.00    -0.207 NA 
BRANCH   9  11
HETATM   11  C   UNL     1      -9.102  10.579  69.689  1.00  0.00     0.053 C  
HETATM   12  H   UNL     1      -7.368  11.420  69.668  1.00  0.00     0.000 HD 
HETATM   13  O   UNL     1      -7.690  10.535  69.793  1.00  0.00    -0.149 OA 
ENDBRANCH   9  11
BRANCH  10  14
HETATM   14  C   UNL     1     -10.776   8.897  67.651  1.00  0.00    -0.151 C  
BRANCH  14  15
HETATM   15  C   UNL     1     -10.723  10.390  67.456  1.00  0.00    -0.339 A  
HETATM   16  C   UNL     1     -11.700  11.219  68.012  1.00  0.00    -0.305 A  
HETATM   17  C   UNL     1     -11.631  12.612  67.870  1.00  0.00    -0.401 A  
HETATM   18  C   UNL     1     -10.626  13.231  67.109  1.00  0.00    -0.259 A  
HETATM   19  C   UNL     1      -9.629  12.387  66.588  1.00  0.00    -0.230 A  
HETATM   20  C   UNL     1      -9.668  10.997  66.767  1.00  0.00    -0.222 A  
BRANCH  18  21
HETATM   21  C   UNL     1     -10.601  14.702  66.854  1.00  0.00    -0.281 A  
HETATM   22  C   UNL     1     -10.263  15.157  65.556  1.00  0.00    -0.405 A  
HETATM   23  C   UNL     1     -10.229  16.515  65.220  1.00  0.00    -0.062 A  
HETATM   24  C   UNL     1     -10.507  17.470  66.182  1.00  0.00    -0.288 A  
HETATM   25  C   UNL     1     -10.822  17.060  67.476  1.00  0.00    -0.203 A  
HETATM   26  C   UNL     1     -10.895  15.692  67.827  1.00  0.00    -0.307 A  
BRANCH  26  27
HETATM   27  C   UNL     1     -11.305  15.402  69.196  1.00  0.00    -0.315 A  
HETATM   28  N   UNL     1     -12.586  15.413  69.615  1.00  0.00    -0.133 NA 
HETATM   29  N   UNL     1     -12.419  15.091  70.903  1.00  0.00    -0.317 NA 
HETATM   30  N   UNL     1     -11.161  14.892  71.302  1.00  0.00    -0.210 NA 
HETATM   31  H   UNL     1     -13.208  15.003  71.543  1.00  0.00     0.000 HD 
HETATM   32  N   UNL     1     -10.434  15.062  70.206  1.00  0.00    -0.105 NA 
ENDBRANCH  26  27
ENDBRANCH  18  21
ENDBRANCH  14  15
ENDBRANCH  10  14
ENDBRANCH   4   5
ENDBRANCH   3   4
ENDBRANCH   2   3
TORSDOF 8
ENDMDL
MODEL      247
REMARK 921   NORMALIZED FREE ENERGY PREDICTED BY IDOCK:   -2.90 KCAL/MOL
REMARK 922        TOTAL FREE ENERGY PREDICTED BY IDOCK:   -5.28 KCAL/MOL
REMARK 923 INTER-LIGAND FREE ENERGY PREDICTED BY IDOCK:   -4.94 KCAL/MOL
REMARK 924 INTRA-LIGAND FREE ENERGY PREDICTED BY IDOCK:   -0.34 KCAL/MOL
REMARK 927      BINDING AFFINITY PREDICTED BY RF-SCORE:    0.00 PKD
ROOT
HETATM    1  C   UNL     1      -6.184   4.805  72.495  1.00  0.00    -0.026 C  
HETATM    2  C   UNL     1      -5.627   4.632  71.092  1.00  0.00    -0.012 C  
ENDROOT
BRANCH   2   3
HETATM    3  C   UNL     1      -6.460   5.392  70.054  1.00  0.00    -0.031 C  
BRANCH   3   4
HETATM    4  C   UNL     1      -5.864   5.369  68.641  1.00  0.00    -0.016 C  
BRANCH   4   5
HETATM    5  C   UNL     1      -6.839   5.772  67.578  1.00  0.00    -0.060 A  
HETATM    6  N   UNL     1      -7.401   4.902  66.762  1.00  0.00    -0.084 NA 
HETATM    7  C   UNL     1      -8.229   5.612  65.947  1.00  0.00    -0.119 A  
HETATM    8 CL   UNL     1      -9.155   4.865  64.731  1.00  0.00    -0.134 Cl 
HETATM    9  C   UNL     1      -8.165   6.961  66.234  1.00  0.00    -0.117 A  
HETATM   10  N   UNL     1      -7.248   7.062  67.273  1.00  0.00    -0.087 NA 
BRANCH   9  11
HETATM   11  C   UNL     1      -8.866   8.084  65.577  1.00  0.00    -0.061 C  
HETATM   12  H   UNL     1      -8.552   9.181  64.024  1.00  0.00     0.000 HD 
HETATM   13  O   UNL     1      -8.100   8.459  64.446  1.00  0.00    -0.151 OA 
ENDBRANCH   9  11
BRANCH  10  14
HETATM   14  C   UNL     1      -6.642   8.297  67.767  1.00  0.00    -0.061 C  
BRANCH  14  15
HETATM   15  C   UNL     1      -7.595   9.456  67.907  1.00  0.00    -0.087 A  
HETATM   16  C   UNL     1      -8.752   9.340  68.681  1.00  0.00    -0.132 A  
HETATM   17  C   UNL     1      -9.619  10.429  68.850  1.00  0.00    -0.197 A  
HETATM   18  C   UNL     1      -9.407  11.654  68.198  1.00  0.00    -0.188 A  
HETATM   19  C   UNL     1      -8.219  11.767  67.455  1.00  0.00    -0.152 A  
HETATM   20  C   UNL     1      -7.324  10.696  67.321  1.00  0.00    -0.092 A  
BRANCH  18  21
HETATM   21  C   UNL     1     -10.378  12.786  68.277  1.00  0.00    -0.248 A  
HETATM   22  C   UNL     1     -10.761  13.259  69.557  1.00  0.00     0.211 A  
HETATM   23  C   UNL     1     -11.652  14.324  69.729  1.00  0.00    -0.350 A  
HETATM   24  C   UNL     1     -12.213  14.938  68.623  1.00  0.00    -0.101 A  
HETATM   25  C   UNL     1     -11.877  14.485  67.349  1.00  0.00    -0.416 A  
HETATM   26  C   UNL     1     -10.953  13.432  67.153  1.00  0.00    -0.292 A  
BRANCH  26  27
HETATM   27  C   UNL     1     -10.637  13.105  65.767  1.00  0.00    -0.282 A  
HETATM   28  N   UNL     1      -9.941  13.915  64.945  1.00  0.00    -0.245 NA 
HETATM   29  N   UNL     1      -9.930  13.172  63.832  1.00  0.00    -0.745 NA 
HETATM   30  N   UNL     1     -10.556  11.996  63.903  1.00  0.00    -0.358 NA 
HETATM   31  H   UNL     1      -9.469  13.487  62.978  1.00  0.00     0.000 HD 
HETATM   32  N   UNL     1     -10.993  11.927  65.153  1.00  0.00    -0.306 NA 
ENDBRANCH  26  27
ENDBRANCH  18  21
ENDBRANCH  14  15
ENDBRANCH  10  14
ENDBRANCH   4   5
ENDBRANCH   3   4
ENDBRANCH   2   3
TORSDOF 8
ENDMDL
MODEL      248
REMARK 921   NORMALIZED FREE ENERGY PREDICTED BY IDOCK:   -2.89 KCAL/MOL
REMARK 922        TOTAL FREE ENERGY PREDICTED BY IDOCK:   -5.26 KCAL/MOL
REMARK 923 INTER-LIGAND FREE ENERGY PREDICTED BY IDOCK:   -4.64 KCAL/MOL
REMARK 924 INTRA-LIGAND FREE ENERGY PREDICTED BY IDOCK:   -0.62 KCAL/MOL
REMARK 927      BINDING AFFINITY PREDICTED BY RF-SCORE:    0.00 PKD
ROOT
HETATM    1  C   UNL     1     -10.751  19.160  65.953  1.00  0.00    -0.435 C  
HETATM    2  C   UNL     1      -9.608  20.151  65.805  1.00  0.00    -0.185 C  
ENDROOT
BRANCH   2   3
HETATM    3  C   UNL     1      -8.943  20.455  67.152  1.00  0.00    -0.453 C  
BRANCH   3   4
HETATM    4  C   UNL     1      -7.417  20.576  67.077  1.00  0.00    -0.362 C  
BRANCH   4   5
HETATM    5  C   UNL     1      -6.718  20.041  68.289  1.00  0.00    -0.289 A  
HETATM    6  N   UNL     1      -6.374  20.806  69.307  1.00  0.00    -0.115 NA 
HETATM    7  C   UNL     1      -5.780  19.991  70.222  1.00  0.00    -0.304 A  
HETATM    8 CL   UNL     1      -5.178  20.583  71.699  1.00  0.00    -0.327 Cl 
HETATM    9  C   UNL     1      -5.720  18.692  69.759  1.00  0.00    -0.244 A  
HETATM   10  N   UNL     1      -6.307  18.734  68.501  1.00  0.00    -0.222 NA 
BRANCH   9  11
HETATM   11  C   UNL     1      -5.132  17.502  70.409  1.00  0.00    -0.240 C  
HETATM   12  H   UNL     1      -5.811  16.028  71.450  1.00  0.00     0.000 HD 
HETATM   13  O   UNL     1      -6.189  16.794  71.032  1.00  0.00     0.813 OA 
ENDBRANCH   9  11
BRANCH  10  14
HETATM   14  C   UNL     1      -6.263  17.672  67.497  1.00  0.00    -0.157 C  
BRANCH  14  15
HETATM   15  C   UNL     1      -7.298  16.591  67.675  1.00  0.00    -0.159 A  
HETATM   16  C   UNL     1      -7.965  16.434  68.893  1.00  0.00    -0.236 A  
HETATM   17  C   UNL     1      -8.959  15.458  69.051  1.00  0.00    -0.230 A  
HETATM   18  C   UNL     1      -9.279  14.553  68.026  1.00  0.00    -0.190 A  
HETATM   19  C   UNL     1      -8.627  14.749  66.796  1.00  0.00    -0.226 A  
HETATM   20  C   UNL     1      -7.666  15.754  66.618  1.00  0.00    -0.140 A  
BRANCH  18  21
HETATM   21  C   UNL     1     -10.254  13.438  68.214  1.00  0.00    -0.250 A  
HETATM   22  C   UNL     1     -11.601  13.761  68.511  1.00  0.00    -0.373 A  
HETATM   23  C   UNL     1     -12.587  12.784  68.687  1.00  0.00     0.810 A  
HETATM   24  C   UNL     1     -12.254  11.445  68.599  1.00  0.00    -0.038 A  
HETATM   25  C   UNL     1     -10.933  11.089  68.330  1.00  0.00    -0.287 A  
HETATM   26  C   UNL     1      -9.929  12.061  68.115  1.00  0.00    -0.203 A  
BRANCH  26  27
HETATM   27  C   UNL     1      -8.606  11.551  67.772  1.00  0.00    -0.138 A  
HETATM   28  N   UNL     1      -8.261  11.126  66.541  1.00  0.00    -0.164 NA 
HETATM   29  N   UNL     1      -6.988  10.776  66.757  1.00  0.00    -0.111 NA 
HETATM   30  N   UNL     1      -6.534  10.946  68.000  1.00  0.00    -0.058 NA 
HETATM   31  H   UNL     1      -6.398  10.402  66.013  1.00  0.00     0.000 HD 
HETATM   32  N   UNL     1      -7.558  11.470  68.659  1.00  0.00    -0.128 NA 
ENDBRANCH  26  27
ENDBRANCH  18  21
ENDBRANCH  14  15
ENDBRANCH  10  14
ENDBRANCH   4   5
ENDBRANCH   3   4
ENDBRANCH   2   3
TORSDOF 8
ENDMDL
MODEL      249
REMARK 921   NORMALIZED FREE ENERGY PREDICTED BY IDOCK:   -2.86 KCAL/MOL
REMARK 922        TOTAL FREE ENERGY PREDICTED BY IDOCK:   -5.22 KCAL/MOL
REMARK 923 INTER-LIGAND FREE ENERGY PREDICTED BY IDOCK:   -4.46 KCAL/MOL
REMARK 924 INTRA-LIGAND FREE ENERGY PREDICTED BY IDOCK:   -0.76 KCAL/MOL
REMARK 927      BINDING AFFINITY PREDICTED BY RF-SCORE:    0.00 PKD
ROOT
HETATM    1  C   UNL     1      -7.050  14.687  69.247  1.00  0.00    -0.150 C  
HETATM    2  C   UNL     1      -6.634  13.286  68.828  1.00  0.00    -0.099 C  
ENDROOT
BRANCH   2   3
HETATM    3  C   UNL     1      -7.795  12.293  68.941  1.00  0.00     0.091 C  
BRANCH   3   4
HETATM    4  C   UNL     1      -7.352  10.831  69.068  1.00  0.00    -0.109 C  
BRANCH   4   5
HETATM    5  C   UNL     1      -8.297   9.991  69.871  1.00  0.00    -0.151 A  
HETATM    6  N   UNL     1      -8.035   9.605  71.104  1.00  0.00    -0.189 NA 
HETATM    7  C   UNL     1      -9.107   8.877  71.521  1.00  0.00    -0.229 A  
HETATM    8 CL   UNL     1      -9.177   8.182  73.072  1.00  0.00    -0.336 Cl 
HETATM    9  C   UNL     1     -10.053   8.775  70.520  1.00  0.00    -0.195 A  
HETATM   10  N   UNL     1      -9.515   9.477  69.448  1.00  0.00    -0.167 NA 
BRANCH   9  11
HETATM   11  C   UNL     1     -11.343   8.054  70.531  1.00  0.00    -0.225 C  
HETATM   12  H   UNL     1     -11.915   6.267  70.971  1.00  0.00     0.000 HD 
HETATM   13  O   UNL     1     -11.085   6.730  70.964  1.00  0.00    -0.250 OA 
ENDBRANCH   9  11
BRANCH  10  14
HETATM   14  C   UNL     1     -10.009   9.456  68.073  1.00  0.00    -0.176 C  
BRANCH  14  15
HETATM   15  C   UNL     1      -9.331   8.456  67.173  1.00  0.00    -0.192 A  
HETATM   16  C   UNL     1      -8.840   7.252  67.685  1.00  0.00    -0.123 A  
HETATM   17  C   UNL     1      -8.247   6.299  66.844  1.00  0.00    -0.109 A  
HETATM   18  C   UNL     1      -8.055   6.536  65.473  1.00  0.00    -0.127 A  
HETATM   19  C   UNL     1      -8.589   7.734  64.967  1.00  0.00     0.015 A  
HETATM   20  C   UNL     1      -9.225   8.670  65.795  1.00  0.00    -0.245 A  
BRANCH  18  21
HETATM   21  C   UNL     1      -7.327   5.582  64.586  1.00  0.00    -0.064 A  
HETATM   22  C   UNL     1      -5.920   5.704  64.474  1.00  0.00    -0.025 A  
HETATM   23  C   UNL     1      -5.151   4.845  63.680  1.00  0.00    -0.009 A  
HETATM   24  C   UNL     1      -5.768   3.847  62.947  1.00  0.00    -0.013 A  
HETATM   25  C   UNL     1      -7.154   3.711  63.015  1.00  0.00    -0.048 A  
HETATM   26  C   UNL     1      -7.945   4.547  63.838  1.00  0.00    -0.093 A  
BRANCH  26  27
HETATM   27  C   UNL     1      -9.372   4.250  63.871  1.00  0.00    -0.138 A  
HETATM   28  N   UNL     1     -10.136   4.357  64.977  1.00  0.00    -0.177 NA 
HETATM   29  N   UNL     1     -11.323   3.984  64.484  1.00  0.00    -0.776 NA 
HETATM   30  N   UNL     1     -11.347   3.658  63.190  1.00  0.00     0.017 NA 
HETATM   31  H   UNL     1     -12.161   3.951  65.064  1.00  0.00     0.000 HD 
HETATM   32  N   UNL     1     -10.102   3.851  62.775  1.00  0.00    -0.166 NA 
ENDBRANCH  26  27
ENDBRANCH  18  21
ENDBRANCH  14  15
ENDBRANCH  10  14
ENDBRANCH   4   5
ENDBRANCH   3   4
ENDBRANCH   2   3
TORSDOF 8
ENDMDL
MODEL      250
REMARK 921   NORMALIZED FREE ENERGY PREDICTED BY IDOCK:   -2.82 KCAL/MOL
REMARK 922        TOTAL FREE ENERGY PREDICTED BY IDOCK:   -5.17 KCAL/MOL
REMARK 923 INTER-LIGAND FREE ENERGY PREDICTED BY IDOCK:   -5.50 KCAL/MOL
REMARK 924 INTRA-LIGAND FREE ENERGY PREDICTED BY IDOCK:    0.33 KCAL/MOL
REMARK 927      BINDING AFFINITY PREDICTED BY RF-SCORE:    0.00 PKD
ROOT
HETATM    1  C   UNL     1      -5.526  19.119  67.522  1.00  0.00    -0.170 C  
HETATM    2  C   UNL     1      -6.073  17.781  67.991  1.00  0.00    -0.164 C  
ENDROOT
BRANCH   2   3
HETATM    3  C   UNL     1      -6.813  17.046  66.868  1.00  0.00    -0.247 C  
BRANCH   3   4
HETATM    4  C   UNL     1      -8.290  17.437  66.738  1.00  0.00    -0.276 C  
BRANCH   4   5
HETATM    5  C   UNL     1      -9.192  16.661  67.647  1.00  0.00    -0.208 A  
HETATM    6  N   UNL     1      -9.512  17.077  68.857  1.00  0.00    -0.259 NA 
HETATM    7  C   UNL     1     -10.347  16.140  69.383  1.00  0.00    -0.277 A  
HETATM    8 CL   UNL     1     -10.999  16.289  70.948  1.00  0.00    -0.143 Cl 
HETATM    9  C   UNL     1     -10.535  15.095  68.500  1.00  0.00    -0.233 A  
HETATM   10  N   UNL     1      -9.768  15.426  67.389  1.00  0.00    -0.214 NA 
BRANCH   9  11
HETATM   11  C   UNL     1     -11.330  13.863  68.675  1.00  0.00    -0.278 C  
HETATM   12  H   UNL     1     -12.799  13.323  69.800  1.00  0.00     0.000 HD 
HETATM   13  O   UNL     1     -12.287  14.116  69.688  1.00  0.00    -0.326 OA 
ENDBRANCH   9  11
BRANCH  10  14
HETATM   14  C   UNL     1      -9.428  14.532  66.283  1.00  0.00    -0.283 C  
BRANCH  14  15
HETATM   15  C   UNL     1      -9.338  13.075  66.654  1.00  0.00    -0.242 A  
HETATM   16  C   UNL     1      -8.504  12.651  67.691  1.00  0.00    -0.173 A  
HETATM   17  C   UNL     1      -8.449  11.301  68.068  1.00  0.00    -0.138 A  
HETATM   18  C   UNL     1      -9.169  10.310  67.383  1.00  0.00    -0.155 A  
HETATM   19  C   UNL     1     -10.033  10.757  66.367  1.00  0.00    -0.264 A  
HETATM   20  C   UNL     1     -10.127  12.111  66.017  1.00  0.00    -0.259 A  
BRANCH  18  21
HETATM   21  C   UNL     1      -9.037   8.857  67.698  1.00  0.00    -0.144 A  
HETATM   22  C   UNL     1      -9.567   8.381  68.923  1.00  0.00    -0.153 A  
HETATM   23  C   UNL     1      -9.504   7.034  69.297  1.00  0.00    -0.147 A  
HETATM   24  C   UNL     1      -8.883   6.117  68.468  1.00  0.00    -0.113 A  
HETATM   25  C   UNL     1      -8.330   6.553  67.265  1.00  0.00    -0.113 A  
HETATM   26  C   UNL     1      -8.413   7.904  66.853  1.00  0.00    -0.128 A  
BRANCH  26  27
HETATM   27  C   UNL     1      -7.855   8.210  65.541  1.00  0.00    -0.104 A  
HETATM   28  N   UNL     1      -8.519   8.026  64.382  1.00  0.00    -0.008 NA 
HETATM   29  N   UNL     1      -7.596   8.448  63.509  1.00  0.00    -0.125 NA 
HETATM   30  N   UNL     1      -6.440   8.862  64.030  1.00  0.00    -0.082 NA 
HETATM   31  H   UNL     1      -7.767   8.452  62.504  1.00  0.00     0.000 HD 
HETATM   32  N   UNL     1      -6.602   8.740  65.340  1.00  0.00    -0.067 NA 
ENDBRANCH  26  27
ENDBRANCH  18  21
ENDBRANCH  14  15
ENDBRANCH  10  14
ENDBRANCH   4   5
ENDBRANCH   3   4
ENDBRANCH   2   3
TORSDOF 8
ENDMDL
MODEL      251
REMARK 921   NORMALIZED FREE ENERGY PREDICTED BY IDOCK:   -2.75 KCAL/MOL
REMARK 922        TOTAL FREE ENERGY PREDICTED BY IDOCK:   -5.06 KCAL/MOL
REMARK 923 INTER-LIGAND FREE ENERGY PREDICTED BY IDOCK:   -4.20 KCAL/MOL
REMARK 924 INTRA-LIGAND FREE ENERGY PREDICTED BY IDOCK:   -0.87 KCAL/MOL
REMARK 927      BINDING AFFINITY PREDICTED BY RF-SCORE:    0.00 PKD
ROOT
HETATM    1  C   UNL     1      -5.746   5.759  73.308  1.00  0.00    -0.036 C  
HETATM    2  C   UNL     1      -5.155   5.273  71.995  1.00  0.00    -0.005 C  
ENDROOT
BRANCH   2   3
HETATM    3  C   UNL     1      -5.964   5.768  70.792  1.00  0.00    -0.029 C  
BRANCH   3   4
HETATM    4  C   UNL     1      -5.569   5.110  69.465  1.00  0.00    -0.011 C  
BRANCH   4   5
HETATM    5  C   UNL     1      -6.745   4.698  68.634  1.00  0.00    -0.050 A  
HETATM    6  N   UNL     1      -7.428   3.593  68.865  1.00  0.00    -0.053 NA 
HETATM    7  C   UNL     1      -8.421   3.547  67.935  1.00  0.00    -0.094 A  
HETATM    8 CL   UNL     1      -9.542   2.268  67.875  1.00  0.00    -0.167 Cl 
HETATM    9  C   UNL     1      -8.346   4.628  67.080  1.00  0.00    -0.105 A  
HETATM   10  N   UNL     1      -7.248   5.357  67.521  1.00  0.00    -0.074 NA 
BRANCH   9  11
HETATM   11  C   UNL     1      -9.198   4.953  65.917  1.00  0.00    -0.155 C  
HETATM   12  H   UNL     1     -10.997   5.600  65.669  1.00  0.00     0.000 HD 
HETATM   13  O   UNL     1     -10.449   5.391  66.417  1.00  0.00    -0.254 OA 
ENDBRANCH   9  11
BRANCH  10  14
HETATM   14  C   UNL     1      -6.598   6.450  66.802  1.00  0.00    -0.051 C  
BRANCH  14  15
HETATM   15  C   UNL     1      -7.372   7.743  66.785  1.00  0.00    -0.089 A  
HETATM   16  C   UNL     1      -7.893   8.280  67.965  1.00  0.00    -0.118 A  
HETATM   17  C   UNL     1      -8.577   9.504  67.961  1.00  0.00    -0.120 A  
HETATM   18  C   UNL     1      -8.830  10.208  66.773  1.00  0.00    -0.143 A  
HETATM   19  C   UNL     1      -8.265   9.676  65.600  1.00  0.00    -0.121 A  
HETATM   20  C   UNL     1      -7.540   8.475  65.606  1.00  0.00    -0.090 A  
BRANCH  18  21
HETATM   21  C   UNL     1      -9.651  11.454  66.736  1.00  0.00    -0.207 A  
HETATM   22  C   UNL     1     -11.027  11.347  66.411  1.00  0.00    -0.315 A  
HETATM   23  C   UNL     1     -11.877  12.457  66.368  1.00  0.00    -0.421 A  
HETATM   24  C   UNL     1     -11.375  13.721  66.622  1.00  0.00    -0.340 A  
HETATM   25  C   UNL     1     -10.022  13.867  66.923  1.00  0.00    -0.264 A  
HETATM   26  C   UNL     1      -9.153  12.755  67.005  1.00  0.00    -0.220 A  
BRANCH  26  27
HETATM   27  C   UNL     1      -7.778  13.042  67.398  1.00  0.00    -0.155 A  
HETATM   28  N   UNL     1      -6.715  12.322  66.989  1.00  0.00    -0.096 NA 
HETATM   29  N   UNL     1      -5.728  12.978  67.611  1.00  0.00    -0.210 NA 
HETATM   30  N   UNL     1      -6.095  14.021  68.358  1.00  0.00    -0.091 NA 
HETATM   31  H   UNL     1      -4.752  12.698  67.518  1.00  0.00     0.000 HD 
HETATM   32  N   UNL     1      -7.411  14.091  68.209  1.00  0.00    -0.111 NA 
ENDBRANCH  26  27
ENDBRANCH  18  21
ENDBRANCH  14  15
ENDBRANCH  10  14
ENDBRANCH   4   5
ENDBRANCH   3   4
ENDBRANCH   2   3
TORSDOF 8
ENDMDL
MODEL      252
REMARK 921   NORMALIZED FREE ENERGY PREDICTED BY IDOCK:   -2.73 KCAL/MOL
REMARK 922        TOTAL FREE ENERGY PREDICTED BY IDOCK:   -5.04 KCAL/MOL
REMARK 923 INTER-LIGAND FREE ENERGY PREDICTED BY IDOCK:   -3.83 KCAL/MOL
REMARK 924 INTRA-LIGAND FREE ENERGY PREDICTED BY IDOCK:   -1.21 KCAL/MOL
REMARK 927      BINDING AFFINITY PREDICTED BY RF-SCORE:    0.00 PKD
ROOT
HETATM    1  C   UNL     1      -9.576  11.355  68.761  1.00  0.00    -0.139 C  
HETATM    2  C   UNL     1     -10.056  10.236  69.670  1.00  0.00    -0.257 C  
ENDROOT
BRANCH   2   3
HETATM    3  C   UNL     1      -9.691   8.856  69.112  1.00  0.00    -0.168 C  
BRANCH   3   4
HETATM    4  C   UNL     1     -10.503   7.706  69.719  1.00  0.00    -0.232 C  
BRANCH   4   5
HETATM    5  C   UNL     1      -9.836   7.064  70.896  1.00  0.00    -0.185 A  
HETATM    6  N   UNL     1      -9.312   7.761  71.885  1.00  0.00    -0.147 NA 
HETATM    7  C   UNL     1      -8.811   6.860  72.773  1.00  0.00    -0.120 A  
HETATM    8 CL   UNL     1      -8.036   7.345  74.209  1.00  0.00    -0.174 Cl 
HETATM    9  C   UNL     1      -8.994   5.568  72.322  1.00  0.00    -0.139 A  
HETATM   10  N   UNL     1      -9.636   5.706  71.098  1.00  0.00    -0.165 NA 
BRANCH   9  11
HETATM   11  C   UNL     1      -8.577   4.297  72.950  1.00  0.00    -0.101 C  
HETATM   12  H   UNL     1      -9.379   3.039  74.169  1.00  0.00     0.000 HD 
HETATM   13  O   UNL     1      -9.647   3.856  73.766  1.00  0.00    -0.105 OA 
ENDBRANCH   9  11
BRANCH  10  14
HETATM   14  C   UNL     1      -9.826   4.651  70.104  1.00  0.00    -0.236 C  
BRANCH  14  15
HETATM   15  C   UNL     1      -9.148   4.900  68.782  1.00  0.00    -0.147 A  
HETATM   16  C   UNL     1      -9.860   4.799  67.583  1.00  0.00    -0.201 A  
HETATM   17  C   UNL     1      -9.244   5.072  66.354  1.00  0.00    -0.139 A  
HETATM   18  C   UNL     1      -7.879   5.386  66.261  1.00  0.00    -0.100 A  
HETATM   19  C   UNL     1      -7.186   5.521  67.477  1.00  0.00    -0.075 A  
HETATM   20  C   UNL     1      -7.809   5.295  68.713  1.00  0.00    -0.083 A  
BRANCH  18  21
HETATM   21  C   UNL     1      -7.182   5.569  64.953  1.00  0.00    -0.062 A  
HETATM   22  C   UNL     1      -6.530   4.453  64.373  1.00  0.00    -0.038 A  
HETATM   23  C   UNL     1      -5.866   4.525  63.143  1.00  0.00    -0.017 A  
HETATM   24  C   UNL     1      -5.808   5.728  62.461  1.00  0.00    -0.018 A  
HETATM   25  C   UNL     1      -6.419   6.853  63.013  1.00  0.00    -0.043 A  
HETATM   26  C   UNL     1      -7.124   6.793  64.237  1.00  0.00    -0.061 A  
BRANCH  26  27
HETATM   27  C   UNL     1      -7.775   8.026  64.664  1.00  0.00    -0.126 A  
HETATM   28  N   UNL     1      -8.523   8.799  63.851  1.00  0.00    -0.142 NA 
HETATM   29  N   UNL     1      -8.875   9.769  64.703  1.00  0.00    -0.196 NA 
HETATM   30  N   UNL     1      -8.408   9.657  65.949  1.00  0.00    -0.118 NA 
HETATM   31  H   UNL     1      -9.466  10.550  64.417  1.00  0.00     0.000 HD 
HETATM   32  N   UNL     1      -7.720   8.523  65.945  1.00  0.00    -0.095 NA 
ENDBRANCH  26  27
ENDBRANCH  18  21
ENDBRANCH  14  15
ENDBRANCH  10  14
ENDBRANCH   4   5
ENDBRANCH   3   4
ENDBRANCH   2   3
TORSDOF 8
ENDMDL
MODEL      253
REMARK 921   NORMALIZED FREE ENERGY PREDICTED BY IDOCK:   -2.71 KCAL/MOL
REMARK 922        TOTAL FREE ENERGY PREDICTED BY IDOCK:   -5.01 KCAL/MOL
REMARK 923 INTER-LIGAND FREE ENERGY PREDICTED BY IDOCK:   -5.13 KCAL/MOL
REMARK 924 INTRA-LIGAND FREE ENERGY PREDICTED BY IDOCK:    0.11 KCAL/MOL
REMARK 927      BINDING AFFINITY PREDICTED BY RF-SCORE:    0.00 PKD
ROOT
HETATM    1  C   UNL     1     -10.738  19.416  65.870  1.00  0.00    -0.501 C  
HETATM    2  C   UNL     1      -9.394  20.125  65.842  1.00  0.00    -0.206 C  
ENDROOT
BRANCH   2   3
HETATM    3  C   UNL     1      -8.729  20.133  67.223  1.00  0.00    -0.429 C  
BRANCH   3   4
HETATM    4  C   UNL     1      -7.215  19.892  67.184  1.00  0.00    -0.272 C  
BRANCH   4   5
HETATM    5  C   UNL     1      -6.679  19.284  68.444  1.00  0.00    -0.263 A  
HETATM    6  N   UNL     1      -6.567  19.962  69.569  1.00  0.00    -0.345 NA 
HETATM    7  C   UNL     1      -6.061  19.100  70.494  1.00  0.00    -0.031 A  
HETATM    8 CL   UNL     1      -5.755  19.578  72.098  1.00  0.00    -0.123 Cl 
HETATM    9  C   UNL     1      -5.821  17.862  69.934  1.00  0.00    -0.237 A  
HETATM   10  N   UNL     1      -6.200  17.992  68.604  1.00  0.00    -0.200 NA 
BRANCH   9  11
HETATM   11  C   UNL     1      -5.249  16.653  70.564  1.00  0.00    -0.217 C  
HETATM   12  H   UNL     1      -5.904  14.897  71.014  1.00  0.00     0.000 HD 
HETATM   13  O   UNL     1      -6.272  15.675  70.609  1.00  0.00     0.044 OA 
ENDBRANCH   9  11
BRANCH  10  14
HETATM   14  C   UNL     1      -5.908  17.044  67.530  1.00  0.00    -0.140 C  
BRANCH  14  15
HETATM   15  C   UNL     1      -7.092  16.239  67.060  1.00  0.00    -0.259 A  
HETATM   16  C   UNL     1      -8.066  16.813  66.239  1.00  0.00    -0.365 A  
HETATM   17  C   UNL     1      -9.147  16.057  65.764  1.00  0.00    -0.168 A  
HETATM   18  C   UNL     1      -9.339  14.719  66.143  1.00  0.00    -0.292 A  
HETATM   19  C   UNL     1      -8.331  14.145  66.937  1.00  0.00    -0.062 A  
HETATM   20  C   UNL     1      -7.223  14.884  67.377  1.00  0.00    -0.213 A  
BRANCH  18  21
HETATM   21  C   UNL     1     -10.542  13.933  65.737  1.00  0.00    -0.300 A  
HETATM   22  C   UNL     1     -11.823  14.498  65.954  1.00  0.00    -0.334 A  
HETATM   23  C   UNL     1     -13.005  13.843  65.591  1.00  0.00    -0.361 A  
HETATM   24  C   UNL     1     -12.949  12.584  65.021  1.00  0.00     0.098 A  
HETATM   25  C   UNL     1     -11.706  11.987  64.814  1.00  0.00    -0.342 A  
HETATM   26  C   UNL     1     -10.499  12.646  65.142  1.00  0.00    -0.319 A  
BRANCH  26  27
HETATM   27  C   UNL     1      -9.269  11.937  64.807  1.00  0.00     0.276 A  
HETATM   28  N   UNL     1      -8.170  11.932  65.587  1.00  0.00     0.554 NA 
HETATM   29  N   UNL     1      -7.359  11.163  64.851  1.00  0.00    -0.002 NA 
HETATM   30  N   UNL     1      -7.862  10.709  63.701  1.00  0.00     0.018 NA 
HETATM   31  H   UNL     1      -6.410  10.938  65.151  1.00  0.00     0.000 HD 
HETATM   32  N   UNL     1      -9.102  11.177  63.673  1.00  0.00    -0.138 NA 
ENDBRANCH  26  27
ENDBRANCH  18  21
ENDBRANCH  14  15
ENDBRANCH  10  14
ENDBRANCH   4   5
ENDBRANCH   3   4
ENDBRANCH   2   3
TORSDOF 8
ENDMDL
MODEL      254
REMARK 921   NORMALIZED FREE ENERGY PREDICTED BY IDOCK:   -2.20 KCAL/MOL
REMARK 922        TOTAL FREE ENERGY PREDICTED BY IDOCK:   -4.25 KCAL/MOL
REMARK 923 INTER-LIGAND FREE ENERGY PREDICTED BY IDOCK:   -4.36 KCAL/MOL
REMARK 924 INTRA-LIGAND FREE ENERGY PREDICTED BY IDOCK:    0.10 KCAL/MOL
REMARK 927      BINDING AFFINITY PREDICTED BY RF-SCORE:    0.00 PKD
ROOT
HETATM    1  C   UNL     1     -11.052   6.093  68.060  1.00  0.00    -0.316 C  
HETATM    2  C   UNL     1     -10.402   7.466  68.107  1.00  0.00    -0.235 C  
ENDROOT
BRANCH   2   3
HETATM    3  C   UNL     1     -10.770   8.309  66.881  1.00  0.00    -0.179 C  
BRANCH   3   4
HETATM    4  C   UNL     1      -9.569   8.978  66.204  1.00  0.00    -0.341 C  
BRANCH   4   5
HETATM    5  C   UNL     1      -8.294   8.208  66.360  1.00  0.00    -0.115 A  
HETATM    6  N   UNL     1      -7.927   7.261  65.518  1.00  0.00    -0.115 NA 
HETATM    7  C   UNL     1      -6.727   6.793  65.958  1.00  0.00    -0.052 A  
HETATM    8 CL   UNL     1      -5.895   5.548  65.150  1.00  0.00    -0.021 Cl 
HETATM    9  C   UNL     1      -6.341   7.436  67.117  1.00  0.00    -0.055 A  
HETATM   10  N   UNL     1      -7.368   8.333  67.385  1.00  0.00    -0.091 NA 
BRANCH   9  11
HETATM   11  C   UNL     1      -5.135   7.219  67.942  1.00  0.00    -0.020 C  
HETATM   12  H   UNL     1      -4.793   6.720  69.771  1.00  0.00     0.000 HD 
HETATM   13  O   UNL     1      -5.569   6.859  69.241  1.00  0.00    -0.014 OA 
ENDBRANCH   9  11
BRANCH  10  14
HETATM   14  C   UNL     1      -7.560   9.071  68.633  1.00  0.00    -0.092 C  
BRANCH  14  15
HETATM   15  C   UNL     1      -8.062  10.481  68.461  1.00  0.00    -0.121 A  
HETATM   16  C   UNL     1      -7.296  11.435  67.786  1.00  0.00    -0.098 A  
HETATM   17  C   UNL     1      -7.777  12.737  67.587  1.00  0.00    -0.162 A  
HETATM   18  C   UNL     1      -9.008  13.162  68.112  1.00  0.00    -0.195 A  
HETATM   19  C   UNL     1      -9.784  12.180  68.754  1.00  0.00    -0.001 A  
HETATM   20  C   UNL     1      -9.328  10.864  68.915  1.00  0.00    -0.169 A  
BRANCH  18  21
HETATM   21  C   UNL     1      -9.484  14.572  68.005  1.00  0.00    -0.209 A  
HETATM   22  C   UNL     1     -10.829  14.804  67.624  1.00  0.00    -0.285 A  
HETATM   23  C   UNL     1     -11.369  16.091  67.513  1.00  0.00    -0.047 A  
HETATM   24  C   UNL     1     -10.571  17.196  67.755  1.00  0.00    -0.360 A  
HETATM   25  C   UNL     1      -9.237  17.006  68.110  1.00  0.00    -0.244 A  
HETATM   26  C   UNL     1      -8.682  15.714  68.260  1.00  0.00    -0.174 A  
BRANCH  26  27
HETATM   27  C   UNL     1      -7.294  15.659  68.704  1.00  0.00    -0.127 A  
HETATM   28  N   UNL     1      -6.297  16.369  68.139  1.00  0.00    -0.128 NA 
HETATM   29  N   UNL     1      -5.264  15.971  68.892  1.00  0.00    -0.106 NA 
HETATM   30  N   UNL     1      -5.543  15.087  69.853  1.00  0.00    -0.110 NA 
HETATM   31  H   UNL     1      -4.319  16.323  68.741  1.00  0.00     0.000 HD 
HETATM   32  N   UNL     1      -6.852  14.898  69.761  1.00  0.00    -0.176 NA 
ENDBRANCH  26  27
ENDBRANCH  18  21
ENDBRANCH  14  15
ENDBRANCH  10  14
ENDBRANCH   4   5
ENDBRANCH   3   4
ENDBRANCH   2   3
TORSDOF 8
ENDMDL
MODEL      255
REMARK 921   NORMALIZED FREE ENERGY PREDICTED BY IDOCK:   -2.12 KCAL/MOL
REMARK 922        TOTAL FREE ENERGY PREDICTED BY IDOCK:   -4.14 KCAL/MOL
REMARK 923 INTER-LIGAND FREE ENERGY PREDICTED BY IDOCK:   -4.39 KCAL/MOL
REMARK 924 INTRA-LIGAND FREE ENERGY PREDICTED BY IDOCK:    0.25 KCAL/MOL
REMARK 927      BINDING AFFINITY PREDICTED BY RF-SCORE:    0.00 PKD
ROOT
HETATM    1  C   UNL     1      -6.461   2.780  67.584  1.00  0.00    -0.036 C  
HETATM    2  C   UNL     1      -5.837   3.171  68.913  1.00  0.00    -0.023 C  
ENDROOT
BRANCH   2   3
HETATM    3  C   UNL     1      -5.811   4.691  69.102  1.00  0.00    -0.017 C  
BRANCH   3   4
HETATM    4  C   UNL     1      -7.139   5.381  68.769  1.00  0.00    -0.061 C  
BRANCH   4   5
HETATM    5  C   UNL     1      -7.085   6.202  67.518  1.00  0.00    -0.074 A  
HETATM    6  N   UNL     1      -5.999   6.295  66.774  1.00  0.00    -0.024 NA 
HETATM    7  C   UNL     1      -6.314   7.103  65.725  1.00  0.00    -0.044 A  
HETATM    8 CL   UNL     1      -5.182   7.491  64.515  1.00  0.00    -0.029 Cl 
HETATM    9  C   UNL     1      -7.615   7.554  65.823  1.00  0.00    -0.093 A  
HETATM   10  N   UNL     1      -8.101   6.988  66.995  1.00  0.00    -0.115 NA 
BRANCH   9  11
HETATM   11  C   UNL     1      -8.350   8.470  64.926  1.00  0.00    -0.160 C  
HETATM   12  H   UNL     1      -7.892  10.000  63.849  1.00  0.00     0.000 HD 
HETATM   13  O   UNL     1      -7.419   9.412  64.426  1.00  0.00    -0.103 OA 
ENDBRANCH   9  11
BRANCH  10  14
HETATM   14  C   UNL     1      -9.342   7.355  67.676  1.00  0.00    -0.133 C  
BRANCH  14  15
HETATM   15  C   UNL     1      -9.551   8.837  67.851  1.00  0.00    -0.169 A  
HETATM   16  C   UNL     1     -10.679   9.467  67.319  1.00  0.00    -0.269 A  
HETATM   17  C   UNL     1     -10.900  10.838  67.517  1.00  0.00    -0.342 A  
HETATM   18  C   UNL     1      -9.973  11.649  68.189  1.00  0.00    -0.198 A  
HETATM   19  C   UNL     1      -8.863  10.994  68.751  1.00  0.00    -0.149 A  
HETATM   20  C   UNL     1      -8.661   9.615  68.597  1.00  0.00    -0.120 A  
BRANCH  18  21
HETATM   21  C   UNL     1     -10.138  13.128  68.311  1.00  0.00    -0.247 A  
HETATM   22  C   UNL     1     -11.450  13.660  68.361  1.00  0.00    -0.346 A  
HETATM   23  C   UNL     1     -11.702  15.030  68.491  1.00  0.00    -0.345 A  
HETATM   24  C   UNL     1     -10.647  15.923  68.547  1.00  0.00    -0.263 A  
HETATM   25  C   UNL     1      -9.342  15.438  68.478  1.00  0.00    -0.198 A  
HETATM   26  C   UNL     1      -9.065  14.054  68.381  1.00  0.00    -0.191 A  
BRANCH  26  27
HETATM   27  C   UNL     1      -7.656  13.679  68.389  1.00  0.00    -0.132 A  
HETATM   28  N   UNL     1      -7.028  13.144  69.454  1.00  0.00     0.024 NA 
HETATM   29  N   UNL     1      -5.796  12.991  68.953  1.00  0.00    -0.073 NA 
HETATM   30  N   UNL     1      -5.621  13.388  67.691  1.00  0.00    -0.294 NA 
HETATM   31  H   UNL     1      -5.035  12.595  69.504  1.00  0.00     0.000 HD 
HETATM   32  N   UNL     1      -6.818  13.808  67.305  1.00  0.00    -0.165 NA 
ENDBRANCH  26  27
ENDBRANCH  18  21
ENDBRANCH  14  15
ENDBRANCH  10  14
ENDBRANCH   4   5
ENDBRANCH   3   4
ENDBRANCH   2   3
TORSDOF 8
ENDMDL
MODEL      256
REMARK 921   NORMALIZED FREE ENERGY PREDICTED BY IDOCK:   -2.04 KCAL/MOL
REMARK 922        TOTAL FREE ENERGY PREDICTED BY IDOCK:   -4.02 KCAL/MOL
REMARK 923 INTER-LIGAND FREE ENERGY PREDICTED BY IDOCK:   -3.01 KCAL/MOL
REMARK 924 INTRA-LIGAND FREE ENERGY PREDICTED BY IDOCK:   -1.01 KCAL/MOL
REMARK 927      BINDING AFFINITY PREDICTED BY RF-SCORE:    0.00 PKD
ROOT
HETATM    1  C   UNL     1     -10.556   4.878  67.037  1.00  0.00    -0.080 C  
HETATM    2  C   UNL     1     -10.863   5.927  68.093  1.00  0.00    -0.323 C  
ENDROOT
BRANCH   2   3
HETATM    3  C   UNL     1     -10.686   5.374  69.510  1.00  0.00    -0.249 C  
BRANCH   3   4
HETATM    4  C   UNL     1      -9.336   5.722  70.148  1.00  0.00    -0.184 C  
BRANCH   4   5
HETATM    5  C   UNL     1      -8.180   5.581  69.207  1.00  0.00    -0.095 A  
HETATM    6  N   UNL     1      -7.788   4.415  68.731  1.00  0.00    -0.070 NA 
HETATM    7  C   UNL     1      -6.732   4.666  67.908  1.00  0.00    -0.054 A  
HETATM    8 CL   UNL     1      -5.917   3.420  67.083  1.00  0.00    -0.023 Cl 
HETATM    9  C   UNL     1      -6.432   6.013  67.887  1.00  0.00    -0.046 A  
HETATM   10  N   UNL     1      -7.355   6.597  68.745  1.00  0.00    -0.088 NA 
BRANCH   9  11
HETATM   11  C   UNL     1      -5.353   6.712  67.160  1.00  0.00    -0.012 C  
HETATM   12  H   UNL     1      -4.658   6.677  65.363  1.00  0.00     0.000 HD 
HETATM   13  O   UNL     1      -5.352   6.226  65.830  1.00  0.00    -0.013 OA 
ENDBRANCH   9  11
BRANCH  10  14
HETATM   14  C   UNL     1      -7.304   7.964  69.261  1.00  0.00    -0.082 C  
BRANCH  14  15
HETATM   15  C   UNL     1      -8.188   8.946  68.537  1.00  0.00    -0.116 A  
HETATM   16  C   UNL     1      -7.647   9.859  67.627  1.00  0.00    -0.091 A  
HETATM   17  C   UNL     1      -8.471  10.745  66.919  1.00  0.00    -0.131 A  
HETATM   18  C   UNL     1      -9.856  10.807  67.139  1.00  0.00    -0.216 A  
HETATM   19  C   UNL     1     -10.390   9.857  68.027  1.00  0.00    -0.244 A  
HETATM   20  C   UNL     1      -9.576   8.936  68.703  1.00  0.00    -0.158 A  
BRANCH  18  21
HETATM   21  C   UNL     1     -10.731  11.819  66.477  1.00  0.00    -0.304 A  
HETATM   22  C   UNL     1     -11.501  11.418  65.357  1.00  0.00     0.028 A  
HETATM   23  C   UNL     1     -12.361  12.292  64.682  1.00  0.00    -0.449 A  
HETATM   24  C   UNL     1     -12.461  13.611  65.089  1.00  0.00    -0.488 A  
HETATM   25  C   UNL     1     -11.701  14.047  66.173  1.00  0.00    -0.395 A  
HETATM   26  C   UNL     1     -10.852  13.171  66.890  1.00  0.00    -0.278 A  
BRANCH  26  27
HETATM   27  C   UNL     1     -10.170  13.741  68.045  1.00  0.00    -0.248 A  
HETATM   28  N   UNL     1      -9.387  14.837  67.989  1.00  0.00    -0.192 NA 
HETATM   29  N   UNL     1      -9.020  14.934  69.273  1.00  0.00    -0.383 NA 
HETATM   30  N   UNL     1      -9.503  13.999  70.095  1.00  0.00     1.743 NA 
HETATM   31  H   UNL     1      -8.407  15.679  69.604  1.00  0.00     0.000 HD 
HETATM   32  N   UNL     1     -10.267  13.240  69.322  1.00  0.00     0.229 NA 
ENDBRANCH  26  27
ENDBRANCH  18  21
ENDBRANCH  14  15
ENDBRANCH  10  14
ENDBRANCH   4   5
ENDBRANCH   3   4
ENDBRANCH   2   3
TORSDOF 8
ENDMDL
MODEL      257
REMARK 921   NORMALIZED FREE ENERGY PREDICTED BY IDOCK:   -1.85 KCAL/MOL
REMARK 922        TOTAL FREE ENERGY PREDICTED BY IDOCK:   -3.75 KCAL/MOL
REMARK 923 INTER-LIGAND FREE ENERGY PREDICTED BY IDOCK:   -4.16 KCAL/MOL
REMARK 924 INTRA-LIGAND FREE ENERGY PREDICTED BY IDOCK:    0.41 KCAL/MOL
REMARK 927      BINDING AFFINITY PREDICTED BY RF-SCORE:    0.00 PKD
ROOT
HETATM    1  C   UNL     1      -9.387   9.150  70.800  1.00  0.00    -0.325 C  
HETATM    2  C   UNL     1     -10.662   8.920  71.594  1.00  0.00    -0.418 C  
ENDROOT
BRANCH   2   3
HETATM    3  C   UNL     1     -11.634   7.997  70.852  1.00  0.00    -0.284 C  
BRANCH   3   4
HETATM    4  C   UNL     1     -10.947   6.873  70.068  1.00  0.00    -0.320 C  
BRANCH   4   5
HETATM    5  C   UNL     1     -10.390   5.792  70.943  1.00  0.00    -0.237 A  
HETATM    6  N   UNL     1     -10.140   5.974  72.225  1.00  0.00    -0.179 NA 
HETATM    7  C   UNL     1      -9.661   4.791  72.699  1.00  0.00    -0.135 A  
HETATM    8 CL   UNL     1      -9.205   4.591  74.327  1.00  0.00    -0.112 Cl 
HETATM    9  C   UNL     1      -9.579   3.852  71.691  1.00  0.00    -0.162 A  
HETATM   10  N   UNL     1     -10.029   4.511  70.553  1.00  0.00    -0.223 NA 
BRANCH   9  11
HETATM   11  C   UNL     1      -9.087   2.461  71.755  1.00  0.00    -0.088 C  
HETATM   12  H   UNL     1      -7.374   1.619  72.023  1.00  0.00     0.000 HD 
HETATM   13  O   UNL     1      -7.690   2.515  71.981  1.00  0.00    -0.047 OA 
ENDBRANCH   9  11
BRANCH  10  14
HETATM   14  C   UNL     1      -9.902   4.034  69.177  1.00  0.00    -0.002 C  
BRANCH  14  15
HETATM   15  C   UNL     1      -9.348   5.046  68.207  1.00  0.00    -0.160 A  
HETATM   16  C   UNL     1     -10.186   5.699  67.300  1.00  0.00    -0.250 A  
HETATM   17  C   UNL     1      -9.683   6.673  66.425  1.00  0.00    -0.128 A  
HETATM   18  C   UNL     1      -8.316   6.984  66.369  1.00  0.00    -0.125 A  
HETATM   19  C   UNL     1      -7.492   6.347  67.314  1.00  0.00    -0.088 A  
HETATM   20  C   UNL     1      -7.998   5.407  68.223  1.00  0.00    -0.088 A  
BRANCH  18  21
HETATM   21  C   UNL     1      -7.747   7.935  65.368  1.00  0.00    -0.097 A  
HETATM   22  C   UNL     1      -7.764   9.320  65.667  1.00  0.00    -0.095 A  
HETATM   23  C   UNL     1      -7.240  10.284  64.798  1.00  0.00    -0.092 A  
HETATM   24  C   UNL     1      -6.704   9.897  63.583  1.00  0.00    -0.125 A  
HETATM   25  C   UNL     1      -6.691   8.544  63.245  1.00  0.00    -0.089 A  
HETATM   26  C   UNL     1      -7.184   7.552  64.124  1.00  0.00    -0.080 A  
BRANCH  26  27
HETATM   27  C   UNL     1      -7.045   6.171  63.676  1.00  0.00    -0.049 A  
HETATM   28  N   UNL     1      -7.120   5.105  64.497  1.00  0.00    -0.053 NA 
HETATM   29  N   UNL     1      -6.933   4.113  63.618  1.00  0.00    -0.044 NA 
HETATM   30  N   UNL     1      -6.749   4.480  62.348  1.00  0.00    -0.026 NA 
HETATM   31  H   UNL     1      -6.933   3.134  63.902  1.00  0.00     0.000 HD 
HETATM   32  N   UNL     1      -6.845   5.802  62.366  1.00  0.00    -0.038 NA 
ENDBRANCH  26  27
ENDBRANCH  18  21
ENDBRANCH  14  15
ENDBRANCH  10  14
ENDBRANCH   4   5
ENDBRANCH   3   4
ENDBRANCH   2   3
TORSDOF 8
ENDMDL
MODEL      258
REMARK 921   NORMALIZED FREE ENERGY PREDICTED BY IDOCK:   -1.65 KCAL/MOL
REMARK 922        TOTAL FREE ENERGY PREDICTED BY IDOCK:   -3.46 KCAL/MOL
REMARK 923 INTER-LIGAND FREE ENERGY PREDICTED BY IDOCK:   -2.92 KCAL/MOL
REMARK 924 INTRA-LIGAND FREE ENERGY PREDICTED BY IDOCK:   -0.53 KCAL/MOL
REMARK 927      BINDING AFFINITY PREDICTED BY RF-SCORE:    0.00 PKD
ROOT
HETATM    1  C   UNL     1     -10.936   8.822  68.099  1.00  0.00     0.084 C  
HETATM    2  C   UNL     1     -10.296   8.578  66.743  1.00  0.00    -0.346 C  
ENDROOT
BRANCH   2   3
HETATM    3  C   UNL     1      -9.501   7.268  66.719  1.00  0.00    -0.218 C  
BRANCH   3   4
HETATM    4  C   UNL     1      -8.383   7.200  67.766  1.00  0.00    -0.118 C  
BRANCH   4   5
HETATM    5  C   UNL     1      -7.662   5.888  67.781  1.00  0.00    -0.097 A  
HETATM    6  N   UNL     1      -7.789   4.996  66.818  1.00  0.00    -0.099 NA 
HETATM    7  C   UNL     1      -6.989   3.946  67.152  1.00  0.00    -0.062 A  
HETATM    8 CL   UNL     1      -6.861   2.562  66.170  1.00  0.00    -0.043 Cl 
HETATM    9  C   UNL     1      -6.368   4.166  68.365  1.00  0.00    -0.036 A  
HETATM   10  N   UNL     1      -6.823   5.412  68.778  1.00  0.00    -0.053 NA 
BRANCH   9  11
HETATM   11  C   UNL     1      -5.450   3.282  69.112  1.00  0.00    -0.017 C  
HETATM   12  H   UNL     1      -5.054   1.395  69.111  1.00  0.00     0.000 HD 
HETATM   13  O   UNL     1      -5.644   1.964  68.630  1.00  0.00    -0.017 OA 
ENDBRANCH   9  11
BRANCH  10  14
HETATM   14  C   UNL     1      -6.659   5.988  70.112  1.00  0.00    -0.040 C  
BRANCH  14  15
HETATM   15  C   UNL     1      -6.525   7.489  70.139  1.00  0.00    -0.034 A  
HETATM   16  C   UNL     1      -5.568   8.136  69.353  1.00  0.00    -0.030 A  
HETATM   17  C   UNL     1      -5.469   9.534  69.343  1.00  0.00    -0.035 A  
HETATM   18  C   UNL     1      -6.270  10.341  70.166  1.00  0.00    -0.099 A  
HETATM   19  C   UNL     1      -7.254   9.679  70.921  1.00  0.00    -0.009 A  
HETATM   20  C   UNL     1      -7.389   8.283  70.900  1.00  0.00    -0.059 A  
BRANCH  18  21
HETATM   21  C   UNL     1      -6.101  11.822  70.250  1.00  0.00    -0.116 A  
HETATM   22  C   UNL     1      -5.388  12.360  71.350  1.00  0.00    -0.028 A  
HETATM   23  C   UNL     1      -5.166  13.733  71.504  1.00  0.00    -0.188 A  
HETATM   24  C   UNL     1      -5.675  14.622  70.575  1.00  0.00    -0.155 A  
HETATM   25  C   UNL     1      -6.401  14.131  69.491  1.00  0.00    -0.120 A  
HETATM   26  C   UNL     1      -6.607  12.745  69.298  1.00  0.00    -0.086 A  
BRANCH  26  27
HETATM   27  C   UNL     1      -7.323  12.365  68.086  1.00  0.00    -0.111 A  
HETATM   28  N   UNL     1      -6.722  12.131  66.902  1.00  0.00    -0.063 NA 
HETATM   29  N   UNL     1      -7.787  11.828  66.150  1.00  0.00    -0.362 NA 
HETATM   30  N   UNL     1      -8.971  11.862  66.765  1.00  0.00    -0.192 NA 
HETATM   31  H   UNL     1      -7.699  11.585  65.163  1.00  0.00     0.000 HD 
HETATM   32  N   UNL     1      -8.684  12.180  68.020  1.00  0.00    -0.173 NA 
ENDBRANCH  26  27
ENDBRANCH  18  21
ENDBRANCH  14  15
ENDBRANCH  10  14
ENDBRANCH   4   5
ENDBRANCH   3   4
ENDBRANCH   2   3
TORSDOF 8
ENDMDL
MODEL      259
REMARK 921   NORMALIZED FREE ENERGY PREDICTED BY IDOCK:   -1.64 KCAL/MOL
REMARK 922        TOTAL FREE ENERGY PREDICTED BY IDOCK:   -3.43 KCAL/MOL
REMARK 923 INTER-LIGAND FREE ENERGY PREDICTED BY IDOCK:   -4.07 KCAL/MOL
REMARK 924 INTRA-LIGAND FREE ENERGY PREDICTED BY IDOCK:    0.63 KCAL/MOL
REMARK 927      BINDING AFFINITY PREDICTED BY RF-SCORE:    0.00 PKD
ROOT
HETATM    1  C   UNL     1     -11.513  19.393  68.327  1.00  0.00     1.450 C  
HETATM    2  C   UNL     1     -10.236  20.030  68.852  1.00  0.00    -0.348 C  
ENDROOT
BRANCH   2   3
HETATM    3  C   UNL     1      -9.617  20.986  67.827  1.00  0.00    -0.105 C  
BRANCH   3   4
HETATM    4  C   UNL     1      -9.551  20.415  66.406  1.00  0.00    -0.384 C  
BRANCH   4   5
HETATM    5  C   UNL     1      -8.182  19.948  66.017  1.00  0.00    -0.289 A  
HETATM    6  N   UNL     1      -7.522  20.453  64.993  1.00  0.00     0.002 NA 
HETATM    7  C   UNL     1      -6.325  19.807  64.945  1.00  0.00    -0.279 A  
HETATM    8 CL   UNL     1      -5.158  20.158  63.756  1.00  0.00    -0.198 Cl 
HETATM    9  C   UNL     1      -6.238  18.854  65.939  1.00  0.00    -0.204 A  
HETATM   10  N   UNL     1      -7.450  18.932  66.615  1.00  0.00    -0.221 NA 
BRANCH   9  11
HETATM   11  C   UNL     1      -5.139  17.910  66.228  1.00  0.00    -0.178 C  
HETATM   12  H   UNL     1      -4.715  16.690  67.659  1.00  0.00     0.000 HD 
HETATM   13  O   UNL     1      -5.422  17.297  67.473  1.00  0.00    -0.116 OA 
ENDBRANCH   9  11
BRANCH  10  14
HETATM   14  C   UNL     1      -7.955  17.966  67.589  1.00  0.00    -0.219 C  
BRANCH  14  15
HETATM   15  C   UNL     1      -8.689  16.793  66.992  1.00  0.00    -0.226 A  
HETATM   16  C   UNL     1      -9.699  16.988  66.046  1.00  0.00    -0.243 A  
HETATM   17  C   UNL     1     -10.355  15.898  65.456  1.00  0.00    -0.425 A  
HETATM   18  C   UNL     1     -10.082  14.574  65.835  1.00  0.00    -0.346 A  
HETATM   19  C   UNL     1      -9.037  14.393  66.758  1.00  0.00    -0.278 A  
HETATM   20  C   UNL     1      -8.345  15.478  67.317  1.00  0.00    -0.218 A  
BRANCH  18  21
HETATM   21  C   UNL     1     -10.847  13.410  65.299  1.00  0.00    -0.318 A  
HETATM   22  C   UNL     1     -11.856  13.651  64.334  1.00  0.00    -0.460 A  
HETATM   23  C   UNL     1     -12.614  12.622  63.764  1.00  0.00    -0.436 A  
HETATM   24  C   UNL     1     -12.407  11.313  64.161  1.00  0.00     0.695 A  
HETATM   25  C   UNL     1     -11.438  11.040  65.125  1.00  0.00     0.385 A  
HETATM   26  C   UNL     1     -10.638  12.062  65.689  1.00  0.00    -0.303 A  
BRANCH  26  27
HETATM   27  C   UNL     1      -9.615  11.629  66.633  1.00  0.00    -0.204 A  
HETATM   28  N   UNL     1      -9.806  11.560  67.966  1.00  0.00    -0.182 NA 
HETATM   29  N   UNL     1      -8.603  11.122  68.356  1.00  0.00    -0.146 NA 
HETATM   30  N   UNL     1      -7.706  10.925  67.388  1.00  0.00    -0.105 NA 
HETATM   31  H   UNL     1      -8.385  10.948  69.337  1.00  0.00     0.000 HD 
HETATM   32  N   UNL     1      -8.353  11.222  66.270  1.00  0.00    -0.165 NA 
ENDBRANCH  26  27
ENDBRANCH  18  21
ENDBRANCH  14  15
ENDBRANCH  10  14
ENDBRANCH   4   5
ENDBRANCH   3   4
ENDBRANCH   2   3
TORSDOF 8
ENDMDL
MODEL      260
REMARK 921   NORMALIZED FREE ENERGY PREDICTED BY IDOCK:   -1.54 KCAL/MOL
REMARK 922        TOTAL FREE ENERGY PREDICTED BY IDOCK:   -3.29 KCAL/MOL
REMARK 923 INTER-LIGAND FREE ENERGY PREDICTED BY IDOCK:   -2.59 KCAL/MOL
REMARK 924 INTRA-LIGAND FREE ENERGY PREDICTED BY IDOCK:   -0.69 KCAL/MOL
REMARK 927      BINDING AFFINITY PREDICTED BY RF-SCORE:    0.00 PKD
ROOT
HETATM    1  C   UNL     1     -11.576  19.399  68.378  1.00  0.00     2.106 C  
HETATM    2  C   UNL     1     -10.299  20.077  68.844  1.00  0.00    -0.256 C  
ENDROOT
BRANCH   2   3
HETATM    3  C   UNL     1      -9.559  20.752  67.684  1.00  0.00    -0.378 C  
BRANCH   3   4
HETATM    4  C   UNL     1      -9.466  19.889  66.421  1.00  0.00    -0.513 C  
BRANCH   4   5
HETATM    5  C   UNL     1      -8.142  19.205  66.266  1.00  0.00    -0.297 A  
HETATM    6  N   UNL     1      -7.472  19.202  65.130  1.00  0.00    -0.130 NA 
HETATM    7  C   UNL     1      -6.325  18.506  65.357  1.00  0.00    -0.271 A  
HETATM    8 CL   UNL     1      -5.164  18.259  64.137  1.00  0.00     0.025 Cl 
HETATM    9  C   UNL     1      -6.282  18.034  66.654  1.00  0.00    -0.173 A  
HETATM   10  N   UNL     1      -7.470  18.469  67.230  1.00  0.00    -0.217 NA 
BRANCH   9  11
HETATM   11  C   UNL     1      -5.245  17.211  67.309  1.00  0.00    -0.144 C  
HETATM   12  H   UNL     1      -5.038  15.343  67.735  1.00  0.00     0.000 HD 
HETATM   13  O   UNL     1      -5.706  15.872  67.314  1.00  0.00    -0.294 OA 
ENDBRANCH   9  11
BRANCH  10  14
HETATM   14  C   UNL     1      -8.019  18.020  68.508  1.00  0.00    -0.303 C  
BRANCH  14  15
HETATM   15  C   UNL     1      -8.640  16.648  68.482  1.00  0.00    -0.234 A  
HETATM   16  C   UNL     1      -8.812  15.918  69.661  1.00  0.00     0.010 A  
HETATM   17  C   UNL     1      -9.429  14.659  69.646  1.00  0.00     0.275 A  
HETATM   18  C   UNL     1      -9.835  14.045  68.450  1.00  0.00    -0.232 A  
HETATM   19  C   UNL     1      -9.690  14.807  67.278  1.00  0.00    -0.230 A  
HETATM   20  C   UNL     1      -9.116  16.087  67.293  1.00  0.00    -0.217 A  
BRANCH  18  21
HETATM   21  C   UNL     1     -10.390  12.660  68.405  1.00  0.00    -0.241 A  
HETATM   22  C   UNL     1     -11.783  12.484  68.594  1.00  0.00    -0.368 A  
HETATM   23  C   UNL     1     -12.395  11.226  68.553  1.00  0.00     0.302 A  
HETATM   24  C   UNL     1     -11.628  10.093  68.347  1.00  0.00     0.043 A  
HETATM   25  C   UNL     1     -10.251  10.226  68.180  1.00  0.00    -0.192 A  
HETATM   26  C   UNL     1      -9.618  11.490  68.184  1.00  0.00    -0.187 A  
BRANCH  26  27
HETATM   27  C   UNL     1      -8.182  11.490  67.927  1.00  0.00    -0.134 A  
HETATM   28  N   UNL     1      -7.600  10.809  66.921  1.00  0.00    -0.117 NA 
HETATM   29  N   UNL     1      -6.318  11.135  67.121  1.00  0.00    -0.074 NA 
HETATM   30  N   UNL     1      -6.072  11.943  68.154  1.00  0.00    -0.050 NA 
HETATM   31  H   UNL     1      -5.572  10.786  66.519  1.00  0.00     0.000 HD 
HETATM   32  N   UNL     1      -7.267  12.202  68.667  1.00  0.00    -0.106 NA 
ENDBRANCH  26  27
ENDBRANCH  18  21
ENDBRANCH  14  15
ENDBRANCH  10  14
ENDBRANCH   4   5
ENDBRANCH   3   4
ENDBRANCH   2   3
TORSDOF 8
ENDMDL
MODEL      261
REMARK 921   NORMALIZED FREE ENERGY PREDICTED BY IDOCK:   -1.53 KCAL/MOL
REMARK 922        TOTAL FREE ENERGY PREDICTED BY IDOCK:   -3.27 KCAL/MOL
REMARK 923 INTER-LIGAND FREE ENERGY PREDICTED BY IDOCK:   -4.30 KCAL/MOL
REMARK 924 INTRA-LIGAND FREE ENERGY PREDICTED BY IDOCK:    1.03 KCAL/MOL
REMARK 927      BINDING AFFINITY PREDICTED BY RF-SCORE:    0.00 PKD
ROOT
HETATM    1  C   UNL     1      -6.803  11.440  68.645  1.00  0.00    -0.078 C  
HETATM    2  C   UNL     1      -8.312  11.327  68.784  1.00  0.00    -0.120 C  
ENDROOT
BRANCH   2   3
HETATM    3  C   UNL     1      -8.708  10.486  70.003  1.00  0.00     0.442 C  
BRANCH   3   4
HETATM    4  C   UNL     1      -9.139   9.056  69.657  1.00  0.00    -0.155 C  
BRANCH   4   5
HETATM    5  C   UNL     1     -10.202   8.520  70.566  1.00  0.00    -0.194 A  
HETATM    6  N   UNL     1      -9.956   7.612  71.490  1.00  0.00    -0.173 NA 
HETATM    7  C   UNL     1     -11.135   7.374  72.126  1.00  0.00    -0.252 A  
HETATM    8 CL   UNL     1     -11.263   6.251  73.398  1.00  0.00    -0.059 Cl 
HETATM    9  C   UNL     1     -12.153   8.124  71.573  1.00  0.00    -0.298 A  
HETATM   10  N   UNL     1     -11.550   8.846  70.551  1.00  0.00    -0.213 NA 
BRANCH   9  11
HETATM   11  C   UNL     1     -13.587   8.152  71.931  1.00  0.00    -0.330 C  
HETATM   12  H   UNL     1     -14.604   8.646  73.492  1.00  0.00     0.000 HD 
HETATM   13  O   UNL     1     -13.682   8.628  73.262  1.00  0.00    -0.041 OA 
ENDBRANCH   9  11
BRANCH  10  14
HETATM   14  C   UNL     1     -12.242   9.596  69.504  1.00  0.00     0.774 C  
BRANCH  14  15
HETATM   15  C   UNL     1     -11.450   9.790  68.237  1.00  0.00     0.206 A  
HETATM   16  C   UNL     1     -11.009   8.691  67.495  1.00  0.00     0.090 A  
HETATM   17  C   UNL     1     -10.308   8.867  66.293  1.00  0.00    -0.079 A  
HETATM   18  C   UNL     1      -9.957  10.140  65.818  1.00  0.00    -0.339 A  
HETATM   19  C   UNL     1     -10.441  11.236  66.555  1.00  0.00    -0.299 A  
HETATM   20  C   UNL     1     -11.183  11.066  67.733  1.00  0.00    -0.374 A  
BRANCH  18  21
HETATM   21  C   UNL     1      -9.116  10.341  64.601  1.00  0.00    -0.265 A  
HETATM   22  C   UNL     1      -7.863   9.684  64.529  1.00  0.00    -0.134 A  
HETATM   23  C   UNL     1      -7.015   9.800  63.422  1.00  0.00    -0.118 A  
HETATM   24  C   UNL     1      -7.380  10.602  62.355  1.00  0.00    -0.150 A  
HETATM   25  C   UNL     1      -8.596  11.282  62.401  1.00  0.00    -0.227 A  
HETATM   26  C   UNL     1      -9.483  11.151  63.495  1.00  0.00    -0.295 A  
BRANCH  26  27
HETATM   27  C   UNL     1     -10.751  11.861  63.382  1.00  0.00    -0.413 A  
HETATM   28  N   UNL     1     -11.915  11.269  63.048  1.00  0.00     0.390 NA 
HETATM   29  N   UNL     1     -12.739  12.323  63.085  1.00  0.00    -0.797 NA 
HETATM   30  N   UNL     1     -12.182  13.493  63.403  1.00  0.00    -0.657 NA 
HETATM   31  H   UNL     1     -13.734  12.237  62.881  1.00  0.00     0.000 HD 
HETATM   32  N   UNL     1     -10.906  13.206  63.624  1.00  0.00    -0.143 NA 
ENDBRANCH  26  27
ENDBRANCH  18  21
ENDBRANCH  14  15
ENDBRANCH  10  14
ENDBRANCH   4   5
ENDBRANCH   3   4
ENDBRANCH   2   3
TORSDOF 8
ENDMDL
MODEL      262
REMARK 921   NORMALIZED FREE ENERGY PREDICTED BY IDOCK:   -1.31 KCAL/MOL
REMARK 922        TOTAL FREE ENERGY PREDICTED BY IDOCK:   -2.96 KCAL/MOL
REMARK 923 INTER-LIGAND FREE ENERGY PREDICTED BY IDOCK:   -3.65 KCAL/MOL
REMARK 924 INTRA-LIGAND FREE ENERGY PREDICTED BY IDOCK:    0.69 KCAL/MOL
REMARK 927      BINDING AFFINITY PREDICTED BY RF-SCORE:    0.00 PKD
ROOT
HETATM    1  C   UNL     1      -9.577  11.355  68.760  1.00  0.00    -0.139 C  
HETATM    2  C   UNL     1     -10.058  10.235  69.669  1.00  0.00    -0.257 C  
ENDROOT
BRANCH   2   3
HETATM    3  C   UNL     1      -9.716   8.855  69.097  1.00  0.00    -0.168 C  
BRANCH   3   4
HETATM    4  C   UNL     1     -10.534   7.710  69.707  1.00  0.00    -0.232 C  
BRANCH   4   5
HETATM    5  C   UNL     1      -9.856   7.051  70.869  1.00  0.00    -0.185 A  
HETATM    6  N   UNL     1      -9.305   7.734  71.853  1.00  0.00    -0.147 NA 
HETATM    7  C   UNL     1      -8.802   6.820  72.727  1.00  0.00    -0.121 A  
HETATM    8 CL   UNL     1      -7.996   7.285  74.152  1.00  0.00    -0.151 Cl 
HETATM    9  C   UNL     1      -9.012   5.534  72.272  1.00  0.00    -0.139 A  
HETATM   10  N   UNL     1      -9.673   5.689  71.060  1.00  0.00    -0.168 NA 
BRANCH   9  11
HETATM   11  C   UNL     1      -8.603   4.253  72.885  1.00  0.00    -0.101 C  
HETATM   12  H   UNL     1      -9.235   3.165  74.345  1.00  0.00     0.000 HD 
HETATM   13  O   UNL     1      -9.498   3.989  73.951  1.00  0.00    -0.098 OA 
ENDBRANCH   9  11
BRANCH  10  14
HETATM   14  C   UNL     1      -9.896   4.643  70.063  1.00  0.00    -0.224 C  
BRANCH  14  15
HETATM   15  C   UNL     1      -9.238   4.891  68.730  1.00  0.00    -0.162 A  
HETATM   16  C   UNL     1      -8.108   4.164  68.344  1.00  0.00    -0.080 A  
HETATM   17  C   UNL     1      -7.519   4.361  67.087  1.00  0.00    -0.078 A  
HETATM   18  C   UNL     1      -7.985   5.337  66.193  1.00  0.00    -0.104 A  
HETATM   19  C   UNL     1      -9.145   6.033  66.580  1.00  0.00    -0.153 A  
HETATM   20  C   UNL     1      -9.767   5.807  67.816  1.00  0.00    -0.130 A  
BRANCH  18  21
HETATM   21  C   UNL     1      -7.302   5.636  64.900  1.00  0.00    -0.071 A  
HETATM   22  C   UNL     1      -6.342   6.678  64.868  1.00  0.00    -0.038 A  
HETATM   23  C   UNL     1      -5.640   7.018  63.707  1.00  0.00    -0.032 A  
HETATM   24  C   UNL     1      -5.894   6.345  62.526  1.00  0.00    -0.027 A  
HETATM   25  C   UNL     1      -6.848   5.329  62.514  1.00  0.00    -0.026 A  
HETATM   26  C   UNL     1      -7.544   4.946  63.684  1.00  0.00    -0.065 A  
BRANCH  26  27
HETATM   27  C   UNL     1      -8.462   3.822  63.546  1.00  0.00    -0.092 A  
HETATM   28  N   UNL     1      -9.396   3.500  64.464  1.00  0.00    -0.138 NA 
HETATM   29  N   UNL     1      -9.949   2.432  63.876  1.00  0.00    -0.161 NA 
HETATM   30  N   UNL     1      -9.435   2.078  62.696  1.00  0.00    -0.090 NA 
HETATM   31  H   UNL     1     -10.720   1.919  64.304  1.00  0.00     0.000 HD 
HETATM   32  N   UNL     1      -8.494   2.982  62.458  1.00  0.00    -0.074 NA 
ENDBRANCH  26  27
ENDBRANCH  18  21
ENDBRANCH  14  15
ENDBRANCH  10  14
ENDBRANCH   4   5
ENDBRANCH   3   4
ENDBRANCH   2   3
TORSDOF 8
ENDMDL
MODEL      263
REMARK 921   NORMALIZED FREE ENERGY PREDICTED BY IDOCK:   -1.24 KCAL/MOL
REMARK 922        TOTAL FREE ENERGY PREDICTED BY IDOCK:   -2.85 KCAL/MOL
REMARK 923 INTER-LIGAND FREE ENERGY PREDICTED BY IDOCK:   -4.59 KCAL/MOL
REMARK 924 INTRA-LIGAND FREE ENERGY PREDICTED BY IDOCK:    1.74 KCAL/MOL
REMARK 927      BINDING AFFINITY PREDICTED BY RF-SCORE:    0.00 PKD
ROOT
HETATM    1  C   UNL     1      -6.317  16.400  68.387  1.00  0.00    -0.127 C  
HETATM    2  C   UNL     1      -5.664  15.032  68.281  1.00  0.00    -0.121 C  
ENDROOT
BRANCH   2   3
HETATM    3  C   UNL     1      -6.598  14.006  67.629  1.00  0.00    -0.175 C  
BRANCH   3   4
HETATM    4  C   UNL     1      -6.302  12.556  68.027  1.00  0.00    -0.087 C  
BRANCH   4   5
HETATM    5  C   UNL     1      -7.520  11.799  68.461  1.00  0.00    -0.110 A  
HETATM    6  N   UNL     1      -7.490  10.890  69.416  1.00  0.00    -0.127 NA 
HETATM    7  C   UNL     1      -8.762  10.425  69.550  1.00  0.00    -0.084 A  
HETATM    8 CL   UNL     1      -9.167   9.223  70.685  1.00  0.00    -0.303 Cl 
HETATM    9  C   UNL     1      -9.607  11.029  68.641  1.00  0.00    -0.195 A  
HETATM   10  N   UNL     1      -8.795  11.899  67.924  1.00  0.00    -0.164 NA 
BRANCH   9  11
HETATM   11  C   UNL     1     -11.049  10.799  68.419  1.00  0.00    -0.266 C  
HETATM   12  H   UNL     1     -12.627  10.792  69.526  1.00  0.00     0.000 HD 
HETATM   13  O   UNL     1     -11.699  10.939  69.670  1.00  0.00    -0.275 OA 
ENDBRANCH   9  11
BRANCH  10  14
HETATM   14  C   UNL     1      -9.156  12.586  66.685  1.00  0.00    -0.203 C  
BRANCH  14  15
HETATM   15  C   UNL     1      -9.282  14.083  66.807  1.00  0.00    -0.280 A  
HETATM   16  C   UNL     1      -8.781  14.926  65.811  1.00  0.00     0.889 A  
HETATM   17  C   UNL     1      -8.935  16.317  65.899  1.00  0.00    -0.222 A  
HETATM   18  C   UNL     1      -9.529  16.928  67.014  1.00  0.00    -0.251 A  
HETATM   19  C   UNL     1     -10.062  16.066  67.988  1.00  0.00    -0.240 A  
HETATM   20  C   UNL     1      -9.953  14.672  67.882  1.00  0.00    -0.221 A  
BRANCH  18  21
HETATM   21  C   UNL     1      -9.600  18.411  67.175  1.00  0.00    -0.299 A  
HETATM   22  C   UNL     1     -10.706  18.963  67.869  1.00  0.00    -0.362 A  
HETATM   23  C   UNL     1     -10.849  20.338  68.083  1.00  0.00     0.168 A  
HETATM   24  C   UNL     1      -9.902  21.215  67.585  1.00  0.00     0.035 A  
HETATM   25  C   UNL     1      -8.812  20.710  66.878  1.00  0.00    -0.231 A  
HETATM   26  C   UNL     1      -8.631  19.321  66.681  1.00  0.00    -0.339 A  
BRANCH  26  27
HETATM   27  C   UNL     1      -7.412  18.925  65.986  1.00  0.00    -0.244 A  
HETATM   28  N   UNL     1      -7.045  19.407  64.781  1.00  0.00    -0.124 NA 
HETATM   29  N   UNL     1      -5.894  18.747  64.602  1.00  0.00    -0.301 NA 
HETATM   30  N   UNL     1      -5.536  17.912  65.579  1.00  0.00    -0.145 NA 
HETATM   31  H   UNL     1      -5.324  18.876  63.766  1.00  0.00     0.000 HD 
HETATM   32  N   UNL     1      -6.491  18.037  66.490  1.00  0.00    -0.190 NA 
ENDBRANCH  26  27
ENDBRANCH  18  21
ENDBRANCH  14  15
ENDBRANCH  10  14
ENDBRANCH   4   5
ENDBRANCH   3   4
ENDBRANCH   2   3
TORSDOF 8
ENDMDL
MODEL      264
REMARK 921   NORMALIZED FREE ENERGY PREDICTED BY IDOCK:   -1.15 KCAL/MOL
REMARK 922        TOTAL FREE ENERGY PREDICTED BY IDOCK:   -2.71 KCAL/MOL
REMARK 923 INTER-LIGAND FREE ENERGY PREDICTED BY IDOCK:   -2.03 KCAL/MOL
REMARK 924 INTRA-LIGAND FREE ENERGY PREDICTED BY IDOCK:   -0.68 KCAL/MOL
REMARK 927      BINDING AFFINITY PREDICTED BY RF-SCORE:    0.00 PKD
ROOT
HETATM    1  C   UNL     1     -10.967   8.585  68.564  1.00  0.00     0.142 C  
HETATM    2  C   UNL     1     -11.174   7.929  67.209  1.00  0.00     0.541 C  
ENDROOT
BRANCH   2   3
HETATM    3  C   UNL     1     -10.369   6.631  67.079  1.00  0.00    -0.330 C  
BRANCH   3   4
HETATM    4  C   UNL     1      -8.850   6.839  67.099  1.00  0.00    -0.119 C  
BRANCH   4   5
HETATM    5  C   UNL     1      -8.081   5.649  66.612  1.00  0.00    -0.105 A  
HETATM    6  N   UNL     1      -8.647   4.660  65.947  1.00  0.00    -0.115 NA 
HETATM    7  C   UNL     1      -7.659   3.771  65.657  1.00  0.00    -0.081 A  
HETATM    8 CL   UNL     1      -7.964   2.332  64.800  1.00  0.00    -0.077 Cl 
HETATM    9  C   UNL     1      -6.450   4.191  66.174  1.00  0.00    -0.037 A  
HETATM   10  N   UNL     1      -6.732   5.393  66.810  1.00  0.00    -0.060 NA 
BRANCH   9  11
HETATM   11  C   UNL     1      -5.134   3.520  66.123  1.00  0.00    -0.008 C  
HETATM   12  H   UNL     1      -4.471   1.761  66.548  1.00  0.00     0.000 HD 
HETATM   13  O   UNL     1      -5.317   2.192  66.582  1.00  0.00    -0.011 OA 
ENDBRANCH   9  11
BRANCH  10  14
HETATM   14  C   UNL     1      -5.846   6.110  67.725  1.00  0.00    -0.016 C  
BRANCH  14  15
HETATM   15  C   UNL     1      -6.007   7.609  67.715  1.00  0.00    -0.040 A  
HETATM   16  C   UNL     1      -5.406   8.385  66.721  1.00  0.00    -0.032 A  
HETATM   17  C   UNL     1      -5.589   9.775  66.682  1.00  0.00    -0.046 A  
HETATM   18  C   UNL     1      -6.317  10.455  67.671  1.00  0.00    -0.057 A  
HETATM   19  C   UNL     1      -6.947   9.657  68.642  1.00  0.00    -0.064 A  
HETATM   20  C   UNL     1      -6.807   8.262  68.658  1.00  0.00    -0.063 A  
BRANCH  18  21
HETATM   21  C   UNL     1      -6.427  11.944  67.708  1.00  0.00    -0.084 A  
HETATM   22  C   UNL     1      -5.351  12.688  68.253  1.00  0.00    -0.065 A  
HETATM   23  C   UNL     1      -5.359  14.086  68.315  1.00  0.00    -0.112 A  
HETATM   24  C   UNL     1      -6.457  14.790  67.856  1.00  0.00    -0.176 A  
HETATM   25  C   UNL     1      -7.544  14.090  67.333  1.00  0.00    -0.167 A  
HETATM   26  C   UNL     1      -7.542  12.680  67.230  1.00  0.00    -0.121 A  
BRANCH  26  27
HETATM   27  C   UNL     1      -8.712  12.081  66.599  1.00  0.00    -0.171 A  
HETATM   28  N   UNL     1      -8.723  11.605  65.338  1.00  0.00     0.146 NA 
HETATM   29  N   UNL     1      -9.989  11.180  65.254  1.00  0.00    -0.245 NA 
HETATM   30  N   UNL     1     -10.743  11.359  66.341  1.00  0.00    -0.268 NA 
HETATM   31  H   UNL     1     -10.357  10.745  64.408  1.00  0.00     0.000 HD 
HETATM   32  N   UNL     1      -9.925  11.914  67.225  1.00  0.00    -0.186 NA 
ENDBRANCH  26  27
ENDBRANCH  18  21
ENDBRANCH  14  15
ENDBRANCH  10  14
ENDBRANCH   4   5
ENDBRANCH   3   4
ENDBRANCH   2   3
TORSDOF 8
ENDMDL
MODEL      265
REMARK 921   NORMALIZED FREE ENERGY PREDICTED BY IDOCK:   -1.03 KCAL/MOL
REMARK 922        TOTAL FREE ENERGY PREDICTED BY IDOCK:   -2.55 KCAL/MOL
REMARK 923 INTER-LIGAND FREE ENERGY PREDICTED BY IDOCK:   -2.05 KCAL/MOL
REMARK 924 INTRA-LIGAND FREE ENERGY PREDICTED BY IDOCK:   -0.50 KCAL/MOL
REMARK 927      BINDING AFFINITY PREDICTED BY RF-SCORE:    0.00 PKD
ROOT
HETATM    1  C   UNL     1     -11.580  11.907  63.586  1.00  0.00    -0.559 C  
HETATM    2  C   UNL     1     -10.452  10.987  63.148  1.00  0.00    -0.176 C  
ENDROOT
BRANCH   2   3
HETATM    3  C   UNL     1      -9.636  10.484  64.343  1.00  0.00    -0.357 C  
BRANCH   3   4
HETATM    4  C   UNL     1      -8.383  11.318  64.635  1.00  0.00     0.506 C  
BRANCH   4   5
HETATM    5  C   UNL     1      -8.512  12.175  65.857  1.00  0.00     0.482 A  
HETATM    6  N   UNL     1      -9.359  13.182  65.933  1.00  0.00    -0.012 NA 
HETATM    7  C   UNL     1      -9.214  13.719  67.176  1.00  0.00    -0.243 A  
HETATM    8 CL   UNL     1     -10.130  15.058  67.691  1.00  0.00    -0.230 Cl 
HETATM    9  C   UNL     1      -8.234  13.058  67.888  1.00  0.00    -0.166 A  
HETATM   10  N   UNL     1      -7.767  12.075  67.023  1.00  0.00    -0.153 NA 
BRANCH   9  11
HETATM   11  C   UNL     1      -7.734  13.329  69.251  1.00  0.00     0.418 C  
HETATM   12  H   UNL     1      -6.820  14.790  70.115  1.00  0.00     0.000 HD 
HETATM   13  O   UNL     1      -7.142  14.616  69.237  1.00  0.00    -0.133 OA 
ENDBRANCH   9  11
BRANCH  10  14
HETATM   14  C   UNL     1      -6.560  11.272  67.207  1.00  0.00    -0.093 C  
BRANCH  14  15
HETATM   15  C   UNL     1      -6.809   9.843  67.615  1.00  0.00    -0.084 A  
HETATM   16  C   UNL     1      -7.454   8.955  66.750  1.00  0.00    -0.083 A  
HETATM   17  C   UNL     1      -7.649   7.613  67.108  1.00  0.00    -0.104 A  
HETATM   18  C   UNL     1      -7.274   7.119  68.367  1.00  0.00    -0.091 A  
HETATM   19  C   UNL     1      -6.592   8.014  69.211  1.00  0.00    -0.036 A  
HETATM   20  C   UNL     1      -6.352   9.345  68.839  1.00  0.00    -0.043 A  
BRANCH  18  21
HETATM   21  C   UNL     1      -7.574   5.724  68.806  1.00  0.00    -0.089 A  
HETATM   22  C   UNL     1      -7.647   5.454  70.195  1.00  0.00    -0.073 A  
HETATM   23  C   UNL     1      -7.939   4.181  70.700  1.00  0.00    -0.055 A  
HETATM   24  C   UNL     1      -8.142   3.125  69.830  1.00  0.00    -0.058 A  
HETATM   25  C   UNL     1      -8.057   3.349  68.456  1.00  0.00    -0.073 A  
HETATM   26  C   UNL     1      -7.797   4.634  67.926  1.00  0.00    -0.082 A  
BRANCH  26  27
HETATM   27  C   UNL     1      -7.805   4.742  66.472  1.00  0.00    -0.099 A  
HETATM   28  N   UNL     1      -8.928   4.750  65.726  1.00  0.00    -0.133 NA 
HETATM   29  N   UNL     1      -8.400   4.864  64.501  1.00  0.00    -0.126 NA 
HETATM   30  N   UNL     1      -7.068   4.919  64.437  1.00  0.00    -0.050 NA 
HETATM   31  H   UNL     1      -8.983   4.906  63.665  1.00  0.00     0.000 HD 
HETATM   32  N   UNL     1      -6.672   4.869  65.702  1.00  0.00    -0.054 NA 
ENDBRANCH  26  27
ENDBRANCH  18  21
ENDBRANCH  14  15
ENDBRANCH  10  14
ENDBRANCH   4   5
ENDBRANCH   3   4
ENDBRANCH   2   3
TORSDOF 8
ENDMDL
MODEL      266
REMARK 921   NORMALIZED FREE ENERGY PREDICTED BY IDOCK:   -0.94 KCAL/MOL
REMARK 922        TOTAL FREE ENERGY PREDICTED BY IDOCK:   -2.40 KCAL/MOL
REMARK 923 INTER-LIGAND FREE ENERGY PREDICTED BY IDOCK:   -2.82 KCAL/MOL
REMARK 924 INTRA-LIGAND FREE ENERGY PREDICTED BY IDOCK:    0.42 KCAL/MOL
REMARK 927      BINDING AFFINITY PREDICTED BY RF-SCORE:    0.00 PKD
ROOT
HETATM    1  C   UNL     1     -10.847  12.803  63.390  1.00  0.00    -0.154 C  
HETATM    2  C   UNL     1      -9.613  11.952  63.145  1.00  0.00    -0.137 C  
ENDROOT
BRANCH   2   3
HETATM    3  C   UNL     1      -9.307  11.040  64.338  1.00  0.00    -0.223 C  
BRANCH   3   4
HETATM    4  C   UNL     1      -8.755  11.782  65.561  1.00  0.00     0.279 C  
BRANCH   4   5
HETATM    5  C   UNL     1      -9.773  11.987  66.641  1.00  0.00    -0.208 A  
HETATM    6  N   UNL     1     -10.693  12.929  66.582  1.00  0.00    -0.263 NA 
HETATM    7  C   UNL     1     -11.442  12.813  67.713  1.00  0.00    -0.326 A  
HETATM    8 CL   UNL     1     -12.750  13.852  68.038  1.00  0.00     0.578 Cl 
HETATM    9  C   UNL     1     -10.966  11.797  68.517  1.00  0.00    -0.227 A  
HETATM   10  N   UNL     1      -9.874  11.281  67.832  1.00  0.00    -0.172 NA 
BRANCH   9  11
HETATM   11  C   UNL     1     -11.455  11.354  69.839  1.00  0.00    -0.273 C  
HETATM   12  H   UNL     1     -12.882  10.221  70.468  1.00  0.00     0.000 HD 
HETATM   13  O   UNL     1     -12.568  10.506  69.618  1.00  0.00    -0.177 OA 
ENDBRANCH   9  11
BRANCH  10  14
HETATM   14  C   UNL     1      -8.876  10.360  68.373  1.00  0.00    -0.136 C  
BRANCH  14  15
HETATM   15  C   UNL     1      -8.844   9.005  67.714  1.00  0.00    -0.125 A  
HETATM   16  C   UNL     1      -8.457   8.869  66.379  1.00  0.00    -0.123 A  
HETATM   17  C   UNL     1      -8.384   7.606  65.774  1.00  0.00    -0.144 A  
HETATM   18  C   UNL     1      -8.762   6.436  66.452  1.00  0.00    -0.140 A  
HETATM   19  C   UNL     1      -9.113   6.585  67.805  1.00  0.00    -0.112 A  
HETATM   20  C   UNL     1      -9.142   7.841  68.429  1.00  0.00    -0.131 A  
BRANCH  18  21
HETATM   21  C   UNL     1      -8.798   5.098  65.790  1.00  0.00    -0.143 A  
HETATM   22  C   UNL     1      -9.636   4.096  66.337  1.00  0.00    -0.215 A  
HETATM   23  C   UNL     1      -9.747   2.819  65.775  1.00  0.00     0.272 A  
HETATM   24  C   UNL     1      -8.999   2.490  64.658  1.00  0.00    -0.119 A  
HETATM   25  C   UNL     1      -8.147   3.444  64.106  1.00  0.00    -0.086 A  
HETATM   26  C   UNL     1      -8.046   4.751  64.638  1.00  0.00    -0.107 A  
BRANCH  26  27
HETATM   27  C   UNL     1      -7.170   5.670  63.921  1.00  0.00    -0.054 A  
HETATM   28  N   UNL     1      -7.531   6.334  62.805  1.00  0.00    -0.060 NA 
HETATM   29  N   UNL     1      -6.407   7.017  62.559  1.00  0.00    -0.047 NA 
HETATM   30  N   UNL     1      -5.402   6.824  63.416  1.00  0.00    -0.027 NA 
HETATM   31  H   UNL     1      -6.323   7.648  61.762  1.00  0.00     0.000 HD 
HETATM   32  N   UNL     1      -5.889   5.979  64.315  1.00  0.00    -0.021 NA 
ENDBRANCH  26  27
ENDBRANCH  18  21
ENDBRANCH  14  15
ENDBRANCH  10  14
ENDBRANCH   4   5
ENDBRANCH   3   4
ENDBRANCH   2   3
TORSDOF 8
ENDMDL
MODEL      267
REMARK 921   NORMALIZED FREE ENERGY PREDICTED BY IDOCK:    0.10 KCAL/MOL
REMARK 922        TOTAL FREE ENERGY PREDICTED BY IDOCK:   -0.88 KCAL/MOL
REMARK 923 INTER-LIGAND FREE ENERGY PREDICTED BY IDOCK:   -3.09 KCAL/MOL
REMARK 924 INTRA-LIGAND FREE ENERGY PREDICTED BY IDOCK:    2.21 KCAL/MOL
REMARK 927      BINDING AFFINITY PREDICTED BY RF-SCORE:    0.00 PKD
ROOT
HETATM    1  C   UNL     1     -10.219   5.037  71.999  1.00  0.00    -0.262 C  
HETATM    2  C   UNL     1     -10.181   4.378  73.369  1.00  0.00    -0.221 C  
ENDROOT
BRANCH   2   3
HETATM    3  C   UNL     1      -9.796   5.376  74.466  1.00  0.00    -0.233 C  
BRANCH   3   4
HETATM    4  C   UNL     1     -10.274   6.808  74.199  1.00  0.00    -0.370 C  
BRANCH   4   5
HETATM    5  C   UNL     1      -9.202   7.699  73.651  1.00  0.00    -0.283 A  
HETATM    6  N   UNL     1      -8.249   8.212  74.404  1.00  0.00    -0.240 NA 
HETATM    7  C   UNL     1      -7.456   8.950  73.580  1.00  0.00     0.393 A  
HETATM    8 CL   UNL     1      -6.096   9.794  74.156  1.00  0.00     0.380 Cl 
HETATM    9  C   UNL     1      -7.935   8.927  72.285  1.00  0.00     0.239 A  
HETATM   10  N   UNL     1      -9.076   8.137  72.340  1.00  0.00    -0.192 NA 
BRANCH   9  11
HETATM   11  C   UNL     1      -7.405   9.612  71.087  1.00  0.00     0.261 C  
HETATM   12  H   UNL     1      -5.652   9.973  70.373  1.00  0.00     0.000 HD 
HETATM   13  O   UNL     1      -5.992   9.532  71.144  1.00  0.00    -0.069 OA 
ENDBRANCH   9  11
BRANCH  10  14
HETATM   14  C   UNL     1     -10.083   8.007  71.289  1.00  0.00    -0.185 C  
BRANCH  14  15
HETATM   15  C   UNL     1      -9.527   7.882  69.894  1.00  0.00    -0.160 A  
HETATM   16  C   UNL     1      -8.846   6.729  69.496  1.00  0.00    -0.139 A  
HETATM   17  C   UNL     1      -8.365   6.591  68.186  1.00  0.00    -0.116 A  
HETATM   18  C   UNL     1      -8.479   7.623  67.241  1.00  0.00    -0.121 A  
HETATM   19  C   UNL     1      -9.199   8.761  67.645  1.00  0.00    -0.148 A  
HETATM   20  C   UNL     1      -9.724   8.885  68.939  1.00  0.00    -0.173 A  
BRANCH  18  21
HETATM   21  C   UNL     1      -7.874   7.536  65.879  1.00  0.00    -0.107 A  
HETATM   22  C   UNL     1      -7.979   6.314  65.170  1.00  0.00    -0.115 A  
HETATM   23  C   UNL     1      -7.458   6.145  63.882  1.00  0.00    -0.078 A  
HETATM   24  C   UNL     1      -6.788   7.187  63.267  1.00  0.00    -0.053 A  
HETATM   25  C   UNL     1      -6.646   8.397  63.944  1.00  0.00    -0.075 A  
HETATM   26  C   UNL     1      -7.194   8.600  65.232  1.00  0.00    -0.083 A  
BRANCH  26  27
HETATM   27  C   UNL     1      -7.034   9.935  65.795  1.00  0.00    -0.109 A  
HETATM   28  N   UNL     1      -5.873  10.621  65.781  1.00  0.00    -0.126 NA 
HETATM   29  N   UNL     1      -6.253  11.745  66.399  1.00  0.00    -0.455 NA 
HETATM   30  N   UNL     1      -7.528  11.801  66.788  1.00  0.00    -0.102 NA 
HETATM   31  H   UNL     1      -5.605  12.516  66.564  1.00  0.00     0.000 HD 
HETATM   32  N   UNL     1      -8.051  10.652  66.381  1.00  0.00    -0.142 NA 
ENDBRANCH  26  27
ENDBRANCH  18  21
ENDBRANCH  14  15
ENDBRANCH  10  14
ENDBRANCH   4   5
ENDBRANCH   3   4
ENDBRANCH   2   3
TORSDOF 8
ENDMDL
MODEL      268
REMARK 921   NORMALIZED FREE ENERGY PREDICTED BY IDOCK:    1.16 KCAL/MOL
REMARK 922        TOTAL FREE ENERGY PREDICTED BY IDOCK:    0.67 KCAL/MOL
REMARK 923 INTER-LIGAND FREE ENERGY PREDICTED BY IDOCK:    1.15 KCAL/MOL
REMARK 924 INTRA-LIGAND FREE ENERGY PREDICTED BY IDOCK:   -0.48 KCAL/MOL
REMARK 927      BINDING AFFINITY PREDICTED BY RF-SCORE:    0.00 PKD
ROOT
HETATM    1  C   UNL     1      -6.993  15.649  68.846  1.00  0.00    -0.130 C  
HETATM    2  C   UNL     1      -6.862  14.213  68.365  1.00  0.00    -0.098 C  
ENDROOT
BRANCH   2   3
HETATM    3  C   UNL     1      -8.218  13.501  68.330  1.00  0.00    -0.141 C  
BRANCH   3   4
HETATM    4  C   UNL     1      -8.120  11.973  68.411  1.00  0.00    -0.154 C  
BRANCH   4   5
HETATM    5  C   UNL     1      -9.334  11.331  69.009  1.00  0.00     0.000 A  
HETATM    6  N   UNL     1      -9.387  10.943  70.268  1.00  0.00     1.225 NA 
HETATM    7  C   UNL     1     -10.629  10.422  70.463  1.00  0.00     0.070 A  
HETATM    8 CL   UNL     1     -11.117   9.795  71.968  1.00  0.00     0.325 Cl 
HETATM    9  C   UNL     1     -11.365  10.452  69.296  1.00  0.00    -0.235 A  
HETATM   10  N   UNL     1     -10.517  11.019  68.354  1.00  0.00    -0.171 NA 
BRANCH   9  11
HETATM   11  C   UNL     1     -12.738   9.962  69.051  1.00  0.00     2.391 C  
HETATM   12  H   UNL     1     -14.401   9.991  70.024  1.00  0.00     0.000 HD 
HETATM   13  O   UNL     1     -13.519  10.305  70.182  1.00  0.00     0.088 OA 
ENDBRANCH   9  11
BRANCH  10  14
HETATM   14  C   UNL     1     -10.731  11.042  66.908  1.00  0.00    -0.274 C  
BRANCH  14  15
HETATM   15  C   UNL     1      -9.911  10.044  66.132  1.00  0.00    -0.309 A  
HETATM   16  C   UNL     1      -9.441   8.878  66.741  1.00  0.00    -0.243 A  
HETATM   17  C   UNL     1      -8.714   7.926  66.012  1.00  0.00    -0.182 A  
HETATM   18  C   UNL     1      -8.365   8.129  64.668  1.00  0.00    -0.089 A  
HETATM   19  C   UNL     1      -8.877   9.288  64.059  1.00  0.00    -0.168 A  
HETATM   20  C   UNL     1      -9.645  10.221  64.771  1.00  0.00    -0.369 A  
BRANCH  18  21
HETATM   21  C   UNL     1      -7.497   7.180  63.909  1.00  0.00    -0.103 A  
HETATM   22  C   UNL     1      -6.204   7.609  63.521  1.00  0.00    -0.054 A  
HETATM   23  C   UNL     1      -5.316   6.784  62.822  1.00  0.00    -0.031 A  
HETATM   24  C   UNL     1      -5.701   5.505  62.463  1.00  0.00    -0.014 A  
HETATM   25  C   UNL     1      -6.975   5.056  62.808  1.00  0.00    -0.034 A  
HETATM   26  C   UNL     1      -7.875   5.862  63.544  1.00  0.00    -0.103 A  
BRANCH  26  27
HETATM   27  C   UNL     1      -9.147   5.243  63.899  1.00  0.00     0.271 A  
HETATM   28  N   UNL     1     -10.011   4.734  62.999  1.00  0.00     0.270 NA 
HETATM   29  N   UNL     1     -10.980   4.304  63.816  1.00  0.00    -0.387 NA 
HETATM   30  N   UNL     1     -10.785   4.510  65.120  1.00  0.00    -0.168 NA 
HETATM   31  H   UNL     1     -11.820   3.845  63.461  1.00  0.00     0.000 HD 
HETATM   32  N   UNL     1      -9.595   5.090  65.190  1.00  0.00    -0.031 NA 
ENDBRANCH  26  27
ENDBRANCH  18  21
ENDBRANCH  14  15
ENDBRANCH  10  14
ENDBRANCH   4   5
ENDBRANCH   3   4
ENDBRANCH   2   3
TORSDOF 8
ENDMDL
MODEL      269
REMARK 921   NORMALIZED FREE ENERGY PREDICTED BY IDOCK:    4.98 KCAL/MOL
REMARK 922        TOTAL FREE ENERGY PREDICTED BY IDOCK:    6.28 KCAL/MOL
REMARK 923 INTER-LIGAND FREE ENERGY PREDICTED BY IDOCK:    5.99 KCAL/MOL
REMARK 924 INTRA-LIGAND FREE ENERGY PREDICTED BY IDOCK:    0.28 KCAL/MOL
REMARK 927      BINDING AFFINITY PREDICTED BY RF-SCORE:    0.00 PKD
ROOT
HETATM    1  C   UNL     1     -10.889  13.248  63.293  1.00  0.00     0.875 C  
HETATM    2  C   UNL     1      -9.590  12.746  63.900  1.00  0.00     0.596 C  
ENDROOT
BRANCH   2   3
HETATM    3  C   UNL     1      -9.664  12.688  65.429  1.00  0.00    -0.076 C  
BRANCH   3   4
HETATM    4  C   UNL     1      -9.528  14.054  66.111  1.00  0.00    -0.210 C  
BRANCH   4   5
HETATM    5  C   UNL     1     -10.436  14.223  67.290  1.00  0.00    -0.269 A  
HETATM    6  N   UNL     1     -11.709  14.543  67.167  1.00  0.00    -0.392 NA 
HETATM    7  C   UNL     1     -12.220  14.597  68.427  1.00  0.00    -0.094 A  
HETATM    8 CL   UNL     1     -13.851  14.985  68.723  1.00  0.00     4.954 Cl 
HETATM    9  C   UNL     1     -11.243  14.336  69.367  1.00  0.00    -0.273 A  
HETATM   10  N   UNL     1     -10.087  14.118  68.628  1.00  0.00    -0.235 NA 
BRANCH   9  11
HETATM   11  C   UNL     1     -11.352  14.324  70.841  1.00  0.00     0.180 C  
HETATM   12  H   UNL     1     -10.789  15.488  72.270  1.00  0.00     0.000 HD 
HETATM   13  O   UNL     1     -10.718  15.496  71.322  1.00  0.00    -0.192 OA 
ENDBRANCH   9  11
BRANCH  10  14
HETATM   14  C   UNL     1      -8.727  14.051  69.161  1.00  0.00     0.295 C  
BRANCH  14  15
HETATM   15  C   UNL     1      -8.105  12.679  69.134  1.00  0.00     0.498 A  
HETATM   16  C   UNL     1      -8.380  11.790  68.091  1.00  0.00    -0.156 A  
HETATM   17  C   UNL     1      -7.770  10.529  68.039  1.00  0.00    -0.092 A  
HETATM   18  C   UNL     1      -6.919  10.074  69.058  1.00  0.00    -0.056 A  
HETATM   19  C   UNL     1      -6.622  10.993  70.080  1.00  0.00    -0.134 A  
HETATM   20  C   UNL     1      -7.192  12.274  70.112  1.00  0.00     1.425 A  
BRANCH  18  21
HETATM   21  C   UNL     1      -6.350   8.693  69.075  1.00  0.00    -0.044 A  
HETATM   22  C   UNL     1      -5.751   8.224  70.270  1.00  0.00    -0.021 A  
HETATM   23  C   UNL     1      -5.206   6.940  70.385  1.00  0.00    -0.019 A  
HETATM   24  C   UNL     1      -5.219   6.087  69.296  1.00  0.00    -0.004 A  
HETATM   25  C   UNL     1      -5.780   6.522  68.097  1.00  0.00    -0.012 A  
HETATM   26  C   UNL     1      -6.366   7.803  67.970  1.00  0.00    -0.050 A  
BRANCH  26  27
HETATM   27  C   UNL     1      -6.980   8.104  66.682  1.00  0.00    -0.072 A  
HETATM   28  N   UNL     1      -8.215   7.697  66.327  1.00  0.00    -0.114 NA 
HETATM   29  N   UNL     1      -8.293   8.219  65.097  1.00  0.00    -0.160 NA 
HETATM   30  N   UNL     1      -7.223   8.896  64.676  1.00  0.00    -0.094 NA 
HETATM   31  H   UNL     1      -9.123   8.106  64.515  1.00  0.00     0.000 HD 
HETATM   32  N   UNL     1      -6.379   8.853  65.698  1.00  0.00    -0.059 NA 
ENDBRANCH  26  27
ENDBRANCH  18  21
ENDBRANCH  14  15
ENDBRANCH  10  14
ENDBRANCH   4   5
ENDBRANCH   3   4
ENDBRANCH   2   3
TORSDOF 8
ENDMDL
MODEL      270
REMARK 921   NORMALIZED FREE ENERGY PREDICTED BY IDOCK:    5.62 KCAL/MOL
REMARK 922        TOTAL FREE ENERGY PREDICTED BY IDOCK:    7.23 KCAL/MOL
REMARK 923 INTER-LIGAND FREE ENERGY PREDICTED BY IDOCK:    3.87 KCAL/MOL
REMARK 924 INTRA-LIGAND FREE ENERGY PREDICTED BY IDOCK:    3.36 KCAL/MOL
REMARK 927      BINDING AFFINITY PREDICTED BY RF-SCORE:    0.00 PKD
ROOT
HETATM    1  C   UNL     1     -11.415  17.874  65.011  1.00  0.00     1.937 C  
HETATM    2  C   UNL     1     -10.903  19.095  65.757  1.00  0.00    -0.290 C  
ENDROOT
BRANCH   2   3
HETATM    3  C   UNL     1     -10.612  18.780  67.228  1.00  0.00    -0.504 C  
BRANCH   3   4
HETATM    4  C   UNL     1     -10.251  20.011  68.067  1.00  0.00    -0.538 C  
BRANCH   4   5
HETATM    5  C   UNL     1      -8.922  19.897  68.749  1.00  0.00    -0.055 A  
HETATM    6  N   UNL     1      -8.669  20.463  69.913  1.00  0.00     1.149 NA 
HETATM    7  C   UNL     1      -7.384  20.142  70.229  1.00  0.00     0.577 A  
HETATM    8 CL   UNL     1      -6.649  20.681  71.667  1.00  0.00     0.390 Cl 
HETATM    9  C   UNL     1      -6.805  19.384  69.232  1.00  0.00    -0.332 A  
HETATM   10  N   UNL     1      -7.795  19.247  68.267  1.00  0.00    -0.306 NA 
BRANCH   9  11
HETATM   11  C   UNL     1      -5.428  18.852  69.150  1.00  0.00    -0.203 C  
HETATM   12  H   UNL     1      -4.548  17.228  69.698  1.00  0.00     0.000 HD 
HETATM   13  O   UNL     1      -5.433  17.570  69.751  1.00  0.00    -0.190 OA 
ENDBRANCH   9  11
BRANCH  10  14
HETATM   14  C   UNL     1      -7.606  18.747  66.907  1.00  0.00    -0.227 C  
BRANCH  14  15
HETATM   15  C   UNL     1      -8.259  17.418  66.626  1.00  0.00    -0.290 A  
HETATM   16  C   UNL     1      -7.861  16.642  65.535  1.00  0.00     1.576 A  
HETATM   17  C   UNL     1      -8.436  15.386  65.296  1.00  0.00     2.989 A  
HETATM   18  C   UNL     1      -9.479  14.883  66.090  1.00  0.00    -0.328 A  
HETATM   19  C   UNL     1      -9.842  15.658  67.206  1.00  0.00    -0.225 A  
HETATM   20  C   UNL     1      -9.237  16.894  67.477  1.00  0.00    -0.223 A  
BRANCH  18  21
HETATM   21  C   UNL     1     -10.178  13.600  65.782  1.00  0.00    -0.317 A  
HETATM   22  C   UNL     1     -11.536  13.650  65.382  1.00  0.00    -0.334 A  
HETATM   23  C   UNL     1     -12.267  12.501  65.059  1.00  0.00    -0.519 A  
HETATM   24  C   UNL     1     -11.671  11.256  65.151  1.00  0.00     0.384 A  
HETATM   25  C   UNL     1     -10.343  11.167  65.563  1.00  0.00    -0.326 A  
HETATM   26  C   UNL     1      -9.576  12.318  65.861  1.00  0.00    -0.207 A  
BRANCH  26  27
HETATM   27  C   UNL     1      -8.180  12.086  66.211  1.00  0.00     0.204 A  
HETATM   28  N   UNL     1      -7.571  10.887  66.113  1.00  0.00    -0.142 NA 
HETATM   29  N   UNL     1      -6.343  11.208  66.539  1.00  0.00    -0.135 NA 
HETATM   30  N   UNL     1      -6.156  12.482  66.889  1.00  0.00    -0.193 NA 
HETATM   31  H   UNL     1      -5.594  10.518  66.593  1.00  0.00     0.000 HD 
HETATM   32  N   UNL     1      -7.324  13.066  66.656  1.00  0.00     0.548 NA 
ENDBRANCH  26  27
ENDBRANCH  18  21
ENDBRANCH  14  15
ENDBRANCH  10  14
ENDBRANCH   4   5
ENDBRANCH   3   4
ENDBRANCH   2   3
TORSDOF 8
ENDMDL
MODEL      271
REMARK 921   NORMALIZED FREE ENERGY PREDICTED BY IDOCK:    9.35 KCAL/MOL
REMARK 922        TOTAL FREE ENERGY PREDICTED BY IDOCK:   12.69 KCAL/MOL
REMARK 923 INTER-LIGAND FREE ENERGY PREDICTED BY IDOCK:   -3.90 KCAL/MOL
REMARK 924 INTRA-LIGAND FREE ENERGY PREDICTED BY IDOCK:   16.59 KCAL/MOL
REMARK 927      BINDING AFFINITY PREDICTED BY RF-SCORE:    0.00 PKD
ROOT
HETATM    1  C   UNL     1      -6.905  11.368  68.715  1.00  0.00    -0.082 C  
HETATM    2  C   UNL     1      -8.262  10.705  68.885  1.00  0.00    -0.145 C  
ENDROOT
BRANCH   2   3
HETATM    3  C   UNL     1      -8.343   9.906  70.190  1.00  0.00    -0.156 C  
BRANCH   3   4
HETATM    4  C   UNL     1      -7.932   8.436  70.045  1.00  0.00    -0.109 C  
BRANCH   4   5
HETATM    5  C   UNL     1      -8.427   7.568  71.160  1.00  0.00    -0.117 A  
HETATM    6  N   UNL     1      -7.620   7.024  72.050  1.00  0.00    -0.091 NA 
HETATM    7  C   UNL     1      -8.406   6.320  72.910  1.00  0.00    -0.118 A  
HETATM    8 CL   UNL     1      -7.756   5.453  74.222  1.00  0.00    -0.092 Cl 
HETATM    9  C   UNL     1      -9.733   6.396  72.539  1.00  0.00    -0.162 A  
HETATM   10  N   UNL     1      -9.739   7.184  71.394  1.00  0.00    -0.169 NA 
BRANCH   9  11
HETATM   11  C   UNL     1     -10.911   5.761  73.166  1.00  0.00    -0.276 C  
HETATM   12  H   UNL     1     -12.681   6.337  73.664  1.00  0.00     0.000 HD 
HETATM   13  O   UNL     1     -11.924   6.746  73.261  1.00  0.00     0.540 OA 
ENDBRANCH   9  11
BRANCH  10  14
HETATM   14  C   UNL     1     -10.863   7.357  70.476  1.00  0.00    -0.243 C  
BRANCH  14  15
HETATM   15  C   UNL     1     -10.533   8.102  69.208  1.00  0.00    -0.221 A  
HETATM   16  C   UNL     1      -9.811   9.298  69.249  1.00  0.00    -0.172 A  
HETATM   17  C   UNL     1      -9.465   9.972  68.069  1.00  0.00    -0.150 A  
HETATM   18  C   UNL     1      -9.883   9.522  66.807  1.00  0.00    -0.277 A  
HETATM   19  C   UNL     1     -10.576   8.299  66.780  1.00  0.00    -0.226 A  
HETATM   20  C   UNL     1     -10.884   7.596  67.953  1.00  0.00    -0.105 A  
BRANCH  18  21
HETATM   21  C   UNL     1      -9.620  10.287  65.553  1.00  0.00    -0.299 A  
HETATM   22  C   UNL     1     -10.096  11.618  65.460  1.00  0.00    -0.285 A  
HETATM   23  C   UNL     1      -9.883  12.416  64.330  1.00  0.00    -0.116 A  
HETATM   24  C   UNL     1      -9.206  11.900  63.240  1.00  0.00     0.175 A  
HETATM   25  C   UNL     1      -8.742  10.587  63.287  1.00  0.00    -0.195 A  
HETATM   26  C   UNL     1      -8.917   9.775  64.431  1.00  0.00    -0.284 A  
BRANCH  26  27
HETATM   27  C   UNL     1      -8.321   8.446  64.373  1.00  0.00    -0.097 A  
HETATM   28  N   UNL     1      -8.232   7.616  65.432  1.00  0.00    -0.132 NA 
HETATM   29  N   UNL     1      -7.627   6.567  64.862  1.00  0.00    -0.090 NA 
HETATM   30  N   UNL     1      -7.339   6.687  63.565  1.00  0.00    -0.065 NA 
HETATM   31  H   UNL     1      -7.399   5.724  65.390  1.00  0.00     0.000 HD 
HETATM   32  N   UNL     1      -7.805   7.882  63.229  1.00  0.00    -0.139 NA 
ENDBRANCH  26  27
ENDBRANCH  18  21
ENDBRANCH  14  15
ENDBRANCH  10  14
ENDBRANCH   4   5
ENDBRANCH   3   4
ENDBRANCH   2   3
TORSDOF 8
ENDMDL
MODEL      272
REMARK 921   NORMALIZED FREE ENERGY PREDICTED BY IDOCK:    9.61 KCAL/MOL
REMARK 922        TOTAL FREE ENERGY PREDICTED BY IDOCK:   13.07 KCAL/MOL
REMARK 923 INTER-LIGAND FREE ENERGY PREDICTED BY IDOCK:   12.18 KCAL/MOL
REMARK 924 INTRA-LIGAND FREE ENERGY PREDICTED BY IDOCK:    0.89 KCAL/MOL
REMARK 927      BINDING AFFINITY PREDICTED BY RF-SCORE:    0.00 PKD
ROOT
HETATM    1  C   UNL     1     -10.788  15.120  63.912  1.00  0.00     1.405 C  
HETATM    2  C   UNL     1      -9.489  14.650  64.545  1.00  0.00     2.197 C  
ENDROOT
BRANCH   2   3
HETATM    3  C   UNL     1      -9.585  14.607  66.074  1.00  0.00    -0.322 C  
BRANCH   3   4
HETATM    4  C   UNL     1      -9.483  15.984  66.741  1.00  0.00    -0.250 C  
BRANCH   4   5
HETATM    5  C   UNL     1     -10.421  16.156  67.895  1.00  0.00    -0.290 A  
HETATM    6  N   UNL     1     -11.695  16.459  67.737  1.00  0.00     0.195 NA 
HETATM    7  C   UNL     1     -12.238  16.522  68.984  1.00  0.00     0.920 A  
HETATM    8 CL   UNL     1     -13.879  16.894  69.235  1.00  0.00     6.809 Cl 
HETATM    9  C   UNL     1     -11.282  16.283  69.950  1.00  0.00    -0.317 A  
HETATM   10  N   UNL     1     -10.105  16.070  69.243  1.00  0.00    -0.234 NA 
BRANCH   9  11
HETATM   11  C   UNL     1     -11.427  16.287  71.421  1.00  0.00    -0.297 C  
HETATM   12  H   UNL     1     -10.634  15.312  72.883  1.00  0.00     0.000 HD 
HETATM   13  O   UNL     1     -10.540  15.309  71.937  1.00  0.00     0.182 OA 
ENDBRANCH   9  11
BRANCH  10  14
HETATM   14  C   UNL     1      -8.758  16.025  69.809  1.00  0.00     0.296 C  
BRANCH  14  15
HETATM   15  C   UNL     1      -8.123  14.658  69.818  1.00  0.00     0.283 A  
HETATM   16  C   UNL     1      -8.361  13.752  68.782  1.00  0.00     0.014 A  
HETATM   17  C   UNL     1      -7.738  12.496  68.763  1.00  0.00     0.003 A  
HETATM   18  C   UNL     1      -6.909  12.064  69.810  1.00  0.00     0.164 A  
HETATM   19  C   UNL     1      -6.647  13.001  70.826  1.00  0.00     1.204 A  
HETATM   20  C   UNL     1      -7.231  14.276  70.825  1.00  0.00     1.204 A  
BRANCH  18  21
HETATM   21  C   UNL     1      -6.328  10.690  69.862  1.00  0.00    -0.110 A  
HETATM   22  C   UNL     1      -5.754  10.244  71.078  1.00  0.00    -0.068 A  
HETATM   23  C   UNL     1      -5.201   8.967  71.225  1.00  0.00    -0.037 A  
HETATM   24  C   UNL     1      -5.177   8.098  70.149  1.00  0.00    -0.023 A  
HETATM   25  C   UNL     1      -5.711   8.511  68.929  1.00  0.00    -0.040 A  
HETATM   26  C   UNL     1      -6.306   9.785  68.769  1.00  0.00    -0.046 A  
BRANCH  26  27
HETATM   27  C   UNL     1      -6.890  10.061  67.462  1.00  0.00    -0.081 A  
HETATM   28  N   UNL     1      -6.163  10.295  66.351  1.00  0.00    -0.071 NA 
HETATM   29  N   UNL     1      -7.145  10.483  65.460  1.00  0.00    -0.248 NA 
HETATM   30  N   UNL     1      -8.391  10.389  65.929  1.00  0.00    -0.146 NA 
HETATM   31  H   UNL     1      -6.951  10.685  64.479  1.00  0.00     0.000 HD 
HETATM   32  N   UNL     1      -8.242  10.090  67.212  1.00  0.00    -0.117 NA 
ENDBRANCH  26  27
ENDBRANCH  18  21
ENDBRANCH  14  15
ENDBRANCH  10  14
ENDBRANCH   4   5
ENDBRANCH   3   4
ENDBRANCH   2   3
TORSDOF 8
ENDMDL
MODEL      273
REMARK 921   NORMALIZED FREE ENERGY PREDICTED BY IDOCK:   10.76 KCAL/MOL
REMARK 922        TOTAL FREE ENERGY PREDICTED BY IDOCK:   14.77 KCAL/MOL
REMARK 923 INTER-LIGAND FREE ENERGY PREDICTED BY IDOCK:   11.07 KCAL/MOL
REMARK 924 INTRA-LIGAND FREE ENERGY PREDICTED BY IDOCK:    3.69 KCAL/MOL
REMARK 927      BINDING AFFINITY PREDICTED BY RF-SCORE:    0.00 PKD
ROOT
HETATM    1  C   UNL     1      -8.672  10.785  68.757  1.00  0.00    -0.163 C  
HETATM    2  C   UNL     1      -9.258   9.484  69.280  1.00  0.00    -0.169 C  
ENDROOT
BRANCH   2   3
HETATM    3  C   UNL     1      -8.876   8.294  68.393  1.00  0.00    -0.137 C  
BRANCH   3   4
HETATM    4  C   UNL     1      -7.934   8.656  67.239  1.00  0.00    -0.101 C  
BRANCH   4   5
HETATM    5  C   UNL     1      -8.439   8.216  65.900  1.00  0.00    -0.142 A  
HETATM    6  N   UNL     1      -9.471   8.783  65.307  1.00  0.00     0.034 NA 
HETATM    7  C   UNL     1      -9.636   8.143  64.116  1.00  0.00     2.657 A  
HETATM    8 CL   UNL     1     -10.875   8.568  63.029  1.00  0.00     9.493 Cl 
HETATM    9  C   UNL     1      -8.709   7.132  63.968  1.00  0.00     0.681 A  
HETATM   10  N   UNL     1      -7.952   7.167  65.132  1.00  0.00    -0.124 NA 
BRANCH   9  11
HETATM   11  C   UNL     1      -8.550   6.175  62.853  1.00  0.00     0.219 C  
HETATM   12  H   UNL     1      -7.077   5.549  61.779  1.00  0.00     0.000 HD 
HETATM   13  O   UNL     1      -7.179   6.165  62.495  1.00  0.00    -0.047 OA 
ENDBRANCH   9  11
BRANCH  10  14
HETATM   14  C   UNL     1      -7.008   6.143  65.575  1.00  0.00    -0.060 C  
BRANCH  14  15
HETATM   15  C   UNL     1      -6.853   6.032  67.070  1.00  0.00    -0.063 A  
HETATM   16  C   UNL     1      -5.724   6.548  67.711  1.00  0.00    -0.012 A  
HETATM   17  C   UNL     1      -5.595   6.485  69.106  1.00  0.00    -0.017 A  
HETATM   18  C   UNL     1      -6.550   5.844  69.912  1.00  0.00    -0.050 A  
HETATM   19  C   UNL     1      -7.697   5.364  69.256  1.00  0.00    -0.085 A  
HETATM   20  C   UNL     1      -7.853   5.466  67.866  1.00  0.00    -0.092 A  
BRANCH  18  21
HETATM   21  C   UNL     1      -6.374   5.670  71.384  1.00  0.00    -0.043 A  
HETATM   22  C   UNL     1      -5.659   4.539  71.850  1.00  0.00    -0.008 A  
HETATM   23  C   UNL     1      -5.431   4.301  73.210  1.00  0.00    -0.007 A  
HETATM   24  C   UNL     1      -5.934   5.176  74.156  1.00  0.00    -0.050 A  
HETATM   25  C   UNL     1      -6.662   6.288  73.736  1.00  0.00    -0.075 A  
HETATM   26  C   UNL     1      -6.875   6.564  72.365  1.00  0.00    -0.068 A  
BRANCH  26  27
HETATM   27  C   UNL     1      -7.591   7.798  72.063  1.00  0.00    -0.081 A  
HETATM   28  N   UNL     1      -8.871   8.028  72.418  1.00  0.00    -0.154 NA 
HETATM   29  N   UNL     1      -9.038   9.259  71.920  1.00  0.00    -0.192 NA 
HETATM   30  N   UNL     1      -7.985   9.790  71.296  1.00  0.00     0.083 NA 
HETATM   31  H   UNL     1      -9.920   9.763  72.013  1.00  0.00     0.000 HD 
HETATM   32  N   UNL     1      -7.036   8.870  71.404  1.00  0.00    -0.153 NA 
ENDBRANCH  26  27
ENDBRANCH  18  21
ENDBRANCH  14  15
ENDBRANCH  10  14
ENDBRANCH   4   5
ENDBRANCH   3   4
ENDBRANCH   2   3
TORSDOF 8
ENDMDL
MODEL      274
REMARK 921   NORMALIZED FREE ENERGY PREDICTED BY IDOCK:   11.01 KCAL/MOL
REMARK 922        TOTAL FREE ENERGY PREDICTED BY IDOCK:   15.13 KCAL/MOL
REMARK 923 INTER-LIGAND FREE ENERGY PREDICTED BY IDOCK:    8.00 KCAL/MOL
REMARK 924 INTRA-LIGAND FREE ENERGY PREDICTED BY IDOCK:    7.13 KCAL/MOL
REMARK 927      BINDING AFFINITY PREDICTED BY RF-SCORE:    0.00 PKD
ROOT
HETATM    1  C   UNL     1      -8.806  18.520  68.584  1.00  0.00    -0.325 C  
HETATM    2  C   UNL     1      -8.967  17.102  69.106  1.00  0.00    -0.014 C  
ENDROOT
BRANCH   2   3
HETATM    3  C   UNL     1      -9.230  16.107  67.970  1.00  0.00    -0.195 C  
BRANCH   3   4
HETATM    4  C   UNL     1     -10.703  15.706  67.824  1.00  0.00    -0.297 C  
BRANCH   4   5
HETATM    5  C   UNL     1     -11.023  15.098  66.494  1.00  0.00    -0.318 A  
HETATM    6  N   UNL     1     -12.003  15.537  65.728  1.00  0.00     0.412 NA 
HETATM    7  C   UNL     1     -11.996  14.767  64.606  1.00  0.00    -0.440 A  
HETATM    8 CL   UNL     1     -13.115  15.001  63.345  1.00  0.00     1.859 Cl 
HETATM    9  C   UNL     1     -11.010  13.803  64.676  1.00  0.00    -0.400 A  
HETATM   10  N   UNL     1     -10.400  14.006  65.908  1.00  0.00    -0.308 NA 
BRANCH   9  11
HETATM   11  C   UNL     1     -10.675  12.745  63.700  1.00  0.00    -0.291 C  
HETATM   12  H   UNL     1     -11.676  11.477  62.649  1.00  0.00     0.000 HD 
HETATM   13  O   UNL     1     -11.892  12.157  63.277  1.00  0.00    -0.436 OA 
ENDBRANCH   9  11
BRANCH  10  14
HETATM   14  C   UNL     1      -9.468  13.092  66.565  1.00  0.00    -0.245 C  
BRANCH  14  15
HETATM   15  C   UNL     1      -9.396  11.716  65.955  1.00  0.00    -0.232 A  
HETATM   16  C   UNL     1      -9.581  11.532  64.582  1.00  0.00    -0.186 A  
HETATM   17  C   UNL     1      -9.472  10.259  64.004  1.00  0.00    -0.356 A  
HETATM   18  C   UNL     1      -9.246   9.110  64.777  1.00  0.00    -0.085 A  
HETATM   19  C   UNL     1      -9.023   9.316  66.150  1.00  0.00    -0.202 A  
HETATM   20  C   UNL     1      -9.084  10.592  66.727  1.00  0.00    -0.167 A  
BRANCH  18  21
HETATM   21  C   UNL     1      -9.239   7.736  64.192  1.00  0.00     1.653 A  
HETATM   22  C   UNL     1     -10.023   7.489  63.038  1.00  0.00     5.701 A  
HETATM   23  C   UNL     1     -10.066   6.238  62.412  1.00  0.00     2.887 A  
HETATM   24  C   UNL     1      -9.345   5.180  62.936  1.00  0.00     0.284 A  
HETATM   25  C   UNL     1      -8.580   5.380  64.083  1.00  0.00    -0.034 A  
HETATM   26  C   UNL     1      -8.496   6.645  64.712  1.00  0.00     0.073 A  
BRANCH  26  27
HETATM   27  C   UNL     1      -7.604   6.732  65.862  1.00  0.00    -0.087 A  
HETATM   28  N   UNL     1      -6.264   6.607  65.784  1.00  0.00    -0.036 NA 
HETATM   29  N   UNL     1      -5.934   6.762  67.071  1.00  0.00    -0.021 NA 
HETATM   30  N   UNL     1      -6.946   6.964  67.918  1.00  0.00    -0.080 NA 
HETATM   31  H   UNL     1      -4.965   6.729  67.388  1.00  0.00     0.000 HD 
HETATM   32  N   UNL     1      -8.026   6.974  67.148  1.00  0.00    -0.112 NA 
ENDBRANCH  26  27
ENDBRANCH  18  21
ENDBRANCH  14  15
ENDBRANCH  10  14
ENDBRANCH   4   5
ENDBRANCH   3   4
ENDBRANCH   2   3
TORSDOF 8
ENDMDL
MODEL      275
REMARK 921   NORMALIZED FREE ENERGY PREDICTED BY IDOCK:   32.31 KCAL/MOL
REMARK 922        TOTAL FREE ENERGY PREDICTED BY IDOCK:   46.39 KCAL/MOL
REMARK 923 INTER-LIGAND FREE ENERGY PREDICTED BY IDOCK:   20.80 KCAL/MOL
REMARK 924 INTRA-LIGAND FREE ENERGY PREDICTED BY IDOCK:   25.59 KCAL/MOL
REMARK 927      BINDING AFFINITY PREDICTED BY RF-SCORE:    0.00 PKD
ROOT
HETATM    1  C   UNL     1     -13.018  10.607  71.759  1.00  0.00    -0.577 C  
HETATM    2  C   UNL     1     -12.721  12.035  72.186  1.00  0.00     0.071 C  
ENDROOT
BRANCH   2   3
HETATM    3  C   UNL     1     -11.255  12.406  71.939  1.00  0.00     5.558 C  
BRANCH   3   4
HETATM    4  C   UNL     1     -10.333  11.198  71.735  1.00  0.00     7.312 C  
BRANCH   4   5
HETATM    5  C   UNL     1     -11.076   9.913  71.530  1.00  0.00     0.002 A  
HETATM    6  N   UNL     1     -10.496   8.733  71.629  1.00  0.00    -0.289 NA 
HETATM    7  C   UNL     1     -11.463   7.803  71.395  1.00  0.00    -0.260 A  
HETATM    8 CL   UNL     1     -11.134   6.134  71.424  1.00  0.00    -0.335 Cl 
HETATM    9  C   UNL     1     -12.670   8.409  71.112  1.00  0.00    -0.110 A  
HETATM   10  N   UNL     1     -12.410   9.772  71.178  1.00  0.00    -0.337 NA 
BRANCH   9  11
HETATM   11  C   UNL     1     -13.965   7.784  70.770  1.00  0.00     0.444 C  
HETATM   12  H   UNL     1     -15.160   7.839  69.259  1.00  0.00     0.000 HD 
HETATM   13  O   UNL     1     -14.328   8.241  69.479  1.00  0.00     4.560 OA 
ENDBRANCH   9  11
BRANCH  10  14
HETATM   14  C   UNL     1     -13.295  10.839  70.713  1.00  0.00     0.146 C  
BRANCH  14  15
HETATM   15  C   UNL     1     -12.780  11.615  69.529  1.00  0.00     0.393 A  
HETATM   16  C   UNL     1     -11.866  11.042  68.641  1.00  0.00    -0.318 A  
HETATM   17  C   UNL     1     -11.417  11.745  67.514  1.00  0.00    -0.373 A  
HETATM   18  C   UNL     1     -11.805  13.071  67.263  1.00  0.00    -0.419 A  
HETATM   19  C   UNL     1     -12.754  13.620  68.144  1.00  0.00     0.989 A  
HETATM   20  C   UNL     1     -13.242  12.904  69.247  1.00  0.00     2.369 A  
BRANCH  18  21
HETATM   21  C   UNL     1     -11.251  13.871  66.131  1.00  0.00    -0.303 A  
HETATM   22  C   UNL     1     -11.230  13.289  64.840  1.00  0.00    -0.338 A  
HETATM   23  C   UNL     1     -10.745  13.968  63.716  1.00  0.00     1.093 A  
HETATM   24  C   UNL     1     -10.236  15.248  63.851  1.00  0.00     3.411 A  
HETATM   25  C   UNL     1     -10.220  15.844  65.111  1.00  0.00    -0.198 A  
HETATM   26  C   UNL     1     -10.736  15.188  66.253  1.00  0.00    -0.320 A  
BRANCH  26  27
HETATM   27  C   UNL     1     -10.722  15.952  67.494  1.00  0.00    -0.318 A  
HETATM   28  N   UNL     1     -11.769  16.032  68.339  1.00  0.00    -0.294 NA 
HETATM   29  N   UNL     1     -11.253  16.824  69.285  1.00  0.00    -0.276 NA 
HETATM   30  N   UNL     1      -9.998  17.234  69.090  1.00  0.00    -0.252 NA 
HETATM   31  H   UNL     1     -11.788  17.100  70.109  1.00  0.00     0.000 HD 
HETATM   32  N   UNL     1      -9.634  16.657  67.953  1.00  0.00    -0.231 NA 
ENDBRANCH  26  27
ENDBRANCH  18  21
ENDBRANCH  14  15
ENDBRANCH  10  14
ENDBRANCH   4   5
ENDBRANCH   3   4
ENDBRANCH   2   3
TORSDOF 8
ENDMDL
MODEL      276
REMARK 921   NORMALIZED FREE ENERGY PREDICTED BY IDOCK:   36.53 KCAL/MOL
REMARK 922        TOTAL FREE ENERGY PREDICTED BY IDOCK:   52.58 KCAL/MOL
REMARK 923 INTER-LIGAND FREE ENERGY PREDICTED BY IDOCK:   53.22 KCAL/MOL
REMARK 924 INTRA-LIGAND FREE ENERGY PREDICTED BY IDOCK:   -0.64 KCAL/MOL
REMARK 927      BINDING AFFINITY PREDICTED BY RF-SCORE:    0.00 PKD
ROOT
HETATM    1  C   UNL     1     -10.066  15.816  64.743  1.00  0.00     0.447 C  
HETATM    2  C   UNL     1      -8.859  15.279  65.495  1.00  0.00     0.984 C  
ENDROOT
BRANCH   2   3
HETATM    3  C   UNL     1      -9.093  15.268  67.009  1.00  0.00    -0.245 C  
BRANCH   3   4
HETATM    4  C   UNL     1      -8.998  16.651  67.663  1.00  0.00    -0.206 C  
BRANCH   4   5
HETATM    5  C   UNL     1     -10.081  16.910  68.665  1.00  0.00    -0.291 A  
HETATM    6  N   UNL     1     -11.277  17.348  68.323  1.00  0.00    -0.006 NA 
HETATM    7  C   UNL     1     -11.995  17.456  69.474  1.00  0.00     3.310 A  
HETATM    8 CL   UNL     1     -13.609  17.997  69.482  1.00  0.00    15.946 Cl 
HETATM    9  C   UNL     1     -11.229  17.108  70.568  1.00  0.00     0.959 A  
HETATM   10  N   UNL     1      -9.986  16.778  70.043  1.00  0.00     0.352 NA 
BRANCH   9  11
HETATM   11  C   UNL     1     -11.597  17.112  71.999  1.00  0.00     1.022 C  
HETATM   12  H   UNL     1     -11.537  18.402  73.430  1.00  0.00     0.000 HD 
HETATM   13  O   UNL     1     -11.300  18.400  72.510  1.00  0.00     2.001 OA 
ENDBRANCH   9  11
BRANCH  10  14
HETATM   14  C   UNL     1      -8.754  16.585  70.806  1.00  0.00     4.113 C  
BRANCH  14  15
HETATM   15  C   UNL     1      -8.290  15.155  70.905  1.00  0.00     2.364 A  
HETATM   16  C   UNL     1      -8.462  14.272  69.836  1.00  0.00     1.023 A  
HETATM   17  C   UNL     1      -7.993  12.952  69.908  1.00  0.00     2.083 A  
HETATM   18  C   UNL     1      -7.399  12.439  71.071  1.00  0.00     5.200 A  
HETATM   19  C   UNL     1      -7.198  13.349  72.124  1.00  0.00     6.412 A  
HETATM   20  C   UNL     1      -7.623  14.683  72.040  1.00  0.00     4.208 A  
BRANCH  18  21
HETATM   21  C   UNL     1      -6.996  11.007  71.204  1.00  0.00     2.341 A  
HETATM   22  C   UNL     1      -5.685  10.713  71.653  1.00  0.00     0.319 A  
HETATM   23  C   UNL     1      -5.224   9.403  71.822  1.00  0.00    -0.068 A  
HETATM   24  C   UNL     1      -6.053   8.336  71.523  1.00  0.00    -0.040 A  
HETATM   25  C   UNL     1      -7.343   8.588  71.057  1.00  0.00    -0.074 A  
HETATM   26  C   UNL     1      -7.839   9.904  70.911  1.00  0.00     0.514 A  
BRANCH  26  27
HETATM   27  C   UNL     1      -9.228  10.022  70.483  1.00  0.00     0.327 A  
HETATM   28  N   UNL     1     -10.251  10.285  71.320  1.00  0.00     0.957 NA 
HETATM   29  N   UNL     1     -11.272  10.289  70.455  1.00  0.00    -0.315 NA 
HETATM   30  N   UNL     1     -10.963  10.050  69.179  1.00  0.00    -0.228 NA 
HETATM   31  H   UNL     1     -12.231  10.466  70.753  1.00  0.00     0.000 HD 
HETATM   32  N   UNL     1      -9.645   9.903  69.178  1.00  0.00    -0.187 NA 
ENDBRANCH  26  27
ENDBRANCH  18  21
ENDBRANCH  14  15
ENDBRANCH  10  14
ENDBRANCH   4   5
ENDBRANCH   3   4
ENDBRANCH   2   3
TORSDOF 8
ENDMDL
